#------------------------------------------------------------------------------
#$Date: 2025-08-18 17:20:24 +0300 (Mon, 18 Aug 2025) $
#$Revision: 301776 $
#$URL: file:///home/coder/svn-repositories/cod/cif/1/51/68/1516811.cif $
#------------------------------------------------------------------------------
#
# This file is available in the Crystallography Open Database (COD),
# http://www.crystallography.net/
#
# All data on this site have been placed in the public domain by the
# contributors.
#
data_1516811
loop_
_publ_author_name
'Gao, Run-Duo'
'Liu, Chuan'
'Dai, Li-Xin'
'Zhang, Wei'
'You, Shu-Li'
_publ_section_title
;
 Pd(0)-Catalyzed Alkenylation and Allylic Dearomatization Reactions
 between Nucleophile-Bearing Indoles and Propargyl Carbonate.
;
_journal_issue                   15
_journal_name_full               'Organic letters'
_journal_page_first              3919
_journal_page_last               3921
_journal_paper_doi               10.1021/ol501704q
_journal_volume                  16
_journal_year                    2014
_chemical_absolute_configuration ad
_chemical_formula_sum            'C20 H22 Br N O5'
_chemical_formula_weight         436.29
_space_group_crystal_system      monoclinic
_space_group_IT_number           4
_space_group_name_Hall           'P 2yb'
_space_group_name_H-M_alt        'P 1 21 1'
_symmetry_space_group_name_Hall  'P 2yb'
_symmetry_space_group_name_H-M   'P 1 21 1'
_atom_sites_solution_hydrogens   geom
_audit_creation_method           SHELXL-2013
_cell_angle_alpha                90
_cell_angle_beta                 106.962(3)
_cell_angle_gamma                90
_cell_formula_units_Z            2
_cell_length_a                   6.9109(11)
_cell_length_b                   13.975(2)
_cell_length_c                   10.4052(16)
_cell_measurement_reflns_used    1572
_cell_measurement_temperature    293(2)
_cell_measurement_theta_max      41.893
_cell_measurement_theta_min      5.023
_cell_volume                     961.2(3)
_computing_cell_refinement       'Bruker SMART'
_computing_data_collection       'Bruker SMART'
_computing_data_reduction        'Bruker SHELXTL'
_computing_molecular_graphics    'Bruker SHELXTL'
_computing_publication_material  'Bruker SHELXTL'
_computing_structure_refinement  'SHELXL-2013 (Sheldrick, 2013)'
_computing_structure_solution    'Bruker SHELXTL'
_diffrn_ambient_temperature      293(2)
_diffrn_measured_fraction_theta_full 0.996
_diffrn_measured_fraction_theta_max 0.996
_diffrn_measurement_device_type  'CCD area detector'
_diffrn_measurement_method       'phi and omega scans'
_diffrn_radiation_type           MoK\a
_diffrn_radiation_wavelength     0.71073
_diffrn_reflns_av_R_equivalents  0.0307
_diffrn_reflns_av_unetI/netI     0.0671
_diffrn_reflns_Laue_measured_fraction_full 0.996
_diffrn_reflns_Laue_measured_fraction_max 0.996
_diffrn_reflns_limit_h_max       8
_diffrn_reflns_limit_h_min       -8
_diffrn_reflns_limit_k_max       16
_diffrn_reflns_limit_k_min       -15
_diffrn_reflns_limit_l_max       10
_diffrn_reflns_limit_l_min       -12
_diffrn_reflns_number            5535
_diffrn_reflns_point_group_measured_fraction_full 0.940
_diffrn_reflns_point_group_measured_fraction_max 0.939
_diffrn_reflns_theta_full        25.242
_diffrn_reflns_theta_max         25.488
_diffrn_reflns_theta_min         2.046
_exptl_absorpt_coefficient_mu    2.169
_exptl_absorpt_correction_T_max  0.7457
_exptl_absorpt_correction_T_min  0.6265
_exptl_absorpt_correction_type   multi-scan
_exptl_absorpt_process_details   sadabs
_exptl_crystal_colour            colorless
_exptl_crystal_density_diffrn    1.507
_exptl_crystal_description       prismatic
_exptl_crystal_F_000             448
_exptl_crystal_size_max          0.156
_exptl_crystal_size_mid          0.131
_exptl_crystal_size_min          0.110
_refine_diff_density_max         1.146
_refine_diff_density_min         -0.293
_refine_diff_density_rms         0.097
_refine_ls_abs_structure_details
; 
 Flack x determined using 1054 quotients [(I+)-(I-)]/[(I+)+(I-)] 
 (Parsons and Flack (2004), Acta Cryst. A60, s61). 
;
_refine_ls_abs_structure_Flack   0.145(10)
_refine_ls_extinction_method     none
_refine_ls_goodness_of_fit_ref   1.039
_refine_ls_hydrogen_treatment    constr
_refine_ls_matrix_type           full
_refine_ls_number_parameters     247
_refine_ls_number_reflns         3357
_refine_ls_number_restraints     1
_refine_ls_restrained_S_all      1.038
_refine_ls_R_factor_all          0.0672
_refine_ls_R_factor_gt           0.0567
_refine_ls_shift/su_max          0.000
_refine_ls_shift/su_mean         0.000
_refine_ls_structure_factor_coef Fsqd
_refine_ls_weighting_details
'w=1/[\s^2^(Fo^2^)+(0.0937P)^2^] where P=(Fo^2^+2Fc^2^)/3'
_refine_ls_weighting_scheme      calc
_refine_ls_wR_factor_gt          0.1459
_refine_ls_wR_factor_ref         0.1530
_reflns_Friedel_coverage         0.805
_reflns_Friedel_fraction_full    0.878
_reflns_Friedel_fraction_max     0.876
_reflns_number_gt                2778
_reflns_number_total             3357
_reflns_threshold_expression     'I > 2\s(I)'
_cod_data_source_file            ol501704q_si_002.cif
_cod_data_source_block           cd214384
_cod_depositor_comments          'Adding full bibliography for 1516811.cif.'
_cod_original_cell_volume        961.3(3)
_cod_database_code               1516811
#BEGIN Tags that were not found in dictionaries:
_shelx_space_group_comment
; 
The symmetry employed for this shelxl refinement is uniquely defined 
by the following loop, which should always be used as a source of 
symmetry information in preference to the above space-group names. 
They are only intended as comments. 
;
_shelxl_version_number           2013-4
_shelx_res_file
; 
TITL cd214384 in P2(1) 
CELL 0.71073   6.9109  13.9755  10.4052  90.000 106.962  90.000 
ZERR    2.00   0.0011   0.0023   0.0016   0.000   0.003   0.000 
LATT -1 
SYMM -X, 0.5+Y, -Z 
SFAC C  H  N  O  Br 
UNIT 40 44 2 10 2 
OMIT  -3.00  51.00 
L.S. 10 
ACTA 
BOND $H 
FMAP 2 
PLAN 20 
wpdb -1 
mpla c1 > c6 
htab 
conf 
WGHT    0.093700 
FVAR       0.25148 
MOLE 1 
BR1   5    1.454569    0.063094   -0.142928    11.00000    0.07109    0.07378 = 
         0.05090    0.00002    0.02889    0.00058 
N1    3    0.816435   -0.084345    0.092913    11.00000    0.06353    0.02714 = 
         0.04445   -0.00084    0.01437   -0.00542 
O1    4    0.671909   -0.209383   -0.033702    11.00000    0.08937    0.04964 = 
         0.07153   -0.02240    0.01378   -0.02637 
O2    4    0.917133    0.134610    0.629639    11.00000    0.08188    0.06229 = 
         0.06785    0.00594    0.04501    0.00709 
O3    4    1.011106    0.284864    0.617656    11.00000    0.14025    0.07679 = 
         0.09501   -0.04314    0.07654   -0.03539 
O4    4    1.413859    0.221652    0.530046    11.00000    0.04408    0.08552 = 
         0.06301    0.00988    0.00259   -0.00171 
O5    4    1.187670    0.320082    0.395801    11.00000    0.06077    0.04584 = 
         0.06055    0.01014    0.00077   -0.00739 
C1    1    0.958692   -0.059437    0.027641    11.00000    0.05268    0.03227 = 
         0.03454   -0.00156    0.00402    0.00346 
C2    1    0.995757   -0.100787   -0.083828    11.00000    0.07416    0.03807 = 
         0.03874   -0.01224    0.00244    0.00086 
AFIX  43 
H2    2    0.921216   -0.153643   -0.124843    11.00000   -1.20000 
AFIX   0 
C3    1    1.142450   -0.063500   -0.133218    11.00000    0.07081    0.05331 = 
         0.03096   -0.01107    0.00859    0.01027 
AFIX  43 
H3    2    1.167663   -0.090792   -0.208259    11.00000   -1.20000 
AFIX   0 
C4    1    1.250639    0.012942   -0.072992    11.00000    0.06125    0.05245 = 
         0.03855    0.00512    0.02157    0.01249 
C5    1    1.221937    0.056136    0.040788    11.00000    0.05127    0.04274 = 
         0.03678   -0.01114    0.01213    0.00044 
AFIX  43 
H5    2    1.298342    0.108662    0.081191    11.00000   -1.20000 
AFIX   0 
C6    1    1.073884    0.017088    0.091065    11.00000    0.05645    0.03402 = 
         0.02951   -0.00334    0.01251    0.00663 
C7    1    0.835513   -0.018116    0.209476    11.00000    0.06249    0.03654 = 
         0.05373   -0.00990    0.02534   -0.01233 
AFIX  23 
H7A   2    0.862570   -0.053937    0.292694    11.00000   -1.20000 
H7B   2    0.712034    0.018355    0.197268    11.00000   -1.20000 
AFIX   0 
C8    1    1.014026    0.048884    0.212254    11.00000    0.05174    0.03320 = 
         0.03149   -0.00368    0.01462    0.00051 
C9    1    1.186974    0.035784    0.340821    11.00000    0.06002    0.03414 = 
         0.03716    0.00381    0.01433    0.01208 
AFIX  23 
H9A   2    1.303570    0.071390    0.333135    11.00000   -1.20000 
H9B   2    1.224030   -0.031346    0.350588    11.00000   -1.20000 
AFIX   0 
C10   1    1.135097    0.068878    0.466717    11.00000    0.05123    0.04615 = 
         0.03235    0.00303    0.01188    0.00339 
AFIX  23 
H10A  2    1.253868    0.062939    0.543894    11.00000   -1.20000 
H10B  2    1.030358    0.027901    0.481550    11.00000   -1.20000 
AFIX   0 
C11   1    1.061092    0.173999    0.454013    11.00000    0.04731    0.04020 = 
         0.02549   -0.00131    0.01139   -0.00017 
C12   1    0.896877    0.186444    0.324832    11.00000    0.04680    0.03126 = 
         0.03485    0.00127    0.01235    0.00052 
C13   1    0.950683    0.153224    0.201677    11.00000    0.04749    0.03462 = 
         0.02973   -0.00135    0.00693    0.00260 
AFIX  23 
H13A  2    1.060369    0.192230    0.189914    11.00000   -1.20000 
H13B  2    0.834819    0.161804    0.123194    11.00000   -1.20000 
AFIX   0 
C14   1    0.712772    0.217157    0.317315    11.00000    0.05538    0.07222 = 
         0.04627   -0.00731    0.00736    0.00862 
AFIX  93 
H14A  2    0.679620    0.232373    0.395315    11.00000   -1.20000 
H14B  2    0.616538    0.223525    0.234034    11.00000   -1.20000 
AFIX   0 
C15   1    0.677926   -0.156829    0.057588    11.00000    0.05659    0.03918 = 
         0.04543   -0.00053   -0.00390   -0.00256 
C16   1    0.533671   -0.166892    0.140608    11.00000    0.05601    0.04814 = 
         0.06467    0.01127    0.00888   -0.00755 
AFIX 137 
H16A  2    0.446553   -0.220787    0.109265    11.00000   -1.50000 
H16B  2    0.453597   -0.109850    0.132475    11.00000   -1.50000 
H16C  2    0.608793   -0.176463    0.233070    11.00000   -1.50000 
AFIX   0 
C17   1    0.994605    0.205306    0.575941    11.00000    0.05027    0.05111 = 
         0.04277   -0.00653    0.01342   -0.00465 
MOLE 2 
C18   1    0.853077    0.162875    0.745852    11.00000    0.07495    0.09645 = 
         0.06024    0.00963    0.04202    0.01349 
AFIX 137 
H18A  2    0.931881    0.216670    0.789144    11.00000   -1.50000 
H18B  2    0.872640    0.110408    0.807882    11.00000   -1.50000 
H18C  2    0.712540    0.180153    0.717034    11.00000   -1.50000 
AFIX   0 
MOLE 1 
C19   1    1.243387    0.239364    0.463812    11.00000    0.04898    0.05353 = 
         0.03611   -0.01056    0.01477   -0.00116 
MOLE 2 
C20   1    1.339677    0.392228    0.407320    11.00000    0.07674    0.06464 = 
         0.10810    0.00368    0.01804   -0.02512 
AFIX 137 
H20A  2    1.425560    0.394591    0.498294    11.00000   -1.50000 
H20B  2    1.275830    0.453285    0.383046    11.00000   -1.50000 
H20C  2    1.419287    0.377050    0.348323    11.00000   -1.50000 
AFIX   0 
HKLF 4 
  
REM  cd214384 in P2(1) 
REM R1 =  0.0567 for    2778 Fo > 4sig(Fo)  and  0.0672 for all    3357 data 
REM    247 parameters refined using      1 restraints 
  
END 
  
WGHT      0.0942      0.0000 
  
REM Instructions for potential hydrogen bonds 
HTAB C2 O1 
EQIV $1 -x+2, y+1/2, -z 
HTAB C5 O1_$1 
EQIV $2 -x+2, y-1/2, -z+1 
HTAB C7 O3_$2 
EQIV $3 -x+2, y-1/2, -z 
HTAB C16 Br1_$3 
EQIV $4 x-1, y, z+1 
HTAB C18 Br1_$4 
EQIV $5 x-1, y, z 
HTAB C18 O4_$5 
  
REM Highest difference peak  1.146,  deepest hole -0.293,  1-sigma level  0.097 
Q1    1   1.6082  0.0618 -0.1490  11.00000  0.05    1.15 
Q2    1   1.2904  0.0627 -0.1318  11.00000  0.05    1.08 
Q3    1   0.7352  0.0604  0.8461  11.00000  0.05    0.68 
Q4    1   0.8221  0.0613  0.8421  11.00000  0.05    0.66 
Q5    1   1.0762  0.0599 -0.1359  11.00000  0.05    0.54 
Q6    1   1.5066  0.0587 -0.0698  11.00000  0.05    0.43 
Q7    1   1.3707  0.2132  0.4640  11.00000  0.05    0.35 
Q8    1   0.8587  0.2033  0.5645  11.00000  0.05    0.33 
Q9    1   1.2631  0.2307  0.5261  11.00000  0.05    0.32 
Q10   1   1.1489  0.2764  0.5952  11.00000  0.05    0.30 
Q11   1   1.1108  0.1989  0.5523  11.00000  0.05    0.29 
Q12   1   0.3847 -0.1637  0.0851  11.00000  0.05    0.29 
Q13   1   0.5453 -0.1588  0.0532  11.00000  0.05    0.29 
Q14   1   1.5818  0.2125  0.4916  11.00000  0.05    0.29 
Q15   1   1.0081  0.2201  0.6524  11.00000  0.05    0.28 
Q16   1   0.9409  0.1802  0.4786  11.00000  0.05    0.28 
Q17   1   0.8329 -0.0551  0.0267  11.00000  0.05    0.27 
Q18   1   0.2430 -0.1658  0.1169  11.00000  0.05    0.27 
Q19   1   0.7239 -0.1552  0.1067  11.00000  0.05    0.27 
Q20   1   0.8314  0.2449  0.7318  11.00000  0.05    0.26 
;
_shelx_res_checksum              28541
_shelx_hkl_file
; 
  -1   0   0  174.40   10.40 
   1   0   0  152.61   10.61 
  -2   0   0  122.94    7.88 
   2   0   0  123.06    8.03 
  -3   0   0   19.83    1.40 
   3   0   0   19.30    1.40 
  -4   0   0   16.54    1.27 
   4   0   0   16.52    1.26 
  -5   0   0    1.27    0.43 
   5   0   0    0.52    0.37 
  -6   0   0   -0.46    0.39 
   6   0   0    0.18    0.43 
  -7   0   0    0.71    0.56 
   7   0   0    1.02    0.51 
  -8   0   0    1.23    0.70 
  -8   0  -1    0.44    0.68 
  -7   0  -1    0.76    0.60 
   6   0   1    5.64    0.74 
  -6   0  -1    5.78    0.86 
   5   0   1    5.05    0.64 
  -5   0  -1    6.04    0.76 
   4   0   1    1.08    0.33 
  -4   0  -1    1.82    0.40 
   3   0   1    8.61    0.68 
  -3   0  -1    7.99    0.74 
   2   0   1   10.03    0.73 
  -2   0  -1   10.32    0.76 
  -2   0  -1    9.41    0.61 
   1   0   1   61.88    3.87 
  -1   0  -1   56.54    3.33 
   0   0  -1   82.33    4.50 
   0   0  -1   78.16    5.12 
  -1   0   1  272.09   17.43 
   1   0  -1  276.99   15.31 
  -3   0   1   85.66    5.54 
  -4   0   1   99.31    6.39 
   4   0  -1   97.27    6.53 
  -5   0   1   31.59    2.27 
   5   0  -1   31.78    2.32 
   5   0  -1   32.34    1.93 
  -6   0   1   25.09    1.85 
   6   0  -1   22.58    1.86 
  -7   0   1    2.80    0.64 
   7   0  -1    2.56    0.69 
  -8   0   1    0.34    0.59 
   8   0  -1    1.50    0.68 
  -8   0  -2   -0.09    0.67 
  -7   0  -2    2.82    0.82 
   6   0   2    6.11    0.78 
  -6   0  -2    5.18    0.86 
   5   0   2   14.74    1.19 
  -5   0  -2   14.42    1.33 
   4   0   2   51.33    3.13 
  -4   0  -2   38.96    3.12 
   3   0   2   94.49    6.04 
  -3   0  -2   90.73    5.99 
  -3   0  -2   89.50    5.18 
   2   0   2    9.78    0.75 
  -2   0  -2    9.44    0.64 
  -2   0  -2   11.74    0.82 
  -1   0  -2  133.50    7.49 
   0   0  -2  114.98    7.33 
   0   0  -2  114.35    6.46 
   1   0  -2  319.51   17.85 
  -2   0   2   32.40    2.09 
   2   0  -2   31.97    1.89 
  -3   0   2    0.98    0.19 
   3   0  -2    0.66    0.18 
  -4   0   2  110.46    7.49 
   4   0  -2  121.89    6.59 
  -5   0   2   10.08    0.87 
   5   0  -2    9.88    0.75 
   5   0  -2   11.63    1.03 
  -6   0   2    3.45    0.59 
   6   0  -2    3.68    0.69 
   6   0  -2    5.07    0.50 
  -7   0   2   21.22    1.58 
   7   0  -2   15.21    1.59 
   8   0  -2    3.23    0.81 
   9   0  -2    0.96    0.87 
  -8   0  -3   -0.25    0.67 
  -7   0  -3    1.31    0.75 
  -6   0  -3    0.40    0.59 
   5   0   3    0.26    0.32 
  -5   0  -3    0.10    0.48 
   4   0   3   20.71    1.53 
  -4   0  -3   21.46    1.66 
   3   0   3   48.38    3.14 
  -3   0  -3   45.81    3.19 
  -3   0  -3   45.63    2.71 
   2   0   3  300.23   19.31 
  -2   0  -3  294.98   19.00 
  -1   0  -3   68.23    4.51 
  -1   0  -3   70.37    3.95 
   0   0  -3  177.01   11.45 
   0   0  -3  182.81   10.09 
   1   0  -3  326.23   20.38 
   1   0  -3  316.15   17.96 
   2   0  -3   89.23    5.07 
  -3   0   3   75.25    4.75 
   3   0  -3   72.44    4.24 
  -4   0   3   15.78    1.11 
   4   0  -3   15.02    1.03 
  -5   0   3    5.97    0.60 
   5   0  -3    5.88    0.78 
   5   0  -3    6.39    0.58 
  -6   0   3   13.30    1.13 
   6   0  -3   16.09    1.32 
   6   0  -3   12.99    0.99 
   7   0  -3    8.58    1.08 
   8   0  -3    0.61    0.65 
   9   0  -3    1.62    0.91 
  -7   0  -4    0.13    0.72 
  -6   0  -4    0.38    0.64 
  -5   0  -4    0.54    0.57 
   4   0   4    2.81    0.45 
  -4   0  -4    2.33    0.58 
  -4   0  -4    2.91    0.35 
  -3   0  -4    4.56    0.63 
  -3   0  -4    4.06    0.41 
  -2   0  -4    5.61    0.50 
  -2   0  -4    7.17    0.70 
  -1   0  -4   69.36    4.54 
   0   0  -4  264.01   14.40 
   0   0  -4  249.99   16.34 
   1   0  -4   21.25    1.49 
   1   0  -4   26.34    1.60 
   2   0  -4  280.71   15.74 
   3   0  -4  163.02    9.21 
  -4   0   4   87.61    5.65 
   4   0  -4   88.56    5.07 
  -5   0   4    9.89    0.82 
   5   0  -4   11.42    0.86 
   6   0  -4    2.51    0.68 
   6   0  -4    1.93    0.43 
   7   0  -4    1.67    0.67 
   8   0  -4    0.55    0.68 
   9   0  -4    1.30    0.89 
  -7   0  -5    0.72    0.79 
  -6   0  -5    8.37    1.23 
  -5   0  -5    0.62    0.60 
  -4   0  -5    8.79    0.67 
  -4   0  -5    8.25    1.00 
  -3   0  -5    1.50    0.29 
  -3   0  -5    1.57    0.51 
  -2   0  -5    4.93    0.64 
  -2   0  -5    5.23    0.51 
   0   0  -5    2.97    0.38 
   0   0  -5    3.02    0.38 
   1   0  -5  155.45    8.66 
   1   0  -5  150.64    9.74 
   2   0  -5    0.85    0.29 
   3   0  -5  153.63    8.72 
   4   0  -5   23.11    1.50 
   5   0  -5   48.00    2.89 
   6   0  -5    9.51    0.84 
   7   0  -5    3.06    0.76 
   7   0  -5    2.12    0.51 
   8   0  -5    1.41    0.76 
   9   0  -5    0.61    0.85 
  -6   0  -6    0.12    0.74 
  -5   0  -6    2.67    0.81 
  -4   0  -6   14.25    1.43 
  -2   0  -6   36.16    2.31 
  -2   0  -6   40.18    2.70 
  -1   0  -6   91.82    6.03 
  -1   0  -6   92.28    5.31 
   0   0  -6    7.24    0.69 
   0   0  -6    8.23    0.70 
   1   0  -6   18.20    1.25 
   1   0  -6   18.78    1.29 
   2   0  -6    0.04    0.26 
   3   0  -6   -0.21    0.26 
   4   0  -6   42.68    2.62 
   5   0  -6    1.80    0.44 
   6   0  -6   27.93    1.85 
   7   0  -6    4.65    0.66 
   7   0  -6    4.38    0.89 
   8   0  -6    7.34    1.18 
   9   0  -6    0.08    0.84 
  -6   0  -7    0.38    0.97 
  -5   0  -7    0.08    0.77 
  -4   0  -7    1.06    0.69 
  -3   0  -7    0.79    0.37 
  -3   0  -7    0.05    0.49 
  -2   0  -7   12.41    1.18 
  -2   0  -7   12.77    1.01 
  -1   0  -7   58.33    3.75 
  -1   0  -7   52.22    3.30 
   0   0  -7    6.94    0.69 
   0   0  -7    6.34    0.66 
   1   0  -7  100.19    6.48 
   1   0  -7  101.02    5.82 
   2   0  -7   27.93    2.01 
   2   0  -7   33.76    2.09 
   3   0  -7   73.80    4.36 
   4   0  -7    0.01    0.34 
   5   0  -7    3.29    0.58 
   6   0  -7    0.01    0.38 
   7   0  -7    2.39    0.77 
   7   0  -7    2.44    0.55 
   8   0  -7    1.85    0.76 
  -5   0  -8    1.70    0.95 
  -4   0  -8    0.17    0.70 
  -3   0  -8    0.50    0.39 
  -3   0  -8    0.38    0.58 
  -2   0  -8    2.56    0.67 
  -2   0  -8    4.59    0.62 
  -1   0  -8   14.29    1.05 
  -1   0  -8   11.03    1.11 
   0   0  -8    0.44    0.38 
   0   0  -8    1.12    0.40 
   1   0  -8   17.63    1.42 
   1   0  -8   22.08    1.47 
   2   0  -8   27.54    1.84 
   3   0  -8   89.36    5.25 
   4   0  -8    3.48    0.58 
   5   0  -8   25.45    1.77 
   6   0  -8    9.94    1.00 
   7   0  -8    1.18    0.50 
   8   0  -8   -0.03    0.76 
  -4   0  -9    1.09    0.88 
  -3   0  -9    8.01    1.18 
  -2   0  -9    5.48    0.73 
  -2   0  -9    4.29    0.85 
  -1   0  -9    3.35    0.61 
  -1   0  -9    3.20    0.65 
   0   0  -9    0.46    0.41 
   0   0  -9    0.64    0.43 
   1   0  -9   21.90    1.60 
   1   0  -9   22.51    1.61 
   2   0  -9   18.31    1.38 
   3   0  -9   24.28    1.72 
   4   0  -9    8.82    0.92 
   5   0  -9   13.26    1.18 
   6   0  -9    6.98    0.87 
   7   0  -9    7.35    0.92 
   8   0  -9    0.61    0.83 
  -4   0 -10   -0.28    0.95 
  -3   0 -10    6.90    1.16 
  -2   0 -10    1.17    0.69 
  -2   0 -10    0.86    0.53 
  -1   0 -10   17.36    1.46 
  -1   0 -10   19.39    1.61 
   0   0 -10   13.75    1.21 
   0   0 -10   12.69    1.21 
   1   0 -10   10.24    1.05 
   2   0 -10   12.43    1.17 
   3   0 -10   -0.49    0.39 
   4   0 -10   -0.07    0.43 
   5   0 -10    0.01    0.41 
   6   0 -10    7.48    0.91 
   7   0 -10    1.44    0.59 
   8   0 -10    2.02    0.67 
   8   0 -10    1.45    0.88 
  -3   0 -11    0.17    0.89 
  -2   0 -11    0.35    0.55 
  -2   0 -11   -0.59    0.71 
  -1   0 -11    2.10    0.62 
   0   0 -11    4.54    0.79 
   1   0 -11   19.30    1.52 
   2   0 -11   10.36    1.12 
   3   0 -11    3.60    0.71 
   4   0 -11    4.34    0.78 
   5   0 -11    3.37    0.72 
   6   0 -11    4.43    0.79 
   7   0 -11    1.57    0.70 
  -1   0 -12    0.93    0.63 
   0   0 -12    2.35    0.70 
   1   0 -12    2.45    0.69 
   2   0 -12    4.96    0.87 
   3   0 -12    4.67    0.88 
   4   0 -12    5.34    0.86 
   5   0 -12    6.04    0.93 
   6   0 -12    4.02    0.85 
   0   0 -13    3.37    0.84 
   1   0 -13    0.03    0.64 
   2   0 -13    0.20    0.63 
   3   0 -13   -0.95    0.58 
   4   0 -13    1.22    0.72 
   5   0 -13   -0.44    0.59 
   5  -1 -13    5.35    0.99 
   4  -1 -13   -0.12    0.64 
   3  -1 -13    7.41    1.06 
   2  -1 -13    1.30    0.69 
   1  -1 -13    2.63    0.76 
   0  -1 -13    1.75    0.70 
   6  -1 -12    1.94    0.70 
   5  -1 -12    0.27    0.57 
   4  -1 -12    0.62    0.57 
   3  -1 -12    2.20    0.67 
   2  -1 -12    2.92    0.71 
   1  -1 -12    1.00    0.63 
   0  -1 -12    6.11    0.91 
  -1  -1 -12    3.75    0.83 
  -2  -1 -12   -0.21    0.57 
   7  -1 -11    7.55    1.25 
   7  -1 -11    5.04    0.92 
   6  -1 -11    3.07    0.70 
   5  -1 -11    8.90    1.05 
   4  -1 -11    4.02    0.72 
   3  -1 -11    1.14    0.55 
   2  -1 -11    1.62    0.57 
   1  -1 -11   -0.06    0.50 
   0  -1 -11   10.41    1.12 
  -1  -1 -11    0.31    0.56 
  -2  -1 -11    4.16    0.96 
  -2  -1 -11    3.50    0.74 
  -3  -1 -11   -0.17    0.88 
   8  -1 -10    0.98    0.82 
   7  -1 -10    1.10    0.60 
   7  -1 -10    3.17    0.90 
   6  -1 -10    3.76    0.68 
   5  -1 -10   10.87    1.09 
   4  -1 -10   15.17    1.31 
   3  -1 -10   11.65    1.12 
   2  -1 -10    7.86    0.93 
   1  -1 -10   20.37    1.53 
   0  -1 -10   -0.05    0.44 
  -1  -1 -10    1.23    0.59 
  -1  -1 -10    0.93    0.49 
  -2  -1 -10    0.95    0.53 
  -2  -1 -10    0.36    0.61 
  -3  -1 -10   -0.16    0.70 
  -4  -1 -10    4.56    1.20 
   8  -1  -9    1.62    0.84 
   7  -1  -9    1.02    0.50 
   7  -1  -9    1.39    0.77 
   6  -1  -9    0.04    0.39 
   5  -1  -9    3.65    0.63 
   4  -1  -9    3.38    0.61 
   3  -1  -9   13.03    1.13 
   2  -1  -9   41.75    2.66 
   1  -1  -9   17.23    1.33 
   0  -1  -9   21.92    1.67 
   0  -1  -9   22.62    1.60 
  -1  -1  -9   10.00    0.99 
  -1  -1  -9   10.36    1.06 
  -2  -1  -9    4.97    0.86 
  -2  -1  -9    4.40    0.71 
  -3  -1  -9    2.01    0.56 
  -3  -1  -9    2.08    0.78 
  -4  -1  -9   -0.42    0.77 
   8  -1  -8    3.43    0.97 
   7  -1  -8    7.18    0.84 
   7  -1  -8    6.64    1.14 
   6  -1  -8    3.62    0.62 
   5  -1  -8    3.64    0.60 
   4  -1  -8    8.96    0.87 
   3  -1  -8    3.26    0.56 
   2  -1  -8    4.43    0.61 
   1  -1  -8    5.12    0.67 
   1  -1  -8    5.16    0.55 
   0  -1  -8   64.17    3.84 
   0  -1  -8   63.68    4.26 
  -1  -1  -8    9.07    0.85 
  -1  -1  -8    7.46    0.87 
  -2  -1  -8   14.36    1.40 
  -2  -1  -8   16.22    1.25 
  -3  -1  -8   10.41    1.25 
  -3  -1  -8   12.36    1.03 
  -4  -1  -8    2.39    0.84 
  -5  -1  -8    0.70    0.87 
   8  -1  -7    4.02    0.96 
   7  -1  -7    5.78    0.97 
   7  -1  -7    6.22    0.76 
   6  -1  -7   15.75    1.22 
   5  -1  -7   24.07    1.65 
   4  -1  -7   27.11    1.80 
   3  -1  -7   55.53    3.34 
   2  -1  -7    5.32    0.44 
   2  -1  -7    6.19    0.65 
   1  -1  -7   13.18    1.09 
   1  -1  -7   16.02    1.10 
   0  -1  -7   37.37    2.43 
   0  -1  -7   32.59    2.19 
  -1  -1  -7   16.70    1.21 
  -1  -1  -7   17.10    1.35 
  -2  -1  -7    3.90    0.57 
  -2  -1  -7    4.71    0.72 
  -3  -1  -7    7.58    1.01 
  -3  -1  -7    7.79    0.77 
  -4  -1  -7    2.30    0.73 
  -5  -1  -7    0.68    0.77 
  -6  -1  -7    0.12    0.89 
   9  -1  -6   -0.81    0.79 
   8  -1  -6    1.35    0.79 
   7  -1  -6    1.01    0.44 
   7  -1  -6    1.07    0.65 
   6  -1  -6    8.51    1.09 
   6  -1  -6   10.78    0.90 
   5  -1  -6    1.19    0.41 
   4  -1  -6   98.81    5.72 
   3  -1  -6   43.62    2.65 
   2  -1  -6   73.54    4.30 
   1  -1  -6   83.73    5.50 
   1  -1  -6   87.94    4.96 
   0  -1  -6   64.34    4.36 
   0  -1  -6   69.19    3.90 
  -1  -1  -6   33.68    2.38 
  -1  -1  -6   34.61    2.11 
  -2  -1  -6    4.64    0.56 
  -2  -1  -6    5.50    0.71 
  -3  -1  -6    0.19    0.45 
  -3  -1  -6   -0.01    0.26 
  -4  -1  -6    2.25    0.39 
  -4  -1  -6    2.26    0.69 
  -5  -1  -6    2.89    0.81 
  -6  -1  -6    1.02    0.82 
   9  -1  -5    0.60    0.89 
   8  -1  -5    2.88    0.87 
   7  -1  -5    3.88    0.81 
   6  -1  -5    2.98    0.71 
   6  -1  -5    2.84    0.48 
   5  -1  -5    0.60    0.32 
   4  -1  -5    8.91    0.76 
   3  -1  -5    7.44    0.65 
   2  -1  -5  138.31    7.85 
   1  -1  -5   13.54    0.94 
   0  -1  -5  157.47   10.22 
   0  -1  -5  162.13    9.04 
  -1  -1  -5   67.93    4.51 
  -1  -1  -5   69.19    3.98 
  -2  -1  -5   30.95    1.84 
  -2  -1  -5   28.20    2.12 
  -3  -1  -5   24.00    1.55 
  -3  -1  -5   25.35    1.90 
  -4  -1  -5    3.17    0.71 
  -4  -1  -5    3.58    0.45 
  -5  -1  -5    2.95    0.75 
  -6  -1  -5   -0.14    0.66 
  -7  -1  -5    0.80    0.78 
   9  -1  -4    1.12    0.89 
   8  -1  -4    3.61    0.89 
   7  -1  -4   12.55    1.37 
   6  -1  -4   14.25    1.04 
   6  -1  -4   15.01    1.41 
   5  -1  -4   17.64    1.15 
   5  -1  -4   16.28    1.43 
  -5   1   4   16.35    1.21 
   4  -1  -4   46.20    2.90 
  -4   1   4   51.83    3.21 
   3  -1  -4    3.52    0.40 
   2  -1  -4   30.52    1.85 
   1  -1  -4   33.09    1.97 
   1  -1  -4   32.86    2.14 
   0  -1  -4   54.49    3.53 
   0  -1  -4   53.86    3.14 
  -1  -1  -4   55.97    3.73 
  -1  -1  -4   57.26    3.28 
  -2  -1  -4   13.79    0.95 
  -2  -1  -4   15.08    1.14 
  -4  -1  -4   10.75    0.78 
  -4  -1  -4   10.05    1.08 
  -5  -1  -4    4.31    0.82 
  -6  -1  -4    1.33    0.69 
  -7  -1  -4    1.75    0.84 
   9  -1  -3    0.46    0.81 
   8  -1  -3    1.37    0.72 
   7  -1  -3    2.43    0.69 
   6  -1  -3   21.98    1.47 
   6  -1  -3   23.35    1.85 
  -6   1   3   23.15    1.69 
   5  -1  -3   28.53    1.85 
   5  -1  -3   28.52    2.25 
  -5   1   3   33.59    2.12 
   4  -1  -3   49.12    3.02 
   4  -1  -3   51.60    3.59 
  -4   1   3   54.58    3.40 
   3  -1  -3  128.61    7.23 
  -3   1   3  127.58    8.17 
   2  -1  -3  180.57   10.14 
   1  -1  -3   93.22    5.94 
   0  -1  -3   76.83    4.44 
   0  -1  -3   79.14    5.02 
  -2  -1  -3   35.02    2.00 
  -2  -1  -3   34.99    2.32 
   2   1   3   32.18    2.24 
  -3  -1  -3   86.49    5.82 
   3   1   3   89.82    5.81 
  -4  -1  -3    0.58    0.42 
   4   1   3    1.39    0.33 
  -5  -1  -3   11.90    1.22 
  -6  -1  -3    5.12    0.91 
  -7  -1  -3    1.30    0.71 
  -8  -1  -3    0.05    0.69 
   9  -1  -2   -0.17    0.76 
   8  -1  -2    0.48    0.68 
   7  -1  -2    0.80    0.55 
  -7   1   2    0.49    0.46 
   6  -1  -2    0.65    0.50 
  -6   1   2    0.53    0.39 
   5  -1  -2    4.17    0.62 
   5  -1  -2    4.72    0.42 
  -5   1   2    2.12    0.39 
   4  -1  -2   17.87    1.40 
   4  -1  -2   17.82    1.13 
  -4   1   2   18.18    1.29 
   3  -1  -2  110.63    6.27 
   3  -1  -2  110.74    7.34 
  -3   1   2  111.99    7.12 
   2  -1  -2  236.13   12.33 
  -2   1   2  205.60   13.99 
   1  -1  -2   90.16    4.78 
   1  -1  -2   79.89    5.39 
   0  -1  -2  117.37    6.71 
   0  -1  -2  121.32    7.62 
  -1  -1  -2  964.21   53.47 
  -1  -1  -2  956.69   60.86 
  -2  -1  -2   24.05    1.49 
  -2  -1  -2   24.30    1.26 
   2   1   2   16.75    1.40 
  -3  -1  -2   71.13    4.81 
  -3  -1  -2   69.09    4.15 
   3   1   2   77.75    4.81 
  -4  -1  -2    4.79    0.65 
   4   1   2    4.32    0.50 
  -5  -1  -2    4.30    0.70 
   5   1   2    2.82    0.49 
  -6  -1  -2   -0.23    0.50 
  -7  -1  -2    3.39    0.82 
  -8  -1  -2    0.26    0.73 
   8  -1  -1    2.20    0.76 
  -8   1   1    1.83    0.67 
   7  -1  -1    1.93    0.67 
  -7   1   1    5.39    0.79 
   6  -1  -1    9.52    1.06 
  -6   1   1   10.65    1.03 
   5  -1  -1    6.93    0.78 
   5  -1  -1    6.61    0.53 
  -5   1   1    7.24    0.73 
   4  -1  -1   14.88    0.90 
   4  -1  -1   15.79    1.15 
  -4   1   1   11.82    1.08 
   3  -1  -1   10.00    0.82 
   3  -1  -1    9.96    0.64 
  -3   1   1   10.57    0.78 
   2  -1  -1   25.83    1.48 
   2  -1  -1   25.23    1.76 
   1  -1  -1  159.91    9.00 
   1  -1  -1  160.87   10.47 
  -1   1   1  162.73   10.24 
   0  -1  -1   18.50    1.22 
   0  -1  -1   18.36    1.21 
   0  -1  -1   17.96    1.07 
  -1  -1  -1  352.65   22.82 
  -1  -1  -1  364.97   20.04 
   1   1   1  360.52   23.28 
  -2  -1  -1  189.77   12.48 
   2   1   1  200.46   12.68 
  -3  -1  -1   41.97    2.80 
   3   1   1   40.77    2.78 
  -4  -1  -1   17.60    1.19 
   4   1   1   11.58    1.05 
  -5  -1  -1   16.78    1.35 
   5   1   1   14.43    1.21 
  -6  -1  -1    3.07    0.69 
   6   1   1    4.61    0.65 
  -7  -1  -1    0.26    0.57 
  -8  -1  -1    0.62    0.67 
  -8   1   0    0.97    0.68 
   7  -1   0    1.67    0.63 
  -7   1   0    2.37    0.70 
   6  -1   0    8.23    0.94 
  -6   1   0    8.58    0.96 
   5  -1   0   33.85    2.35 
  -5   1   0   30.76    2.31 
   4  -1   0   62.59    4.45 
  -4   1   0   69.96    4.40 
   3  -1   0   22.60    1.57 
  -3   1   0   21.05    1.54 
   2  -1   0  121.19    8.29 
  -2   1   0  132.89    8.13 
   1  -1   0  177.15   11.96 
  -1   1   0  191.20   11.72 
   0   1   0    0.17    0.02 
   0   1   0    0.01    0.01 
  -1  -1   0  177.62   11.31 
  -2  -1   0  118.95    7.63 
  -3  -1   0   21.10    1.55 
   3   1   0   22.55    1.55 
  -4  -1   0   73.15    4.86 
   4   1   0   73.83    4.92 
  -5  -1   0   36.15    2.56 
   5   1   0   35.82    2.55 
  -6  -1   0    9.45    0.97 
   6   1   0    7.22    0.87 
  -7  -1   0    1.35    0.63 
   7   1   0    2.30    0.60 
  -8  -1   0    0.85    0.66 
  -8   1  -1    0.61    0.69 
   7  -1   1    0.85    0.55 
  -7   1  -1    1.07    0.64 
   6  -1   1    2.21    0.58 
  -6   1  -1    2.94    0.65 
   5  -1   1   18.75    1.42 
  -5   1  -1   16.74    1.47 
   4  -1   1   16.05    1.10 
  -4   1  -1   10.90    1.08 
   3  -1   1   39.80    2.78 
  -3   1  -1   41.92    2.77 
   2  -1   1  199.70   13.23 
  -2   1  -1  205.60   12.99 
  -2   1  -1  204.77   11.35 
   1  -1   1  367.83   23.65 
  -1   1  -1  370.38   20.36 
  -1   1  -1  357.28   23.18 
   0   1  -1   21.12    1.35 
   0   1  -1   19.80    1.18 
   1   1  -1  160.20   10.18 
  -2  -1   1   13.00    0.90 
  -3  -1   1   12.34    0.93 
  -4  -1   1   15.23    1.17 
  -5  -1   1    7.51    0.79 
   5   1  -1    8.91    0.85 
  -6  -1   1   10.39    1.05 
   6   1  -1   11.02    1.09 
  -7  -1   1    3.79    0.73 
   7   1  -1    3.40    0.69 
  -8  -1   1    1.99    0.72 
   8   1  -1    3.61    0.82 
  -8   1  -2   -0.18    0.69 
  -7   1  -2    3.35    0.85 
   6  -1   2    0.37    0.48 
  -6   1  -2    0.71    0.56 
   5  -1   2    2.21    0.49 
  -5   1  -2    2.02    0.56 
   4  -1   2    6.11    0.62 
  -4   1  -2    4.53    0.68 
   3  -1   2   69.01    4.74 
  -3   1  -2   70.47    4.70 
  -3   1  -2   73.44    4.03 
  -2   1  -2   17.66    1.27 
  -2   1  -2   17.42    1.04 
  -1   1  -2 1000.00   55.36 
  -1   1  -2  989.41   63.03 
   0   1  -2  129.24    7.26 
   0   1  -2  129.51    8.26 
   1   1  -2   63.02    4.05 
   1   1  -2   63.69    3.61 
  -2  -1   2  246.97   14.91 
   2   1  -2  221.66   13.13 
  -3  -1   2  111.57    7.28 
   3   1  -2  115.44    6.42 
  -5  -1   2    4.21    0.54 
   5   1  -2    4.56    0.48 
  -6  -1   2    0.24    0.37 
   6   1  -2    0.65    0.32 
   6   1  -2    0.57    0.46 
  -7  -1   2    0.38    0.45 
   7   1  -2    0.65    0.52 
   8   1  -2    1.17    0.65 
  -8   1  -3    0.86    0.80 
  -7   1  -3    1.76    0.82 
  -6   1  -3    4.42    0.88 
   5  -1   3   13.38    1.15 
  -5   1  -3   14.24    1.34 
   4  -1   3    0.82    0.34 
  -4   1  -3    1.43    0.50 
   3  -1   3   88.32    5.82 
  -3   1  -3   86.82    4.97 
  -3   1  -3   88.13    5.78 
   2  -1   3   32.06    2.17 
  -2   1  -3   32.70    2.20 
  -2   1  -3   30.53    1.85 
  -1   1  -3    0.17    0.05 
   0   1  -3   74.67    4.17 
   0   1  -3   71.80    4.72 
   1   1  -3  103.16    5.91 
   1   1  -3  105.65    6.66 
   2   1  -3  215.00   12.06 
   2   1  -3  214.64   13.64 
  -3  -1   3  131.52    8.39 
   3   1  -3  131.56    7.45 
  -4  -1   3   51.14    3.50 
   4   1  -3   56.03    3.13 
  -5  -1   3   29.14    2.08 
   5   1  -3   30.98    1.87 
  -6  -1   3   21.54    1.60 
   6   1  -3   20.83    1.42 
   6   1  -3   21.73    1.76 
  -7  -1   3    1.03    0.41 
   7   1  -3    0.87    0.55 
   8   1  -3    1.81    0.75 
   9   1  -3   -0.02    0.76 
  -7   1  -4    0.16    0.73 
  -6   1  -4    0.71    0.65 
  -5   1  -4    4.90    0.86 
   4  -1   4   10.24    0.97 
  -4   1  -4   14.19    1.22 
  -4   1  -4   11.58    0.78 
   3  -1   4   38.30    2.47 
  -3   1  -4   34.80    2.10 
  -3   1  -4   32.91    2.51 
  -2   1  -4   16.34    1.05 
  -2   1  -4   16.80    1.29 
  -1   1  -4   57.62    3.37 
  -1   1  -4   59.48    3.86 
   0   1  -4   51.94    2.95 
   0   1  -4   49.64    3.31 
   1   1  -4   37.65    2.21 
   1   1  -4   37.00    2.43 
   2   1  -4   32.66    1.97 
   3   1  -4    3.54    0.32 
   3   1  -4    4.94    0.47 
   4   1  -4   52.02    3.08 
  -5  -1   4   18.57    1.27 
   5   1  -4   15.91    1.20 
   6   1  -4   15.62    1.14 
   7   1  -4   15.87    1.48 
   7   1  -4   13.29    1.12 
   8   1  -4    2.30    0.79 
   9   1  -4    2.52    0.91 
  -7   1  -5    0.29    0.77 
  -6   1  -5    0.72    0.71 
  -5   1  -5    3.08    0.76 
  -4   1  -5    3.79    0.74 
  -3   1  -5   23.08    1.47 
  -3   1  -5   24.43    1.85 
  -1   1  -5   63.64    4.20 
  -1   1  -5   63.20    3.68 
   0   1  -5  159.35   10.39 
   0   1  -5  165.32    9.17 
   1   1  -5   23.90    1.51 
   1   1  -5   19.41    1.40 
   2   1  -5  142.62    8.10 
   3   1  -5    4.63    0.51 
   4   1  -5    9.69    0.79 
   4   1  -5    9.09    0.66 
   5   1  -5    1.58    0.42 
   6   1  -5    3.48    0.57 
   7   1  -5    2.29    0.71 
   7   1  -5    1.61    0.50 
   8   1  -5    2.36    0.78 
   9   1  -5    1.77    0.91 
  -6   1  -6    0.56    0.79 
  -5   1  -6    4.14    0.90 
  -4   1  -6    3.15    0.74 
  -3   1  -6    0.63    0.49 
  -3   1  -6    0.22    0.24 
  -2   1  -6    4.93    0.51 
  -2   1  -6    3.97    0.65 
  -1   1  -6   39.97    2.83 
  -1   1  -6   42.93    2.50 
   0   1  -6   68.10    4.46 
   0   1  -6   67.70    3.97 
   1   1  -6   88.25    5.23 
   1   1  -6   92.76    5.85 
   2   1  -6   72.82    4.10 
   2   1  -6   67.99    4.47 
   3   1  -6   49.78    2.99 
   4   1  -6   91.86    5.34 
   5   1  -6    1.50    0.43 
   6   1  -6    9.86    0.92 
   7   1  -6    0.29    0.40 
   8   1  -6    0.14    0.68 
   9   1  -6   -0.05    0.88 
  -6   1  -7    1.01    1.02 
  -5   1  -7    1.39    0.81 
  -4   1  -7    2.05    0.74 
  -3   1  -7    8.35    0.77 
  -3   1  -7    8.56    1.06 
  -2   1  -7    5.44    0.61 
  -2   1  -7    5.55    0.77 
  -1   1  -7   18.47    1.47 
  -1   1  -7   18.97    1.29 
   0   1  -7   38.80    2.35 
   0   1  -7   37.09    2.58 
   1   1  -7   13.87    1.03 
   1   1  -7   13.43    1.03 
   2   1  -7    5.34    0.64 
   2   1  -7    5.44    0.46 
   3   1  -7   56.87    3.43 
   4   1  -7   28.11    1.87 
   5   1  -7   28.87    1.92 
   6   1  -7   16.14    1.29 
   7   1  -7    5.99    0.80 
   8   1  -7    4.17    1.01 
  -5   1  -8    0.60    0.90 
  -4   1  -8    1.81    0.81 
  -3   1  -8    9.02    1.13 
  -2   1  -8   16.75    1.28 
  -2   1  -8   18.05    1.52 
  -1   1  -8    5.13    0.72 
  -1   1  -8    5.09    0.66 
   0   1  -8   65.18    4.37 
   0   1  -8   66.04    3.93 
   1   1  -8    2.57    0.50 
   2   1  -8    6.46    0.73 
   3   1  -8    2.16    0.52 
   4   1  -8    9.85    0.97 
   5   1  -8    3.85    0.64 
   6   1  -8    5.08    0.75 
   7   1  -8    9.65    1.02 
   8   1  -8    2.34    0.91 
  -4   1  -9    1.29    0.90 
  -3   1  -9    3.12    0.86 
  -2   1  -9    4.62    0.67 
  -2   1  -9    4.51    0.84 
  -1   1  -9    8.52    0.88 
  -1   1  -9    7.98    0.95 
   0   1  -9   23.98    1.80 
   0   1  -9   23.84    1.67 
   1   1  -9   18.19    1.35 
   1   1  -9   17.53    1.33 
   2   1  -9   43.93    2.78 
   3   1  -9   12.67    1.13 
   4   1  -9    2.62    0.57 
   5   1  -9    4.84    0.73 
   6   1  -9    0.50    0.48 
   7   1  -9    1.61    0.62 
   8   1  -9    2.57    0.73 
  -4   1 -10    5.54    1.28 
  -3   1 -10   -0.42    0.74 
  -2   1 -10    0.77    0.51 
  -2   1 -10    0.04    0.63 
  -1   1 -10    1.15    0.60 
  -1   1 -10    0.80    0.51 
   0   1 -10    0.84    0.49 
   0   1 -10    0.91    0.52 
   1   1 -10   20.20    1.54 
   2   1 -10    9.59    1.01 
   3   1 -10   13.69    1.24 
   4   1 -10   14.95    1.30 
   5   1 -10   13.86    1.28 
   6   1 -10    5.62    0.87 
   7   1 -10    1.27    0.61 
   8   1 -10    0.51    0.63 
  -3   1 -11   -0.65    0.91 
  -2   1 -11    4.37    1.00 
  -1   1 -11    0.68    0.54 
   0   1 -11   11.76    1.19 
   1   1 -11    1.13    0.55 
   2   1 -11    0.61    0.54 
   3   1 -11    0.94    0.55 
   4   1 -11    4.68    0.80 
   5   1 -11    5.11    0.82 
   6   1 -11    3.06    0.73 
   7   1 -11    7.14    1.03 
  -1   1 -12    3.54    0.79 
   0   1 -12    7.56    1.03 
   1   1 -12    2.92    0.73 
   2   1 -12    3.57    0.81 
   3   1 -12    2.43    0.72 
   4   1 -12   -0.08    0.55 
   5   1 -12    0.22    0.61 
   6   1 -12    1.31    0.67 
   0   1 -13    1.34    0.69 
   1   1 -13    3.07    0.79 
   2   1 -13    0.83    0.65 
   3   1 -13    6.15    0.97 
   4   1 -13    1.77    0.72 
   5   1 -13    5.70    0.99 
   5  -2 -13   -0.51    0.61 
   4  -2 -13    2.55    0.79 
   3  -2 -13    0.54    0.64 
   2  -2 -13    0.66    0.64 
   1  -2 -13   -0.04    0.59 
   0  -2 -13    0.55    0.61 
   6  -2 -12    5.77    1.14 
   6  -2 -12    3.27    0.82 
   5  -2 -12    5.14    0.90 
   4  -2 -12    4.60    0.85 
   3  -2 -12    4.02    0.82 
   2  -2 -12    1.70    0.65 
   1  -2 -12    0.56    0.56 
   0  -2 -12    0.91    0.60 
  -1  -2 -12    2.39    0.77 
  -2  -2 -12    0.75    0.63 
   7  -2 -11   -0.13    0.79 
   7  -2 -11    1.82    0.63 
   6  -2 -11    0.46    0.53 
   6  -2 -11    0.93    0.78 
   5  -2 -11    1.57    0.62 
   4  -2 -11    8.74    1.05 
   3  -2 -11    9.91    1.10 
   2  -2 -11    7.06    0.94 
   1  -2 -11    6.57    0.88 
   0  -2 -11    2.61    0.67 
  -1  -2 -11    2.65    0.66 
  -2  -2 -11    0.07    0.75 
  -2  -2 -11    0.44    0.55 
  -3  -2 -11   -0.29    0.86 
   7  -2 -10    4.39    0.76 
   7  -2 -10    5.91    1.11 
   6  -2 -10    3.59    0.71 
   6  -2 -10    3.63    0.90 
   5  -2 -10    1.57    0.54 
   4  -2 -10    0.53    0.44 
   3  -2 -10    2.06    0.57 
   2  -2 -10    2.51    0.60 
   1  -2 -10    8.88    0.98 
   0  -2 -10   12.66    1.18 
  -1  -2 -10    5.31    0.79 
  -1  -2 -10    5.24    0.86 
  -2  -2 -10    0.29    0.48 
  -2  -2 -10    0.72    0.66 
  -3  -2 -10    7.48    0.96 
  -3  -2 -10    7.83    1.19 
  -4  -2 -10   -0.31    0.90 
   8  -2  -9    0.63    0.77 
   7  -2  -9    3.56    0.66 
   7  -2  -9    3.50    0.96 
   6  -2  -9   20.36    1.79 
   6  -2  -9   18.58    1.45 
   5  -2  -9    8.89    0.93 
   4  -2  -9    8.48    0.89 
   3  -2  -9    9.79    0.97 
   2  -2  -9   17.64    1.40 
   1  -2  -9    4.87    0.68 
   0  -2  -9    1.66    0.49 
   0  -2  -9    1.12    0.47 
  -1  -2  -9    4.61    0.74 
  -1  -2  -9    4.94    0.72 
  -2  -2  -9    4.13    0.68 
  -2  -2  -9    4.28    0.81 
  -3  -2  -9    2.94    0.82 
  -3  -2  -9    2.58    0.60 
  -4  -2  -9    1.36    0.88 
   8  -2  -8    0.21    0.77 
   7  -2  -8    2.19    0.79 
   7  -2  -8    1.87    0.52 
   6  -2  -8    3.83    0.64 
   6  -2  -8    4.54    0.92 
   5  -2  -8   16.22    1.24 
   4  -2  -8   11.06    0.99 
   3  -2  -8   48.31    2.98 
   2  -2  -8   21.49    1.53 
   1  -2  -8   48.09    3.02 
   1  -2  -8   49.83    3.27 
   0  -2  -8    5.28    0.64 
   0  -2  -8    4.41    0.66 
  -1  -2  -8    1.86    0.50 
  -1  -2  -8    1.71    0.47 
  -2  -2  -8    0.35    0.51 
  -2  -2  -8    0.96    0.43 
  -3  -2  -8    6.82    0.98 
  -3  -2  -8    6.11    0.77 
  -4  -2  -8    1.24    0.75 
  -5  -2  -8    1.09    0.90 
   8  -2  -7    1.30    0.82 
   7  -2  -7    3.91    0.90 
   6  -2  -7    3.85    0.87 
   6  -2  -7    4.64    0.62 
   5  -2  -7    8.18    0.80 
   4  -2  -7    8.39    0.81 
   3  -2  -7   18.77    1.32 
   2  -2  -7   43.66    2.52 
  -2   2   7   39.04    2.63 
   1  -2  -7   47.33    3.17 
   1  -2  -7   48.95    2.92 
   0  -2  -7   10.79    0.92 
   0  -2  -7   10.81    0.92 
  -1  -2  -7   60.75    4.22 
  -1  -2  -7   65.83    3.77 
  -2  -2  -7    6.87    0.71 
  -2  -2  -7    5.27    0.78 
  -3  -2  -7    1.03    0.57 
  -3  -2  -7    1.28    0.43 
  -4  -2  -7    0.95    0.41 
  -4  -2  -7    1.04    0.66 
  -5  -2  -7   -0.10    0.70 
  -6  -2  -7   -0.11    0.90 
   9  -2  -6    2.33    1.04 
   8  -2  -6    5.03    1.03 
   7  -2  -6    7.80    1.13 
   6  -2  -6    3.63    0.79 
   6  -2  -6    4.10    0.58 
   5  -2  -6   36.37    2.28 
   5  -2  -6   36.61    2.72 
   4  -2  -6    6.64    0.66 
   3  -2  -6    3.80    0.50 
   2  -2  -6    9.67    0.80 
   1  -2  -6    5.51    0.61 
   1  -2  -6    7.31    0.58 
   0  -2  -6   59.59    3.43 
   0  -2  -6   56.38    3.81 
  -2  -2  -6   14.76    1.06 
  -2  -2  -6   14.46    1.25 
  -3  -2  -6    7.48    0.91 
  -3  -2  -6    6.25    0.67 
  -4  -2  -6    2.41    0.69 
  -4  -2  -6    2.71    0.48 
  -5  -2  -6    1.32    0.70 
  -6  -2  -6    1.24    0.87 
   9  -2  -5    0.52    0.89 
   8  -2  -5    0.63    0.71 
   7  -2  -5    5.43    0.96 
   6  -2  -5   14.44    1.09 
   6  -2  -5   15.65    1.46 
   5  -2  -5   21.74    1.74 
   5  -2  -5   20.47    1.39 
   4  -2  -5   56.53    3.33 
   3  -2  -5   72.11    4.18 
   2  -2  -5   57.75    3.38 
   1  -2  -5   78.19    5.06 
   1  -2  -5   79.14    4.54 
   0  -2  -5   15.35    1.09 
   0  -2  -5   13.83    1.00 
  -1  -2  -5    1.34    0.32 
  -2  -2  -5    8.44    0.72 
  -2  -2  -5    9.18    0.87 
  -3  -2  -5   11.75    1.08 
  -3  -2  -5   10.13    0.81 
  -4  -2  -5    9.68    0.86 
  -4  -2  -5   11.69    1.17 
  -5  -2  -5    1.23    0.63 
  -6  -2  -5    0.94    0.73 
  -7  -2  -5    0.18    0.73 
   9  -2  -4    1.07    0.88 
   8  -2  -4    0.27    0.70 
   7  -2  -4    2.46    0.74 
   6  -2  -4    3.51    0.46 
   6  -2  -4    3.93    0.75 
   5  -2  -4   20.88    1.81 
   5  -2  -4   23.96    1.48 
  -5   2   4   23.54    1.61 
   4  -2  -4   19.40    1.63 
   4  -2  -4   18.42    1.34 
  -4   2   4   23.77    1.44 
   3  -2  -4   38.70    2.31 
   2  -2  -4   79.79    4.58 
   1  -2  -4  392.51   21.95 
   0  -2  -4   76.07    4.95 
   0  -2  -4   77.10    4.39 
  -1  -2  -4   57.00    3.20 
  -1  -2  -4   52.57    3.62 
  -2  -2  -4   20.11    1.46 
  -2  -2  -4   18.40    1.23 
  -3  -2  -4    7.27    0.59 
  -3  -2  -4    5.08    0.72 
  -4  -2  -4    1.60    0.52 
  -4  -2  -4    1.11    0.26 
  -5  -2  -4    0.74    0.56 
  -6  -2  -4    2.03    0.74 
  -7  -2  -4    1.10    0.79 
   9  -2  -3    1.62    0.91 
   8  -2  -3    1.33    0.74 
   7  -2  -3    6.82    1.02 
   6  -2  -3    1.82    0.58 
  -6   2   3    2.64    0.45 
   5  -2  -3    1.11    0.47 
   5  -2  -3    1.64    0.30 
  -5   2   3    0.63    0.27 
   4  -2  -3    3.95    0.40 
   4  -2  -3    3.55    0.57 
  -4   2   3    3.77    0.39 
   3  -2  -3   13.84    0.86 
   3  -2  -3   13.95    1.05 
  -3   2   3   11.58    0.89 
   2  -2  -3   18.11    1.14 
  -2   2   3   18.66    1.22 
   1  -2  -3   37.01    2.21 
  -1   2   3   38.31    2.44 
   0  -2  -3  223.30   12.72 
   0  -2  -3  230.45   14.44 
  -2  -2  -3  147.51    9.69 
  -2  -2  -3  147.69    8.48 
   2   2   3  154.83    9.76 
  -3  -2  -3    3.58    0.39 
  -3  -2  -3    3.28    0.53 
  -4  -2  -3   14.03    1.41 
   4   2   3   19.05    1.27 
  -5  -2  -3   10.23    1.11 
  -6  -2  -3    1.26    0.62 
  -7  -2  -3    0.17    0.64 
   9  -2  -2    1.01    0.85 
   8  -2  -2    1.45    0.72 
   7  -2  -2    4.45    0.82 
  -7   2   2    5.08    0.75 
   6  -2  -2    7.84    0.95 
  -6   2   2    7.76    0.83 
   5  -2  -2   35.13    2.41 
   5  -2  -2   34.65    1.94 
  -5   2   2   28.24    2.24 
   4  -2  -2   27.54    1.85 
   4  -2  -2   26.06    1.49 
  -4   2   2   21.62    1.70 
   3  -2  -2  119.97    6.84 
   3  -2  -2  122.50    8.03 
  -3   2   2  122.63    7.80 
   2  -2  -2    9.93    0.75 
   2  -2  -2    9.45    0.61 
  -2   2   2    8.52    0.66 
   1  -2  -2   14.85    1.09 
  -1   2   2   15.78    1.05 
   0  -2  -2  133.57    7.88 
   0  -2  -2  147.01    9.11 
   0  -2  -2  139.58    8.95 
  -1  -2  -2  237.49   13.34 
  -1  -2  -2  239.02   15.18 
  -2  -2  -2   44.15    2.94 
  -2  -2  -2   44.80    2.55 
   2   2   2   42.93    2.88 
  -3  -2  -2   17.11    1.35 
  -3  -2  -2   17.54    1.12 
   3   2   2   17.92    1.24 
  -4  -2  -2   19.75    1.45 
   4   2   2   16.56    1.28 
  -5  -2  -2   11.44    1.25 
   5   2   2   15.63    1.13 
  -6  -2  -2   12.39    1.31 
  -7  -2  -2    0.42    0.60 
  -8  -2  -2    0.56    0.74 
   8  -2  -1    1.79    0.71 
  -8   2   1    1.02    0.64 
   7  -2  -1    0.81    0.57 
  -7   2   1    1.05    0.58 
   6  -2  -1    0.27    0.46 
  -6   2   1    1.09    0.45 
   5  -2  -1    4.82    0.71 
   5  -2  -1    4.73    0.43 
  -5   2   1    8.56    0.72 
   4  -2  -1  132.07    8.54 
   4  -2  -1  133.03    7.25 
  -4   2   1  121.44    8.33 
   3  -2  -1   58.59    3.96 
   3  -2  -1   57.95    3.33 
  -3   2   1   59.97    3.85 
   2  -2  -1  137.92    7.56 
   2  -2  -1  132.11    8.84 
   1  -2  -1  110.58    6.22 
   1  -2  -1  111.72    7.25 
   0  -2  -1  969.50   52.67 
   0  -2  -1  929.41   61.20 
   0   2   1  940.32   59.94 
  -1  -2  -1  217.83   13.87 
  -1  -2  -1  217.16   12.18 
  -2  -2  -1   90.65    5.90 
  -2  -2  -1   91.36    5.16 
  -3  -2  -1    1.05    0.30 
   3   2   1    0.97    0.24 
  -4  -2  -1    2.00    0.42 
   4   2   1    0.59    0.29 
  -5  -2  -1   16.05    1.41 
   5   2   1   17.36    1.31 
  -6  -2  -1    8.90    1.06 
   6   2   1   10.19    0.94 
  -7  -2  -1    0.92    0.61 
  -8  -2  -1    0.74    0.69 
   8  -2   0    0.76    0.67 
  -8   2   0   -0.11    0.64 
   7  -2   0    0.39    0.55 
  -7   2   0    0.50    0.55 
   6  -2   0    5.73    0.83 
  -6   2   0    8.78    0.92 
   5  -2   0    2.88    0.58 
  -5   2   0    3.44    0.56 
   4  -2   0    6.61    0.45 
   4  -2   0    6.46    0.70 
  -4   2   0    6.71    0.69 
   3  -2   0  120.52    6.65 
   3  -2   0  119.69    7.83 
  -3   2   0  115.88    7.67 
   2  -2   0   99.35    6.88 
  -2   2   0  110.27    6.75 
  -1   2   0    2.84    0.18 
  -1   2   0    2.92    0.30 
  -1  -2   0    9.16    0.67 
  -2  -2   0  108.90    7.01 
  -3  -2   0  124.35    8.03 
  -4  -2   0    5.69    0.64 
   4   2   0    5.49    0.60 
  -5  -2   0    3.27    0.58 
   5   2   0    3.91    0.55 
  -6  -2   0    6.85    0.88 
   6   2   0    7.81    0.85 
  -7  -2   0    0.34    0.55 
   7   2   0    0.25    0.50 
  -8  -2   0    1.02    0.68 
  -8   2  -1    0.62    0.70 
   7  -2   1    2.21    0.65 
  -7   2  -1    1.48    0.65 
   6  -2   1   10.65    1.07 
  -6   2  -1   10.65    1.15 
   5  -2   1   18.31    1.50 
  -5   2  -1   19.90    1.56 
   4  -2   1    1.45    0.37 
  -4   2  -1    0.55    0.33 
   3  -2   1    0.73    0.31 
  -3   2  -1    1.30    0.32 
   2  -2   1   92.79    5.95 
  -2   2  -1   87.50    5.84 
   1  -2   1  226.04   15.13 
  -1   2  -1  236.69   13.00 
  -1   2  -1  235.25   14.84 
   0   2  -1  879.90   55.74 
   1   2  -1  142.64    9.08 
  -2  -2   1  145.49    9.30 
  -3  -2   1   63.68    4.17 
  -4  -2   1  143.11    9.24 
  -5  -2   1    5.69    0.73 
   5   2  -1    9.52    0.84 
  -6  -2   1    0.40    0.44 
   6   2  -1    1.45    0.51 
  -7  -2   1    1.02    0.55 
   7   2  -1    1.46    0.58 
  -8  -2   1    1.33    0.68 
  -8   2  -2    0.51    0.73 
  -7   2  -2   -0.09    0.62 
   6  -2   2   11.26    1.09 
  -6   2  -2    9.56    1.17 
   5  -2   2   10.20    1.09 
  -5   2  -2   16.05    1.26 
   4  -2   2   21.00    1.53 
  -4   2  -2   18.64    1.56 
   3  -2   2   15.73    1.25 
  -3   2  -2   17.40    1.30 
  -3   2  -2   17.10    0.99 
   2  -2   2   46.61    3.11 
  -2   2  -2   46.38    2.61 
  -2   2  -2   45.10    3.08 
  -1   2  -2  203.79   13.03 
  -1   2  -2  204.13   11.39 
   0   2  -2  147.86    8.28 
   0   2  -2  147.50    9.44 
   1   2  -2   14.89    1.04 
   1   2  -2   15.13    0.93 
   2   2  -2    9.33    0.69 
  -3  -2   2   58.30    3.80 
  -4  -2   2   28.84    2.00 
  -5  -2   2   39.44    2.72 
  -6  -2   2    8.03    0.84 
   6   2  -2    5.69    0.88 
   6   2  -2    7.84    0.70 
  -7  -2   2    5.53    0.79 
   7   2  -2    4.21    0.79 
   8   2  -2    1.40    0.66 
  -7   2  -3    0.28    0.68 
  -6   2  -3    1.81    0.69 
   5  -2   3   12.48    1.09 
  -5   2  -3   11.23    1.24 
   4  -2   3   16.07    1.33 
  -4   2  -3   18.18    1.44 
  -3   2  -3    1.44    0.38 
  -3   2  -3    1.29    0.19 
   2  -2   3  143.72    9.73 
  -2   2  -3  152.15    8.34 
  -2   2  -3  149.92    9.59 
   0   2  -3  226.40   14.45 
   0   2  -3  227.17   12.70 
   1   2  -3   36.34    2.42 
   1   2  -3   37.96    2.18 
   2   2  -3   17.82    1.15 
   2   2  -3   18.74    1.24 
   3   2  -3   12.07    0.82 
   3   2  -3   11.13    0.84 
  -4  -2   3    2.92    0.37 
   4   2  -3    4.02    0.44 
  -5  -2   3    0.77    0.29 
   5   2  -3    1.00    0.33 
  -6  -2   3    1.57    0.39 
   6   2  -3    2.28    0.44 
   7   2  -3    6.86    0.74 
   7   2  -3    6.60    0.93 
   8   2  -3    2.31    0.71 
   9   2  -3    1.14    0.83 
  -7   2  -4    0.87    0.75 
  -6   2  -4    1.49    0.71 
  -5   2  -4    0.56    0.60 
   4  -2   4    2.33    0.49 
  -4   2  -4    1.41    0.54 
  -3   2  -4    6.42    0.49 
  -3   2  -4    6.01    0.77 
  -2   2  -4   18.91    1.18 
  -2   2  -4   19.32    1.46 
  -1   2  -4   46.78    3.13 
   0   2  -4   70.35    4.00 
   0   2  -4   69.08    4.54 
   1   2  -4  397.32   25.07 
   1   2  -4  392.21   22.08 
   2   2  -4  108.80    6.96 
   2   2  -4  109.00    6.20 
   3   2  -4   30.02    1.98 
   3   2  -4   29.88    1.85 
   4   2  -4   23.78    1.62 
   4   2  -4   23.54    1.53 
   5   2  -4   25.01    1.63 
  -6  -2   4    3.47    0.45 
   6   2  -4    2.43    0.49 
   7   2  -4    1.85    0.49 
   7   2  -4    2.95    0.71 
   8   2  -4    0.09    0.64 
   9   2  -4   -0.16    0.77 
  -7   2  -5    0.31    0.77 
  -6   2  -5    1.99    0.80 
  -5   2  -5    1.62    0.70 
  -4   2  -5    9.47    1.10 
  -3   2  -5    9.26    0.98 
  -3   2  -5    8.64    0.66 
  -2   2  -5    7.96    0.81 
  -2   2  -5    7.28    0.60 
  -1   2  -5    0.81    0.32 
   0   2  -5   14.16    0.99 
   0   2  -5   15.06    1.09 
   1   2  -5   91.60    5.29 
   1   2  -5   92.56    5.94 
   2   2  -5   46.80    3.06 
   2   2  -5   47.65    2.80 
   3   2  -5   76.60    4.42 
   3   2  -5   75.40    4.87 
   4   2  -5   48.65    3.02 
   4   2  -5   51.46    3.28 
   5   2  -5   23.12    1.60 
   5   2  -5   24.25    1.64 
   6   2  -5   13.83    1.08 
   7   2  -5    6.30    0.75 
   8   2  -5    1.21    0.72 
   9   2  -5   -0.71    0.82 
  -6   2  -6    0.87    0.81 
  -5   2  -6    0.10    0.63 
  -4   2  -6    2.60    0.74 
  -3   2  -6    7.91    0.65 
  -3   2  -6    6.93    0.93 
  -2   2  -6   16.70    1.39 
   0   2  -6   63.16    3.79 
   0   2  -6   66.19    4.28 
   1   2  -6    6.44    0.57 
   1   2  -6    6.25    0.63 
   2   2  -6    8.20    0.72 
   2   2  -6    7.73    0.61 
   3   2  -6    5.24    0.59 
   4   2  -6    7.21    0.74 
   5   2  -6   41.81    2.63 
   6   2  -6    5.92    0.76 
   7   2  -6    4.66    0.73 
   8   2  -6    5.67    1.07 
   9   2  -6    0.52    0.81 
  -6   2  -7   -0.22    0.93 
  -5   2  -7    0.76    0.75 
  -4   2  -7    1.56    0.73 
  -3   2  -7    0.93    0.59 
  -2   2  -7    6.81    0.65 
  -2   2  -7    6.15    0.82 
  -1   2  -7   62.18    4.27 
  -1   2  -7   64.58    3.75 
   0   2  -7   12.44    1.03 
   0   2  -7   12.71    0.96 
   1   2  -7   51.83    3.38 
   1   2  -7   49.86    3.07 
   2   2  -7   42.09    2.81 
   2   2  -7   44.26    2.66 
   3   2  -7   20.62    1.45 
   4   2  -7   12.71    1.06 
   5   2  -7    6.62    0.78 
   6   2  -7    3.72    0.63 
   7   2  -7    3.11    0.64 
   8   2  -7    1.80    0.65 
  -5   2  -8    1.20    0.95 
  -4   2  -8    1.88    0.80 
  -3   2  -8    8.82    1.14 
  -2   2  -8    1.02    0.42 
  -2   2  -8    0.98    0.58 
  -1   2  -8    2.02    0.48 
  -1   2  -8    2.29    0.56 
   0   2  -8    6.26    0.71 
   0   2  -8    5.20    0.67 
   1   2  -8   49.02    3.20 
   1   2  -8   55.74    3.53 
   2   2  -8   18.55    1.36 
   2   2  -8   17.66    1.27 
   3   2  -8   47.39    2.96 
   4   2  -8   11.82    1.06 
   5   2  -8   13.68    1.19 
   6   2  -8    3.31    0.66 
   7   2  -8    1.66    0.55 
   8   2  -8    0.58    0.56 
  -4   2  -9    1.43    0.90 
  -3   2  -9    2.18    0.80 
  -2   2  -9    5.11    0.70 
  -2   2  -9    5.09    0.89 
  -1   2  -9    5.74    0.71 
  -1   2  -9    4.27    0.77 
   0   2  -9    0.50    0.42 
   0   2  -9    1.42    0.48 
   1   2  -9    6.94    0.69 
   1   2  -9    5.81    0.76 
   2   2  -9   17.03    1.36 
   3   2  -9   10.60    1.03 
   4   2  -9   14.95    1.29 
   5   2  -9    7.91    0.94 
   6   2  -9   18.24    1.52 
   7   2  -9    2.50    0.67 
   8   2  -9    1.50    0.71 
  -4   2 -10   -0.43    0.93 
  -3   2 -10   10.77    1.42 
  -2   2 -10    1.06    0.54 
  -2   2 -10    0.16    0.63 
  -1   2 -10    5.47    0.88 
  -1   2 -10    5.72    0.80 
   0   2 -10   12.58    1.17 
   0   2 -10   13.29    1.22 
   1   2 -10    8.39    0.95 
   2   2 -10    1.88    0.59 
   3   2 -10    2.58    0.60 
   4   2 -10    0.77    0.50 
   5   2 -10    1.14    0.58 
   6   2 -10    3.35    0.73 
   7   2 -10    4.60    0.89 
  -3   2 -11   -0.24    0.90 
  -2   2 -11    1.22    0.81 
  -1   2 -11    2.48    0.67 
   0   2 -11    2.20    0.62 
   1   2 -11    7.44    0.96 
   2   2 -11    9.85    1.08 
   3   2 -11    9.75    1.10 
   4   2 -11    8.45    1.04 
   5   2 -11    0.67    0.55 
   6   2 -11    1.18    0.62 
   7   2 -11    0.64    0.65 
  -1   2 -12    0.86    0.64 
   0   2 -12    1.19    0.62 
   1   2 -12   -0.11    0.51 
   2   2 -12    3.21    0.74 
   3   2 -12    2.31    0.67 
   4   2 -12    8.68    1.11 
   5   2 -12    4.97    0.92 
   6   2 -12    3.68    0.82 
   0   2 -13    1.05    0.70 
   1   2 -13    1.54    0.73 
   2   2 -13    0.11    0.62 
   3   2 -13    1.09    0.68 
   4   2 -13    3.99    0.87 
   5   2 -13    0.31    0.70 
   5  -3 -13    0.78    0.69 
   4  -3 -13    2.49    0.79 
   3  -3 -13    4.61    0.94 
   2  -3 -13    3.10    0.81 
   1  -3 -13    1.34    0.70 
   0  -3 -13    0.39    0.62 
   6  -3 -12    0.74    0.65 
   6  -3 -12    0.51    0.83 
   5  -3 -12   -0.40    0.52 
   5  -3 -12   -0.07    0.75 
   4  -3 -12    0.90    0.62 
   3  -3 -12    0.90    0.63 
   2  -3 -12    0.86    0.60 
   1  -3 -12    8.24    1.08 
   0  -3 -12    5.47    0.92 
  -1  -3 -12    0.46    0.62 
   7  -3 -11    2.49    1.00 
   7  -3 -11    4.02    0.81 
   6  -3 -11    4.56    0.82 
   6  -3 -11    4.42    1.02 
   5  -3 -11    6.40    0.95 
   5  -3 -11    9.26    1.25 
   4  -3 -11    3.78    0.75 
   3  -3 -11    0.79    0.51 
   2  -3 -11    0.67    0.53 
   1  -3 -11    1.16    0.56 
   0  -3 -11    2.53    0.70 
  -1  -3 -11    5.30    0.88 
  -2  -3 -11    3.03    0.94 
  -2  -3 -11    4.15    0.79 
  -3  -3 -11    0.51    0.92 
  -3  -3 -11    0.96    0.63 
   7  -3 -10    1.10    0.55 
   7  -3 -10    1.98    0.88 
   6  -3 -10    4.47    0.97 
   6  -3 -10    3.87    0.71 
   5  -3 -10   10.55    1.09 
   5  -3 -10   10.22    1.28 
   4  -3 -10    9.40    1.01 
   3  -3 -10    7.68    0.91 
   2  -3 -10   18.83    1.47 
   1  -3 -10    6.26    0.84 
   0  -3 -10    1.44    0.54 
  -1  -3 -10    0.57    0.52 
  -1  -3 -10    0.64    0.56 
  -2  -3 -10   -0.03    0.61 
  -2  -3 -10   -0.22    0.47 
  -3  -3 -10    0.68    0.56 
  -3  -3 -10    1.75    0.81 
  -4  -3 -10    2.72    1.06 
   8  -3  -9    0.87    0.84 
   7  -3  -9    1.01    0.50 
   7  -3  -9   -0.05    0.70 
   6  -3  -9    1.09    0.47 
   6  -3  -9    0.08    0.67 
   5  -3  -9    3.47    0.61 
   5  -3  -9    1.33    0.78 
   4  -3  -9   15.09    1.25 
   3  -3  -9    2.03    0.51 
   2  -3  -9   56.57    3.48 
   1  -3  -9   14.04    1.21 
   0  -3  -9   12.74    1.16 
   0  -3  -9   14.78    1.21 
  -1  -3  -9    4.75    0.74 
  -1  -3  -9    4.62    0.74 
  -2  -3  -9    4.74    0.85 
  -2  -3  -9    4.70    0.72 
  -3  -3  -9    1.04    0.70 
  -3  -3  -9    1.89    0.56 
  -4  -3  -9    0.73    0.84 
   8  -3  -8    2.61    0.93 
   7  -3  -8    9.19    1.28 
   6  -3  -8    3.20    0.82 
   6  -3  -8    2.33    0.54 
   5  -3  -8    5.04    0.69 
   5  -3  -8    5.32    0.91 
   4  -3  -8    6.79    0.76 
   3  -3  -8    1.37    0.45 
   2  -3  -8   22.75    1.59 
   1  -3  -8   19.89    1.48 
   1  -3  -8   21.36    1.47 
   0  -3  -8   23.93    1.67 
   0  -3  -8   24.45    1.78 
  -1  -3  -8    5.26    0.70 
  -1  -3  -8    4.94    0.72 
  -2  -3  -8   25.98    2.00 
  -2  -3  -8   25.29    1.76 
  -3  -3  -8    4.41    0.67 
  -3  -3  -8    5.67    0.92 
  -4  -3  -8    2.85    0.85 
  -4  -3  -8    1.50    0.54 
  -5  -3  -8    0.27    0.87 
   8  -3  -7    1.48    0.82 
   7  -3  -7    4.12    0.94 
   6  -3  -7   18.36    1.72 
   6  -3  -7   18.34    1.33 
   5  -3  -7   14.29    1.38 
   5  -3  -7   14.15    1.09 
   4  -3  -7   34.84    2.24 
   4  -3  -7   36.39    2.63 
   3  -3  -7   68.13    4.04 
   2  -3  -7   17.28    1.11 
  -2   3   7   12.63    0.96 
   1  -3  -7    5.32    0.52 
   1  -3  -7    3.96    0.58 
   0  -3  -7    4.19    0.59 
   0  -3  -7    5.72    0.61 
  -1  -3  -7    7.03    0.80 
  -1  -3  -7    8.11    0.78 
  -2  -3  -7   13.54    1.32 
  -2  -3  -7   16.71    1.17 
  -3  -3  -7    0.42    0.38 
  -3  -3  -7    0.43    0.55 
  -4  -3  -7    8.99    1.11 
  -4  -3  -7    5.56    0.75 
  -5  -3  -7    4.94    1.06 
  -6  -3  -7    0.61    0.94 
   8  -3  -6    0.22    0.71 
   7  -3  -6    1.98    0.76 
   6  -3  -6    5.61    0.64 
   6  -3  -6    5.68    0.93 
   5  -3  -6    7.81    0.99 
   5  -3  -6    7.40    0.73 
   4  -3  -6   73.94    4.99 
   4  -3  -6   71.22    4.25 
   3  -3  -6   61.65    3.64 
   2  -3  -6   34.76    2.16 
  -2   3   6   34.87    2.28 
   1  -3  -6   29.35    1.85 
   0  -3  -6   66.67    3.93 
   0  -3  -6   67.17    4.41 
  -1  -3  -6   13.31    1.15 
  -1  -3  -6   15.29    1.06 
  -2  -3  -6    1.33    0.47 
  -2  -3  -6    0.64    0.32 
  -3  -3  -6    0.75    0.35 
  -3  -3  -6    0.06    0.48 
  -4  -3  -6    2.74    0.72 
  -4  -3  -6    2.32    0.49 
  -5  -3  -6    1.97    0.76 
  -6  -3  -6    1.60    0.89 
   9  -3  -5    1.80    0.97 
   8  -3  -5    1.73    0.83 
   7  -3  -5    5.47    0.98 
   6  -3  -5    6.33    0.62 
   6  -3  -5    6.10    0.96 
   5  -3  -5    0.22    0.52 
   5  -3  -5    0.05    0.26 
   4  -3  -5    1.11    0.49 
   4  -3  -5    0.58    0.29 
  -4   3   5    1.27    0.14 
   3  -3  -5   25.76    1.94 
   3  -3  -5   26.89    1.65 
   2  -3  -5  144.96    8.21 
  -2   3   5  144.32    9.21 
   1  -3  -5   37.25    2.21 
  -1   3   5   35.87    2.40 
   0  -3  -5  125.24    7.86 
   0  -3  -5  117.36    6.87 
   0  -3  -5  118.03    7.77 
  -1  -3  -5   92.18    6.15 
  -1  -3  -5   96.52    5.44 
  -2  -3  -5   28.47    2.13 
  -2  -3  -5   30.60    1.86 
  -3  -3  -5    9.03    1.00 
  -3  -3  -5   10.19    0.83 
  -4  -3  -5    1.37    0.39 
  -4  -3  -5    1.44    0.56 
  -5  -3  -5   -0.16    0.53 
  -6  -3  -5    1.50    0.79 
  -7  -3  -5   -0.54    0.67 
   9  -3  -4   -0.73    0.80 
   8  -3  -4    4.11    0.95 
   7  -3  -4    1.20    0.65 
   6  -3  -4   19.90    1.69 
   5  -3  -4   26.69    2.02 
   5  -3  -4   26.32    1.62 
  -5   3   4   24.64    1.77 
   4  -3  -4   16.11    1.05 
   4  -3  -4   15.02    1.29 
  -4   3   4   15.68    1.10 
   3  -3  -4   23.21    1.60 
   3  -3  -4   23.08    1.34 
  -3   3   4   19.01    1.40 
   2  -3  -4  116.89    6.67 
   2  -3  -4  116.11    7.73 
  -2   3   4  118.85    7.49 
   1  -3  -4   34.89    2.26 
  -1   3   4   41.05    2.52 
   0  -3  -4    3.81    0.40 
   0  -3  -4    3.49    0.32 
   0  -3  -4    3.83    0.40 
  -1  -3  -4   77.10    4.42 
  -1  -3  -4   76.16    5.02 
  -2  -3  -4   55.53    3.28 
  -2  -3  -4   56.21    3.76 
  -3  -3  -4   38.46    2.29 
  -3  -3  -4   36.26    2.66 
  -4  -3  -4   23.10    1.58 
  -4  -3  -4   25.89    1.94 
  -5  -3  -4    6.13    0.93 
  -6  -3  -4   -0.64    0.57 
  -7  -3  -4    2.14    0.87 
   9  -3  -3    1.35    0.90 
   8  -3  -3    0.82    0.73 
   7  -3  -3    5.53    0.94 
   6  -3  -3   11.10    1.15 
  -6   3   3    9.30    0.90 
   5  -3  -3   26.11    1.98 
   5  -3  -3   25.78    1.57 
  -5   3   3   24.51    1.79 
   4  -3  -3   51.91    3.00 
   4  -3  -3   53.20    3.60 
  -4   3   3   50.56    3.41 
   3  -3  -3  147.77    8.37 
   3  -3  -3  151.78    9.79 
  -3   3   3  146.86    9.50 
   2  -3  -3   24.95    1.42 
   2  -3  -3   23.31    1.66 
  -2   3   3   22.15    1.55 
   1  -3  -3   22.93    1.88 
  -1   3   3   33.03    1.85 
   0  -3  -3    5.44    0.43 
   0  -3  -3    5.57    0.47 
   0  -3  -3    6.09    0.50 
  -1  -3  -3  137.42    7.66 
  -1  -3  -3  133.30    8.70 
  -2  -3  -3   17.65    1.21 
  -2  -3  -3   20.80    1.44 
  -3  -3  -3    3.92    0.59 
  -3  -3  -3    4.89    0.48 
   3   3   3    4.10    0.37 
  -4  -3  -3    2.23    0.54 
  -5  -3  -3    1.03    0.54 
  -6  -3  -3    2.52    0.72 
  -7  -3  -3    1.16    0.70 
   8  -3  -2    2.11    0.79 
   7  -3  -2    0.86    0.58 
  -7   3   2    1.37    0.54 
   6  -3  -2    4.41    0.77 
  -6   3   2    3.74    0.63 
   5  -3  -2    2.55    0.30 
   5  -3  -2    2.92    0.60 
  -5   3   2    2.21    0.43 
   4  -3  -2   16.58    1.03 
   4  -3  -2   16.14    1.32 
   3  -3  -2  162.66   10.43 
   3  -3  -2  165.08    8.90 
  -3   3   2  148.55   10.15 
   2  -3  -2  225.35   12.91 
   2  -3  -2  223.40   15.04 
  -2   3   2  243.82   14.71 
   1  -3  -2  300.54   15.91 
   1  -3  -2  308.49   18.49 
  -1   3   2  246.30   18.07 
   0  -3  -2  383.85   21.77 
   0  -3  -2  404.43   25.26 
   0   3   2  381.94   24.77 
  -1  -3  -2  227.51   14.49 
  -1  -3  -2  226.74   12.73 
  -2  -3  -2   11.61    0.86 
  -2  -3  -2   10.61    0.71 
   2   3   2    9.24    0.70 
  -3  -3  -2    7.93    0.80 
  -3  -3  -2    7.66    0.63 
   3   3   2    9.05    0.65 
  -4  -3  -2    1.44    0.45 
   4   3   2    0.98    0.28 
  -5  -3  -2   11.42    1.15 
  -6  -3  -2    0.34    0.56 
  -7  -3  -2    1.12    0.64 
  -8  -3  -2    0.52    0.76 
   8  -3  -1    1.94    0.75 
  -8   3   1    1.36    0.69 
   7  -3  -1    1.00    0.59 
  -7   3   1    0.70    0.53 
   6  -3  -1    6.18    0.86 
  -6   3   1    5.64    0.79 
   5  -3  -1   14.02    1.25 
  -5   3   1   14.59    1.19 
   4  -3  -1   22.84    1.71 
   4  -3  -1   21.89    1.33 
  -4   3   1   24.47    1.67 
   3  -3  -1   17.57    1.32 
   3  -3  -1   17.84    1.03 
  -3   3   1   16.75    1.26 
   2  -3  -1    0.99    0.13 
   2  -3  -1    0.55    0.23 
  -2   3   1    1.44    0.24 
   1  -3  -1  124.02    6.78 
   1  -3  -1  120.87    7.91 
  -1   3   1  118.00    7.74 
   0  -3  -1   57.22    3.37 
   0   3   1   61.66    3.84 
  -1  -3  -1  470.37   30.06 
  -1  -3  -1  476.71   26.41 
  -2  -3  -1  153.79    9.88 
  -3  -3  -1   98.38    6.42 
  -4  -3  -1   33.08    2.33 
   4   3   1   32.26    2.26 
  -5  -3  -1   59.81    4.00 
   5   3   1   56.44    3.92 
  -6  -3  -1    1.54    0.58 
  -7  -3  -1    0.03    0.54 
  -8  -3  -1    0.12    0.65 
   8  -3   0    0.74    0.73 
  -8   3   0    0.74    0.67 
   7  -3   0    6.00    0.91 
  -7   3   0    6.07    0.93 
   6  -3   0    6.00    0.88 
  -6   3   0    7.57    0.90 
   5  -3   0   12.97    1.22 
  -5   3   0   15.41    1.25 
   4  -3   0   21.83    1.73 
  -4   3   0   25.03    1.74 
   3  -3   0   33.64    2.27 
  -3   3   0   30.73    2.21 
   2  -3   0   11.87    1.04 
  -2   3   0   16.58    1.05 
   1  -3   0  493.77   32.00 
  -1   3   0  494.11   31.35 
   0   3   0   -0.07    0.15 
   1   3   0  520.58   33.03 
  -2  -3   0   12.29    0.93 
  -3  -3   0   36.53    2.50 
  -4  -3   0   20.86    1.57 
  -5  -3   0   15.76    1.36 
   5   3   0   16.51    1.30 
  -6  -3   0    7.26    0.90 
   6   3   0    6.88    0.79 
  -7  -3   0    9.08    1.12 
  -8  -3   0    0.16    0.67 
  -8   3  -1    0.76    0.71 
   7  -3   1    0.09    0.53 
  -7   3  -1    0.94    0.62 
   6  -3   1    1.55    0.56 
  -6   3  -1    2.22    0.65 
  -5   3  -1   62.25    4.26 
   4  -3   1   28.14    2.17 
  -4   3  -1   32.69    2.19 
   3  -3   1   97.57    6.59 
  -3   3  -1  101.25    6.48 
   2  -3   1  142.42    8.60 
  -2   3  -1  119.16    8.42 
   1  -3   1  461.03   29.63 
  -1   3  -1  455.64   25.46 
  -1   3  -1  454.51   29.04 
   0   3  -1   62.22    4.03 
   1   3  -1  109.34    7.00 
   2   3  -1    1.70    0.27 
  -3  -3   1   20.28    1.45 
  -4  -3   1   21.24    1.57 
  -5  -3   1   12.59    1.11 
  -6  -3   1    6.24    0.82 
   6   3  -1    6.74    0.82 
  -7  -3   1    1.68    0.62 
   7   3  -1    1.20    0.56 
  -8  -3   1    2.83    0.80 
  -8   3  -2    0.93    0.78 
  -7   3  -2    0.58    0.65 
   6  -3   2    0.33    0.51 
  -6   3  -2    0.24    0.56 
   5  -3   2    7.26    0.86 
  -5   3  -2    7.64    0.93 
   4  -3   2    1.90    0.44 
  -4   3  -2    0.81    0.44 
   3  -3   2    9.22    0.84 
  -3   3  -2    9.60    0.87 
   2  -3   2   11.65    0.82 
  -2   3  -2    8.31    0.79 
  -2   3  -2    9.15    0.57 
  -1   3  -2  212.96   12.01 
  -1   3  -2  217.20   13.74 
   0   3  -2  377.79   21.17 
   0   3  -2  381.30   24.12 
   1   3  -2  316.63   20.12 
   2   3  -2  245.87   15.65 
   3   3  -2  147.26    9.44 
  -4  -3   2   17.44    1.30 
  -5  -3   2    2.24    0.44 
  -6  -3   2    5.24    0.72 
  -7  -3   2    1.58    0.56 
   7   3  -2    2.18    0.64 
   7   3  -2    0.57    0.42 
   8   3  -2    1.37    0.68 
  -7   3  -3    1.14    0.72 
   6  -3   3    3.47    0.75 
  -6   3  -3    3.75    0.85 
   5  -3   3    1.79    0.56 
  -5   3  -3    1.27    0.58 
   4  -3   3    3.13    0.54 
  -4   3  -3    1.85    0.56 
   3  -3   3    4.88    0.57 
  -3   3  -3    3.50    0.58 
  -3   3  -3    3.81    0.29 
   2  -3   3   19.23    1.43 
  -2   3  -3   18.93    1.15 
  -2   3  -3   19.53    1.44 
  -1   3  -3  140.87    7.93 
  -1   3  -3  141.34    9.09 
   0   3  -3    6.76    0.58 
   0   3  -3    6.35    0.49 
   1   3  -3   30.65    2.05 
   1   3  -3   30.70    1.83 
   2   3  -3   26.42    1.77 
   2   3  -3   26.34    1.61 
   3   3  -3  151.91    9.80 
   3   3  -3  154.78    8.68 
   4   3  -3   52.53    3.43 
   4   3  -3   51.02    3.07 
  -5  -3   3   27.00    1.89 
   5   3  -3   26.06    1.71 
   6   3  -3   10.41    0.90 
  -7  -3   3    6.11    0.81 
   7   3  -3    8.00    1.02 
   7   3  -3    6.33    0.76 
   8   3  -3    1.68    0.72 
  -7   3  -4    2.02    0.82 
  -6   3  -4    0.87    0.68 
   5  -3   4    5.38    0.77 
  -5   3  -4    4.61    0.87 
   4  -3   4   26.51    2.04 
  -4   3  -4   29.25    2.17 
  -3   3  -4   35.18    2.02 
  -3   3  -4   33.37    2.49 
  -2   3  -4   59.49    3.98 
  -2   3  -4   58.92    3.40 
  -1   3  -4   71.23    4.12 
  -1   3  -4   73.05    4.75 
   0   3  -4    2.72    0.36 
   0   3  -4    1.50    0.27 
   1   3  -4   38.23    2.17 
   1   3  -4   34.68    2.41 
   2   3  -4  119.22    6.88 
   2   3  -4  122.04    7.74 
   3   3  -4   20.16    1.39 
   3   3  -4   20.08    1.31 
   4   3  -4   16.65    1.14 
   4   3  -4   16.31    1.18 
   5   3  -4   29.21    1.94 
   5   3  -4   25.59    1.77 
   6   3  -4   18.59    1.39 
   6   3  -4   17.41    1.29 
   7   3  -4    2.03    0.51 
   8   3  -4    5.07    0.94 
   9   3  -4   -0.72    0.68 
  -7   3  -5    0.94    0.83 
  -6   3  -5    1.33    0.77 
  -5   3  -5   -0.22    0.58 
  -4   3  -5    1.27    0.58 
  -3   3  -5    8.61    0.62 
  -3   3  -5    7.91    0.94 
  -2   3  -5   29.62    1.84 
  -2   3  -5   31.79    2.22 
  -1   3  -5   54.68    3.19 
   0   3  -5  116.25    6.60 
   0   3  -5  115.47    7.50 
   1   3  -5   31.80    1.97 
   1   3  -5   32.90    2.19 
   2   3  -5  149.99    8.44 
   2   3  -5  147.21    9.50 
   3   3  -5   23.39    1.59 
   3   3  -5   23.20    1.53 
   4   3  -5    1.63    0.38 
   4   3  -5    0.88    0.27 
   5   3  -5    0.40    0.35 
   5   3  -5    0.30    0.26 
   6   3  -5    6.90    0.77 
   7   3  -5    4.74    0.70 
   8   3  -5    2.41    0.83 
   9   3  -5    1.37    0.89 
  -6   3  -6    1.85    0.87 
  -5   3  -6    1.91    0.81 
  -4   3  -6    2.81    0.75 
  -3   3  -6    0.91    0.55 
  -2   3  -6    0.79    0.46 
  -2   3  -6    1.06    0.28 
  -1   3  -6   15.11    1.24 
  -1   3  -6   15.46    1.06 
   0   3  -6   63.02    3.77 
   0   3  -6   65.77    4.27 
   1   3  -6   27.03    1.92 
   1   3  -6   28.85    1.77 
   2   3  -6   38.29    2.47 
   2   3  -6   35.03    2.27 
   3   3  -6   56.33    3.48 
   3   3  -6   48.43    3.19 
   4   3  -6   85.22    5.01 
   5   3  -6    6.76    0.76 
   6   3  -6    4.11    0.64 
   7   3  -6    2.32    0.62 
   8   3  -6    0.34    0.56 
  -6   3  -7   -0.11    0.91 
  -5   3  -7    5.38    1.13 
  -4   3  -7    4.64    0.94 
  -3   3  -7    0.05    0.52 
  -2   3  -7   14.86    1.34 
  -2   3  -7   13.91    1.02 
  -1   3  -7    9.72    0.84 
  -1   3  -7   10.41    1.00 
   0   3  -7    4.77    0.60 
   0   3  -7    4.98    0.59 
   1   3  -7    5.33    0.56 
   1   3  -7    5.06    0.63 
   2   3  -7   15.43    1.12 
   2   3  -7   14.53    1.14 
   3   3  -7   73.42    4.35 
   4   3  -7   31.95    2.09 
   5   3  -7   23.83    1.70 
   6   3  -7   20.24    1.53 
   7   3  -7    5.19    0.81 
   8   3  -7    2.77    0.70 
  -5   3  -8    1.80    0.98 
  -4   3  -8    2.00    0.86 
  -3   3  -8    5.24    0.94 
  -1   3  -8    4.52    0.62 
  -1   3  -8    5.31    0.75 
   0   3  -8   25.39    1.83 
   0   3  -8   23.65    1.65 
   1   3  -8   17.67    1.34 
   1   3  -8   19.63    1.44 
   2   3  -8   21.58    1.48 
   2   3  -8   19.52    1.49 
   3   3  -8    1.13    0.47 
   4   3  -8    7.41    0.85 
   5   3  -8    6.05    0.80 
   6   3  -8    2.40    0.61 
   7   3  -8    7.94    0.97 
   8   3  -8    1.56    0.66 
  -4   3  -9    1.34    0.91 
  -3   3  -9    1.25    0.73 
  -2   3  -9    5.98    0.74 
  -2   3  -9    4.88    0.90 
  -1   3  -9    6.02    0.75 
  -1   3  -9    6.84    0.88 
   0   3  -9   15.82    1.30 
   0   3  -9   14.17    1.22 
   1   3  -9   13.52    1.11 
   1   3  -9   12.94    1.15 
   2   3  -9   53.21    3.30 
   3   3  -9    0.81    0.49 
   4   3  -9   16.48    1.38 
   5   3  -9    2.24    0.60 
   6   3  -9    0.44    0.50 
   7   3  -9   -0.01    0.50 
   8   3  -9    0.04    0.62 
  -4   3 -10    3.72    1.16 
  -3   3 -10    0.37    0.81 
  -2   3 -10    0.61    0.67 
  -1   3 -10    0.80    0.48 
  -1   3 -10    0.61    0.59 
   0   3 -10    1.01    0.54 
   0   3 -10    2.02    0.59 
   1   3 -10    4.05    0.67 
   2   3 -10   17.35    1.43 
   3   3 -10    9.27    1.03 
   4   3 -10   10.47    1.11 
   5   3 -10   12.40    1.24 
   6   3 -10    5.81    0.91 
   7   3 -10    1.02    0.69 
  -3   3 -11    0.91    0.97 
  -2   3 -11    3.47    0.96 
  -1   3 -11    5.90    1.00 
  -1   3 -11    4.25    0.78 
   0   3 -11    1.48    0.59 
   1   3 -11    0.35    0.51 
   2   3 -11    1.48    0.59 
   3   3 -11   -0.48    0.49 
   4   3 -11    2.94    0.71 
   5   3 -11    9.18    1.12 
   6   3 -11    4.11    0.88 
   7   3 -11    4.91    0.98 
  -1   3 -12    1.19    0.64 
   0   3 -12    4.58    0.85 
   1   3 -12    6.92    0.98 
   2   3 -12    2.06    0.69 
   3   3 -12    1.59    0.67 
   4   3 -12    0.03    0.60 
   5   3 -12    0.21    0.56 
   6   3 -12    0.83    0.67 
   0   3 -13    0.10    0.63 
   1   3 -13    2.63    0.76 
   2   3 -13    3.28    0.84 
   3   3 -13    5.45    0.94 
   4   3 -13    1.11    0.70 
   5   3 -13    0.16    0.72 
   4  -4 -13    0.10    0.68 
   3  -4 -13    1.04    0.73 
   2  -4 -13    2.69    0.80 
   1  -4 -13    1.28    0.70 
   6  -4 -12    2.90    1.04 
   6  -4 -12    3.29    0.82 
   5  -4 -12    3.81    0.81 
   5  -4 -12    3.26    1.00 
   4  -4 -12    5.30    0.90 
   3  -4 -12    2.47    0.72 
   2  -4 -12    3.02    0.74 
   1  -4 -12    1.06    0.62 
   0  -4 -12    0.96    0.65 
  -1  -4 -12    0.00    0.62 
   7  -4 -11    1.81    0.94 
   7  -4 -11    1.46    0.66 
   6  -4 -11    1.35    0.83 
   6  -4 -11    0.97    0.61 
   5  -4 -11    0.78    0.55 
   5  -4 -11    1.92    0.84 
   4  -4 -11    9.53    1.20 
   4  -4 -11    8.88    1.04 
   3  -4 -11    6.61    0.91 
   2  -4 -11    5.34    0.84 
   1  -4 -11   11.98    1.21 
   0  -4 -11    5.93    0.92 
  -1  -4 -11    0.21    0.55 
  -2  -4 -11   -0.09    0.75 
  -2  -4 -11   -0.77    0.52 
   7  -4 -10    0.65    0.84 
   6  -4 -10    2.40    0.61 
   6  -4 -10    0.89    0.76 
   5  -4 -10    0.43    0.48 
   5  -4 -10    0.12    0.67 
   4  -4 -10    0.39    0.44 
   4  -4 -10    0.79    0.66 
   3  -4 -10    3.53    0.78 
   3  -4 -10    4.03    0.70 
   2  -4 -10    0.16    0.44 
   1  -4 -10   20.92    1.60 
   0  -4 -10   12.42    1.21 
  -1  -4 -10    4.99    0.82 
  -1  -4 -10    4.88    0.76 
  -2  -4 -10    2.10    0.63 
  -2  -4 -10    1.48    0.73 
  -3  -4 -10    0.97    0.58 
  -3  -4 -10    1.91    0.87 
   8  -4  -9    1.82    0.89 
   7  -4  -9    3.52    0.95 
   6  -4  -9    6.96    1.11 
   6  -4  -9    6.44    0.82 
   5  -4  -9   12.49    1.16 
   5  -4  -9   13.94    1.42 
   4  -4  -9    8.34    0.92 
   4  -4  -9    9.64    1.12 
   3  -4  -9   18.79    1.39 
   3  -4  -9   17.56    1.52 
   2  -4  -9    3.46    0.60 
   2  -4  -9    3.27    0.61 
   1  -4  -9    1.44    0.49 
   0  -4  -9   13.75    1.19 
   0  -4  -9   12.24    1.14 
  -2  -4  -9    0.99    0.64 
  -2  -4  -9    1.32    0.55 
  -3  -4  -9    3.78    0.91 
  -3  -4  -9    4.87    0.75 
  -4  -4  -9    0.43    0.54 
  -4  -4  -9    0.29    0.84 
   8  -4  -8    0.79    0.81 
   7  -4  -8    1.35    0.82 
   6  -4  -8    6.40    1.04 
   6  -4  -8    6.66    0.77 
   5  -4  -8    6.07    0.94 
   5  -4  -8    5.19    0.69 
   4  -4  -8   43.20    3.05 
   4  -4  -8   40.43    2.63 
   3  -4  -8   27.43    2.11 
   3  -4  -8   28.47    1.88 
   2  -4  -8   35.46    2.38 
   2  -4  -8   39.16    2.67 
   1  -4  -8   16.17    1.35 
  -1   4   8   20.18    1.38 
   0  -4  -8   11.73    1.07 
   0  -4  -8   12.61    1.07 
  -1  -4  -8    0.50    0.45 
  -1  -4  -8    0.39    0.42 
  -2  -4  -8    4.31    0.69 
  -2  -4  -8    5.86    0.84 
  -3  -4  -8    3.44    0.78 
  -3  -4  -8    2.08    0.55 
  -4  -4  -8    0.10    0.44 
  -4  -4  -8    0.83    0.76 
  -5  -4  -8   -0.28    0.85 
   8  -4  -7    0.43    0.79 
   7  -4  -7   -0.03    0.66 
   6  -4  -7    3.98    0.85 
   6  -4  -7    3.22    0.55 
   5  -4  -7    2.56    0.47 
   5  -4  -7    0.84    0.59 
   4  -4  -7    4.58    0.79 
   4  -4  -7    5.62    0.67 
   3  -4  -7   19.36    1.55 
   3  -4  -7   19.94    1.38 
   2  -4  -7   27.04    1.73 
  -2   4   7   25.70    1.77 
   1  -4  -7   33.48    2.41 
   1  -4  -7   39.28    2.69 
  -1   4   7   43.17    2.65 
   0  -4  -7   17.01    1.33 
   0  -4  -7   17.80    1.28 
  -1  -4  -7   48.14    3.35 
  -1  -4  -7   49.31    3.00 
  -2  -4  -7   11.93    1.11 
  -2  -4  -7    9.15    0.93 
  -3  -4  -7   12.30    1.12 
  -3  -4  -7   15.64    1.40 
  -4  -4  -7   -0.27    0.59 
  -4  -4  -7    0.24    0.42 
  -5  -4  -7   -0.79    0.68 
  -6  -4  -7    0.24    0.98 
   8  -4  -6    2.92    0.93 
   7  -4  -6   15.39    1.62 
   6  -4  -6    0.76    0.36 
   6  -4  -6    0.92    0.66 
   5  -4  -6   38.04    2.72 
   5  -4  -6   34.43    2.23 
   4  -4  -6    4.81    0.75 
   4  -4  -6    4.60    0.56 
   3  -4  -6    0.36    0.31 
   3  -4  -6    0.17    0.36 
   2  -4  -6   17.46    1.35 
   2  -4  -6   17.17    1.22 
  -2   4   6   18.23    1.24 
   1  -4  -6    6.80    0.63 
   1  -4  -6    7.23    0.68 
  -1   4   6    6.26    0.62 
   0  -4  -6   18.90    1.34 
   0  -4  -6   19.61    1.46 
   0  -4  -6   20.44    1.38 
  -1  -4  -6   34.51    2.19 
  -1  -4  -6   35.34    2.46 
  -2  -4  -6   17.58    1.47 
  -2  -4  -6   18.48    1.29 
  -3  -4  -6   10.63    1.17 
  -3  -4  -6   12.01    0.98 
  -4  -4  -6    6.82    0.75 
  -4  -4  -6    5.13    0.91 
  -5  -4  -6    3.18    0.85 
  -6  -4  -6    1.09    0.84 
   8  -4  -5    1.75    0.84 
   7  -4  -5    6.08    1.04 
   6  -4  -5    8.85    1.12 
   5  -4  -5   50.33    3.79 
   5  -4  -5   55.80    3.17 
   4  -4  -5   44.44    3.29 
   4  -4  -5   43.08    2.77 
  -4   4   5   50.32    3.04 
   3  -4  -5   36.83    2.79 
   3  -4  -5   41.56    2.41 
  -3   4   5   40.70    2.61 
   2  -4  -5   95.96    6.32 
   2  -4  -5   95.33    5.46 
  -2   4   5   94.38    6.11 
   1  -4  -5   23.64    1.61 
   1  -4  -5   21.74    1.45 
  -1   4   5   22.50    1.56 
   0  -4  -5    5.36    0.56 
   0  -4  -5    6.16    0.58 
   0  -4  -5    5.31    0.45 
  -1  -4  -5    0.92    0.34 
  -1  -4  -5    1.11    0.32 
  -2  -4  -5    2.85    0.53 
  -2  -4  -5    3.22    0.47 
  -3  -4  -5   15.03    1.12 
  -3  -4  -5   15.56    1.38 
  -4  -4  -5    8.57    1.04 
  -4  -4  -5    8.07    0.80 
  -5  -4  -5    1.44    0.67 
  -6  -4  -5    2.20    0.83 
  -7  -4  -5    0.18    0.78 
   8  -4  -4    0.22    0.72 
   7  -4  -4   -0.31    0.57 
   6  -4  -4   -0.04    0.52 
   5  -4  -4   12.66    0.94 
   5  -4  -4   12.25    1.28 
  -5   4   4   15.07    1.05 
   4  -4  -4   23.41    1.44 
   4  -4  -4   21.60    1.76 
  -4   4   4   23.06    1.58 
   3  -4  -4   66.51    3.76 
   3  -4  -4   66.32    4.41 
  -3   4   4   62.49    4.21 
   2  -4  -4  117.74    8.01 
   2  -4  -4  124.80    6.90 
  -2   4   4  122.32    7.79 
   1  -4  -4  174.54    9.91 
   1  -4  -4  175.68   11.46 
  -1   4   4  176.85   11.22 
   0  -4  -4  148.08    9.30 
   0  -4  -4  141.32    9.17 
   0  -4  -4  138.08    8.09 
  -1  -4  -4   28.23    1.92 
  -1  -4  -4   25.92    1.68 
  -2  -4  -4   28.43    1.95 
  -2  -4  -4   25.03    1.67 
  -3  -4  -4    6.28    0.79 
  -3  -4  -4    6.37    0.63 
  -4  -4  -4    1.89    0.58 
  -4  -4  -4    2.28    0.45 
  -5  -4  -4    5.23    0.88 
  -6  -4  -4    0.61    0.64 
  -7  -4  -4   -0.09    0.72 
   8  -4  -3    1.03    0.76 
   7  -4  -3    6.00    1.01 
   6  -4  -3    5.64    0.88 
  -6   4   3    6.44    0.70 
   5  -4  -3    4.09    0.40 
   5  -4  -3    3.55    0.70 
  -5   4   3    3.62    0.49 
   4  -4  -3   13.43    1.15 
   4  -4  -3   13.46    0.88 
  -4   4   3   13.41    1.02 
   3  -4  -3    3.27    0.50 
   3  -4  -3    3.23    0.36 
  -3   4   3    4.92    0.44 
   2  -4  -3   27.93    1.72 
   2  -4  -3   28.96    2.03 
  -2   4   3   29.60    1.94 
   1  -4  -3  149.43    9.19 
   1  -4  -3  155.50    7.93 
  -1   4   3  118.27    8.97 
   0  -4  -3   49.59    3.24 
   0  -4  -3   47.31    2.86 
   0   4   3   50.11    3.23 
  -1  -4  -3   25.69    1.58 
  -2  -4  -3  185.26   10.56 
  -2  -4  -3  188.86   12.05 
  -3  -4  -3   27.64    1.64 
  -3  -4  -3   24.34    1.90 
   3   4   3   25.49    1.72 
  -4  -4  -3    2.12    0.56 
  -5  -4  -3   16.94    1.56 
  -6  -4  -3    1.64    0.67 
  -7  -4  -3   -0.11    0.66 
   8  -4  -2    2.96    0.85 
   7  -4  -2    2.31    0.74 
  -7   4   2    3.88    0.72 
   6  -4  -2   22.48    1.85 
  -6   4   2   22.00    1.72 
   5  -4  -2   42.22    3.04 
  -5   4   2   41.87    2.89 
   4  -4  -2   36.32    2.62 
   4  -4  -2   36.80    2.12 
   3  -4  -2   72.99    4.12 
   3  -4  -2   72.27    4.89 
   2  -4  -2    4.06    0.47 
   2  -4  -2    3.61    0.32 
   1  -4  -2    8.40    0.60 
   1  -4  -2    9.36    0.72 
  -1   4   2    8.80    0.71 
   0  -4  -2    9.62    0.65 
   0  -4  -2    9.11    0.70 
   0   4   2    9.82    0.73 
  -1  -4  -2   43.11    2.52 
  -2  -4  -2  204.90   13.14 
  -2  -4  -2  204.74   11.53 
  -3  -4  -2   16.34    1.31 
  -4  -4  -2   62.12    4.07 
   4   4   2   57.51    3.94 
  -5  -4  -2    1.10    0.51 
  -6  -4  -2    8.54    1.10 
  -7  -4  -2    0.86    0.68 
  -8  -4  -2    0.18    0.69 
   8  -4  -1    1.39    0.74 
  -8   4   1   -0.14    0.61 
   7  -4  -1    1.08    0.61 
  -7   4   1    1.46    0.60 
   6  -4  -1    0.79    0.54 
  -6   4   1    1.79    0.55 
   5  -4  -1   37.33    2.71 
  -5   4   1   36.80    2.61 
   4  -4  -1   35.25    2.58 
  -4   4   1   36.58    2.48 
   3  -4  -1   10.61    0.63 
   3  -4  -1   10.37    0.91 
  -3   4   1   10.12    0.85 
   2  -4  -1  254.25   16.41 
   2  -4  -1  256.31   14.04 
  -2   4   1  244.26   16.05 
   1  -4  -1  139.85    7.75 
   1  -4  -1  141.16    9.05 
  -1   4   1  133.75    8.86 
   0  -4  -1  187.64   10.60 
   0   4   1  190.67   12.07 
  -1  -4  -1  400.35   23.09 
   1   4   1  427.21   26.30 
  -2  -4  -1   22.44    1.60 
  -3  -4  -1   33.75    2.36 
  -4  -4  -1    3.97    0.62 
  -5  -4  -1    6.34    0.90 
   5   4   1    9.08    0.79 
  -6  -4  -1   14.98    1.46 
  -7  -4  -1    1.84    0.73 
  -8  -4  -1    0.99    0.77 
   8  -4   0    1.29    0.82 
  -8   4   0    0.37    0.63 
   7  -4   0    0.06    0.57 
  -7   4   0    0.08    0.57 
   6  -4   0    2.17    0.63 
  -6   4   0    1.67    0.55 
   5  -4   0    1.99    0.56 
  -5   4   0    1.51    0.49 
   4  -4   0   22.46    1.66 
  -4   4   0   20.49    1.60 
   3  -4   0   33.06    2.39 
  -3   4   0   34.56    2.35 
   2  -4   0   30.58    2.35 
  -2   4   0   37.45    2.32 
   1  -4   0  394.37   25.39 
  -1   4   0  388.08   24.87 
   0   4   0  138.05    8.86 
   1   4   0  382.06   24.28 
   2   4   0   39.94    2.67 
  -3  -4   0   37.87    2.59 
  -4  -4   0   24.46    1.81 
  -5  -4   0    1.76    0.51 
  -6  -4   0    1.75    0.58 
   6   4   0    1.23    0.50 
  -7  -4   0    0.93    0.60 
  -8  -4   0    0.39    0.66 
  -8   4  -1    0.10    0.69 
   7  -4   1    2.18    0.72 
  -7   4  -1    1.80    0.72 
   6  -4   1   13.80    1.37 
  -6   4  -1   15.00    1.41 
   5  -4   1    6.51    0.90 
  -5   4  -1    9.23    0.95 
   4  -4   1    4.52    0.61 
  -4   4  -1    2.49    0.51 
   3  -4   1   32.93    2.33 
  -3   4  -1   32.70    2.30 
   2  -4   1   19.58    1.50 
  -2   4  -1   21.29    1.49 
   1  -4   1  391.71   25.19 
  -1   4  -1  384.33   24.68 
   0   4  -1  197.05   12.58 
   1   4  -1  145.76    9.34 
   2   4  -1  258.28   16.47 
  -4  -4   1   34.77    2.43 
  -5  -4   1   41.54    2.92 
  -6  -4   1    1.44    0.54 
  -7  -4   1    0.72    0.56 
   7   4  -1    1.61    0.60 
  -8  -4   1    0.46    0.63 
  -8   4  -2    0.93    0.76 
   7  -4   2    0.93    0.66 
  -7   4  -2    1.02    0.68 
   6  -4   2    8.26    0.98 
  -6   4  -2    7.75    1.06 
   5  -4   2    0.82    0.51 
  -5   4  -2    2.00    0.58 
   4  -4   2   64.01    4.30 
  -4   4  -2   60.63    4.27 
   3  -4   2   15.99    1.41 
  -3   4  -2   21.97    1.47 
   2  -4   2  205.66   13.54 
  -2   4  -2  202.58   11.55 
  -2   4  -2  213.59   13.30 
  -1   4  -2   51.46    2.97 
  -1   4  -2   53.16    3.47 
   0   4  -2    8.88    0.56 
   0   4  -2    7.52    0.69 
   1   4  -2    7.10    0.61 
   2   4  -2    2.67    0.34 
   3   4  -2   87.25    5.67 
   4   4  -2   31.04    2.16 
  -5  -4   2   43.41    2.99 
  -6  -4   2   20.91    1.66 
  -7  -4   2    4.24    0.74 
   7   4  -2    3.74    0.79 
  -8  -4   2    2.36    0.75 
  -7   4  -3    0.06    0.66 
   6  -4   3    1.37    0.61 
  -6   4  -3    1.09    0.65 
   5  -4   3   17.15    1.42 
  -5   4  -3   14.43    1.49 
   4  -4   3    2.16    0.53 
  -4   4  -3    4.03    0.68 
   3  -4   3   30.96    2.02 
  -3   4  -3   27.94    1.55 
  -3   4  -3   21.41    1.96 
  -2   4  -3  175.05    9.86 
  -2   4  -3  177.51   11.37 
   0   4  -3   48.81    3.31 
   0   4  -3   50.97    2.89 
   1   4  -3  154.88    8.95 
   1   4  -3  162.50   10.17 
   2   4  -3   31.98    2.16 
   2   4  -3   32.58    1.95 
   3   4  -3    4.68    0.48 
   4   4  -3   15.02    1.16 
   5   4  -3    3.58    0.51 
   6   4  -3    6.21    0.71 
  -7  -4   3    5.50    0.85 
   7   4  -3    7.37    0.79 
   8   4  -3    0.45    0.64 
  -7   4  -4   -0.08    0.69 
  -6   4  -4    1.95    0.77 
   5  -4   4    6.33    0.87 
  -5   4  -4    6.52    0.99 
   4  -4   4    1.49    0.53 
  -4   4  -4    2.28    0.61 
  -3   4  -4    6.27    0.44 
  -3   4  -4    7.14    0.83 
  -2   4  -4   33.07    2.27 
  -2   4  -4   30.74    1.86 
  -1   4  -4   35.04    2.00 
  -1   4  -4   31.64    2.33 
   0   4  -4  150.44    8.29 
   0   4  -4  142.96    9.44 
   1   4  -4  184.59   10.43 
   1   4  -4  185.06   11.83 
   2   4  -4  119.84    6.92 
   2   4  -4  122.65    7.80 
   3   4  -4   68.15    3.92 
   3   4  -4   65.76    4.35 
   4   4  -4   21.19    1.46 
   4   4  -4   19.30    1.37 
   5   4  -4   16.40    1.18 
   5   4  -4   15.51    1.22 
   6   4  -4    0.12    0.35 
   6   4  -4    0.16    0.38 
   7   4  -4    1.02    0.44 
   8   4  -4    1.66    0.79 
  -7   4  -5    0.47    0.78 
  -6   4  -5    1.70    0.81 
  -5   4  -5    3.36    0.81 
  -4   4  -5   11.03    1.22 
  -3   4  -5   16.87    1.46 
  -2   4  -5    2.61    0.55 
  -2   4  -5    3.17    0.36 
  -1   4  -5    0.38    0.15 
   0   4  -5    4.81    0.57 
   0   4  -5    4.79    0.48 
   1   4  -5   21.67    1.41 
   1   4  -5   21.95    1.57 
   2   4  -5  104.65    6.11 
   2   4  -5  107.63    6.86 
   3   4  -5   40.27    2.70 
   3   4  -5   41.32    2.50 
   4   4  -5   56.03    3.64 
   4   4  -5   54.29    3.33 
   5   4  -5   50.58    3.40 
   5   4  -5   52.09    3.13 
   6   4  -5   12.23    1.07 
   7   4  -5    5.88    0.79 
   8   4  -5    1.88    0.63 
  -6   4  -6   -0.41    0.73 
  -5   4  -6    1.66    0.78 
  -4   4  -6    5.81    0.98 
  -3   4  -6   11.51    1.20 
  -2   4  -6   18.09    1.18 
  -2   4  -6   17.69    1.49 
  -1   4  -6   33.53    2.33 
  -1   4  -6   31.50    1.98 
   0   4  -6   19.04    1.46 
   0   4  -6   19.54    1.33 
   1   4  -6    6.72    0.64 
   1   4  -6    6.00    0.63 
   2   4  -6   19.34    1.39 
   2   4  -6   18.89    1.32 
   3   4  -6    0.18    0.25 
   3   4  -6    0.33    0.34 
   4   4  -6    3.52    0.57 
   4   4  -6    4.25    0.46 
   5   4  -6   38.39    2.46 
   6   4  -6    1.67    0.52 
   7   4  -6   14.66    1.28 
   8   4  -6    2.34    0.66 
  -6   4  -7    0.57    0.96 
  -5   4  -7   -0.82    0.76 
  -4   4  -7   -0.77    0.58 
  -3   4  -7   14.42    1.45 
  -2   4  -7    9.99    1.07 
  -2   4  -7    9.39    0.80 
  -1   4  -7   50.14    3.54 
  -1   4  -7   52.55    3.08 
   0   4  -7   17.11    1.40 
   0   4  -7   19.33    1.27 
   1   4  -7   40.10    2.73 
   1   4  -7   39.56    2.48 
   2   4  -7   30.06    1.98 
   2   4  -7   30.95    2.12 
   3   4  -7   21.86    1.49 
   3   4  -7   19.17    1.47 
   4   4  -7    4.56    0.66 
   5   4  -7    2.24    0.57 
   6   4  -7    4.17    0.72 
   7   4  -7    0.44    0.56 
   8   4  -7    1.39    0.67 
  -5   4  -8   -0.14    0.91 
  -4   4  -8    0.48    0.77 
  -3   4  -8    2.68    0.77 
  -2   4  -8    6.05    0.92 
  -2   4  -8    6.64    0.71 
  -1   4  -8    0.67    0.49 
  -1   4  -8    0.38    0.39 
   0   4  -8   13.95    1.16 
   0   4  -8   12.85    1.09 
   1   4  -8   14.65    1.21 
   1   4  -8   15.60    1.22 
   2   4  -8   38.53    2.43 
   2   4  -8   37.48    2.58 
   3   4  -8   33.34    2.19 
   4   4  -8   41.40    2.66 
   5   4  -8    6.66    0.85 
   6   4  -8    8.11    0.96 
   7   4  -8    3.36    0.71 
   8   4  -8    0.43    0.59 
  -4   4  -9    0.34    0.88 
  -3   4  -9    4.17    0.98 
  -2   4  -9    1.37    0.66 
  -1   4  -9    3.72    0.59 
   0   4  -9   12.06    1.10 
   0   4  -9   13.72    1.22 
   1   4  -9    0.96    0.46 
   1   4  -9    0.45    0.40 
   2   4  -9    5.12    0.78 
   3   4  -9   17.28    1.42 
   4   4  -9   10.69    1.09 
   5   4  -9   13.23    1.25 
   6   4  -9    7.77    0.98 
   7   4  -9    4.66    0.83 
   8   4  -9    2.08    0.78 
  -3   4 -10    2.20    0.95 
  -2   4 -10    2.85    0.85 
  -1   4 -10    6.04    0.81 
  -1   4 -10    5.76    0.92 
   0   4 -10    9.59    1.06 
   0   4 -10   13.29    1.21 
   1   4 -10   21.18    1.58 
   2   4 -10    1.36    0.60 
   3   4 -10    4.59    0.81 
   4   4 -10    0.66    0.54 
   5   4 -10    0.94    0.58 
   6   4 -10    1.52    0.65 
   7   4 -10    0.93    0.68 
  -2   4 -11    0.27    0.83 
  -1   4 -11    1.25    0.59 
  -1   4 -11    1.25    0.82 
   0   4 -11    7.27    0.94 
   1   4 -11   14.63    1.33 
   2   4 -11    4.76    0.82 
   3   4 -11    8.93    1.07 
   4   4 -11    8.76    1.08 
   5   4 -11    0.60    0.60 
   6   4 -11    1.64    0.75 
   7   4 -11    1.15    0.78 
   0   4 -12    0.38    0.58 
   1   4 -12    1.17    0.62 
   2   4 -12    5.41    0.91 
   3   4 -12    1.12    0.64 
   4   4 -12    5.52    0.95 
   5   4 -12    4.32    0.90 
   6   4 -12    2.68    0.83 
   1   4 -13    0.45    0.67 
   2   4 -13    0.27    0.65 
   3   4 -13    1.19    0.71 
   4   4 -13   -0.12    0.63 
   5   4 -13    1.38    0.78 
   4  -5 -13    1.93    0.82 
   3  -5 -13    1.50    0.77 
   2  -5 -13    3.48    0.87 
   1  -5 -13    1.19    0.71 
   6  -5 -12    1.19    0.88 
   6  -5 -12    0.07    0.61 
   5  -5 -12    0.89    0.65 
   4  -5 -12    0.19    0.60 
   3  -5 -12    2.56    0.71 
   2  -5 -12    2.47    0.78 
   1  -5 -12    2.06    0.73 
   0  -5 -12    1.53    0.67 
  -1  -5 -12    2.30    0.72 
   6  -5 -11    4.00    1.08 
   6  -5 -11    4.24    0.79 
   5  -5 -11    4.64    0.80 
   5  -5 -11    5.37    1.06 
   4  -5 -11    0.98    0.58 
   4  -5 -11    2.14    0.78 
   3  -5 -11    2.66    0.66 
   2  -5 -11    0.60    0.53 
   1  -5 -11    2.84    0.73 
   0  -5 -11   -0.45    0.53 
  -1  -5 -11    2.04    0.67 
  -2  -5 -11    0.63    0.63 
  -2  -5 -11    2.41    0.88 
   7  -5 -10    0.73    0.85 
   6  -5 -10    1.89    0.58 
   6  -5 -10    2.70    0.89 
   5  -5 -10   11.92    1.32 
   5  -5 -10    8.83    1.02 
   4  -5 -10   11.03    1.25 
   4  -5 -10    9.91    1.06 
   3  -5 -10   11.09    0.98 
   3  -5 -10    4.83    0.79 
   2  -5 -10    8.70    0.98 
   1  -5 -10    5.36    0.81 
   0  -5 -10    1.66    0.60 
  -1  -5 -10    1.44    0.57 
  -1  -5 -10    1.62    0.63 
  -2  -5 -10    1.63    0.62 
  -2  -5 -10    2.31    0.77 
  -3  -5 -10    0.64    0.81 
  -3  -5 -10   -0.20    0.50 
   8  -5  -9    0.27    0.86 
   7  -5  -9    0.70    0.85 
   6  -5  -9    0.86    0.48 
   6  -5  -9    1.04    0.76 
   5  -5  -9    2.37    0.56 
   5  -5  -9    2.00    0.75 
   4  -5  -9   10.12    1.14 
   4  -5  -9    8.71    0.94 
   3  -5  -9    2.30    0.67 
   3  -5  -9    2.76    0.57 
   2  -5  -9   28.63    1.96 
   1  -5  -9   10.95    1.06 
   0  -5  -9    2.32    0.59 
   0  -5  -9    2.06    0.55 
  -1  -5  -9   13.46    1.17 
  -1  -5  -9   10.94    1.17 
  -2  -5  -9    4.91    0.76 
  -2  -5  -9    4.69    0.86 
  -3  -5  -9    0.47    0.51 
  -3  -5  -9    1.37    0.74 
  -4  -5  -9   -0.26    0.85 
  -4  -5  -9    0.14    0.53 
   8  -5  -8    1.25    0.88 
   7  -5  -8    5.79    1.10 
   6  -5  -8    3.71    0.90 
   6  -5  -8    4.06    0.65 
   5  -5  -8    6.21    0.71 
   5  -5  -8    4.30    0.93 
   4  -5  -8    1.75    0.63 
   4  -5  -8    1.85    0.48 
   3  -5  -8    1.65    0.46 
   3  -5  -8    1.92    0.59 
   2  -5  -8    1.57    0.48 
   2  -5  -8    2.26    0.49 
   1  -5  -8   12.10    1.08 
  -1   5   8   12.60    1.03 
   0  -5  -8   13.83    1.16 
   0  -5  -8   13.02    1.15 
  -1  -5  -8   10.03    1.02 
  -1  -5  -8   11.79    1.10 
  -2  -5  -8    9.61    0.98 
  -2  -5  -8    9.79    1.10 
  -3  -5  -8    2.86    0.62 
  -3  -5  -8    3.01    0.80 
  -4  -5  -8    0.63    0.51 
  -4  -5  -8   -0.14    0.72 
  -5  -5  -8   -0.40    0.89 
   8  -5  -7    1.88    0.92 
   7  -5  -7    1.38    0.78 
   6  -5  -7   14.66    1.57 
   6  -5  -7   17.14    1.24 
   5  -5  -7    6.98    0.76 
   5  -5  -7    8.75    1.09 
   4  -5  -7   34.37    2.56 
   4  -5  -7   33.92    2.17 
   3  -5  -7   11.59    0.95 
   3  -5  -7   11.08    1.11 
   2  -5  -7   10.50    1.02 
  -2   5   7   14.65    1.01 
   1  -5  -7    5.74    0.60 
   1  -5  -7    4.23    0.63 
  -1   5   7    6.57    0.62 
   0  -5  -7    0.42    0.36 
   0  -5  -7    0.80    0.40 
  -1  -5  -7    3.63    0.56 
  -1  -5  -7    4.15    0.64 
  -2  -5  -7   40.11    2.59 
  -2  -5  -7   41.83    2.95 
  -3  -5  -7    2.41    0.71 
  -3  -5  -7    2.79    0.57 
  -4  -5  -7    0.95    0.69 
  -4  -5  -7    0.81    0.48 
  -5  -5  -7    0.28    0.82 
   8  -5  -6    1.35    0.86 
   7  -5  -6    1.96    0.83 
   6  -5  -6    1.04    0.66 
   5  -5  -6   14.42    1.38 
   5  -5  -6   13.01    1.02 
   4  -5  -6   14.36    1.30 
   4  -5  -6   14.19    1.05 
   3  -5  -6   24.23    1.59 
   3  -5  -6   25.03    1.86 
  -3   5   6   24.28    1.66 
   2  -5  -6   36.30    2.57 
   2  -5  -6   40.22    2.28 
  -2   5   6   34.51    2.44 
   1  -5  -6   85.95    5.60 
   1  -5  -6   79.64    4.90 
  -1   5   6   86.87    5.49 
   0  -5  -6   23.43    1.57 
   0  -5  -6   21.46    1.53 
  -1  -5  -6    9.16    0.82 
  -1  -5  -6    8.47    0.87 
  -2  -5  -6    1.18    0.52 
  -2  -5  -6    1.24    0.41 
  -3  -5  -6    1.59    0.45 
  -3  -5  -6    0.29    0.52 
  -4  -5  -6    2.28    0.52 
  -4  -5  -6    1.97    0.71 
  -5  -5  -6    0.18    0.67 
  -6  -5  -6    0.21    0.85 
   8  -5  -5    0.57    0.82 
   7  -5  -5    1.34    0.76 
   6  -5  -5    3.77    0.79 
   5  -5  -5    0.77    0.31 
   5  -5  -5    0.29    0.54 
   4  -5  -5    5.42    0.55 
   4  -5  -5    4.73    0.76 
  -4   5   5    5.51    0.48 
   3  -5  -5   15.71    1.33 
   3  -5  -5   18.34    1.14 
  -3   5   5   16.23    1.19 
   2  -5  -5    5.67    0.54 
   2  -5  -5    5.74    0.60 
  -2   5   5    4.34    0.47 
   1  -5  -5   53.48    3.65 
   1  -5  -5   52.26    3.21 
  -1   5   5   57.20    3.59 
   0  -5  -5  112.45    6.55 
   0  -5  -5  116.28    7.47 
   0   5   5  113.45    7.39 
  -1  -5  -5   61.23    4.10 
  -1  -5  -5   61.34    3.63 
  -2  -5  -5   10.48    0.87 
  -2  -5  -5    9.71    0.99 
  -3  -5  -5    5.94    0.84 
  -3  -5  -5    6.46    0.70 
  -4  -5  -5   10.77    0.96 
  -4  -5  -5    8.82    1.14 
  -5  -5  -5    0.39    0.62 
  -6  -5  -5    0.58    0.73 
   8  -5  -4   10.23    1.42 
   7  -5  -4    1.58    0.72 
   6  -5  -4    7.55    1.04 
   5  -5  -4   19.18    1.72 
   5  -5  -4   21.74    1.33 
  -5   5   4   20.33    1.49 
   4  -5  -4   11.19    0.81 
   4  -5  -4   11.09    1.11 
  -4   5   4   11.63    0.90 
   3  -5  -4   13.87    0.92 
   3  -5  -4   13.41    1.13 
  -3   5   4   12.88    1.00 
   2  -5  -4   28.81    2.14 
   2  -5  -4   29.69    1.83 
  -2   5   4   32.13    2.06 
   1  -5  -4   46.14    2.72 
   1  -5  -4   45.92    3.11 
   0  -5  -4   46.34    3.10 
   0  -5  -4   45.25    2.76 
   0   5   4   48.25    3.12 
  -2  -5  -4   15.29    1.06 
  -2  -5  -4   14.55    1.23 
  -3  -5  -4   15.76    1.32 
  -3  -5  -4   14.14    1.09 
  -4  -5  -4    6.17    0.67 
  -4  -5  -4    4.18    0.78 
  -5  -5  -4    4.84    0.91 
  -6  -5  -4   -0.13    0.62 
  -7  -5  -4    0.72    0.77 
   8  -5  -3    1.96    0.85 
   7  -5  -3    1.63    0.70 
   6  -5  -3   11.01    1.22 
  -6   5   3   11.45    1.07 
   5  -5  -3    8.70    1.04 
  -5   5   3    9.78    0.84 
   4  -5  -3   56.12    3.95 
   4  -5  -3   57.46    3.27 
  -4   5   3   56.58    3.78 
   3  -5  -3   23.52    1.61 
   3  -5  -3   21.54    1.28 
  -3   5   3   18.25    1.47 
   2  -5  -3  181.24   11.82 
   2  -5  -3  178.69   10.14 
  -2   5   3  181.43   11.55 
   1  -5  -3   28.44    1.71 
   1  -5  -3   25.58    1.48 
  -1   5   3   18.97    1.63 
   0  -5  -3   17.78    1.19 
   0  -5  -3   16.61    1.10 
   0   5   3   15.68    1.22 
  -2  -5  -3   36.56    2.23 
  -2  -5  -3   36.63    2.56 
  -3  -5  -3    9.78    0.80 
  -3  -5  -3    8.70    0.95 
  -4  -5  -3    7.47    0.92 
  -5  -5  -3   10.06    1.18 
  -6  -5  -3    1.50    0.70 
  -7  -5  -3    1.42    0.79 
   8  -5  -2    0.77    0.79 
   7  -5  -2    0.44    0.62 
  -7   5   2    2.00    0.60 
   6  -5  -2    0.20    0.52 
  -6   5   2    0.94    0.47 
   5  -5  -2    0.98    0.53 
  -5   5   2    0.54    0.31 
   4  -5  -2    8.49    0.90 
   4  -5  -2    8.18    0.57 
  -4   5   2    9.38    0.81 
   3  -5  -2  104.85    6.01 
   3  -5  -2  107.28    7.11 
  -3   5   2  108.36    6.92 
   2  -5  -2   37.18    2.77 
   2  -5  -2   38.15    2.33 
  -2   5   2   45.99    2.71 
   1  -5  -2   86.90    5.98 
   1  -5  -2   88.78    5.14 
  -1   5   2   96.12    5.86 
   0  -5  -2   76.23    4.22 
   0  -5  -2   73.25    4.86 
   0   5   2   71.90    4.79 
  -1  -5  -2   69.23    3.87 
   1   5   2   64.89    4.40 
  -2  -5  -2   55.85    3.78 
  -2  -5  -2   57.09    3.31 
  -3  -5  -2    2.54    0.49 
  -4  -5  -2    5.01    0.74 
   4   5   2    5.20    0.51 
  -5  -5  -2    5.50    0.83 
  -6  -5  -2    0.72    0.58 
  -7  -5  -2    2.59    0.81 
  -8  -5  -2    0.39    0.68 
   8  -5  -1    1.25    0.81 
  -8   5   1    0.93    0.70 
   7  -5  -1    3.55    0.81 
  -7   5   1    1.99    0.66 
   6  -5  -1    1.89    0.62 
  -6   5   1    2.77    0.62 
   5  -5  -1   11.25    1.16 
  -5   5   1   11.72    1.07 
   4  -5  -1    1.11    0.44 
  -4   5   1    0.10    0.29 
   3  -5  -1   10.17    0.61 
   3  -5  -1    9.95    0.91 
  -3   5   1    9.30    0.84 
   2  -5  -1   37.97    2.48 
   2  -5  -1   36.11    2.03 
  -2   5   1   31.93    2.39 
   1  -5  -1   44.81    2.47 
   1  -5  -1   44.57    2.92 
  -1   5   1   39.16    2.85 
   0  -5  -1  158.51   10.58 
   0  -5  -1  155.97    9.11 
   0   5   1  172.29   10.40 
  -1  -5  -1   61.87    3.44 
   1   5   1   57.23    3.91 
   2   5   1  197.99   12.70 
  -3  -5  -1   30.75    2.18 
  -4  -5  -1    9.39    0.96 
  -5  -5  -1   10.11    1.10 
   5   5   1   10.91    0.93 
  -6  -5  -1    0.45    0.54 
  -7  -5  -1    1.21    0.66 
  -8  -5  -1    0.54    0.70 
   8  -5   0    0.86    0.77 
  -8   5   0    1.33    0.73 
   7  -5   0    1.39    0.71 
  -7   5   0    2.09    0.70 
   6  -5   0    3.29    0.75 
  -6   5   0    8.38    0.94 
   5  -5   0   26.38    1.94 
  -5   5   0   22.29    1.84 
   4  -5   0   16.40    1.50 
  -4   5   0   22.03    1.51 
   3  -5   0   43.90    2.97 
  -3   5   0   40.53    2.88 
   2  -5   0    7.93    0.84 
  -2   5   0   12.65    0.88 
   1  -5   0  132.15    8.62 
  -1   5   0  130.13    8.44 
   0   5   0    0.14    0.21 
   1   5   0  122.34    7.88 
   2   5   0   11.98    0.96 
  -3  -5   0   51.57    3.49 
  -4  -5   0   23.63    1.77 
  -5  -5   0   28.56    2.16 
  -6  -5   0    7.84    1.00 
   6   5   0    8.31    0.93 
  -7  -5   0    1.12    0.64 
  -8  -5   0    0.42    0.67 
   8  -5   1    0.88    0.81 
  -8   5  -1   -0.13    0.66 
   7  -5   1    0.65    0.58 
  -7   5  -1    1.41    0.69 
   6  -5   1    0.43    0.52 
  -6   5  -1    0.22    0.56 
   5  -5   1   10.54    1.11 
  -5   5  -1   11.28    1.15 
   4  -5   1    9.95    0.97 
  -4   5  -1    8.71    0.93 
   3  -5   1   32.37    2.42 
  -3   5  -1   35.68    2.41 
   2  -5   1  184.90   12.51 
  -2   5  -1  196.52   12.26 
   1  -5   1   51.34    3.48 
  -1   5  -1   51.25    3.42 
   0   5  -1  165.74   10.63 
   1   5  -1   35.98    2.42 
   2   5  -1   31.94    2.18 
   3   5  -1    9.03    0.80 
  -5  -5   1   15.52    1.34 
  -6  -5   1    0.71    0.50 
  -7  -5   1    4.05    0.80 
  -8  -5   1    1.42    0.73 
  -8   5  -2    0.02    0.71 
   7  -5   2    1.35    0.68 
  -7   5  -2    1.62    0.73 
   6  -5   2    1.85    0.64 
  -6   5  -2    0.58    0.62 
   5  -5   2    4.30    0.78 
  -5   5  -2    6.45    0.87 
   4  -5   2    5.64    0.76 
  -4   5  -2    4.23    0.70 
   3  -5   2    3.04    0.54 
  -3   5  -2    2.95    0.53 
   2  -5   2   59.78    4.24 
  -2   5  -2   63.04    4.18 
  -2   5  -2   63.81    3.52 
  -1   5  -2   61.90    3.56 
  -1   5  -2   63.95    4.16 
   0   5  -2   78.49    5.12 
   1   5  -2   93.97    6.08 
   2   5  -2   46.72    3.11 
   3   5  -2  105.03    6.81 
   4   5  -2   10.45    0.94 
   5   5  -2    0.85    0.42 
  -7  -5   2    1.49    0.62 
  -7   5  -3    0.65    0.75 
   6  -5   3    1.24    0.61 
  -6   5  -3    2.85    0.79 
   5  -5   3    9.78    1.05 
  -5   5  -3    8.16    1.07 
   4  -5   3    7.16    0.91 
  -4   5  -3    7.59    0.91 
   3  -5   3   10.26    0.98 
  -3   5  -3    8.95    0.96 
  -2   5  -3   33.32    1.97 
  -2   5  -3   35.46    2.43 
  -1   5  -3    6.78    0.52 
   0   5  -3   16.73    1.26 
   0   5  -3   16.94    1.06 
   1   5  -3   22.38    1.53 
   1   5  -3   20.44    1.33 
   2   5  -3  179.21   11.47 
   3   5  -3   18.49    1.34 
   4   5  -3   60.84    4.03 
   5   5  -3   13.19    1.12 
   6   5  -3   10.90    1.05 
   7   5  -3    3.36    0.68 
   7   5  -3    3.69    0.65 
   8   5  -3    1.98    0.78 
  -7   5  -4    0.52    0.74 
  -6   5  -4    0.51    0.67 
   5  -5   4    4.29    0.81 
  -5   5  -4    6.12    0.97 
   4  -5   4    5.80    0.83 
  -4   5  -4    5.97    0.91 
  -3   5  -4   15.83    1.37 
  -2   5  -4   11.71    1.06 
  -2   5  -4   10.73    0.73 
  -1   5  -4   13.99    1.21 
  -1   5  -4   16.05    1.00 
   0   5  -4   47.75    2.73 
   0   5  -4   44.66    3.12 
   1   5  -4   46.82    3.21 
   1   5  -4   49.34    2.84 
   2   5  -4   32.69    2.18 
   2   5  -4   30.85    1.96 
   3   5  -4   13.53    1.07 
   3   5  -4   15.37    1.03 
   4   5  -4   11.08    0.90 
   4   5  -4   11.35    0.92 
   5   5  -4   21.98    1.63 
   5   5  -4   22.76    1.54 
   6   5  -4    8.33    0.84 
   6   5  -4    7.62    0.83 
   7   5  -4    1.02    0.50 
   8   5  -4    8.98    1.02 
  -6   5  -5    1.58    0.81 
  -5   5  -5   -0.11    0.62 
  -4   5  -5    8.86    1.10 
  -3   5  -5    6.81    0.89 
  -2   5  -5   11.69    1.10 
  -2   5  -5   10.81    0.78 
  -1   5  -5   53.90    3.69 
  -1   5  -5   54.30    3.17 
   0   5  -5  124.46    7.99 
   0   5  -5  121.64    7.00 
   1   5  -5   62.50    4.08 
   1   5  -5   60.53    3.61 
   2   5  -5    3.74    0.49 
   2   5  -5    3.62    0.47 
   3   5  -5   13.86    1.09 
   3   5  -5   16.05    1.15 
   4   5  -5    5.36    0.65 
   4   5  -5    6.24    0.61 
   5   5  -5    0.60    0.38 
   5   5  -5    1.26    0.37 
   6   5  -5    4.38    0.67 
   7   5  -5    2.04    0.56 
   8   5  -5    1.21    0.59 
  -6   5  -6    1.37    0.87 
  -5   5  -6    0.40    0.72 
  -4   5  -6    1.63    0.68 
  -3   5  -6    2.17    0.66 
  -2   5  -6    1.26    0.29 
  -2   5  -6    1.76    0.56 
  -1   5  -6    8.87    0.92 
   0   5  -6   24.25    1.77 
   0   5  -6   22.84    1.52 
   1   5  -6   91.23    6.03 
   1   5  -6   93.06    5.34 
   2   5  -6   41.73    2.68 
   2   5  -6   36.07    2.42 
   3   5  -6   24.71    1.82 
   3   5  -6   27.86    1.75 
   4   5  -6   14.57    1.12 
   4   5  -6   14.83    1.19 
   5   5  -6   15.50    1.27 
   6   5  -6   -0.34    0.41 
   7   5  -6    2.65    0.65 
   8   5  -6    0.25    0.56 
  -5   5  -7    0.97    0.84 
  -4   5  -7    1.95    0.80 
  -3   5  -7    4.25    0.83 
  -2   5  -7   39.33    2.38 
  -2   5  -7   38.61    2.85 
  -1   5  -7    4.43    0.68 
  -1   5  -7    4.70    0.56 
   0   5  -7    0.65    0.40 
   0   5  -7    0.89    0.36 
   1   5  -7    5.23    0.65 
   1   5  -7    5.12    0.63 
   2   5  -7   13.18    1.06 
   2   5  -7   12.64    1.07 
   3   5  -7   10.14    0.99 
   3   5  -7   11.18    0.93 
   4   5  -7   36.80    2.41 
   5   5  -7    8.82    0.93 
   6   5  -7   16.42    1.38 
   7   5  -7    1.91    0.59 
   8   5  -7    3.40    0.85 
  -5   5  -8   -0.04    0.96 
  -4   5  -8    0.19    0.74 
  -3   5  -8    5.32    0.99 
  -2   5  -8    9.40    1.11 
  -1   5  -8   14.05    1.10 
  -1   5  -8   14.23    1.31 
   0   5  -8   13.94    1.07 
   0   5  -8   11.42    1.13 
   1   5  -8   13.86    1.16 
   1   5  -8   14.15    1.18 
   2   5  -8    0.70    0.45 
   2   5  -8    1.56    0.42 
   3   5  -8    2.38    0.57 
   4   5  -8    2.71    0.60 
   5   5  -8    4.42    0.75 
   6   5  -8    3.62    0.75 
   7   5  -8    6.93    0.98 
   8   5  -8    1.69    0.75 
  -4   5  -9   -0.09    0.89 
  -3   5  -9    1.15    0.75 
  -2   5  -9    6.16    0.99 
  -1   5  -9   14.13    1.18 
  -1   5  -9   13.62    1.35 
   0   5  -9    2.41    0.56 
   0   5  -9    1.51    0.55 
   1   5  -9   14.48    1.20 
   1   5  -9   12.92    1.18 
   2   5  -9   26.48    1.86 
   3   5  -9    5.64    0.80 
   4   5  -9   11.13    1.12 
   5   5  -9    1.22    0.55 
   6   5  -9    1.31    0.60 
   7   5  -9    0.53    0.63 
   8   5  -9    0.51    0.72 
  -3   5 -10    0.74    0.83 
  -2   5 -10    0.88    0.73 
  -1   5 -10    1.76    0.56 
  -1   5 -10    1.26    0.70 
   0   5 -10    1.87    0.62 
   0   5 -10    2.20    0.59 
   1   5 -10    7.39    0.92 
   2   5 -10    8.37    1.01 
   3   5 -10   13.26    1.26 
   4   5 -10    9.51    1.09 
   5   5 -10    9.03    1.10 
   6   5 -10    4.12    0.84 
   7   5 -10   -0.13    0.63 
  -2   5 -11    0.35    0.85 
  -1   5 -11    4.03    0.94 
   0   5 -11    0.44    0.53 
   1   5 -11    1.81    0.63 
   2   5 -11    0.86    0.57 
   3   5 -11    2.80    0.76 
   4   5 -11    2.11    0.70 
   5   5 -11    3.76    0.84 
   6   5 -11    5.27    0.96 
   0   5 -12    1.93    0.70 
   1   5 -12    2.02    0.67 
   2   5 -12    2.44    0.70 
   3   5 -12    1.84    0.73 
   4   5 -12    0.05    0.65 
   5   5 -12    1.40    0.80 
   6   5 -12    0.42    0.78 
   1   5 -13    1.36    0.72 
   2   5 -13    2.89    0.81 
   3   5 -13    4.66    0.95 
   4   5 -13    0.90    0.72 
   3  -6 -13    0.20    0.71 
   2  -6 -13   -0.24    0.69 
   5  -6 -12    3.45    0.82 
   4  -6 -12    4.24    0.87 
   3  -6 -12    3.78    0.84 
   2  -6 -12    0.74    0.66 
   1  -6 -12    2.13    0.72 
   0  -6 -12    1.60    0.70 
  -1  -6 -12    0.04    0.63 
   6  -6 -11    0.06    0.88 
   6  -6 -11    0.16    0.57 
   5  -6 -11    1.11    0.85 
   5  -6 -11    2.24    0.68 
   4  -6 -11    4.50    0.80 
   3  -6 -11    3.94    0.72 
   2  -6 -11    3.60    0.75 
   1  -6 -11    3.23    0.75 
   0  -6 -11    2.66    0.74 
  -1  -6 -11    0.74    0.60 
  -2  -6 -11    2.27    0.74 
   7  -6 -10    0.34    0.84 
   6  -6 -10    3.82    0.99 
   6  -6 -10    3.82    0.70 
   5  -6 -10    0.92    0.80 
   5  -6 -10    1.02    0.54 
   4  -6 -10    0.29    0.70 
   4  -6 -10    0.22    0.46 
   3  -6 -10    4.64    0.74 
   2  -6 -10    1.08    0.54 
   1  -6 -10    3.77    0.72 
   0  -6 -10    7.62    0.96 
  -1  -6 -10    2.59    0.68 
  -1  -6 -10    2.97    0.75 
  -2  -6 -10    0.93    0.71 
  -2  -6 -10    2.09    0.60 
  -3  -6 -10    3.04    0.96 
  -3  -6 -10    0.87    0.61 
   7  -6  -9    3.96    1.04 
   6  -6  -9    6.96    0.83 
   6  -6  -9    5.27    1.09 
   5  -6  -9    5.96    0.79 
   5  -6  -9    5.88    1.02 
   4  -6  -9    3.59    0.81 
   4  -6  -9    4.57    0.70 
   3  -6  -9   11.89    1.17 
   3  -6  -9    9.95    1.03 
   2  -6  -9    5.05    0.73 
   1  -6  -9    6.61    0.85 
   0  -6  -9    1.65    0.55 
   0   6   9    1.33    0.51 
  -1  -6  -9    2.84    0.65 
  -1  -6  -9    3.41    0.72 
  -2  -6  -9    3.33    0.67 
  -2  -6  -9    3.54    0.79 
  -3  -6  -9    4.89    0.83 
  -3  -6  -9    5.37    1.02 
  -4  -6  -9    0.47    0.57 
  -4  -6  -9    0.07    0.88 
   8  -6  -8    0.88    0.87 
   7  -6  -8    1.42    0.84 
   6  -6  -8    2.06    0.85 
   6  -6  -8    2.89    0.60 
   5  -6  -8    6.49    0.76 
   5  -6  -8    5.79    1.00 
   4  -6  -8    9.24    0.92 
   4  -6  -8    9.84    1.13 
   3  -6  -8   16.59    1.43 
   3  -6  -8   17.43    1.29 
   2  -6  -8    9.63    0.93 
   2  -6  -8    8.38    0.90 
   1  -6  -8   27.01    1.84 
  -1   6   8   27.10    1.92 
   0  -6  -8   10.83    1.07 
   0   6   8   13.47    1.12 
  -1  -6  -8    4.69    0.73 
  -1  -6  -8    4.64    0.72 
  -2  -6  -8    0.84    0.57 
  -2  -6  -8    0.75    0.47 
  -3  -6  -8   -0.49    0.57 
  -3  -6  -8    0.37    0.49 
  -4  -6  -8    0.91    0.79 
  -4  -6  -8    0.62    0.55 
  -5  -6  -8    0.38    0.94 
   8  -6  -7    1.64    0.88 
   7  -6  -7    0.07    0.73 
   6  -6  -7    1.33    0.77 
   5  -6  -7    4.24    0.86 
   5  -6  -7    4.50    0.61 
   4  -6  -7    0.35    0.54 
   4  -6  -7    0.44    0.36 
   3  -6  -7   13.62    1.18 
   3  -6  -7   11.07    1.00 
   2  -6  -7   52.92    3.20 
   2  -6  -7   52.12    3.62 
  -2   6   7   53.09    3.50 
   1  -6  -7   11.94    1.04 
   1  -6  -7   13.70    1.02 
  -1   6   7   11.49    0.99 
   0  -6  -7   26.86    1.82 
   0   6   7   27.58    1.98 
  -1  -6  -7   34.48    2.48 
  -1  -6  -7   34.20    2.23 
  -2  -6  -7    1.97    0.62 
  -2  -6  -7    0.93    0.44 
  -3  -6  -7    0.50    0.59 
  -3  -6  -7    0.87    0.47 
  -4  -6  -7    1.83    0.76 
  -4  -6  -7    1.45    0.53 
  -5  -6  -7    0.49    0.85 
   8  -6  -6    1.71    0.91 
   7  -6  -6    6.84    1.15 
   6  -6  -6    3.97    0.83 
   5  -6  -6    9.61    0.84 
   5  -6  -6   10.77    1.19 
   4  -6  -6    9.43    0.82 
   4  -6  -6    9.92    1.09 
   3  -6  -6    2.27    0.58 
   3  -6  -6    3.01    0.47 
  -3   6   6    3.60    0.41 
   2  -6  -6    2.72    0.44 
   2  -6  -6    1.60    0.45 
  -2   6   6    1.78    0.35 
   1  -6  -6   12.12    0.96 
   1  -6  -6   11.80    0.96 
  -1   6   6   11.12    0.94 
   0  -6  -6   18.48    1.33 
   0   6   6   19.49    1.46 
  -1  -6  -6   22.41    1.76 
  -1  -6  -6   24.17    1.59 
  -2  -6  -6    3.80    0.67 
  -2  -6  -6    3.07    0.54 
  -3  -6  -6   14.76    1.26 
  -3  -6  -6   17.10    1.50 
  -4  -6  -6    2.41    0.74 
  -4  -6  -6    1.76    0.55 
  -5  -6  -6    3.38    0.91 
  -6  -6  -6    0.29    0.87 
   8  -6  -5    1.25    0.90 
   7  -6  -5    1.33    0.75 
   6  -6  -5    6.52    1.00 
   5  -6  -5   26.78    1.64 
   5  -6  -5   24.19    2.07 
   4  -6  -5   12.41    1.23 
   4  -6  -5   13.53    0.95 
  -4   6   5   12.83    1.00 
   3  -6  -5   30.84    1.88 
   3  -6  -5   31.90    2.22 
  -3   6   5   28.44    2.07 
   2  -6  -5    5.44    0.57 
   2  -6  -5    4.76    0.63 
  -2   6   5    6.65    0.59 
   0  -6  -5   53.53    3.16 
   0  -6  -5   51.85    3.51 
   0   6   5   53.65    3.55 
  -1  -6  -5   13.28    1.01 
  -2  -6  -5    2.98    0.49 
  -2  -6  -5    3.65    0.62 
  -3  -6  -5    6.82    0.92 
  -3  -6  -5    8.38    0.82 
  -4  -6  -5    2.60    0.68 
  -4  -6  -5    1.95    0.52 
  -5  -6  -5    4.65    0.95 
  -6  -6  -5    1.25    0.82 
   8  -6  -4   -0.70    0.76 
   7  -6  -4    2.24    0.82 
   6  -6  -4    3.49    0.82 
   5  -6  -4   10.48    1.15 
  -5   6   4    9.49    0.84 
   4  -6  -4   29.08    2.19 
   4  -6  -4   31.49    1.77 
  -4   6   4   25.99    2.00 
   3  -6  -4   20.26    1.55 
   3  -6  -4   19.42    1.26 
  -3   6   4   19.41    1.43 
   2  -6  -4   61.58    3.63 
   2  -6  -4   59.65    4.22 
  -2   6   4   65.87    4.11 
   1  -6  -4   42.58    2.43 
   1  -6  -4   39.40    2.77 
  -1   6   4   39.86    2.73 
   0  -6  -4   24.93    1.51 
   0  -6  -4   23.50    1.63 
   0   6   4   21.59    1.65 
  -1  -6  -4   52.51    2.95 
   1   6   4   46.01    3.32 
  -2  -6  -4    4.00    0.54 
  -2  -6  -4    4.11    0.63 
  -3  -6  -4    0.75    0.37 
  -3  -6  -4    0.42    0.43 
  -4  -6  -4    4.26    0.79 
  -5  -6  -4   -0.17    0.53 
  -6  -6  -4   -0.18    0.60 
  -7  -6  -4   -0.11    0.69 
   8  -6  -3    0.55    0.81 
   7  -6  -3    4.45    0.95 
   6  -6  -3    3.42    0.78 
  -6   6   3    1.84    0.47 
   5  -6  -3    3.82    0.75 
  -5   6   3    2.35    0.46 
   4  -6  -3    4.69    0.41 
   4  -6  -3    3.54    0.67 
  -4   6   3    4.87    0.56 
   3  -6  -3    2.44    0.31 
   3  -6  -3    1.61    0.47 
  -3   6   3    3.23    0.41 
   2  -6  -3   57.44    3.95 
   2  -6  -3   58.98    3.37 
   1  -6  -3   23.06    1.48 
   1  -6  -3   22.91    1.71 
  -1   6   3   25.95    1.70 
   0  -6  -3  132.09    7.41 
   0  -6  -3  133.26    8.54 
   0   6   3  125.88    8.41 
  -1  -6  -3   66.92    4.05 
   1   6   3   72.46    4.62 
  -2  -6  -3   86.53    5.78 
  -2  -6  -3   88.22    5.07 
  -3  -6  -3   41.80    3.02 
  -3  -6  -3   44.00    2.64 
  -4  -6  -3    4.67    0.75 
  -5  -6  -3    1.40    0.61 
  -6  -6  -3   -0.01    0.61 
  -7  -6  -3    1.07    0.72 
   8  -6  -2    1.60    0.93 
   7  -6  -2    2.87    0.79 
  -7   6   2    1.58    0.64 
   6  -6  -2    5.76    0.92 
  -6   6   2    7.28    0.87 
   5  -6  -2    0.57    0.54 
  -5   6   2    0.44    0.35 
   4  -6  -2   14.10    0.83 
   4  -6  -2   11.48    1.19 
  -4   6   2   12.85    1.10 
   3  -6  -2   36.65    2.16 
   3  -6  -2   35.29    2.65 
  -3   6   2   40.18    2.58 
   2  -6  -2   35.69    2.57 
   2  -6  -2   37.65    2.15 
  -2   6   2   36.79    2.52 
   1  -6  -2    9.95    0.81 
   1  -6  -2    9.89    0.68 
  -1   6   2    9.16    0.81 
   0  -6  -2   15.73    1.05 
   0  -6  -2   16.20    1.17 
   0   6   2   16.33    1.20 
  -1  -6  -2   13.51    0.97 
   1   6   2   15.06    1.12 
  -2  -6  -2   61.63    3.50 
   2   6   2   57.23    3.98 
  -3  -6  -2    4.02    0.64 
  -4  -6  -2   20.48    1.67 
  -5  -6  -2    5.21    0.86 
  -6  -6  -2    3.83    0.82 
  -7  -6  -2    0.21    0.65 
   8  -6  -1    0.56    0.80 
   7  -6  -1    0.97    0.68 
  -7   6   1    1.07    0.61 
   6  -6  -1    5.91    0.92 
  -6   6   1    5.35    0.82 
   5  -6  -1    6.63    0.85 
  -5   6   1    4.81    0.71 
   4  -6  -1   38.95    2.87 
  -4   6   1   40.51    2.79 
   3  -6  -1   69.84    3.91 
   3  -6  -1   68.68    4.72 
  -3   6   1   69.22    4.60 
   2  -6  -1   85.52    5.67 
   2  -6  -1   85.22    4.79 
  -2   6   1   83.47    5.55 
   1  -6  -1    6.98    0.47 
  -1   6   1    4.78    0.58 
   0  -6  -1   17.01    1.14 
   0   6   1   19.80    1.34 
   1   6   1   15.31    1.16 
   2   6   1   25.15    1.83 
   3   6   1    1.88    0.45 
  -4  -6  -1    3.57    0.65 
  -5  -6  -1    5.10    0.81 
  -6  -6  -1    5.84    0.92 
  -7  -6  -1    0.24    0.58 
  -8  -6  -1    0.72    0.71 
   8  -6   0    1.16    0.82 
  -8   6   0    0.43    0.74 
   7  -6   0    2.40    0.77 
  -7   6   0    2.88    0.76 
   6  -6   0    0.28    0.55 
  -6   6   0    0.61    0.53 
   5  -6   0    1.02    0.56 
  -5   6   0    1.11    0.49 
   4  -6   0   11.89    1.11 
  -4   6   0   10.29    1.04 
   3  -6   0    6.22    0.77 
  -3   6   0    8.58    0.79 
   2  -6   0   34.76    2.30 
  -2   6   0   29.60    2.23 
   1  -6   0  131.56    8.66 
  -1   6   0  130.96    8.48 
   0   6   0  208.25   13.33 
   1   6   0  130.88    8.44 
   2   6   0   27.76    1.95 
   3   6   0    8.23    0.82 
   4   6   0   12.68    1.14 
  -5  -6   0    1.42    0.52 
  -6  -6   0    0.39    0.53 
  -7  -6   0    1.58    0.69 
  -8  -6   0    0.48    0.70 
   8  -6   1    1.76    0.87 
  -8   6  -1    0.57    0.72 
   7  -6   1    0.40    0.64 
  -7   6  -1    0.53    0.63 
   6  -6   1    4.82    0.84 
  -6   6  -1    5.53    0.89 
   5  -6   1    4.30    0.74 
  -5   6  -1    5.19    0.77 
   4  -6   1    3.39    0.66 
  -4   6  -1    3.58    0.64 
   3  -6   1    1.82    0.45 
  -3   6  -1    2.27    0.49 
   2  -6   1   20.13    1.61 
  -2   6  -1   22.32    1.60 
   1  -6   1   18.99    1.40 
  -1   6  -1   17.27    1.36 
   0   6  -1   25.46    1.79 
   1   6  -1    4.36    0.49 
   2   6  -1   85.61    5.59 
   3   6  -1   74.80    4.94 
   4   6  -1   46.80    3.23 
   5   6  -1    6.21    0.78 
   6   6  -1    5.49    0.78 
   8   6  -1    0.16    0.62 
   7  -6   2    0.66    0.75 
  -7   6  -2    0.50    0.65 
   6  -6   2    4.65    0.90 
  -6   6  -2    3.76    0.83 
   5  -6   2    6.04    0.89 
  -5   6  -2    5.82    0.87 
   4  -6   2   20.22    1.63 
  -4   6  -2   18.43    1.60 
   3  -6   2    4.32    0.69 
  -3   6  -2    6.28    0.76 
   2  -6   2   62.25    3.96 
  -2   6  -2   55.86    3.24 
  -2   6  -2   54.59    3.85 
  -1   6  -2   12.13    0.99 
  -1   6  -2   11.13    0.73 
   0   6  -2   13.88    1.10 
   1   6  -2    9.11    0.80 
   2   6  -2   37.21    2.54 
   3   6  -2   40.58    2.77 
   4   6  -2   13.45    1.12 
   5   6  -2    1.28    0.48 
   6   6  -2    7.79    0.91 
   7   6  -2    2.01    0.62 
   8   6  -2    2.15    0.76 
  -7   6  -3   -0.32    0.63 
   6  -6   3    0.50    0.58 
  -6   6  -3   -0.18    0.62 
   5  -6   3    1.79    0.65 
  -5   6  -3    1.81    0.66 
   4  -6   3    6.78    0.87 
  -4   6  -3    4.52    0.78 
   3  -6   3   41.85    3.19 
  -3   6  -3   48.18    3.18 
  -2   6  -3   68.50    4.59 
  -2   6  -3   68.06    3.87 
  -1   6  -3   74.25    4.23 
  -1   6  -3   73.78    4.92 
   0   6  -3  125.38    8.27 
   0   6  -3  129.69    7.23 
   1   6  -3   27.46    1.94 
   2   6  -3   54.94    3.65 
   3   6  -3    4.25    0.52 
   4   6  -3    4.83    0.59 
   5   6  -3    3.28    0.55 
   6   6  -3    2.11    0.55 
   7   6  -3    6.08    0.89 
   7   6  -3    7.34    0.84 
   8   6  -3    0.66    0.56 
  -7   6  -4   -0.01    0.72 
   6  -6   4    0.35    0.68 
  -6   6  -4    0.80    0.71 
   5  -6   4    0.22    0.54 
  -5   6  -4   -0.03    0.56 
  -4   6  -4    2.78    0.68 
  -3   6  -4    0.43    0.45 
  -2   6  -4    3.61    0.36 
  -2   6  -4    3.39    0.63 
  -1   6  -4   44.82    3.14 
  -1   6  -4   46.31    2.68 
   0   6  -4   22.29    1.67 
   0   6  -4   22.95    1.43 
   1   6  -4   38.02    2.65 
   1   6  -4   39.23    2.33 
   2   6  -4   67.32    3.93 
   2   6  -4   67.05    4.43 
   3   6  -4   19.79    1.42 
   3   6  -4   18.71    1.31 
   4   6  -4   25.44    1.70 
   4   6  -4   26.07    1.85 
   5   6  -4   10.74    0.98 
   5   6  -4   10.93    0.96 
   6   6  -4    5.37    0.69 
   6   6  -4    3.86    0.64 
   7   6  -4    0.69    0.47 
   8   6  -4    0.20    0.56 
  -6   6  -5    1.59    0.80 
  -5   6  -5    3.78    0.88 
  -4   6  -5    2.16    0.69 
  -3   6  -5    6.32    0.87 
  -2   6  -5    3.76    0.65 
  -2   6  -5    3.36    0.38 
  -1   6  -5   16.02    1.08 
  -1   6  -5   15.95    1.33 
   0   6  -5   54.09    3.85 
   0   6  -5   60.18    3.37 
   1   6  -5   10.41    0.91 
   1   6  -5    9.20    0.80 
   2   6  -5    7.49    0.70 
   2   6  -5    7.09    0.72 
   3   6  -5   30.60    2.14 
   3   6  -5   30.84    1.97 
   4   6  -5   18.18    1.29 
   4   6  -5   16.85    1.31 
   5   6  -5   21.37    1.59 
   5   6  -5   21.23    1.53 
   6   6  -5   10.87    1.05 
   7   6  -5    1.31    0.53 
   8   6  -5    0.67    0.56 
  -6   6  -6    0.05    0.75 
  -5   6  -6    1.83    0.83 
  -4   6  -6    2.56    0.77 
  -3   6  -6   13.16    1.32 
  -2   6  -6    3.51    0.72 
  -2   6  -6    4.67    0.47 
  -1   6  -6   24.21    1.59 
  -1   6  -6   25.66    1.92 
   0   6  -6   22.79    1.75 
   0   6  -6   23.31    1.51 
   1   6  -6   11.12    0.93 
   1   6  -6   11.35    1.01 
   2   6  -6    2.83    0.49 
   2   6  -6    2.99    0.51 
   3   6  -6    4.50    0.63 
   3   6  -6    4.05    0.54 
   4   6  -6    8.85    0.89 
   4   6  -6    8.64    0.80 
   5   6  -6   10.11    0.99 
   6   6  -6    6.10    0.81 
   7   6  -6    7.38    0.94 
   8   6  -6    0.72    0.62 
  -5   6  -7    0.93    0.84 
  -4   6  -7    0.68    0.70 
  -3   6  -7   -0.26    0.58 
  -2   6  -7    0.67    0.53 
  -1   6  -7   38.38    2.78 
   0   6  -7   30.61    2.22 
   0   6  -7   28.97    1.92 
   1   6  -7   10.07    0.96 
   1   6  -7    9.85    0.90 
   2   6  -7   58.15    3.48 
   2   6  -7   56.48    3.86 
   3   6  -7   11.41    1.08 
   3   6  -7   13.19    1.06 
   4   6  -7    0.09    0.39 
   5   6  -7    4.06    0.69 
   6   6  -7    1.35    0.56 
   7   6  -7   -0.36    0.50 
   8   6  -7    1.76    0.71 
  -5   6  -8   -0.08    0.95 
  -4   6  -8    0.11    0.79 
  -3   6  -8    0.32    0.63 
  -2   6  -8    1.29    0.65 
  -1   6  -8    4.58    0.76 
  -1   6  -8    3.48    0.58 
   0   6  -8   15.89    1.19 
   0   6  -8   12.98    1.28 
   1   6  -8   31.40    2.13 
   1   6  -8   25.45    1.88 
   2   6  -8    8.78    0.87 
   2   6  -8    8.37    0.89 
   3   6  -8   14.11    1.21 
   4   6  -8   12.11    1.17 
   5   6  -8    7.07    0.91 
   6   6  -8    2.57    0.70 
   7   6  -8    1.38    0.67 
   8   6  -8    0.87    0.74 
  -4   6  -9    0.63    0.89 
  -3   6  -9    5.69    1.11 
  -2   6  -9    3.98    0.88 
  -1   6  -9    2.17    0.73 
  -1   6  -9    3.67    0.62 
   0   6  -9    2.48    0.64 
   0   6  -9    3.46    0.63 
   1   6  -9    4.11    0.74 
   1   6  -9    4.94    0.73 
   2   6  -9    6.63    0.85 
   3   6  -9   10.87    1.10 
   4   6  -9    4.10    0.74 
   5   6  -9    6.27    0.92 
   6   6  -9    5.33    0.91 
   7   6  -9    2.64    0.77 
  -3   6 -10    0.61    0.88 
  -2   6 -10    0.69    0.80 
  -1   6 -10    3.05    0.76 
   0   6 -10    9.05    1.08 
   0   6 -10    7.92    0.93 
   1   6 -10    2.51    0.62 
   2   6 -10    0.44    0.61 
   3   6 -10    4.92    0.83 
   4   6 -10    0.02    0.54 
   5   6 -10    2.27    0.69 
   6   6 -10    5.58    0.95 
   7   6 -10    0.72    0.71 
  -2   6 -11    1.44    0.93 
  -1   6 -11    0.72    0.80 
   0   6 -11    2.87    0.71 
   1   6 -11    4.21    0.78 
   2   6 -11    3.77    0.82 
   3   6 -11    3.68    0.85 
   4   6 -11    2.23    0.73 
   5   6 -11    3.08    0.82 
   6   6 -11    0.74    0.73 
   0   6 -12    0.99    0.64 
   1   6 -12    2.13    0.70 
   2   6 -12    1.16    0.64 
   3   6 -12    3.12    0.81 
   4   6 -12    2.37    0.82 
   5   6 -12    3.38    0.88 
   2   6 -13    0.42    0.63 
   3   6 -13    1.12    0.74 
   5  -7 -12    0.45    0.66 
   4  -7 -12    0.36    0.63 
   3  -7 -12    0.79    0.65 
   2  -7 -12    3.37    0.86 
   1  -7 -12    0.36    0.64 
   0  -7 -12    1.43    0.70 
   6  -7 -11   -0.22    0.88 
   6  -7 -11    1.18    0.63 
   5  -7 -11    2.80    0.72 
   5  -7 -11    4.79    1.07 
   4  -7 -11    3.23    0.73 
   3  -7 -11    0.88    0.57 
   2  -7 -11    0.63    0.56 
   1  -7 -11   -0.44    0.52 
   0  -7 -11    1.56    0.66 
  -1  -7 -11    0.23    0.58 
  -2  -7 -11    1.75    0.68 
   7  -7 -10    1.14    0.89 
   6  -7 -10    4.56    0.80 
   6  -7 -10    4.11    1.04 
   5  -7 -10    5.93    0.86 
   5  -7 -10    6.51    1.13 
   4  -7 -10    8.59    1.15 
   4  -7 -10    7.06    0.92 
   3  -7 -10    7.09    0.90 
   2  -7 -10    3.52    0.69 
   1  -7 -10    3.03    0.70 
   0  -7 -10    2.37    0.65 
  -1  -7 -10    0.76    0.57 
   1   7  10    0.54    0.68 
  -2  -7 -10    0.34    0.55 
  -2  -7 -10   -0.01    0.71 
  -3  -7 -10   -0.13    0.82 
  -3  -7 -10    0.89    0.60 
   7  -7  -9    1.02    0.87 
   6  -7  -9    0.71    0.76 
   5  -7  -9    2.01    0.56 
   5  -7  -9    1.85    0.80 
   4  -7  -9    2.85    0.79 
   4  -7  -9    2.45    0.58 
   3  -7  -9    8.54    0.92 
   3  -7  -9    7.27    0.95 
   2  -7  -9    5.22    0.75 
   1  -7  -9   35.51    2.38 
   0  -7  -9    4.15    0.72 
   0   7   9    3.42    0.70 
  -1  -7  -9    9.09    1.02 
   1   7   9    9.00    1.06 
  -2  -7  -9    0.49    0.64 
  -2  -7  -9    0.56    0.50 
  -3  -7  -9    0.81    0.77 
  -3  -7  -9    2.03    0.65 
  -4  -7  -9   -0.23    0.55 
  -4  -7  -9   -0.09    0.88 
   7  -7  -8    2.65    0.95 
   6  -7  -8    3.74    0.94 
   5  -7  -8    0.86    0.44 
   5  -7  -8    1.57    0.72 
   4  -7  -8    0.16    0.61 
   4  -7  -8    0.83    0.42 
   3  -7  -8    1.50    0.46 
   3  -7  -8    2.07    0.63 
   2  -7  -8    7.35    0.81 
   2  -7  -8    7.65    0.84 
   1  -7  -8    3.50    0.62 
  -1   7   8    3.77    0.52 
   0  -7  -8   15.95    1.25 
   0   7   8   13.05    1.27 
  -1  -7  -8   13.98    1.16 
   1   7   8   10.60    1.16 
  -2  -7  -8    5.58    0.79 
  -2  -7  -8    6.54    0.95 
  -3  -7  -8    2.62    0.79 
  -3  -7  -8    2.22    0.63 
  -4  -7  -8    0.98    0.57 
  -4  -7  -8    0.57    0.79 
   8  -7  -7    2.93    1.04 
   7  -7  -7    1.77    0.88 
   6  -7  -7    4.00    0.93 
   5  -7  -7   13.50    1.46 
   5  -7  -7   14.70    1.12 
   4  -7  -7   20.74    1.81 
   4  -7  -7   23.42    1.53 
   3  -7  -7    9.79    1.01 
   3  -7  -7    8.80    0.86 
   2  -7  -7    8.53    0.82 
   2  -7  -7    9.04    0.87 
  -2   7   7    7.16    0.73 
   1  -7  -7    2.22    0.50 
  -1   7   7    2.42    0.45 
   0  -7  -7    0.55    0.39 
   0   7   7    0.78    0.47 
  -1  -7  -7    3.37    0.58 
   1   7   7    3.53    0.67 
  -2  -7  -7    1.64    0.51 
  -2  -7  -7    2.38    0.66 
  -3  -7  -7    2.80    0.75 
  -3  -7  -7    3.06    0.62 
  -4  -7  -7    3.00    0.67 
  -4  -7  -7    2.48    0.84 
  -5  -7  -7   -0.84    0.79 
   8  -7  -6   -0.05    0.92 
   7  -7  -6    0.48    0.78 
   6  -7  -6   -0.13    0.57 
   5  -7  -6    3.97    0.85 
   5  -7  -6    4.40    0.57 
   4  -7  -6   47.42    2.81 
   4  -7  -6   44.66    3.33 
   3  -7  -6   17.53    1.23 
   3  -7  -6   17.09    1.44 
  -3   7   6   17.14    1.29 
   2  -7  -6   44.79    3.41 
   2  -7  -6   52.05    3.01 
  -2   7   6   52.34    3.34 
   1  -7  -6   17.50    1.27 
   1  -7  -6   18.37    1.37 
   0  -7  -6   26.49    1.80 
   0   7   6   28.11    1.99 
  -1  -7  -6    4.44    0.60 
   1   7   6    1.80    0.56 
  -2  -7  -6   14.22    1.19 
  -2  -7  -6   14.68    1.36 
  -3  -7  -6   -0.04    0.40 
  -3  -7  -6   -0.16    0.50 
  -4  -7  -6    0.37    0.48 
  -4  -7  -6   -0.35    0.57 
  -5  -7  -6    3.10    0.90 
  -6  -7  -6    1.47    0.96 
   8  -7  -5    1.24    0.97 
   7  -7  -5    0.71    0.70 
   6  -7  -5    3.18    0.85 
   5  -7  -5    0.78    0.61 
   4  -7  -5    5.21    0.82 
   4  -7  -5    5.45    0.56 
  -4   7   5    4.83    0.56 
   3  -7  -5   29.28    2.32 
   3  -7  -5   31.05    1.95 
  -3   7   5   33.39    2.20 
   2  -7  -5    2.44    0.49 
   2  -7  -5    2.37    0.39 
  -2   7   5    0.58    0.32 
   1  -7  -5   60.97    3.96 
   1  -7  -5   58.00    3.47 
  -1   7   5   56.46    3.90 
   0  -7  -5   26.59    1.86 
   0  -7  -5   25.42    1.73 
   0   7   5   28.73    1.94 
  -1  -7  -5   15.18    1.09 
   1   7   5   13.73    1.24 
  -2  -7  -5   37.09    2.36 
  -3  -7  -5   20.20    1.42 
  -3  -7  -5   18.00    1.63 
  -4  -7  -5    2.90    0.61 
  -4  -7  -5    3.54    0.79 
  -5  -7  -5    0.92    0.69 
  -6  -7  -5    0.35    0.77 
   8  -7  -4    2.69    1.00 
   7  -7  -4    2.17    0.85 
   6  -7  -4   12.80    1.41 
   5  -7  -4   13.62    1.42 
  -5   7   4   15.27    1.19 
   4  -7  -4   15.85    0.96 
   4  -7  -4   14.36    1.25 
  -4   7   4   11.04    1.07 
   3  -7  -4    7.10    0.87 
   3  -7  -4    7.31    0.65 
  -3   7   4    9.55    0.80 
   2  -7  -4    7.07    0.78 
   2  -7  -4    8.09    0.65 
   1  -7  -4    2.31    0.36 
   1  -7  -4    0.91    0.26 
  -1   7   4    1.92    0.39 
   0  -7  -4   42.19    2.51 
   0  -7  -4   42.50    2.81 
   0   7   4   38.98    2.81 
  -2  -7  -4   15.43    1.22 
   2   7   4   19.11    1.44 
  -3  -7  -4   26.41    1.79 
  -3  -7  -4   26.81    2.07 
  -4  -7  -4    7.73    1.02 
  -5  -7  -4    1.89    0.72 
  -6  -7  -4    0.74    0.70 
  -7  -7  -4   -0.76    0.67 
   8  -7  -3    1.95    0.95 
   7  -7  -3    0.29    0.70 
   6  -7  -3   12.09    1.35 
   5  -7  -3   15.72    1.43 
   4  -7  -3   26.79    1.58 
   4  -7  -3   24.89    2.01 
   3  -7  -3   17.24    1.12 
   3  -7  -3   16.20    1.42 
  -3   7   3   19.51    1.37 
   2  -7  -3   54.91    3.89 
   2  -7  -3   60.80    3.32 
  -2   7   3   54.82    3.80 
   1  -7  -3  114.81    6.64 
   1  -7  -3  119.48    7.71 
  -1   7   3  115.92    7.56 
   0  -7  -3    6.86    0.60 
   0  -7  -3    7.13    0.63 
   0   7   3    5.69    0.65 
  -1  -7  -3   12.24    0.88 
   1   7   3   10.76    0.98 
  -2  -7  -3    3.88    0.52 
   2   7   3    3.53    0.61 
  -3  -7  -3   58.75    4.06 
  -4  -7  -3    7.34    0.98 
  -5  -7  -3    2.72    0.76 
  -6  -7  -3    1.65    0.74 
  -7  -7  -3    0.70    0.71 
   8  -7  -2    1.24    0.95 
   7  -7  -2    0.51    0.69 
  -7   7   2    0.79    0.60 
   6  -7  -2    0.35    0.58 
  -6   7   2    0.46    0.45 
   5  -7  -2   13.12    1.34 
  -5   7   2   13.45    1.19 
   4  -7  -2    8.69    0.95 
  -4   7   2    7.09    0.79 
   3  -7  -2   23.38    1.81 
   3  -7  -2   24.18    1.43 
  -3   7   2   24.00    1.76 
   2  -7  -2   60.68    3.47 
   2  -7  -2   62.80    4.12 
  -2   7   2   57.35    4.01 
   1  -7  -2   32.51    2.24 
   1  -7  -2   28.57    1.88 
  -1   7   2   33.78    2.20 
   0  -7  -2  249.32   14.25 
   0   7   2  258.10   16.24 
  -1  -7  -2   19.50    1.28 
   2   7   2   56.64    3.84 
   3   7   2   10.63    1.05 
  -4  -7  -2    2.29    0.62 
  -5  -7  -2    3.00    0.74 
  -6  -7  -2    0.83    0.63 
  -7  -7  -2    1.49    0.78 
   8  -7  -1    2.20    0.94 
   7  -7  -1    1.24    0.74 
  -7   7   1    2.59    0.73 
   6  -7  -1    1.99    0.70 
  -6   7   1    1.35    0.56 
   5  -7  -1    2.74    0.70 
  -5   7   1    2.26    0.57 
   4  -7  -1    2.73    0.65 
  -4   7   1    3.27    0.57 
   3  -7  -1    5.45    0.73 
  -3   7   1    6.14    0.70 
   2  -7  -1   12.85    1.15 
   2  -7  -1   14.17    0.90 
  -2   7   1   16.44    1.19 
   1  -7  -1  102.66    6.88 
   1  -7  -1  103.06    5.87 
  -1   7   1  104.78    6.74 
   0  -7  -1   29.49    1.81 
   0   7   1   30.37    2.09 
   1   7   1   85.72    5.62 
   2   7   1   76.53    5.07 
   3   7   1   14.53    1.25 
   4   7   1   10.17    1.06 
  -5  -7  -1    6.49    0.95 
  -6  -7  -1    3.36    0.82 
  -7  -7  -1    2.16    0.80 
   8  -7   0    1.32    0.88 
  -8   7   0    0.60    0.73 
   7  -7   0    3.48    0.86 
  -7   7   0    2.65    0.81 
   6  -7   0    3.57    0.82 
  -6   7   0    3.68    0.82 
   5  -7   0    7.77    0.99 
  -5   7   0    8.02    0.94 
   4  -7   0   30.24    2.36 
  -4   7   0   33.59    2.36 
   3  -7   0   34.24    2.73 
  -3   7   0   42.68    2.72 
   2  -7   0    2.56    0.52 
  -2   7   0    3.64    0.53 
   1  -7   0   29.13    2.08 
  -1   7   0   28.10    2.03 
   0   7   0   -0.18    0.24 
   1   7   0   31.58    2.21 
   2   7   0    4.99    0.59 
   3   7   0   45.56    3.15 
   4   7   0   38.06    2.73 
   5   7   0    8.73    0.99 
   6   7   0    5.48    0.85 
   7   7   0    2.23    0.72 
   8   7   0    0.00    0.69 
   7  -7   1    0.76    0.74 
  -7   7  -1    0.38    0.68 
   6  -7   1    3.10    0.80 
  -6   7  -1    2.11    0.71 
   5  -7   1    5.97    0.89 
  -5   7  -1    4.42    0.77 
   4  -7   1    6.90    0.95 
  -4   7  -1    9.88    0.99 
   3  -7   1   14.75    1.29 
  -3   7  -1   14.29    1.25 
   2  -7   1   72.41    4.83 
  -2   7  -1   69.16    4.72 
  -1   7  -1   88.75    5.84 
   0   7  -1   30.59    2.15 
   1   7  -1   93.62    6.11 
   2   7  -1   19.49    1.45 
   3   7  -1    6.21    0.69 
   4   7  -1    3.54    0.61 
   5   7  -1    3.08    0.64 
   6   7  -1    2.42    0.67 
   7   7  -1    2.51    0.71 
   8   7  -1    2.33    0.82 
   7  -7   2    0.95    0.77 
  -7   7  -2    0.58    0.71 
   6  -7   2    0.18    0.64 
  -6   7  -2    0.31    0.58 
   5  -7   2    0.57    0.57 
  -5   7  -2    1.70    0.62 
   4  -7   2    2.10    0.62 
  -4   7  -2    1.93    0.58 
   3  -7   2   12.65    1.24 
  -3   7  -2   13.31    1.22 
   2  -7   2   51.54    3.65 
  -2   7  -2   52.90    2.98 
  -2   7  -2   51.38    3.58 
  -1   7  -2   19.08    1.48 
   0   7  -2  242.88   15.57 
   1   7  -2   28.83    2.04 
   2   7  -2   56.44    3.78 
   3   7  -2   22.94    1.69 
   4   7  -2    5.35    0.66 
   5   7  -2   15.52    1.34 
   6   7  -2    0.78    0.54 
   7   7  -2    1.36    0.61 
   8   7  -2    0.75    0.77 
   7  -7   3    2.14    0.88 
  -7   7  -3    1.86    0.85 
   6  -7   3    3.30    0.84 
  -6   7  -3    2.32    0.79 
   5  -7   3    2.00    0.71 
  -5   7  -3    1.23    0.61 
   4  -7   3    5.51    0.90 
  -4   7  -3    7.28    0.94 
   3  -7   3   53.37    3.77 
  -3   7  -3   52.30    3.70 
  -2   7  -3    4.31    0.68 
  -2   7  -3    4.75    0.39 
  -1   7  -3   11.30    1.04 
  -1   7  -3   11.33    0.77 
   0   7  -3    8.06    0.81 
   0   7  -3    8.38    0.63 
   1   7  -3  136.49    8.85 
   2   7  -3   53.12    3.56 
   3   7  -3   22.07    1.63 
   4   7  -3   20.92    1.58 
   5   7  -3   16.52    1.35 
   6   7  -3   11.67    1.14 
   7   7  -3    1.40    0.59 
   8   7  -3    2.12    0.66 
  -7   7  -4    0.96    0.77 
   6  -7   4    1.13    0.76 
  -6   7  -4    0.44    0.69 
  -5   7  -4    2.10    0.78 
  -4   7  -4    4.62    0.83 
  -3   7  -4   25.13    1.98 
  -2   7  -4   17.20    1.52 
  -2   7  -4   18.55    1.15 
   0   7  -4   41.53    2.48 
   0   7  -4   41.27    2.88 
   1   7  -4    1.16    0.32 
   1   7  -4    1.72    0.43 
   2   7  -4    7.67    0.72 
   2   7  -4    8.36    0.79 
   3   7  -4   10.41    0.94 
   4   7  -4   11.17    0.99 
   5   7  -4   14.98    1.24 
   6   7  -4   11.55    1.06 
   6   7  -4   10.88    1.07 
   7   7  -4    3.16    0.67 
   8   7  -4    2.96    0.74 
  -6   7  -5    0.21    0.72 
  -5   7  -5    0.13    0.66 
  -4   7  -5    3.58    0.76 
  -3   7  -5   19.14    1.66 
  -2   7  -5   33.37    2.49 
  -1   7  -5   11.88    1.16 
  -1   7  -5   13.35    0.92 
   0   7  -5   30.98    1.87 
   0   7  -5   28.10    2.16 
   1   7  -5   57.25    3.50 
   1   7  -5   60.59    3.99 
   2   7  -5    0.41    0.32 
   2   7  -5    0.08    0.33 
   3   7  -5   32.97    2.34 
   3   7  -5   34.15    2.16 
   4   7  -5    4.66    0.62 
   4   7  -5    4.34    0.65 
   5   7  -5    0.54    0.43 
   5   7  -5    0.85    0.40 
   6   7  -5    2.65    0.61 
   7   7  -5    1.90    0.60 
   8   7  -5    0.64    0.58 
  -6   7  -6   -0.04    0.75 
  -5   7  -6    0.80    0.79 
  -4   7  -6    0.75    0.67 
  -3   7  -6    0.63    0.57 
  -2   7  -6   15.58    1.44 
  -1   7  -6    2.73    0.65 
  -1   7  -6    3.43    0.48 
   0   7  -6   30.97    2.18 
   0   7  -6   28.06    1.86 
   1   7  -6   18.58    1.47 
   1   7  -6   17.90    1.32 
   2   7  -6   53.66    3.61 
   2   7  -6   52.40    3.23 
   3   7  -6   17.93    1.33 
   3   7  -6   17.83    1.39 
   4   7  -6   43.62    2.74 
   4   7  -6   42.80    2.95 
   5   7  -6    5.78    0.77 
   6   7  -6    0.17    0.45 
   7   7  -6    0.92    0.58 
   8   7  -6    0.73    0.65 
  -5   7  -7    1.16    0.93 
  -4   7  -7    1.73    0.83 
  -3   7  -7    2.08    0.70 
  -2   7  -7    1.84    0.64 
  -1   7  -7    4.54    0.56 
  -1   7  -7    4.01    0.76 
   0   7  -7    0.86    0.50 
   0   7  -7    0.47    0.39 
   1   7  -7    2.85    0.57 
   1   7  -7    2.06    0.51 
   2   7  -7    9.31    0.92 
   2   7  -7    8.44    0.89 
   3   7  -7   10.92    0.99 
   3   7  -7    9.86    0.99 
   4   7  -7   25.62    1.82 
   5   7  -7   17.68    1.46 
   6   7  -7    6.70    0.92 
   7   7  -7    1.56    0.62 
   8   7  -7    2.63    0.80 
  -4   7  -8    0.90    0.86 
  -3   7  -8    3.17    0.89 
  -2   7  -8    4.67    0.87 
  -1   7  -8   18.20    1.60 
   0   7  -8   17.39    1.51 
   0   7  -8   17.90    1.39 
   1   7  -8    3.89    0.68 
   1   7  -8    3.94    0.66 
   2   7  -8    4.84    0.70 
   2   7  -8    4.56    0.67 
   3   7  -8    2.74    0.63 
   4   7  -8    0.86    0.54 
   5   7  -8    1.73    0.60 
   6   7  -8    3.80    0.76 
   7   7  -8    1.84    0.74 
  -4   7  -9    0.53    0.95 
  -3   7  -9    0.90    0.83 
  -2   7  -9    0.18    0.65 
  -1   7  -9    9.90    1.17 
   0   7  -9    3.74    0.77 
   0   7  -9    5.22    0.72 
   1   7  -9   33.14    2.43 
   1   7  -9   31.97    2.19 
   2   7  -9    5.52    0.81 
   3   7  -9   11.44    1.14 
   4   7  -9    2.24    0.65 
   5   7  -9    2.52    0.70 
   6   7  -9   -0.54    0.53 
   7   7  -9    1.64    0.79 
  -3   7 -10    0.29    0.95 
  -2   7 -10    1.01    0.79 
  -1   7 -10    1.09    0.70 
   0   7 -10    4.26    0.80 
   0   7 -10    3.41    0.69 
   1   7 -10    3.33    0.71 
   2   7 -10    4.99    0.82 
   3   7 -10    9.71    1.12 
   4   7 -10    6.74    0.96 
   5   7 -10    3.06    0.75 
   6   7 -10    3.46    0.85 
   7   7 -10    1.22    0.76 
  -2   7 -11    1.11    0.94 
  -1   7 -11    0.17    0.77 
   0   7 -11    1.71    0.63 
   1   7 -11   -0.18    0.54 
   2   7 -11    0.78    0.64 
   3   7 -11    0.52    0.60 
   4   7 -11    2.61    0.78 
   5   7 -11    2.97    0.80 
   6   7 -11    0.17    0.71 
   1   7 -12    0.63    0.64 
   2   7 -12    3.28    0.80 
   3   7 -12    1.21    0.74 
   4   7 -12    0.60    0.67 
   5   7 -12   -0.28    0.67 
   4  -8 -12    2.89    0.84 
   3  -8 -12    0.39    0.69 
   2  -8 -12    2.70    0.87 
   1  -8 -12    0.72    0.72 
   0  -8 -12   -0.49    0.56 
   5  -8 -11   -0.48    0.54 
   4  -8 -11    5.38    0.91 
   3  -8 -11    2.67    0.73 
   2  -8 -11    4.05    0.86 
   1  -8 -11    0.96    0.63 
   0  -8 -11    9.90    1.19 
  -1  -8 -11    0.80    0.63 
   6  -8 -10    3.61    1.00 
   5  -8 -10   -0.29    0.73 
   5  -8 -10   -0.12    0.45 
   4  -8 -10    0.78    0.54 
   3  -8 -10    0.59    0.51 
   2  -8 -10    3.74    0.73 
   1  -8 -10    2.29    0.64 
   0  -8 -10    6.39    0.94 
  -1  -8 -10    2.33    0.69 
  -2  -8 -10    0.53    0.59 
   2   8  10    0.82    0.77 
   7  -8  -9    1.86    0.96 
   6  -8  -9    2.38    0.87 
   5  -8  -9    9.39    1.30 
   5  -8  -9   10.56    1.04 
   4  -8  -9    3.16    0.80 
   4  -8  -9    3.17    0.63 
   3  -8  -9    1.50    0.51 
   2  -8  -9    3.27    0.67 
   1  -8  -9    1.37    0.53 
   0  -8  -9    0.51    0.49 
   0   8   9    0.67    0.51 
  -1  -8  -9    2.92    0.67 
   1   8   9    2.75    0.78 
  -2  -8  -9    0.10    0.50 
   2   8   9    0.64    0.69 
  -3  -8  -9    0.66    0.57 
   7  -8  -8    0.60    0.87 
   6  -8  -8    2.62    0.89 
   5  -8  -8    2.00    0.78 
   5  -8  -8    2.38    0.55 
   4  -8  -8    9.61    0.94 
   4  -8  -8    8.66    1.14 
   3  -8  -8   26.46    1.86 
   3  -8  -8   28.19    2.15 
   2  -8  -8    5.42    0.74 
   1  -8  -8    9.35    0.98 
  -1   8   8   10.25    0.97 
   0  -8  -8    4.41    0.69 
   0   8   8    3.74    0.66 
  -1  -8  -8    3.08    0.65 
   1   8   8    3.17    0.74 
  -2  -8  -8   -0.01    0.44 
   2   8   8    0.07    0.61 
  -3  -8  -8    2.03    0.62 
  -4  -8  -8   -0.56    0.53 
  -4  -8  -8   -0.40    0.83 
   7  -8  -7    1.00    0.90 
   6  -8  -7    1.15    0.81 
   5  -8  -7    1.70    0.78 
   5  -8  -7    2.15    0.51 
   4  -8  -7    6.31    0.97 
   4  -8  -7    5.49    0.69 
   3  -8  -7    5.31    0.85 
   3  -8  -7    6.50    0.72 
   2  -8  -7   19.50    1.66 
   2  -8  -7   22.75    1.54 
  -2   8   7   22.96    1.60 
   1  -8  -7    4.76    0.65 
   0  -8  -7   35.40    2.39 
   0   8   7   38.60    2.64 
  -1  -8  -7   17.40    1.25 
   1   8   7   13.01    1.35 
  -2  -8  -7    5.20    0.77 
   2   8   7    6.41    0.94 
  -3  -8  -7    1.84    0.77 
  -3  -8  -7    2.53    0.63 
  -4  -8  -7    1.07    0.82 
  -4  -8  -7    0.16    0.51 
  -5  -8  -7   -0.99    0.84 
   8  -8  -6    1.53    0.97 
   7  -8  -6    1.98    0.89 
   6  -8  -6    6.29    1.11 
   5  -8  -6    2.94    0.81 
   4  -8  -6   13.95    1.37 
   4  -8  -6   13.34    1.04 
   3  -8  -6    1.35    0.58 
   3  -8  -6    2.08    0.45 
  -3   8   6    1.95    0.39 
   2  -8  -6    0.61    0.40 
   2  -8  -6    0.28    0.32 
  -2   8   6    0.74    0.38 
   1  -8  -6    0.45    0.33 
   1  -8  -6    0.44    0.33 
  -1   8   6    1.08    0.41 
   0  -8  -6   16.71    1.30 
   0   8   6   19.21    1.44 
  -1  -8  -6   24.48    1.60 
   1   8   6   21.01    1.78 
  -2  -8  -6    7.66    0.89 
   2   8   6    9.56    1.05 
  -3  -8  -6    1.48    0.53 
  -4  -8  -6    3.60    0.71 
  -4  -8  -6    4.37    0.95 
  -5  -8  -6    3.40    0.98 
   8  -8  -5    1.12    0.99 
   7  -8  -5    0.87    0.83 
   6  -8  -5    6.52    1.10 
   5  -8  -5   16.37    1.59 
   4  -8  -5    3.38    0.78 
   4  -8  -5    3.59    0.52 
  -4   8   5    7.30    0.65 
   3  -8  -5   70.64    4.80 
   3  -8  -5   71.62    4.08 
  -3   8   5   66.55    4.61 
   2  -8  -5    1.58    0.36 
   2  -8  -5    1.51    0.47 
  -2   8   5    1.04    0.28 
   1  -8  -5   33.63    2.29 
   1  -8  -5   30.24    2.03 
  -1   8   5   32.63    2.29 
   0  -8  -5    0.27    0.26 
   0  -8  -5    0.37    0.32 
   0   8   5    0.51    0.35 
  -1  -8  -5    3.68    0.56 
   1   8   5    4.46    0.68 
  -2  -8  -5    1.53    0.45 
   2   8   5    2.27    0.62 
  -3  -8  -5    2.51    0.58 
   3   8   5    3.47    0.74 
  -4  -8  -5    7.90    1.14 
  -5  -8  -5    0.37    0.71 
  -6  -8  -5    0.99    0.80 
   8  -8  -4   -0.59    0.85 
   7  -8  -4    1.05    0.78 
   6  -8  -4    1.91    0.75 
   5  -8  -4    1.88    0.68 
  -5   8   4    1.95    0.43 
   4  -8  -4   23.35    1.45 
   4  -8  -4   22.60    1.86 
  -4   8   4   22.47    1.72 
   3  -8  -4   12.90    0.93 
   3  -8  -4   13.32    1.23 
   2  -8  -4   50.78    2.95 
   2  -8  -4   48.32    3.45 
  -2   8   4   49.82    3.37 
   1  -8  -4   47.50    2.89 
  -1   8   4   49.22    3.28 
   0  -8  -4   22.10    1.60 
   0  -8  -4   27.10    1.79 
   0   8   4   24.87    1.82 
  -1  -8  -4   32.10    2.15 
   1   8   4   36.34    2.46 
  -2  -8  -4    5.19    0.66 
   2   8   4    5.42    0.78 
  -3  -8  -4   24.14    1.61 
   3   8   4   21.16    1.83 
  -5  -8  -4    0.24    0.71 
  -6  -8  -4    0.29    0.75 
   8  -8  -3    0.15    0.88 
   7  -8  -3    3.86    0.99 
   6  -8  -3    0.92    0.67 
  -6   8   3    0.81    0.48 
   5  -8  -3    3.12    0.73 
  -5   8   3    3.09    0.60 
   4  -8  -3    3.50    0.74 
  -4   8   3    4.53    0.62 
   3  -8  -3    0.29    0.21 
   3  -8  -3    0.47    0.43 
  -3   8   3   -0.29    0.31 
   2  -8  -3   42.36    2.35 
   2  -8  -3   38.71    2.78 
  -2   8   3   36.24    2.72 
   1  -8  -3   27.89    2.01 
   1  -8  -3   24.90    1.71 
  -1   8   3   31.06    2.02 
   0  -8  -3   36.15    2.23 
   0   8   3   36.65    2.54 
  -1  -8  -3   23.10    1.62 
   1   8   3   27.05    1.86 
  -2  -8  -3   34.29    2.29 
   2   8   3   38.85    2.65 
   3   8   3   32.03    2.41 
   4   8   3    5.20    0.83 
  -6  -8  -3   -0.11    0.67 
   8  -8  -2   -0.43    0.83 
   7  -8  -2    6.20    1.11 
  -7   8   2    5.77    0.96 
   6  -8  -2    5.15    0.96 
  -6   8   2    5.85    0.82 
   5  -8  -2    6.63    0.92 
  -5   8   2    5.11    0.78 
   4  -8  -2   16.11    1.39 
  -4   8   2   13.69    1.25 
   3  -8  -2   14.28    1.27 
   3  -8  -2   13.65    0.92 
  -3   8   2   16.44    1.24 
   2  -8  -2    6.69    0.55 
   2  -8  -2    6.39    0.76 
  -2   8   2    7.34    0.75 
   1  -8  -2    3.27    0.52 
   1  -8  -2    3.25    0.39 
  -1   8   2    3.33    0.51 
   0  -8  -2    0.31    0.21 
   0   8   2   -0.47    0.26 
  -1  -8  -2   22.27    1.47 
   1   8   2   22.90    1.69 
   2   8   2    5.37    0.70 
   3   8   2   12.50    1.21 
   4   8   2   18.32    1.59 
   5   8   2    7.58    1.02 
   6   8   2    0.30    0.58 
   7   8   2    1.17    0.77 
   8  -8  -1    1.32    0.99 
   7  -8  -1    0.88    0.79 
  -7   8   1    0.88    0.66 
   6  -8  -1    4.38    0.89 
  -6   8   1    5.22    0.82 
   5  -8  -1    4.52    0.79 
  -5   8   1    5.72    0.79 
   4  -8  -1    9.98    1.09 
  -4   8   1   10.74    1.06 
   3  -8  -1   41.46    2.97 
  -3   8   1   41.01    2.89 
   2  -8  -1   26.24    2.07 
  -2   8   1   29.40    2.04 
   1  -8  -1   63.36    4.56 
  -1   8   1   71.11    4.49 
   0   8   1   42.46    2.90 
   1   8   1   24.33    1.78 
   2   8   1    1.56    0.45 
   3   8   1    7.88    0.89 
   4   8   1    1.78    0.58 
   5   8   1    4.60    0.80 
   6   8   1    3.44    0.80 
   7   8   1    0.55    0.69 
   7  -8   0    1.15    0.76 
  -7   8   0    0.77    0.66 
   6  -8   0    1.04    0.67 
  -6   8   0    0.26    0.52 
   5  -8   0    0.56    0.53 
  -5   8   0    0.59    0.49 
   4  -8   0    2.83    0.69 
  -4   8   0    2.47    0.62 
   3  -8   0   21.18    1.80 
  -3   8   0   23.59    1.77 
   2  -8   0   42.37    2.90 
  -2   8   0   38.26    2.82 
   1  -8   0   58.57    4.35 
  -1   8   0   69.40    4.30 
   0   8   0  262.88   16.84 
   1   8   0   69.42    4.62 
   2   8   0   38.24    2.67 
   3   8   0   23.42    1.78 
   4   8   0    2.34    0.60 
   5   8   0    0.57    0.53 
   6   8   0    0.96    0.60 
   7   8   0    1.04    0.68 
   8   8   0    0.41    0.78 
   7  -8   1    1.22    0.84 
  -7   8  -1    0.04    0.60 
   6  -8   1    3.46    0.85 
  -6   8  -1    3.16    0.79 
   5  -8   1    5.76    0.92 
  -5   8  -1    3.98    0.79 
   4  -8   1    0.50    0.55 
  -4   8  -1    1.55    0.55 
   3  -8   1    8.55    1.00 
  -3   8  -1    8.58    0.96 
   2  -8   1    0.32    0.42 
  -2   8  -1    0.45    0.39 
  -1   8  -1   24.97    1.87 
   0   8  -1   42.87    2.96 
   1   8  -1   70.39    4.69 
   2   8  -1   29.49    2.12 
   3   8  -1   38.65    2.72 
   4   8  -1   10.25    1.02 
   5   8  -1    4.83    0.76 
   6   8  -1    8.12    1.05 
   7   8  -1    1.60    0.70 
   8   8  -1    0.13    0.77 
   7  -8   2    0.65    0.79 
  -7   8  -2    0.96    0.76 
   6  -8   2    0.35    0.66 
  -6   8  -2    0.94    0.68 
   5  -8   2    6.28    0.98 
  -5   8  -2    6.27    0.93 
   4  -8   2   17.63    1.57 
  -4   8  -2   16.86    1.52 
   3  -8   2   10.95    1.20 
  -3   8  -2   14.55    1.26 
  -2   8  -2    5.29    0.42 
  -2   8  -2    4.94    0.72 
  -1   8  -2   21.57    1.67 
   0   8  -2    0.77    0.37 
   1   8  -2    4.44    0.60 
   2   8  -2    7.39    0.76 
   3   8  -2   16.75    1.34 
   4   8  -2   17.35    1.42 
   5   8  -2    4.72    0.71 
   6   8  -2    7.16    0.93 
   7   8  -2    6.39    0.95 
   8   8  -2    1.53    0.80 
   7  -8   3   -0.44    0.80 
  -7   8  -3    0.56    0.75 
   6  -8   3    0.72    0.73 
  -6   8  -3    0.90    0.69 
   5  -8   3    2.04    0.71 
  -5   8  -3    1.94    0.69 
   4  -8   3    8.57    1.05 
  -4   8  -3    5.99    0.96 
  -3   8  -3   27.26    2.14 
  -2   8  -3   37.40    2.91 
  -2   8  -3   43.18    2.40 
  -1   8  -3   23.71    1.42 
  -1   8  -3   21.32    1.76 
   0   8  -3   36.74    2.60 
   1   8  -3   27.94    2.04 
   2   8  -3   35.83    2.51 
   3   8  -3   -0.31    0.31 
   4   8  -3    3.88    0.62 
   5   8  -3    3.39    0.62 
   6   8  -3    1.07    0.53 
   7   8  -3    3.22    0.73 
   8   8  -3    0.86    0.63 
  -6   8  -4    0.46    0.69 
  -5   8  -4    1.48    0.69 
  -4   8  -4    0.87    0.62 
  -3   8  -4   21.05    1.78 
  -2   8  -4    4.18    0.73 
  -1   8  -4   40.34    2.31 
  -1   8  -4   35.90    2.76 
   0   8  -4   29.44    2.19 
   0   8  -4   29.98    1.85 
   1   8  -4   51.96    3.49 
   1   8  -4   49.70    3.03 
   2   8  -4   51.54    3.51 
   3   8  -4   14.25    1.20 
   4   8  -4   20.84    1.61 
   5   8  -4    3.03    0.59 
   6   8  -4    2.14    0.59 
   6   8  -4    1.49    0.53 
   7   8  -4    2.66    0.65 
   8   8  -4    0.46    0.57 
  -6   8  -5    1.48    0.82 
  -5   8  -5   -0.40    0.62 
  -4   8  -5    8.91    1.16 
  -3   8  -5    3.33    0.77 
  -2   8  -5    1.12    0.56 
  -1   8  -5    5.19    0.75 
  -1   8  -5    4.07    0.49 
   0   8  -5    0.36    0.29 
   0   8  -5    0.41    0.43 
   1   8  -5   35.77    2.53 
   1   8  -5   34.58    2.20 
   2   8  -5    1.81    0.49 
   2   8  -5    2.40    0.47 
   3   8  -5   69.07    4.05 
   3   8  -5   66.22    4.51 
   4   8  -5    6.53    0.78 
   4   8  -5    6.60    0.76 
   5   8  -5   20.92    1.59 
   5   8  -5   18.91    1.48 
   6   8  -5    5.85    0.81 
   7   8  -5    0.51    0.53 
   8   8  -5   -0.12    0.57 
  -5   8  -6    3.10    1.00 
  -4   8  -6    4.80    0.93 
  -3   8  -6    2.09    0.70 
  -2   8  -6    8.88    1.08 
  -1   8  -6   21.54    1.37 
  -1   8  -6   18.85    1.68 
   0   8  -6   19.45    1.60 
   0   8  -6   19.68    1.36 
   1   8  -6    1.27    0.44 
   1   8  -6    0.93    0.48 
   2   8  -6    0.17    0.38 
   2   8  -6    0.70    0.42 
   3   8  -6    1.72    0.48 
   3   8  -6    2.04    0.52 
   4   8  -6   15.37    1.29 
   4   8  -6   16.73    1.28 
   5   8  -6    4.16    0.69 
   6   8  -6    5.82    0.82 
   7   8  -6    1.95    0.64 
   8   8  -6    0.41    0.69 
  -5   8  -7    0.85    0.90 
  -4   8  -7    0.49    0.76 
  -3   8  -7    3.12    0.81 
  -2   8  -7    6.20    0.95 
  -1   8  -7   14.03    1.45 
  -1   8  -7   17.32    1.22 
   0   8  -7   44.74    3.21 
   0   8  -7   45.24    2.78 
   1   8  -7    2.92    0.58 
   2   8  -7   27.18    2.09 
   2   8  -7   28.92    1.90 
   3   8  -7    4.89    0.76 
   3   8  -7    5.87    0.73 
   4   8  -7    9.30    1.00 
   5   8  -7    1.56    0.57 
   6   8  -7    0.56    0.54 
   7   8  -7    1.11    0.64 
  -4   8  -8   -0.01    0.83 
  -3   8  -8    0.77    0.79 
  -2   8  -8    0.50    0.61 
  -1   8  -8    3.58    0.79 
   0   8  -8    3.84    0.64 
   0   8  -8    4.51    0.80 
   1   8  -8   11.70    1.12 
   1   8  -8    8.86    0.96 
   2   8  -8    6.29    0.83 
   2   8  -8    6.87    0.85 
   3   8  -8   27.39    1.93 
   4   8  -8    8.04    0.95 
   5   8  -8    2.87    0.68 
   6   8  -8    3.70    0.77 
   7   8  -8    0.80    0.67 
  -3   8  -9    1.80    0.93 
  -2   8  -9   -0.67    0.59 
  -1   8  -9    2.76    0.75 
   0   8  -9    0.20    0.49 
   0   8  -9    0.38    0.56 
   1   8  -9    1.75    0.58 
   1   8  -9    1.56    0.62 
   2   8  -9    3.06    0.65 
   3   8  -9    1.50    0.59 
   4   8  -9    3.54    0.77 
   5   8  -9   10.60    1.20 
   6   8  -9    2.23    0.74 
   7   8  -9    2.39    0.86 
  -2   8 -10    1.59    0.89 
  -1   8 -10    2.98    0.84 
   0   8 -10    6.50    0.88 
   0   8 -10    6.47    0.99 
   1   8 -10    3.30    0.74 
   2   8 -10    5.13    0.85 
   3   8 -10   -0.14    0.54 
   4   8 -10    0.65    0.60 
   5   8 -10    0.62    0.61 
   6   8 -10    3.70    0.88 
  -1   8 -11    0.96    0.87 
   1   8 -11    0.33    0.59 
   2   8 -11    4.91    0.92 
   3   8 -11    5.13    0.94 
   4   8 -11    4.29    0.90 
   5   8 -11    0.47    0.63 
   1   8 -12   -0.09    0.64 
   2   8 -12    2.33    0.76 
   3   8 -12    3.43    0.92 
   4   8 -12    4.46    0.94 
   3  -9 -12    0.95    0.74 
   2  -9 -12    2.12    0.82 
   1  -9 -12    0.02    0.70 
   5  -9 -11    1.84    0.72 
   4  -9 -11    2.91    0.77 
   3  -9 -11    0.72    0.64 
   2  -9 -11    0.96    0.63 
   1  -9 -11    0.17    0.61 
   0  -9 -11   -0.05    0.59 
  -1  -9 -11    0.31    0.58 
   6  -9 -10    0.49    0.90 
   5  -9 -10    4.92    1.09 
   5  -9 -10    5.19    0.84 
   4  -9 -10    0.02    0.50 
   3  -9 -10   10.30    1.15 
   2  -9 -10    0.81    0.55 
   1  -9 -10    3.11    0.72 
   0  -9 -10    0.83    0.57 
  -1  -9 -10    0.39    0.57 
  -2  -9 -10   -0.46    0.56 
   2   9  10   -0.44    0.76 
   6  -9  -9   -0.06    0.82 
   5  -9  -9   -0.17    0.70 
   5  -9  -9    0.34    0.49 
   4  -9  -9    4.27    0.72 
   4  -9  -9    5.25    0.98 
   3  -9  -9    3.95    0.74 
   2  -9  -9    7.04    0.90 
   1  -9  -9    5.40    0.79 
   0  -9  -9    2.41    0.63 
   0   9   9    1.56    0.59 
  -1  -9  -9    2.95    0.68 
   1   9   9    2.62    0.74 
  -2  -9  -9    1.41    0.62 
   2   9   9    0.94    0.80 
  -3  -9  -9    0.77    0.65 
   3   9   9    0.28    0.80 
   7  -9  -8    3.06    1.04 
   6  -9  -8    1.44    0.85 
   5  -9  -8    3.46    0.90 
   5  -9  -8    1.97    0.56 
   4  -9  -8    1.20    0.48 
   4  -9  -8    0.50    0.63 
   3  -9  -8    0.20    0.46 
   3  -9  -8    0.39    0.58 
   2  -9  -8    4.46    0.66 
   1  -9  -8    1.85    0.52 
   0  -9  -8    6.01    0.80 
   0   9   8    5.17    0.76 
  -1  -9  -8    2.14    0.58 
   1   9   8    1.64    0.64 
  -2  -9  -8    5.25    0.80 
   2   9   8    5.03    0.96 
  -3  -9  -8    2.46    0.66 
   3   9   8    1.12    0.78 
  -4  -9  -8    0.33    0.61 
   4   9   8    0.47    0.81 
   7  -9  -7    1.09    0.91 
   6  -9  -7    4.65    1.02 
   5  -9  -7    5.66    1.01 
   4  -9  -7    2.11    0.50 
   4  -9  -7    1.20    0.69 
   3  -9  -7    8.11    1.00 
   3  -9  -7    6.68    0.78 
   2  -9  -7    7.27    0.87 
   2  -9  -7    9.48    0.88 
  -2   9   7    8.04    0.81 
   1  -9  -7    0.46    0.40 
  -1   9   7    1.49    0.51 
   0  -9  -7   11.88    1.09 
   0   9   7   11.79    1.13 
  -1  -9  -7    7.35    0.90 
   1   9   7    9.15    1.00 
  -2  -9  -7    0.44    0.49 
   2   9   7    0.66    0.63 
  -3  -9  -7    1.87    0.62 
   3   9   7    0.64    0.72 
  -4  -9  -7    0.81    0.61 
   4   9   7    1.70    0.82 
   5   9   7    0.88    0.84 
   7  -9  -6    0.03    0.80 
   6  -9  -6    2.35    0.89 
   5  -9  -6    4.58    0.94 
   4  -9  -6   16.79    1.51 
   4  -9  -6   14.43    1.13 
   3  -9  -6    5.38    0.68 
   3  -9  -6    6.47    0.90 
  -3   9   6    8.46    0.76 
   2  -9  -6    4.78    0.60 
   2  -9  -6    3.54    0.61 
  -2   9   6    3.76    0.56 
   1  -9  -6   18.66    1.41 
   1  -9  -6   18.17    1.31 
  -1   9   6   17.45    1.47 
   0  -9  -6   22.72    1.57 
   0   9   6   22.28    1.73 
  -1  -9  -6    5.07    0.69 
   1   9   6    4.60    0.72 
  -2  -9  -6    3.01    0.61 
   2   9   6    2.80    0.75 
  -3  -9  -6    0.36    0.43 
   3   9   6    0.20    0.62 
   4   9   6    0.70    0.70 
   5   9   6    0.89    0.79 
   7  -9  -5    2.00    0.90 
   6  -9  -5   -0.22    0.68 
   5  -9  -5    0.20    0.61 
   4  -9  -5    4.92    0.54 
   4  -9  -5    4.80    0.85 
  -4   9   5    4.11    0.58 
   3  -9  -5    1.81    0.40 
   3  -9  -5    2.05    0.66 
  -3   9   5    3.20    0.54 
   2  -9  -5   19.68    1.27 
   2  -9  -5   18.83    1.47 
  -2   9   5   15.46    1.40 
   1  -9  -5   19.12    1.58 
   1  -9  -5   20.00    1.41 
  -1   9   5   23.51    1.62 
   0  -9  -5   71.58    4.09 
   0   9   5   65.83    4.60 
  -1  -9  -5    5.99    0.72 
   1   9   5    6.38    0.79 
  -2  -9  -5    3.98    0.65 
   2   9   5    3.32    0.74 
  -3  -9  -5   -0.10    0.42 
   3   9   5    0.46    0.58 
   4   9   5    1.96    0.76 
   5   9   5    0.68    0.71 
   6   9   5    0.02    0.79 
   8  -9  -4   -0.27    1.00 
   7  -9  -4    0.76    0.82 
   6  -9  -4    3.65    0.89 
   5  -9  -4    4.93    0.92 
  -5   9   4    5.78    0.79 
   4  -9  -4    1.70    0.63 
   4  -9  -4    2.11    0.34 
   3  -9  -4    7.56    0.99 
   3  -9  -4    8.57    0.73 
  -3   9   4   10.35    0.93 
   2  -9  -4   11.87    1.09 
   2  -9  -4   10.91    0.87 
  -2   9   4   12.40    1.08 
   1  -9  -4    0.77    0.32 
  -1   9   4    1.26    0.41 
   0  -9  -4   12.54    0.99 
   0   9   4   12.77    1.13 
  -1  -9  -4    9.91    0.86 
   1   9   4    8.21    0.92 
  -2  -9  -4    2.54    0.55 
   2   9   4    4.03    0.70 
   3   9   4   17.78    1.62 
   4   9   4    7.34    1.04 
   5   9   4    1.41    0.73 
   6   9   4   -0.41    0.71 
   8  -9  -3   -0.68    0.95 
   7  -9  -3    0.53    0.82 
   6  -9  -3    2.81    0.84 
  -6   9   3    3.62    0.71 
   5  -9  -3    1.74    0.72 
  -5   9   3    2.36    0.60 
   4  -9  -3   10.66    1.19 
  -4   9   3   11.29    1.10 
   3  -9  -3   44.58    2.54 
   3  -9  -3   40.05    3.07 
  -3   9   3   43.50    3.02 
   2  -9  -3    7.59    0.87 
   2  -9  -3    7.33    0.65 
  -2   9   3    9.23    0.88 
   1  -9  -3    2.72    0.41 
   0  -9  -3    0.60    0.30 
   0   9   3    1.00    0.41 
  -1  -9  -3    0.69    0.33 
   1   9   3    0.00    0.39 
  -2  -9  -3    5.41    0.66 
   2   9   3    5.53    0.76 
   3   9   3    2.46    0.70 
   4   9   3    1.54    0.64 
   5   9   3    1.27    0.69 
   6   9   3    0.43    0.70 
   7  -9  -2   -0.16    0.73 
   6  -9  -2    1.30    0.72 
  -6   9   2    1.04    0.58 
   5  -9  -2    7.70    1.10 
  -5   9   2   11.41    1.10 
   4  -9  -2    1.76    0.61 
  -4   9   2    0.03    0.43 
   3  -9  -2   20.37    1.61 
   3  -9  -2   20.78    1.23 
  -3   9   2   16.86    1.55 
   2  -9  -2   44.68    2.65 
   2  -9  -2   43.11    3.19 
  -2   9   2   47.21    3.13 
   1  -9  -2   34.65    2.40 
   1  -9  -2   32.79    2.00 
  -1   9   2   31.00    2.34 
   0  -9  -2   29.67    1.87 
   0   9   2   29.92    2.15 
   1   9   2   16.04    1.33 
   2   9   2    4.42    0.68 
   3   9   2   15.59    1.42 
   4   9   2    3.98    0.80 
   5   9   2    0.24    0.57 
   6   9   2    0.53    0.67 
   7   9   2    0.28    0.80 
   7  -9  -1    0.20    0.72 
  -7   9   1    0.76    0.68 
   6  -9  -1    1.37    0.71 
  -6   9   1    1.57    0.61 
   5  -9  -1    1.30    0.66 
  -5   9   1    2.31    0.64 
   4  -9  -1   14.47    1.42 
  -4   9   1   14.95    1.33 
   3  -9  -1   11.07    1.13 
  -3   9   1   10.29    1.07 
   2  -9  -1    1.69    0.51 
  -2   9   1    2.69    0.54 
   1  -9  -1   14.90    1.23 
  -1   9   1   13.55    1.21 
   0   9   1    9.45    0.92 
   1   9   1   27.44    2.03 
   2   9   1   22.85    1.76 
   3   9   1   10.34    1.06 
   4   9   1   21.52    1.80 
   5   9   1    0.27    0.59 
   6   9   1    0.65    0.64 
   7   9   1   -0.15    0.74 
   7  -9   0    2.51    0.94 
  -7   9   0    2.36    0.82 
   6  -9   0    2.15    0.80 
  -6   9   0    1.45    0.62 
   5  -9   0    2.26    0.73 
  -5   9   0    2.68    0.71 
   4  -9   0    4.87    0.86 
  -4   9   0    4.41    0.77 
   3  -9   0    6.17    0.88 
  -3   9   0    5.87    0.83 
   2  -9   0    5.95    0.84 
  -2   9   0    6.49    0.82 
  -1   9   0    5.10    0.68 
   0   9   0   -0.10    0.32 
   1   9   0    5.76    0.69 
   2   9   0    5.68    0.72 
   3   9   0    7.30    0.87 
   4   9   0    5.16    0.78 
   5   9   0    2.40    0.67 
   6   9   0    1.94    0.73 
   7   9   0    2.02    0.83 
   7  -9   1    0.30    0.86 
  -7   9  -1    0.01    0.69 
   6  -9   1    0.94    0.72 
  -6   9  -1    0.51    0.59 
   5  -9   1    1.04    0.63 
  -5   9  -1    1.12    0.60 
   4  -9   1   18.72    1.70 
  -4   9  -1   20.43    1.68 
   3  -9   1   10.70    1.19 
  -3   9  -1   12.39    1.18 
   2  -9   1   20.39    1.76 
  -2   9  -1   23.61    1.77 
  -1   9  -1   26.45    2.00 
   0   9  -1    9.00    0.92 
   1   9  -1   13.19    1.16 
   1   9  -1   13.28    1.16 
   2   9  -1    1.71    0.49 
   3   9  -1   10.52    1.01 
   4   9  -1   13.82    1.28 
   5   9  -1    2.37    0.62 
   6   9  -1    0.47    0.57 
   7   9  -1    1.26    0.69 
   7  -9   2   -0.38    0.90 
  -7   9  -2   -0.26    0.65 
   6  -9   2    0.49    0.73 
  -6   9  -2   -0.36    0.56 
   5  -9   2    0.11    0.61 
  -5   9  -2   -0.39    0.50 
   4  -9   2    2.23    0.73 
  -4   9  -2    3.99    0.79 
   3  -9   2   15.83    1.48 
  -3   9  -2   14.03    1.37 
  -2   9  -2    4.65    0.74 
  -2   9  -2    4.03    0.38 
  -1   9  -2   18.30    1.52 
   0   9  -2   33.92    2.45 
   1   9  -2   29.76    2.17 
   2   9  -2   38.40    2.70 
   3   9  -2   20.08    1.59 
   4   9  -2    1.37    0.50 
   5   9  -2    9.96    1.07 
   6   9  -2    1.22    0.58 
   7   9  -2   -0.17    0.56 
   8   9  -2    0.95    0.75 
   6  -9   3    1.56    0.80 
  -6   9  -3    0.96    0.76 
   5  -9   3    0.16    0.63 
  -5   9  -3    1.17    0.62 
  -4   9  -3    1.44    0.62 
  -3   9  -3    0.76    0.56 
  -2   9  -3    6.49    0.88 
  -1   9  -3    0.42    0.23 
  -1   9  -3    0.47    0.45 
   0   9  -3    1.15    0.49 
   1   9  -3    2.61    0.57 
   2   9  -3    6.85    0.78 
   3   9  -3   45.32    3.15 
   4   9  -3   11.09    1.09 
   5   9  -3    0.73    0.48 
   6   9  -3    2.96    0.68 
   7   9  -3    2.20    0.74 
   8   9  -3   -0.08    0.60 
  -6   9  -4    0.35    0.74 
  -5   9  -4    2.22    0.76 
  -4   9  -4    6.47    1.01 
  -3   9  -4   15.97    1.55 
  -2   9  -4    5.11    0.82 
  -1   9  -4   10.23    0.79 
  -1   9  -4   11.22    1.12 
   0   9  -4   12.67    1.18 
   0   9  -4   11.38    0.89 
   1   9  -4    0.95    0.36 
   1   9  -4    1.30    0.51 
   2   9  -4   11.15    1.06 
   3   9  -4   10.57    1.02 
   4   9  -4    2.36    0.55 
   5   9  -4    5.86    0.79 
   6   9  -4    2.36    0.63 
   7   9  -4    1.12    0.60 
   8   9  -4    0.62    0.62 
  -6   9  -5   -0.65    0.70 
  -5   9  -5    0.56    0.68 
  -4   9  -5    1.85    0.68 
  -3   9  -5    1.19    0.63 
  -2   9  -5    5.40    0.89 
  -1   9  -5    7.15    0.92 
  -1   9  -5    7.65    0.68 
   0   9  -5   75.11    4.27 
   0   9  -5   69.90    4.93 
   1   9  -5   25.17    1.67 
   1   9  -5   25.07    1.95 
   2   9  -5   17.58    1.24 
   2   9  -5   15.43    1.37 
   3   9  -5    4.77    0.67 
   3   9  -5    4.18    0.67 
   4   9  -5    3.29    0.62 
   4   9  -5    4.81    0.68 
   5   9  -5    0.99    0.49 
   5   9  -5    0.27    0.42 
   6   9  -5    0.34    0.51 
   7   9  -5    2.77    0.70 
   8   9  -5   -0.11    0.64 
  -5   9  -6    0.24    0.82 
  -4   9  -6    0.20    0.65 
  -3   9  -6    0.31    0.59 
  -2   9  -6    3.22    0.77 
  -1   9  -6    7.22    0.66 
  -1   9  -6    6.29    0.93 
   0   9  -6   27.26    1.74 
   0   9  -6   24.36    2.02 
   1   9  -6   20.30    1.40 
   1   9  -6   17.98    1.58 
   2   9  -6    3.91    0.67 
   2   9  -6    3.29    0.58 
   3   9  -6    8.68    0.90 
   3   9  -6    8.14    0.90 
   4   9  -6   12.41    1.17 
   4   9  -6   12.81    1.16 
   5   9  -6    6.05    0.85 
   6   9  -6    1.70    0.60 
   7   9  -6   -0.04    0.53 
  -4   9  -7    1.43    0.79 
  -3   9  -7    0.33    0.61 
  -2   9  -7    0.10    0.56 
  -1   9  -7    9.35    1.14 
   0   9  -7   13.01    1.07 
   0   9  -7   12.53    1.27 
   1   9  -7    0.65    0.51 
   1   9  -7    0.95    0.48 
   2   9  -7   10.91    1.03 
   2   9  -7    9.78    1.05 
   3   9  -7    5.77    0.80 
   3   9  -7    5.49    0.79 
   4   9  -7    1.38    0.56 
   5   9  -7    5.82    0.84 
   6   9  -7    3.99    0.79 
   7   9  -7    2.50    0.80 
  -4   9  -8   -0.44    0.87 
  -3   9  -8    0.82    0.75 
  -2   9  -8    5.85    1.01 
  -1   9  -8    2.81    0.76 
   0   9  -8    7.06    0.80 
   0   9  -8    5.87    0.94 
   1   9  -8    1.45    0.53 
   1   9  -8    0.91    0.55 
   2   9  -8    7.58    0.92 
   2   9  -8    7.22    0.93 
   3   9  -8    1.07    0.55 
   4   9  -8    0.43    0.52 
   5   9  -8    2.79    0.71 
   6   9  -8    3.04    0.76 
   7   9  -8    2.46    0.85 
  -3   9  -9    0.30    0.91 
  -2   9  -9    1.24    0.78 
  -1   9  -9    4.59    0.93 
   0   9  -9    3.35    0.73 
   0   9  -9    3.49    0.82 
   1   9  -9   11.07    1.12 
   1   9  -9   11.20    1.22 
   2   9  -9    6.15    0.85 
   3   9  -9    2.82    0.72 
   4   9  -9    4.98    0.87 
   5   9  -9   -0.34    0.53 
   6   9  -9    0.17    0.63 
  -2   9 -10    0.33    0.85 
  -1   9 -10    0.84    0.73 
   0   9 -10    1.19    0.71 
   1   9 -10    2.85    0.70 
   2   9 -10    1.72    0.65 
   3   9 -10    7.68    1.03 
   4   9 -10    0.18    0.58 
   5   9 -10    4.74    0.92 
   6   9 -10    1.60    0.81 
  -1   9 -11    0.96    0.88 
   1   9 -11    0.66    0.63 
   2   9 -11    1.58    0.68 
   3   9 -11    0.35    0.65 
   4   9 -11    4.46    0.90 
   5   9 -11    0.68    0.70 
   2   9 -12    5.17    1.00 
   3   9 -12    0.38    0.67 
   4 -10 -11    2.37    0.78 
   3 -10 -11    2.60    0.75 
   2 -10 -11    2.35    0.79 
   1 -10 -11    0.36    0.67 
   0 -10 -11    1.45    0.69 
   5 -10 -10    1.59    0.69 
   4 -10 -10    0.60    0.57 
   3 -10 -10    1.43    0.60 
   2 -10 -10    0.54    0.57 
   1 -10 -10   -0.48    0.51 
   0 -10 -10    6.46    0.99 
  -1 -10 -10    0.55    0.62 
   2  10  10    0.63    0.79 
   6 -10  -9    1.84    1.00 
   5 -10  -9    2.93    0.92 
   4 -10  -9    5.39    0.79 
   3 -10  -9    0.98    0.51 
   2 -10  -9    1.78    0.57 
   1 -10  -9    0.29    0.52 
   0 -10  -9   -0.37    0.49 
  -1 -10  -9    0.91    0.57 
   1  10   9    0.68    0.61 
  -2 -10  -9    0.45    0.57 
   2  10   9    0.80    0.74 
  -3 -10  -9    1.20    0.69 
   3  10   9   -0.13    0.80 
   6 -10  -8    1.93    0.92 
   5 -10  -8    2.20    0.89 
   4 -10  -8    7.91    1.14 
   4 -10  -8    9.83    0.96 
   3 -10  -8    4.59    0.88 
   3 -10  -8    5.50    0.74 
   2 -10  -8    4.43    0.71 
   1 -10  -8    7.38    0.87 
  -1  10   8    6.75    0.88 
   0 -10  -8    4.03    0.67 
   0  10   8    1.66    0.62 
  -1 -10  -8    2.26    0.62 
   1  10   8    2.45    0.67 
  -2 -10  -8    0.82    0.54 
   2  10   8   -0.39    0.61 
  -3 -10  -8    0.84    0.61 
   3  10   8   -0.01    0.78 
   7 -10  -7    0.13    0.83 
   6 -10  -7    0.89    0.82 
   5 -10  -7   -0.61    0.66 
   4 -10  -7    2.71    0.77 
   4 -10  -7    2.16    0.52 
   3 -10  -7   11.59    1.23 
   3 -10  -7   11.46    1.03 
   2 -10  -7    3.24    0.59 
  -2  10   7    3.35    0.63 
   1 -10  -7    5.75    0.73 
  -1  10   7    4.66    0.76 
   0 -10  -7    8.10    0.91 
   0  10   7    8.84    0.97 
  -1 -10  -7   10.62    1.07 
   1  10   7    9.57    1.08 
  -2 -10  -7    0.17    0.47 
   2  10   7   -0.35    0.57 
  -3 -10  -7    1.93    0.59 
   3  10   7    1.32    0.78 
   4  10   7    0.15    0.79 
   7 -10  -6    0.54    0.89 
   6 -10  -6    0.52    0.77 
   5 -10  -6    4.68    0.97 
   4 -10  -6    0.36    0.37 
   4 -10  -6    1.01    0.63 
   3 -10  -6    2.20    0.48 
   3 -10  -6    2.58    0.71 
  -3  10   6    1.77    0.52 
   2 -10  -6    6.61    0.79 
   2 -10  -6    4.95    0.66 
  -2  10   6    4.37    0.68 
   1 -10  -6    0.49    0.38 
  -1  10   6    2.24    0.57 
   0 -10  -6   19.85    1.38 
   0  10   6   16.62    1.47 
  -1 -10  -6    0.42    0.42 
   1  10   6    0.73    0.51 
  -2 -10  -6    6.01    0.85 
   2  10   6    7.75    1.00 
  -3 -10  -6    0.10    0.46 
   3  10   6    0.75    0.70 
   4  10   6    5.61    1.07 
   5  10   6    0.22    0.80 
   7 -10  -5    0.25    0.85 
   6 -10  -5    2.42    0.88 
   5 -10  -5    8.80    1.19 
   4 -10  -5   11.14    1.23 
  -4  10   5    9.77    1.05 
   3 -10  -5   13.66    1.04 
   3 -10  -5   14.18    1.35 
   2 -10  -5    1.48    0.40 
   2 -10  -5    1.93    0.60 
  -2  10   5    2.95    0.59 
   1 -10  -5   16.42    1.32 
   1 -10  -5   14.54    1.17 
  -1  10   5   16.75    1.37 
   0 -10  -5    3.61    0.58 
   0  10   5    2.80    0.63 
  -1 -10  -5    5.31    0.72 
   1  10   5    5.93    0.81 
  -2 -10  -5    3.01    0.63 
   2  10   5    1.36    0.59 
  -3 -10  -5    1.66    0.57 
   3  10   5    1.67    0.74 
   4  10   5    4.56    0.98 
   5  10   5   -0.04    0.77 
   7 -10  -4   -0.27    0.79 
   6 -10  -4   -0.05    0.69 
   5 -10  -4    4.98    0.94 
   4 -10  -4    8.27    1.08 
  -4  10   4    8.88    0.97 
   3 -10  -4   15.99    1.06 
   3 -10  -4   15.35    1.35 
  -3  10   4   12.66    1.29 
   2 -10  -4   17.15    1.33 
   2 -10  -4   21.35    1.67 
  -2  10   4   23.80    1.67 
   1 -10  -4   58.64    3.15 
   1 -10  -4   41.67    3.56 
  -1  10   4   58.10    3.60 
   0 -10  -4    0.29    0.33 
   0  10   4    0.19    0.44 
  -1 -10  -4   17.74    1.30 
   1  10   4   17.17    1.47 
  -2 -10  -4    4.67    0.67 
   2  10   4    4.71    0.77 
   3  10   4    4.03    0.83 
   4  10   4    2.11    0.78 
   5  10   4    0.05    0.66 
   6  10   4    0.42    0.81 
   7 -10  -3    2.33    0.96 
   6 -10  -3    0.68    0.70 
   5 -10  -3    0.71    0.65 
  -5  10   3    1.48    0.56 
   4 -10  -3    1.13    0.58 
  -4  10   3    0.20    0.49 
   3 -10  -3    2.71    0.65 
   3 -10  -3    1.35    0.32 
  -3  10   3    3.73    0.67 
   2 -10  -3    5.29    0.79 
   2 -10  -3    4.16    0.50 
  -2  10   3    4.36    0.72 
   1 -10  -3    7.72    0.71 
   1 -10  -3    8.41    0.87 
  -1  10   3    5.63    0.79 
   0 -10  -3   28.44    1.74 
   0  10   3   24.49    1.98 
   2  10   3   15.98    1.41 
   3  10   3    7.94    1.01 
   4  10   3    2.05    0.72 
   5  10   3    0.23    0.68 
   6  10   3    0.39    0.74 
   7 -10  -2    1.10    0.83 
   6 -10  -2    1.82    0.80 
  -6  10   2    2.74    0.70 
   5 -10  -2    9.64    1.22 
  -5  10   2   10.55    1.14 
   4 -10  -2    0.57    0.57 
  -4  10   2    0.53    0.49 
   3 -10  -2   20.22    1.67 
  -3  10   2   18.35    1.61 
   2 -10  -2    9.06    1.02 
   2 -10  -2    9.02    0.72 
  -2  10   2   10.12    1.01 
   1 -10  -2    6.40    0.62 
   1 -10  -2    6.23    0.80 
  -1  10   2    6.76    0.80 
   0  10   2    9.36    0.94 
   1  10   2    3.20    0.61 
   2  10   2   22.45    1.79 
   3  10   2   12.08    1.23 
   4  10   2    0.63    0.58 
   5  10   2    1.10    0.68 
   6  10   2    3.00    0.93 
   7 -10  -1    0.11    0.86 
  -7  10   1   -0.20    0.59 
   6 -10  -1    1.71    0.78 
  -6  10   1    1.15    0.63 
   5 -10  -1    2.26    0.76 
  -5  10   1    1.39    0.64 
   4 -10  -1    7.71    1.06 
  -4  10   1    7.55    0.96 
   3 -10  -1   12.78    1.35 
  -3  10   1   15.16    1.35 
   2 -10  -1   34.25    2.34 
  -2  10   1   26.20    2.22 
  -1  10   1   30.32    2.26 
   0  10   1   10.27    1.02 
   1  10   1   10.40    1.04 
   2  10   1    0.48    0.43 
   3  10   1    3.06    0.68 
   4  10   1    0.16    0.50 
   5  10   1    4.80    0.89 
   6  10   1   -0.60    0.63 
   7  10   1    1.57    0.90 
   7 -10   0    0.05    0.83 
  -7  10   0   -0.40    0.68 
   6 -10   0    0.25    0.70 
  -6  10   0    0.16    0.58 
   5 -10   0    1.36    0.63 
  -5  10   0    1.28    0.60 
   4 -10   0    2.08    0.71 
  -4  10   0    1.84    0.62 
   3 -10   0    9.45    1.09 
  -3  10   0    7.28    0.97 
   2 -10   0   20.74    1.81 
  -2  10   0   22.96    1.80 
  -1  10   0   13.75    1.26 
   0  10   0   15.79    1.37 
   1  10   0   12.55    1.12 
   2  10   0   21.67    1.73 
   3  10   0    6.80    0.87 
   4  10   0    1.94    0.62 
   5  10   0    1.74    0.63 
   6  10   0    0.96    0.66 
   7  10   0    0.17    0.72 
   7 -10   1    1.65    0.98 
  -7  10  -1    1.69    0.82 
   6 -10   1   -0.92    0.63 
  -6  10  -1    0.35    0.61 
   5 -10   1    3.91    0.90 
  -5  10  -1    4.31    0.87 
   4 -10   1    0.18    0.58 
  -4  10  -1    0.63    0.55 
   3 -10   1    3.37    0.78 
  -3  10  -1    4.32    0.77 
  -2  10  -1    1.01    0.53 
  -1  10  -1   11.99    1.19 
   0  10  -1    9.70    1.03 
   1  10  -1   25.98    1.97 
   2  10  -1   24.48    1.87 
   3  10  -1   18.04    1.53 
   4  10  -1    9.79    1.07 
   5  10  -1    1.74    0.63 
   6  10  -1    1.00    0.62 
   7  10  -1    0.26    0.67 
   6 -10   2    2.98    0.97 
  -6  10  -2    2.39    0.81 
   5 -10   2    0.45    0.64 
  -5  10  -2    0.37    0.60 
   4 -10   2    0.25    0.61 
  -4  10  -2    0.21    0.56 
  -3  10  -2   12.90    1.32 
  -2  10  -2   19.15    1.63 
  -1  10  -2    1.88    0.59 
   0  10  -2    9.62    1.03 
   1  10  -2    7.26    0.86 
   2  10  -2    9.84    1.02 
   3  10  -2   20.47    1.66 
   4  10  -2    0.61    0.50 
   5  10  -2   10.39    1.13 
   6  10  -2    2.22    0.69 
   7  10  -2    1.45    0.75 
   6 -10   3    0.88    0.87 
  -6  10  -3    0.56    0.68 
  -5  10  -3    0.11    0.62 
  -4  10  -3    1.21    0.63 
  -3  10  -3    7.47    1.04 
  -2  10  -3   17.91    1.63 
  -1  10  -3    9.15    0.72 
   0  10  -3   27.32    2.12 
   1  10  -3    6.89    0.88 
   2  10  -3    3.35    0.63 
   3  10  -3    3.36    0.63 
   4  10  -3    0.72    0.49 
   5  10  -3    1.76    0.62 
   6  10  -3    0.98    0.58 
   7  10  -3    2.74    0.82 
  -6  10  -4    0.15    0.78 
  -5  10  -4    0.37    0.65 
  -4  10  -4    1.34    0.67 
  -3  10  -4    3.91    0.84 
  -2  10  -4    5.14    0.85 
  -1  10  -4   17.60    1.22 
  -1  10  -4   18.93    1.59 
   0  10  -4    0.74    0.53 
   0  10  -4    0.53    0.30 
   1  10  -4   61.33    3.69 
   1  10  -4   62.66    4.26 
   2  10  -4   25.08    1.95 
   3  10  -4   12.35    1.16 
   4  10  -4   10.10    1.03 
   5  10  -4    3.62    0.71 
   6  10  -4   -0.70    0.53 
   7  10  -4    0.14    0.58 
  -5  10  -5    1.42    0.79 
  -4  10  -5    3.80    0.87 
  -3  10  -5    1.48    0.69 
  -2  10  -5    2.96    0.75 
  -1  10  -5    6.46    0.95 
  -1  10  -5    7.29    0.68 
   0  10  -5    2.82    0.50 
   0  10  -5    1.45    0.57 
   1  10  -5   17.29    1.31 
   1  10  -5   19.15    1.57 
   2  10  -5    3.84    0.61 
   2  10  -5    3.72    0.69 
   3  10  -5   14.68    1.36 
   3  10  -5   16.05    1.22 
   4  10  -5    8.45    0.91 
   4  10  -5    7.86    0.91 
   5  10  -5    8.72    1.04 
   5  10  -5    8.53    0.98 
   6  10  -5    3.47    0.74 
   7  10  -5    0.71    0.62 
  -5  10  -6    0.32    0.88 
  -4  10  -6    3.58    0.91 
  -3  10  -6    0.23    0.64 
  -2  10  -6    8.18    1.12 
  -1  10  -6    1.16    0.59 
   0  10  -6   21.38    1.49 
   0  10  -6   19.76    1.74 
   1  10  -6    1.74    0.49 
   1  10  -6    1.38    0.58 
   2  10  -6    6.33    0.84 
   2  10  -6    5.65    0.75 
   3  10  -6    2.28    0.58 
   3  10  -6    2.46    0.61 
   4  10  -6    0.84    0.51 
   4  10  -6    0.27    0.48 
   5  10  -6    5.19    0.81 
   6  10  -6    2.44    0.68 
   7  10  -6    0.64    0.61 
  -4  10  -7    0.15    0.70 
  -3  10  -7    2.27    0.84 
  -2  10  -7   -0.32    0.58 
  -1  10  -7   11.49    1.30 
   0  10  -7   10.00    0.94 
   0  10  -7    8.94    1.11 
   1  10  -7    5.40    0.74 
   1  10  -7    4.66    0.83 
   2  10  -7    2.86    0.63 
   2  10  -7    4.29    0.74 
   3  10  -7    9.06    1.01 
   3  10  -7    9.75    1.05 
   4  10  -7    3.64    0.72 
   5  10  -7    0.12    0.52 
   6  10  -7    0.75    0.61 
   7  10  -7    0.31    0.64 
  -3  10  -8   -0.63    0.72 
  -2  10  -8    0.39    0.68 
  -1  10  -8    3.08    0.83 
   0  10  -8    3.94    0.67 
   0  10  -8    2.52    0.74 
   1  10  -8    7.84    0.92 
   1  10  -8    8.85    1.06 
   2  10  -8    3.61    0.71 
   2  10  -8    3.37    0.75 
   3  10  -8    5.10    0.82 
   4  10  -8    9.66    1.12 
   5  10  -8    1.41    0.64 
   6  10  -8    1.22    0.70 
   7  10  -8   -0.14    0.66 
  -3  10  -9    0.89    0.90 
  -2  10  -9    0.90    0.80 
  -1  10  -9    0.34    0.69 
   0  10  -9   -0.40    0.58 
   1  10  -9    0.78    0.63 
   1  10  -9    0.19    0.51 
   2  10  -9    3.03    0.73 
   3  10  -9    0.04    0.55 
   4  10  -9    5.39    0.90 
   5  10  -9    4.48    0.87 
   6  10  -9    1.35    0.76 
  -1  10 -10    1.17    0.82 
   0  10 -10    6.83    1.12 
   1  10 -10    0.32    0.57 
   2  10 -10    1.06    0.60 
   3  10 -10    2.36    0.70 
   4  10 -10    0.15    0.62 
   5  10 -10    1.25    0.70 
   1  10 -11    2.88    0.80 
   2  10 -11    1.03    0.69 
   3  10 -11    3.56    0.85 
   4  10 -11    1.32    0.77 
   3 -11 -11    2.51    0.80 
   2 -11 -11    1.10    0.73 
   1 -11 -11    0.04    0.66 
   4 -11 -10    1.90    0.68 
   3 -11 -10    2.75    0.74 
   2 -11 -10    1.28    0.61 
   1 -11 -10    2.11    0.70 
   0 -11 -10    0.36    0.65 
  -1 -11 -10    0.71    0.64 
   5 -11  -9   -0.01    0.83 
   4 -11  -9    2.09    0.63 
   3 -11  -9    2.10    0.64 
   2 -11  -9    5.82    0.83 
   1 -11  -9    2.86    0.70 
   0 -11  -9    2.53    0.68 
  -1 -11  -9    1.31    0.64 
   1  11   9    1.01    0.67 
  -2 -11  -9    1.49    0.66 
   2  11   9    0.79    0.70 
   6 -11  -8    0.19    0.84 
   5 -11  -8    1.17    0.87 
   4 -11  -8   -0.08    0.72 
   4 -11  -8    0.38    0.48 
   3 -11  -8   -0.27    0.41 
   2 -11  -8    0.37    0.47 
   1 -11  -8    3.69    0.67 
   0 -11  -8    3.39    0.68 
   0  11   8    3.74    0.76 
  -1 -11  -8    1.63    0.59 
   1  11   8    1.41    0.67 
  -2 -11  -8    2.75    0.72 
   2  11   8    1.46    0.71 
  -3 -11  -8    0.05    0.57 
   3  11   8   -0.16    0.73 
   6 -11  -7    0.59    0.85 
   5 -11  -7    4.19    1.03 
   4 -11  -7    3.48    0.61 
   4 -11  -7    3.52    0.88 
   3 -11  -7   10.21    1.18 
   3 -11  -7   10.13    0.98 
   2 -11  -7   -0.32    0.39 
   1 -11  -7    0.72    0.43 
  -1  11   7    0.35    0.50 
   0 -11  -7    0.16    0.41 
   0  11   7   -0.11    0.49 
  -1 -11  -7    2.46    0.61 
   1  11   7    1.11    0.61 
  -2 -11  -7    0.80    0.55 
   2  11   7    0.56    0.61 
  -3 -11  -7    0.27    0.57 
   3  11   7    0.16    0.69 
   4  11   7    0.20    0.83 
   7 -11  -6    0.23    0.87 
   6 -11  -6    0.39    0.84 
   5 -11  -6    1.44    0.79 
   4 -11  -6    5.97    1.00 
   3 -11  -6   10.25    0.96 
   3 -11  -6   12.22    1.24 
   2 -11  -6   10.05    1.11 
   2 -11  -6   10.00    0.94 
  -2  11   6   10.88    1.08 
   1 -11  -6    6.52    0.79 
  -1  11   6    7.09    0.88 
   0 -11  -6   11.86    1.09 
   0  11   6   11.65    1.20 
  -1 -11  -6    1.52    0.53 
   1  11   6    0.46    0.54 
  -2 -11  -6    2.02    0.60 
   2  11   6    2.37    0.71 
  -3 -11  -6   -0.04    0.51 
   3  11   6    0.44    0.67 
   4  11   6    0.41    0.80 
   7 -11  -5    1.02    0.90 
   6 -11  -5    2.06    0.87 
   5 -11  -5   -0.17    0.66 
   4 -11  -5    1.30    0.70 
   3 -11  -5    6.76    0.96 
   3 -11  -5    7.41    0.74 
  -3  11   5    8.56    0.96 
   2 -11  -5    3.87    0.54 
   2 -11  -5    3.08    0.73 
  -2  11   5    2.65    0.65 
   1 -11  -5    3.24    0.54 
   0 -11  -5   18.66    1.34 
   0  11   5   16.73    1.52 
  -1 -11  -5    8.24    0.90 
   1  11   5    7.76    0.97 
  -2 -11  -5    3.94    0.68 
   2  11   5    2.73    0.73 
   3  11   5    7.13    1.05 
   4  11   5    1.84    0.81 
   5  11   5   -0.02    0.81 
   7 -11  -4    1.51    0.90 
   6 -11  -4    4.60    1.03 
   5 -11  -4    2.02    0.75 
   4 -11  -4    3.53    0.79 
  -4  11   4    2.07    0.63 
   3 -11  -4    0.33    0.58 
   3 -11  -4    0.03    0.29 
  -3  11   4   -0.18    0.47 
   2 -11  -4    4.94    0.61 
   2 -11  -4    5.20    0.82 
  -2  11   4    5.44    0.80 
   1 -11  -4   14.84    1.13 
   1 -11  -4   15.00    1.30 
  -1  11   4   14.66    1.32 
   0 -11  -4   11.74    1.02 
   0  11   4   11.68    1.17 
  -1 -11  -4   20.30    1.44 
   1  11   4   18.29    1.61 
   2  11   4    3.82    0.77 
   3  11   4    5.05    0.89 
   4  11   4    4.91    1.00 
   5  11   4    0.33    0.74 
   7 -11  -3    1.95    0.99 
   6 -11  -3    3.06    0.89 
   5 -11  -3    5.67    1.01 
  -5  11   3    5.89    0.89 
   4 -11  -3    5.31    0.96 
  -4  11   3    7.35    0.93 
   3 -11  -3    2.92    0.42 
   3 -11  -3    3.78    0.78 
  -3  11   3    2.83    0.67 
   2 -11  -3   28.54    2.14 
   2 -11  -3   28.09    1.73 
  -2  11   3   24.08    2.07 
   1 -11  -3    7.41    0.97 
   1 -11  -3    9.28    0.81 
  -1  11   3    9.69    1.00 
   0 -11  -3    6.39    0.70 
   0  11   3    5.54    0.79 
   1  11   3    2.27    0.60 
   2  11   3    0.08    0.51 
   3  11   3    1.42    0.64 
   4  11   3    3.66    0.84 
   5  11   3    0.99    0.72 
   6  11   3    0.50    0.85 
   7 -11  -2    0.77    0.92 
   6 -11  -2    2.41    0.87 
  -6  11   2    0.96    0.62 
   5 -11  -2    1.46    0.72 
  -5  11   2    0.66    0.59 
   4 -11  -2    4.80    0.89 
  -4  11   2    3.21    0.73 
   3 -11  -2   13.48    1.31 
  -3  11   2   10.35    1.19 
   2 -11  -2   54.32    4.06 
  -2  11   2   60.92    4.01 
  -1  11   2    5.95    0.82 
   0  11   2   31.94    2.38 
   1  11   2   16.75    1.45 
   2  11   2    1.98    0.60 
   3  11   2    0.61    0.57 
   4  11   2    3.20    0.78 
   5  11   2    1.20    0.70 
   6  11   2    0.76    0.78 
   7 -11  -1    0.03    0.90 
  -7  11   1    0.23    0.66 
   6 -11  -1    0.66    0.81 
  -6  11   1   -0.07    0.58 
   5 -11  -1   -0.02    0.66 
  -5  11   1    0.18    0.56 
   4 -11  -1    5.28    0.94 
  -4  11   1    4.78    0.84 
   3 -11  -1    1.18    0.62 
  -3  11   1    0.79    0.55 
   2 -11  -1    2.98    0.70 
  -2  11   1    2.72    0.68 
  -1  11   1   26.74    2.08 
   0  11   1   12.12    1.17 
   1  11   1   16.66    1.42 
   2  11   1   14.02    1.34 
   3  11   1   10.71    1.16 
   4  11   1    6.12    0.96 
   5  11   1    2.89    0.79 
   6  11   1    0.59    0.71 
   7 -11   0    0.51    0.90 
  -7  11   0    1.22    0.76 
   6 -11   0    1.33    0.82 
  -6  11   0    1.59    0.70 
   5 -11   0    5.42    1.04 
  -5  11   0    5.78    0.96 
   4 -11   0   14.06    1.54 
  -4  11   0   15.57    1.47 
   3 -11   0    1.77    0.64 
  -3  11   0    2.76    0.69 
  -2  11   0    5.42    0.86 
   0  11   0    0.05    0.46 
   1  11   0    5.59    0.80 
   2  11   0    3.63    0.69 
   3  11   0    1.79    0.59 
   4  11   0   15.51    1.48 
   5  11   0    5.84    0.97 
   6  11   0    2.08    0.76 
   7  11   0    0.27    0.80 
   6 -11   1    0.38    0.80 
  -6  11  -1    0.35    0.65 
   5 -11   1    3.28    0.92 
  -5  11  -1    3.59    0.87 
   4 -11   1    2.61    0.84 
  -4  11  -1    7.16    0.98 
   3 -11   1   11.99    1.34 
  -3  11  -1   10.93    1.25 
  -2  11  -1   17.95    1.60 
  -1  11  -1   15.70    1.46 
   0  11  -1   10.14    1.12 
   1  11  -1   21.28    1.73 
   2  11  -1    2.75    0.61 
   3  11  -1    0.90    0.52 
   4  11  -1    4.07    0.76 
   5  11  -1    0.08    0.54 
   6  11  -1    0.62    0.64 
   7  11  -1    0.54    0.78 
   6 -11   2    0.13    0.84 
  -6  11  -2    0.68    0.71 
   5 -11   2    0.35    0.71 
  -5  11  -2    0.29    0.63 
  -4  11  -2    3.00    0.79 
  -3  11  -2    1.23    0.63 
  -2  11  -2    2.49    0.69 
  -1  11  -2   17.87    1.59 
   0  11  -2   30.94    2.35 
   1  11  -2    5.11    0.78 
   2  11  -2   56.34    3.90 
   3  11  -2    8.87    0.99 
   4  11  -2    4.40    0.79 
   5  11  -2    0.61    0.59 
   6  11  -2    1.25    0.69 
   7  11  -2    0.55    0.76 
  -6  11  -3    0.39    0.69 
  -5  11  -3    0.70    0.68 
  -4  11  -3    4.14    0.89 
  -3  11  -3    1.38    0.66 
  -2  11  -3    0.05    0.53 
  -1  11  -3    2.07    0.39 
  -1  11  -3    3.35    0.71 
   0  11  -3    5.37    0.84 
   1  11  -3    9.24    1.06 
   2  11  -3   23.73    1.88 
   3  11  -3    2.46    0.63 
   4  11  -3    6.56    0.88 
   5  11  -3    6.49    0.93 
   6  11  -3    3.15    0.80 
   7  11  -3    0.61    0.74 
  -5  11  -4    0.19    0.67 
  -4  11  -4    3.74    0.90 
  -3  11  -4    6.03    1.03 
  -2  11  -4    3.88    0.79 
  -1  11  -4   23.06    1.76 
  -1  11  -4   18.19    1.30 
   0  11  -4   12.66    1.31 
   0  11  -4   13.13    1.01 
   1  11  -4   14.71    1.39 
   2  11  -4    6.07    0.86 
   3  11  -4    0.09    0.46 
   4  11  -4    4.36    0.79 
   5  11  -4    0.52    0.54 
   6  11  -4    5.86    0.94 
   7  11  -4    2.07    0.75 
  -5  11  -5    0.29    0.69 
  -4  11  -5    1.56    0.75 
  -3  11  -5    5.48    1.02 
  -2  11  -5    3.69    0.81 
  -1  11  -5    7.54    1.05 
   0  11  -5   15.41    1.17 
   0  11  -5   15.48    1.47 
   1  11  -5    4.79    0.67 
   1  11  -5    4.25    0.79 
   2  11  -5    3.10    0.59 
   2  11  -5    4.11    0.74 
   3  11  -5    6.42    0.83 
   3  11  -5    8.20    0.95 
   4  11  -5    2.57    0.63 
   4  11  -5    1.24    0.52 
   5  11  -5    0.06    0.44 
   5  11  -5   -0.26    0.51 
   6  11  -5    1.73    0.62 
   7  11  -5    0.72    0.66 
  -4  11  -6    0.88    0.76 
  -3  11  -6    0.05    0.67 
  -2  11  -6    1.52    0.74 
  -1  11  -6    1.04    0.62 
   0  11  -6   13.45    1.11 
   0  11  -6   12.64    1.37 
   1  11  -6    7.31    0.85 
   1  11  -6    9.15    1.06 
   2  11  -6   10.28    1.03 
   2  11  -6   10.95    1.15 
   3  11  -6   13.04    1.18 
   3  11  -6   12.51    1.25 
   4  11  -6    5.53    0.85 
   4  11  -6    5.71    0.85 
   5  11  -6    2.29    0.65 
   6  11  -6    1.52    0.66 
   7  11  -6    0.58    0.67 
  -4  11  -7   -0.14    0.80 
  -3  11  -7   -0.16    0.72 
  -2  11  -7    1.02    0.72 
  -1  11  -7    2.27    0.77 
   0  11  -7    0.05    0.43 
   0  11  -7    0.82    0.60 
   1  11  -7    1.17    0.63 
   1  11  -7    0.56    0.48 
   2  11  -7    0.69    0.56 
   2  11  -7    0.14    0.47 
   3  11  -7   10.27    1.11 
   3  11  -7   10.97    1.16 
   4  11  -7    2.47    0.65 
   5  11  -7    6.20    0.92 
   6  11  -7    0.87    0.63 
  -3  11  -8    0.63    0.85 
  -2  11  -8    3.09    0.93 
  -1  11  -8    2.57    0.81 
   0  11  -8    3.50    0.86 
   1  11  -8    4.59    0.85 
   1  11  -8    3.76    0.72 
   2  11  -8    0.05    0.52 
   2  11  -8    1.05    0.55 
   3  11  -8    0.09    0.50 
   4  11  -8    0.70    0.59 
   5  11  -8    1.68    0.68 
   6  11  -8    0.34    0.70 
  -2  11  -9    1.01    0.86 
  -1  11  -9    1.99    0.85 
   0  11  -9    1.77    0.81 
   1  11  -9    2.89    0.82 
   1  11  -9    3.29    0.71 
   2  11  -9    5.32    0.86 
   3  11  -9    1.84    0.69 
   4  11  -9    3.35    0.79 
   5  11  -9    0.43    0.60 
   6  11  -9    0.77    0.73 
  -1  11 -10    1.11    0.92 
   0  11 -10    0.64    0.84 
   1  11 -10    3.47    0.81 
   2  11 -10    0.74    0.66 
   3  11 -10    2.40    0.72 
   4  11 -10    1.25    0.73 
   5  11 -10    2.90    0.83 
   2  11 -11    0.89    0.70 
   3  11 -11    0.81    0.67 
   4 -12 -10    0.08    0.63 
   3 -12 -10    2.05    0.72 
   2 -12 -10    0.70    0.68 
   1 -12 -10    0.87    0.67 
   0 -12 -10    0.59    0.69 
   5 -12  -9    0.13    0.81 
   4 -12  -9    1.78    0.65 
   3 -12  -9    0.76    0.58 
   2 -12  -9    2.90    0.71 
   1 -12  -9    1.50    0.62 
   0 -12  -9    0.79    0.63 
  -1 -12  -9    0.76    0.64 
   1  12   9   -0.22    0.62 
   5 -12  -8    1.56    0.91 
   4 -12  -8    1.29    0.82 
   4 -12  -8    0.93    0.58 
   3 -12  -8    2.67    0.59 
   2 -12  -8    3.60    0.67 
   1 -12  -8    0.53    0.51 
   0 -12  -8    1.05    0.54 
   0  12   8    1.03    0.67 
  -1 -12  -8    2.32    0.68 
   1  12   8    1.58    0.72 
  -2 -12  -8    0.42    0.57 
   2  12   8    0.54    0.68 
   6 -12  -7    1.15    0.92 
   5 -12  -7   -0.37    0.70 
   4 -12  -7    1.49    0.72 
   3 -12  -7    0.95    0.68 
   3 -12  -7    1.05    0.47 
   2 -12  -7    2.69    0.60 
   1 -12  -7    7.47    0.87 
  -1  12   7    4.79    0.83 
   0 -12  -7    1.34    0.56 
   0  12   7    1.75    0.70 
  -1 -12  -7    5.96    0.87 
   1  12   7    5.60    0.93 
  -2 -12  -7   -0.26    0.51 
   2  12   7    0.28    0.64 
  -3 -12  -7    0.52    0.60 
   3  12   7    0.46    0.70 
   6 -12  -6    0.86    0.89 
   5 -12  -6    3.01    0.89 
   4 -12  -6    0.01    0.61 
   3 -12  -6    1.51    0.44 
   3 -12  -6   -0.18    0.62 
   2 -12  -6    1.49    0.68 
   2 -12  -6    2.40    0.53 
  -2  12   6    1.72    0.62 
   1 -12  -6    3.87    0.64 
  -1  12   6    3.89    0.75 
   0 -12  -6    2.15    0.56 
   0  12   6    2.12    0.70 
  -1 -12  -6    4.23    0.73 
   1  12   6    5.20    0.84 
  -2 -12  -6    2.66    0.69 
   2  12   6    4.40    0.86 
   3  12   6    1.18    0.74 
   4  12   6    0.82    0.79 
   6 -12  -5    1.53    0.86 
   5 -12  -5    1.37    0.77 
   4 -12  -5    7.22    1.13 
   3 -12  -5   -0.10    0.32 
   3 -12  -5    0.13    0.63 
  -3  12   5    0.40    0.55 
   2 -12  -5    8.43    0.82 
   2 -12  -5    7.62    1.00 
  -2  12   5    6.44    0.92 
   1 -12  -5    9.99    0.93 
  -1  12   5    7.72    0.97 
   0 -12  -5    5.74    0.77 
   0  12   5    5.15    0.85 
  -1 -12  -5    1.83    0.53 
   1  12   5    1.99    0.67 
  -2 -12  -5    3.50    0.67 
   2  12   5    2.68    0.77 
   3  12   5    1.78    0.76 
   4  12   5    0.34    0.69 
   5  12   5    1.14    0.85 
   7 -12  -4   -0.20    0.84 
   6 -12  -4   -0.38    0.71 
   5 -12  -4    2.05    0.79 
   4 -12  -4    3.35    0.85 
  -4  12   4    3.76    0.78 
   3 -12  -4    6.01    0.66 
   3 -12  -4    4.48    0.94 
  -3  12   4    5.53    0.85 
   2 -12  -4    8.53    0.82 
   2 -12  -4    8.92    1.06 
  -2  12   4    7.27    1.00 
   1 -12  -4   15.35    1.18 
  -1  12   4   16.02    1.42 
   0 -12  -4    3.14    0.56 
   0  12   4    1.66    0.61 
  -1 -12  -4    8.44    0.95 
   1  12   4   10.37    1.13 
   2  12   4    2.61    0.72 
   3  12   4    0.92    0.66 
   4  12   4    0.36    0.70 
   5  12   4    1.13    0.81 
   7 -12  -3    1.70    1.04 
   6 -12  -3    1.04    0.78 
   5 -12  -3    1.58    0.77 
  -5  12   3    0.94    0.61 
   4 -12  -3   -0.35    0.62 
  -4  12   3   -0.11    0.51 
   3 -12  -3    0.00    0.56 
  -3  12   3    1.17    0.62 
   2 -12  -3    4.45    0.81 
   2 -12  -3    4.56    0.57 
  -2  12   3    3.23    0.72 
   1 -12  -3   15.35    1.12 
  -1  12   3   13.20    1.33 
   0  12   3   29.88    2.26 
   1  12   3    1.40    0.59 
   2  12   3    9.11    1.09 
   3  12   3    4.70    0.89 
   4  12   3    1.44    0.73 
   5  12   3    0.35    0.72 
   6 -12  -2    0.98    0.84 
  -6  12   2    0.35    0.66 
   5 -12  -2    1.60    0.80 
  -5  12   2    1.04    0.64 
   4 -12  -2    0.09    0.62 
  -4  12   2    1.32    0.65 
   3 -12  -2   11.92    1.37 
  -3  12   2   14.06    1.37 
   2 -12  -2    1.69    0.64 
  -2  12   2    1.38    0.58 
  -1  12   2    3.71    0.73 
   0  12   2    1.41    0.57 
   1  12   2    5.91    0.84 
   2  12   2    1.66    0.64 
   3  12   2    2.08    0.71 
   4  12   2    2.70    0.83 
   5  12   2    1.71    0.77 
   6  12   2    0.58    0.84 
   6 -12  -1    1.52    0.87 
  -6  12   1    1.42    0.74 
   5 -12  -1    0.48    0.70 
  -5  12   1    0.92    0.65 
   4 -12  -1    6.25    1.08 
  -4  12   1    7.98    1.06 
   3 -12  -1    6.86    1.04 
  -3  12   1    7.39    1.00 
  -2  12   1   17.95    1.61 
  -1  12   1    3.81    0.78 
   0  12   1    2.11    0.63 
   1  12   1    2.94    0.64 
   2  12   1    2.69    0.68 
   3  12   1    0.05    0.50 
   4  12   1    0.36    0.59 
   5  12   1    3.45    0.88 
   6  12   1    0.18    0.77 
   6 -12   0    0.75    0.85 
  -6  12   0   -0.13    0.64 
   5 -12   0    1.64    0.76 
  -5  12   0    0.95    0.70 
   4 -12   0    1.72    0.75 
  -4  12   0    1.91    0.70 
   3 -12   0    8.03    1.15 
  -3  12   0    9.76    1.15 
  -2  12   0    3.61    0.80 
  -1  12   0   13.90    1.37 
   0  12   0   24.79    1.98 
   1  12   0   13.49    1.29 
   2  12   0    2.52    0.64 
   3  12   0    8.49    1.06 
   4  12   0    1.75    0.65 
   5  12   0    1.59    0.73 
   6  12   0    0.72    0.76 
   6 -12   1    0.99    0.94 
  -6  12  -1    0.06    0.68 
   5 -12   1    1.08    0.78 
  -5  12  -1    3.44    0.87 
   4 -12   1    0.18    0.64 
  -4  12  -1    0.60    0.64 
  -3  12  -1    0.27    0.57 
  -2  12  -1    1.69    0.68 
  -1  12  -1    3.71    0.78 
   0  12  -1    2.39    0.69 
   1  12  -1    3.82    0.74 
   2  12  -1   17.87    1.61 
   3  12  -1    6.84    0.94 
   4  12  -1    6.00    0.95 
   5  12  -1    0.65    0.63 
   6  12  -1    1.56    0.80 
   6 -12   2    1.55    1.05 
  -6  12  -2   -0.27    0.65 
  -5  12  -2    0.64    0.67 
  -4  12  -2    2.30    0.78 
  -3  12  -2    2.41    0.75 
  -2  12  -2    1.37    0.64 
  -1  12  -2    7.49    1.02 
   0  12  -2    1.23    0.60 
   1  12  -2    3.30    0.73 
   2  12  -2    0.77    0.53 
   3  12  -2   12.79    1.26 
   4  12  -2    1.11    0.61 
   5  12  -2    2.38    0.77 
   6  12  -2    0.69    0.71 
   7  12  -2    1.12    0.83 
  -5  12  -3   -0.10    0.67 
  -4  12  -3    0.67    0.68 
  -3  12  -3    3.76    0.85 
  -2  12  -3   10.42    1.26 
  -1  12  -3    1.81    0.38 
  -1  12  -3    2.36    0.67 
   0  12  -3   35.15    2.68 
   1  12  -3   14.89    1.44 
   2  12  -3    4.23    0.75 
   3  12  -3    0.81    0.55 
   4  12  -3    0.78    0.55 
   5  12  -3    1.11    0.66 
   6  12  -3    1.01    0.73 
   7  12  -3    1.02    0.85 
  -5  12  -4    0.25    0.70 
  -4  12  -4    0.71    0.73 
  -3  12  -4    0.26    0.63 
  -2  12  -4    1.63    0.70 
  -1  12  -4   10.27    1.21 
   0  12  -4    3.45    0.77 
   0  12  -4    3.47    0.56 
   1  12  -4   14.74    1.43 
   2  12  -4    8.15    1.04 
   3  12  -4    5.38    0.83 
   4  12  -4    3.17    0.71 
   5  12  -4    2.51    0.71 
   6  12  -4   -0.25    0.62 
  -5  12  -5    1.20    0.80 
  -4  12  -5    0.20    0.68 
  -3  12  -5    1.11    0.75 
  -2  12  -5    2.32    0.75 
  -1  12  -5    1.84    0.69 
   0  12  -5    4.44    0.88 
   0  12  -5    5.52    0.68 
   1  12  -5    8.91    0.96 
   1  12  -5   11.37    1.20 
   2  12  -5    5.83    0.90 
   2  12  -5    7.14    0.82 
   3  12  -5    0.02    0.53 
   3  12  -5    0.63    0.47 
   4  12  -5    9.94    1.11 
   4  12  -5    9.36    1.04 
   5  12  -5    2.79    0.69 
   5  12  -5    1.83    0.67 
   6  12  -5    1.16    0.63 
  -4  12  -6    1.35    0.91 
  -3  12  -6    0.56    0.74 
  -2  12  -6    5.65    1.06 
  -1  12  -6    4.51    0.91 
   0  12  -6    0.66    0.62 
   0  12  -6    1.05    0.48 
   1  12  -6    3.60    0.81 
   1  12  -6    4.88    0.73 
   2  12  -6    1.80    0.66 
   2  12  -6    2.65    0.62 
   3  12  -6    1.04    0.52 
   3  12  -6    0.18    0.55 
   4  12  -6    0.54    0.59 
   4  12  -6    0.72    0.54 
   5  12  -6    2.40    0.70 
   6  12  -6    1.70    0.71 
  -3  12  -7    0.92    0.85 
  -2  12  -7    0.25    0.73 
  -1  12  -7    7.02    1.14 
   0  12  -7    1.73    0.72 
   1  12  -7    6.64    1.04 
   1  12  -7    7.92    0.92 
   2  12  -7    3.21    0.78 
   2  12  -7    2.79    0.66 
   3  12  -7    0.68    0.55 
   3  12  -7    0.87    0.61 
   4  12  -7    0.94    0.57 
   5  12  -7    0.85    0.58 
   6  12  -7    0.41    0.65 
  -2  12  -8   -0.46    0.77 
  -1  12  -8    3.47    0.96 
   0  12  -8    0.84    0.69 
   1  12  -8    0.88    0.66 
   1  12  -8    0.58    0.55 
   2  12  -8    4.31    0.79 
   2  12  -8    4.58    0.89 
   3  12  -8    1.89    0.68 
   4  12  -8    1.11    0.63 
   5  12  -8    2.04    0.74 
   6  12  -8    2.36    0.80 
  -1  12  -9    0.79    0.86 
   0  12  -9    0.39    0.77 
   1  12  -9    0.75    0.73 
   1  12  -9    0.64    0.63 
   2  12  -9    3.05    0.77 
   3  12  -9   -0.29    0.54 
   4  12  -9    2.72    0.84 
   5  12  -9   -0.28    0.62 
   0  12 -10    0.05    0.81 
   2  12 -10   -0.63    0.57 
   3  12 -10    0.71    0.68 
   4  12 -10    0.03    0.65 
   3 -13  -9   -0.17    0.50 
   2 -13  -9    0.55    0.61 
   1 -13  -9    1.08    0.65 
   0 -13  -9    1.00    0.73 
  -1 -13  -9    0.52    0.72 
   1  13   9   -0.14    0.71 
   5 -13  -8    1.63    0.90 
   3 -13  -8    0.33    0.49 
   2 -13  -8    0.18    0.50 
   1 -13  -8    1.08    0.59 
   0 -13  -8    0.95    0.60 
   0  13   8    0.82    0.72 
  -1 -13  -8   -0.15    0.60 
   1  13   8    0.63    0.71 
  -2 -13  -8    0.88    0.67 
   2  13   8   -0.12    0.67 
   5 -13  -7    1.09    0.81 
   4 -13  -7    1.03    0.80 
   3 -13  -7    0.62    0.48 
   2 -13  -7   -0.06    0.45 
   1 -13  -7    0.87    0.53 
  -1  13   7    1.04    0.62 
   0 -13  -7    0.81    0.56 
   0  13   7    0.34    0.65 
  -1 -13  -7    0.33    0.55 
   1  13   7    1.13    0.71 
  -2 -13  -7   -0.18    0.58 
   2  13   7   -1.12    0.59 
   3  13   7   -1.23    0.65 
   6 -13  -6   -0.08    0.79 
   5 -13  -6    0.03    0.77 
   4 -13  -6    1.49    0.77 
   3 -13  -6    2.11    0.55 
   3 -13  -6    2.16    0.78 
   2 -13  -6    0.35    0.45 
  -2  13   6    1.28    0.64 
   1 -13  -6    7.06    0.87 
  -1  13   6    5.52    0.87 
   0 -13  -6    4.21    0.72 
   0  13   6    4.03    0.82 
  -1 -13  -6    0.20    0.50 
   1  13   6    0.05    0.65 
  -2 -13  -6    1.08    0.61 
   2  13   6    0.94    0.69 
   3  13   6    0.76    0.74 
   6 -13  -5   -0.23    0.81 
   5 -13  -5    1.88    0.84 
   4 -13  -5   -0.34    0.66 
   3 -13  -5    2.65    0.56 
   3 -13  -5    1.34    0.71 
  -3  13   5    1.08    0.63 
   2 -13  -5    1.18    0.46 
   2 -13  -5    0.20    0.63 
  -2  13   5    0.69    0.59 
   1 -13  -5    5.19    0.71 
  -1  13   5    3.84    0.78 
   0 -13  -5    8.22    0.95 
   0  13   5    8.64    1.06 
  -1 -13  -5    2.24    0.60 
   1  13   5    2.27    0.73 
   2  13   5   -0.02    0.60 
   3  13   5    3.36    0.90 
   4  13   5    1.14    0.81 
   6 -13  -4    1.21    0.83 
   5 -13  -4    0.97    0.79 
   4 -13  -4    0.92    0.72 
  -4  13   4    0.37    0.62 
   3 -13  -4    1.89    0.74 
  -3  13   4    2.56    0.70 
   2 -13  -4    6.56    0.76 
   2 -13  -4    6.93    0.99 
  -2  13   4    6.74    0.96 
   1 -13  -4   10.30    0.95 
  -1  13   4    8.28    1.06 
   0 -13  -4    3.32    0.62 
   0  13   4    2.58    0.68 
   1  13   4    1.81    0.70 
   2  13   4    0.87    0.63 
   3  13   4    0.19    0.67 
   4  13   4    1.92    0.86 
   5  13   4   -0.28    0.72 
   6 -13  -3    2.05    0.92 
   5 -13  -3    0.68    0.77 
  -5  13   3    0.25    0.61 
   4 -13  -3    4.88    1.00 
  -4  13   3    3.71    0.85 
   3 -13  -3    0.00    0.64 
  -3  13   3    0.92    0.64 
   2 -13  -3   19.07    1.69 
  -2  13   3   17.70    1.65 
  -1  13   3    7.25    0.95 
   0  13   3   11.15    1.18 
   1  13   3    2.13    0.68 
   2  13   3    1.72    0.70 
   3  13   3    1.99    0.78 
   4  13   3    0.34    0.72 
   5  13   3   -0.44    0.80 
   6 -13  -2    0.78    0.81 
  -6  13   2    0.10    0.67 
   5 -13  -2    1.43    0.77 
  -5  13   2    0.97    0.69 
   4 -13  -2    0.59    0.68 
  -4  13   2    0.04    0.60 
   3 -13  -2    1.03    0.67 
  -3  13   2    0.36    0.62 
  -2  13   2    5.91    0.94 
  -1  13   2    6.51    0.94 
   0  13   2    1.23    0.57 
   1  13   2   10.80    1.18 
   2  13   2    4.19    0.83 
   3  13   2    0.21    0.60 
   4  13   2    1.27    0.77 
   5  13   2   -0.56    0.70 
   6 -13  -1   -0.32    0.88 
  -6  13   1   -0.03    0.67 
   5 -13  -1    0.19    0.66 
  -5  13   1    0.79    0.70 
   4 -13  -1    0.68    0.74 
  -4  13   1    1.22    0.68 
   3 -13  -1    0.82    0.70 
  -3  13   1    0.33    0.61 
  -2  13   1    3.53    0.79 
  -1  13   1    2.79    0.74 
   0  13   1    4.60    0.82 
   1  13   1    2.84    0.71 
   2  13   1    7.62    1.01 
   3  13   1    1.84    0.71 
   4  13   1   -0.18    0.59 
   5  13   1    2.33    0.87 
   6  13   1    0.29    0.83 
   6 -13   0    0.78    0.93 
  -6  13   0    0.24    0.72 
   5 -13   0    0.64    0.79 
  -5  13   0    0.53    0.69 
   4 -13   0    1.34    0.80 
  -4  13   0    1.48    0.72 
  -3  13   0    2.73    0.79 
  -2  13   0    5.13    0.93 
  -1  13   0    1.00    0.60 
   0  13   0    0.42    0.54 
   1  13   0    0.69    0.55 
   2  13   0    6.03    0.88 
   3  13   0    1.82    0.70 
   4  13   0    2.87    0.81 
   5  13   0    0.22    0.69 
   6  13   0    1.07    0.87 
   6 -13   1    0.24    0.92 
  -6  13  -1    0.04    0.68 
   5 -13   1    2.00    0.85 
  -5  13  -1   -0.18    0.69 
  -4  13  -1    0.69    0.67 
  -3  13  -1    1.97    0.75 
  -2  13  -1    8.85    1.16 
  -1  13  -1    3.24    0.79 
   0  13  -1    4.61    0.88 
   1  13  -1    3.45    0.74 
   2  13  -1    3.29    0.75 
   3  13  -1    1.21    0.60 
   4  13  -1    0.73    0.64 
   5  13  -1    0.44    0.68 
   6  13  -1    0.44    0.80 
  -5  13  -2   -0.23    0.66 
  -4  13  -2    1.56    0.76 
  -3  13  -2    0.12    0.62 
  -2  13  -2    4.53    0.91 
  -1  13  -2   11.62    1.33 
   0  13  -2    0.39    0.56 
   1  13  -2    5.51    0.91 
   2  13  -2    5.64    0.90 
   3  13  -2    0.93    0.63 
   4  13  -2    1.11    0.63 
   5  13  -2    1.96    0.79 
   6  13  -2    0.45    0.80 
  -5  13  -3    0.64    0.72 
  -4  13  -3    1.15    0.74 
  -3  13  -3    1.54    0.73 
  -2  13  -3    2.36    0.78 
  -1  13  -3    2.13    0.73 
   0  13  -3   12.57    1.37 
   1  13  -3    6.49    0.97 
   2  13  -3   19.54    1.71 
   3  13  -3    0.68    0.57 
   4  13  -3    7.01    1.06 
   5  13  -3    1.48    0.70 
   6  13  -3    1.06    0.79 
  -5  13  -4    1.43    0.81 
  -4  13  -4    2.08    0.88 
  -3  13  -4    0.17    0.66 
  -2  13  -4    0.66    0.66 
  -1  13  -4    2.55    0.75 
   0  13  -4    2.04    0.50 
   0  13  -4    2.30    0.72 
   1  13  -4    8.17    1.10 
   2  13  -4    7.91    1.06 
   3  13  -4    2.20    0.68 
   4  13  -4    0.01    0.54 
   5  13  -4    1.82    0.73 
   6  13  -4    0.65    0.74 
  -4  13  -5    0.77    0.78 
  -3  13  -5    1.39    0.84 
  -2  13  -5    0.28    0.65 
  -1  13  -5    2.33    0.77 
   0  13  -5    8.02    1.14 
   0  13  -5    8.49    0.87 
   1  13  -5    5.17    0.91 
   1  13  -5    4.01    0.67 
   2  13  -5    0.77    0.63 
   2  13  -5    0.91    0.50 
   3  13  -5    1.67    0.71 
   3  13  -5    1.47    0.58 
   4  13  -5    0.57    0.59 
   4  13  -5    0.77    0.54 
   5  13  -5    0.80    0.58 
   5  13  -5    0.86    0.64 
   6  13  -5   -0.19    0.60 
  -3  13  -6    1.16    0.88 
  -2  13  -6    0.26    0.72 
  -1  13  -6    0.51    0.67 
   0  13  -6    4.42    0.94 
   1  13  -6    5.95    1.02 
   1  13  -6    6.80    0.84 
   2  13  -6    1.99    0.60 
   2  13  -6    2.10    0.72 
   3  13  -6    1.89    0.70 
   3  13  -6    2.05    0.63 
   4  13  -6    1.54    0.69 
   4  13  -6    1.16    0.56 
   5  13  -6    0.32    0.61 
   6  13  -6    0.27    0.69 
  -3  13  -7   -0.21    0.79 
  -2  13  -7   -0.34    0.77 
  -1  13  -7    0.77    0.74 
   0  13  -7    0.49    0.67 
   1  13  -7    1.41    0.59 
   1  13  -7    1.43    0.72 
   2  13  -7   -0.40    0.60 
   2  13  -7   -0.29    0.49 
   3  13  -7    1.99    0.70 
   3  13  -7    0.22    0.53 
   4  13  -7    0.74    0.58 
   5  13  -7    0.79    0.64 
  -2  13  -8    0.62    0.95 
  -1  13  -8    0.44    0.84 
   0  13  -8    0.37    0.76 
   1  13  -8    0.27    0.67 
   1  13  -8   -0.27    0.54 
   2  13  -8   -0.25    0.53 
   2  13  -8    0.33    0.65 
   3  13  -8    0.20    0.56 
   4  13  -8    0.04    0.63 
   5  13  -8    0.39    0.70 
  -1  13  -9    1.33    0.96 
   0  13  -9    1.22    0.88 
   1  13  -9    1.73    0.88 
   2  13  -9    1.61    0.70 
   3  13  -9    0.57    0.65 
   4  13  -9    1.70    0.74 
   2 -14  -9   -0.66    0.57 
   1 -14  -9   -0.04    0.65 
   3 -14  -8    1.33    0.65 
   2 -14  -8    4.18    0.84 
   1 -14  -8   -0.27    0.57 
   0 -14  -8    0.63    0.66 
   0  14   8    0.77    0.74 
  -1 -14  -8    0.53    0.70 
   1  14   8    0.69    0.81 
   5 -14  -7   -0.07    0.87 
   4 -14  -7    0.27    0.82 
   3 -14  -7    0.73    0.55 
   2 -14  -7    3.40    0.68 
   1 -14  -7    0.93    0.59 
  -1  14   7    0.58    0.60 
   0 -14  -7   -0.06    0.53 
   0  14   7    0.88    0.70 
  -1 -14  -7    1.63    0.69 
   1  14   7    0.79    0.78 
  -2 -14  -7    0.41    0.72 
   2  14   7   -0.86    0.62 
   5 -14  -6    2.30    1.00 
   4 -14  -6   -0.34    0.75 
   3 -14  -6   -0.69    0.69 
   2 -14  -6    1.28    0.50 
  -2  14   6    0.45    0.61 
   1 -14  -6    0.42    0.47 
  -1  14   6   -0.48    0.51 
   0 -14  -6    0.27    0.52 
   0  14   6    0.43    0.64 
  -1 -14  -6    0.97    0.60 
   1  14   6    1.28    0.75 
   2  14   6    0.67    0.73 
   3  14   6   -0.53    0.69 
   5 -14  -5    1.53    0.88 
   4 -14  -5    1.16    0.81 
   3 -14  -5    1.68    0.80 
  -3  14   5    0.88    0.67 
   2 -14  -5    1.73    0.52 
   2 -14  -5    1.43    0.69 
  -2  14   5    0.84    0.63 
   1 -14  -5    2.75    0.63 
  -1  14   5    2.34    0.69 
   0 -14  -5   -0.07    0.45 
   0  14   5    0.08    0.57 
   1  14   5   -0.23    0.61 
   2  14   5    0.92    0.73 
   3  14   5    0.94    0.78 
   5 -14  -4    0.46    0.83 
   4 -14  -4    3.04    0.89 
  -4  14   4    2.16    0.78 
   3 -14  -4    1.96    0.77 
  -3  14   4    1.18    0.66 
  -2  14   4    5.62    0.93 
  -1  14   4    1.18    0.62 
   0  14   4    3.89    0.79 
   1  14   4    0.39    0.63 
   2  14   4    1.16    0.75 
   3  14   4    1.76    0.80 
   4  14   4    0.44    0.80 
   6 -14  -3   -0.07    0.85 
   5 -14  -3    0.96    0.86 
  -5  14   3    0.02    0.65 
   4 -14  -3    2.39    0.87 
  -4  14   3    1.05    0.69 
   3 -14  -3    3.80    0.93 
  -3  14   3    3.84    0.87 
  -2  14   3    0.68    0.61 
  -1  14   3    0.63    0.63 
   0  14   3    1.86    0.64 
   1  14   3    7.06    1.01 
   2  14   3    2.25    0.78 
   3  14   3    5.25    1.04 
   4  14   3    0.05    0.73 
   6 -14  -2    2.01    0.96 
  -6  14   2    0.90    0.76 
   5 -14  -2    0.86    0.88 
  -5  14   2    1.03    0.73 
   4 -14  -2    0.97    0.75 
  -4  14   2   -0.26    0.63 
   3 -14  -2    3.63    0.93 
  -3  14   2    2.41    0.81 
  -2  14   2    0.24    0.63 
  -1  14   2    0.12    0.57 
   0  14   2    1.23    0.61 
   1  14   2    0.07    0.57 
   2  14   2    0.87    0.66 
   3  14   2    2.69    0.85 
   4  14   2    0.95    0.76 
   5  14   2    1.12    0.89 
  -6  14   1    0.84    0.77 
   5 -14  -1    0.05    0.78 
  -5  14   1    1.47    0.77 
   4 -14  -1    4.19    1.03 
  -4  14   1    3.62    0.92 
  -3  14   1    4.21    0.92 
  -2  14   1    0.13    0.58 
  -1  14   1   10.10    1.19 
   0  14   1    6.44    0.96 
   1  14   1    0.67    0.58 
   2  14   1    0.73    0.61 
   3  14   1    1.28    0.72 
   4  14   1    0.47    0.74 
   5  14   1    0.32    0.79 
   5 -14   0   -0.16    0.80 
  -5  14   0    0.17    0.72 
  -4  14   0    1.03    0.71 
  -3  14   0   -0.10    0.64 
  -2  14   0    2.60    0.80 
  -1  14   0    4.42    0.87 
   0  14   0   10.80    1.26 
   1  14   0    4.18    0.84 
   2  14   0    2.88    0.77 
   3  14   0    2.28    0.74 
   4  14   0   -0.14    0.64 
   5  14   0    0.16    0.75 
  -5  14  -1    0.00    0.69 
  -4  14  -1    0.57    0.69 
  -3  14  -1    1.04    0.72 
  -2  14  -1    1.29    0.74 
  -1  14  -1    1.19    0.68 
   0  14  -1    7.78    1.09 
   1  14  -1    9.32    1.15 
   2  14  -1    0.09    0.55 
   3  14  -1    3.83    0.82 
   4  14  -1    4.17    0.92 
   5  14  -1    1.22    0.80 
   6  14  -1    0.27    0.90 
  -5  14  -2    0.08    0.72 
  -4  14  -2    0.79    0.74 
  -3  14  -2    1.37    0.76 
  -2  14  -2    1.76    0.78 
  -1  14  -2    0.44    0.64 
   0  14  -2    0.91    0.63 
   1  14  -2    0.92    0.67 
   2  14  -2    0.10    0.57 
   3  14  -2    3.64    0.83 
   4  14  -2    1.19    0.66 
   5  14  -2    0.89    0.75 
   6  14  -2    1.86    0.93 
  -4  14  -3   -0.06    0.71 
  -3  14  -3    4.42    1.00 
  -2  14  -3    2.25    0.84 
  -1  14  -3    4.80    0.96 
   0  14  -3    3.33    0.83 
   1  14  -3    1.45    0.67 
   2  14  -3    0.92    0.64 
   3  14  -3    4.18    0.86 
   4  14  -3    1.36    0.70 
   5  14  -3    0.56    0.70 
   6  14  -3   -0.14    0.77 
  -4  14  -4   -0.09    0.74 
  -3  14  -4    1.97    0.80 
  -2  14  -4    3.51    0.93 
  -1  14  -4    0.94    0.70 
   0  14  -4    3.39    0.88 
   0  14  -4    3.33    0.61 
   1  14  -4    2.08    0.73 
   2  14  -4    6.57    1.03 
   3  14  -4    0.88    0.65 
   4  14  -4    2.12    0.75 
   5  14  -4    2.31    0.82 
   6  14  -4    0.25    0.87 
  -3  14  -5    0.83    0.83 
  -2  14  -5    0.86    0.76 
  -1  14  -5    0.24    0.68 
   0  14  -5   -0.43    0.61 
   1  14  -5    2.57    0.79 
   1  14  -5    2.66    0.60 
   2  14  -5    0.95    0.68 
   2  14  -5    0.86    0.53 
   3  14  -5    2.26    0.78 
   3  14  -5    3.04    0.69 
   4  14  -5    2.03    0.73 
   4  14  -5    1.40    0.63 
   5  14  -5    0.93    0.75 
   5  14  -5    1.44    0.70 
  -3  14  -6    0.63    0.89 
  -2  14  -6    0.76    0.83 
  -1  14  -6    2.49    0.86 
   0  14  -6    0.96    0.72 
   1  14  -6   -0.39    0.44 
   1  14  -6    0.86    0.69 
   2  14  -6   -0.06    0.63 
   2  14  -6    0.42    0.54 
   3  14  -6    1.00    0.67 
   3  14  -6    0.49    0.56 
   4  14  -6    0.28    0.56 
   4  14  -6    0.40    0.66 
   5  14  -6    0.51    0.61 
  -2  14  -7    0.63    0.95 
  -1  14  -7    2.89    0.99 
   0  14  -7    2.59    0.87 
   1  14  -7    1.08    0.62 
   1  14  -7    1.38    0.78 
   2  14  -7    2.88    0.87 
   2  14  -7    2.35    0.68 
   3  14  -7    0.50    0.69 
   3  14  -7    0.99    0.60 
   4  14  -7    0.45    0.62 
   5  14  -7    0.31    0.60 
  -1  14  -8    1.76    1.01 
   0  14  -8    0.77    0.84 
   1  14  -8    0.21    0.75 
   2  14  -8    4.63    1.03 
   2  14  -8    3.46    0.78 
   3  14  -8    1.70    0.72 
   4  14  -8    0.79    0.67 
   1  14  -9   -0.17    0.82 
   2  14  -9    1.67    0.73 
   2 -15  -8    0.14    0.61 
   1 -15  -8   -0.02    0.66 
   2 -15  -7   -0.63    0.51 
   1 -15  -7    0.30    0.56 
  -1  15   7    0.54    0.65 
   0 -15  -7    0.07    0.64 
   0  15   7    0.59    0.73 
  -1 -15  -7   -0.03    0.66 
   1  15   7    1.02    0.81 
   4 -15  -6    2.11    0.94 
   2 -15  -6    1.98    0.64 
  -2  15   6    1.73    0.78 
   1 -15  -6    1.31    0.61 
  -1  15   6    0.94    0.67 
   0 -15  -6    2.08    0.69 
   0  15   6    1.60    0.74 
   1  15   6    0.28    0.72 
   2  15   6    0.48    0.77 
   5 -15  -5    0.24    0.80 
   4 -15  -5    0.64    0.79 
   3 -15  -5    3.28    0.94 
  -3  15   5    1.17    0.74 
   2 -15  -5    1.45    0.59 
  -2  15   5    4.22    0.87 
  -1  15   5    1.32    0.68 
   0  15   5    3.18    0.78 
   1  15   5    0.49    0.66 
   2  15   5    0.98    0.79 
   3  15   5    1.39    0.87 
   5 -15  -4    0.28    0.82 
   4 -15  -4    1.41    0.87 
  -4  15   4    0.72    0.75 
   3 -15  -4    1.37    0.82 
  -3  15   4    1.07    0.69 
  -2  15   4    2.32    0.76 
  -1  15   4   -0.27    0.58 
   0  15   4    1.14    0.66 
   1  15   4   -0.26    0.58 
   2  15   4    3.52    0.92 
   3  15   4    0.07    0.75 
   5 -15  -3    1.81    0.91 
  -5  15   3    1.59    0.81 
   4 -15  -3    0.63    0.79 
  -4  15   3    1.35    0.76 
   3 -15  -3    4.33    1.01 
  -3  15   3    4.96    0.99 
  -2  15   3    1.19    0.68 
  -1  15   3    3.71    0.85 
   0  15   3    2.58    0.76 
   1  15   3    0.01    0.58 
   2  15   3    1.11    0.72 
   3  15   3    1.03    0.80 
   4  15   3    0.18    0.78 
   5 -15  -2    0.77    0.86 
  -5  15   2    1.28    0.79 
   4 -15  -2    0.74    0.83 
  -4  15   2    0.13    0.67 
  -3  15   2    2.90    0.87 
  -2  15   2    5.24    0.99 
  -1  15   2    6.29    1.03 
   0  15   2    4.13    0.85 
   1  15   2    5.44    0.93 
   2  15   2    0.66    0.64 
   3  15   2    0.65    0.72 
   4  15   2   -0.55    0.76 
   5 -15  -1    1.42    0.90 
  -5  15   1    1.02    0.79 
  -4  15   1   -0.10    0.71 
  -3  15   1    1.43    0.74 
  -2  15   1    0.31    0.68 
  -1  15   1    4.95    0.93 
   0  15   1    5.67    0.98 
   1  15   1    3.16    0.79 
   2  15   1    1.90    0.74 
   3  15   1    0.82    0.72 
   4  15   1    1.64    0.87 
   5  15   1    2.15    1.03 
  -5  15   0    1.36    0.85 
  -4  15   0    1.44    0.79 
  -3  15   0    0.41    0.67 
  -2  15   0    0.27    0.66 
  -1  15   0    0.67    0.67 
   0  15   0   -0.55    0.57 
   1  15   0    0.78    0.65 
   2  15   0   -0.24    0.57 
   3  15   0    0.52    0.66 
   4  15   0    1.71    0.85 
   5  15   0    1.94    0.98 
  -5  15  -1    0.76    0.78 
  -4  15  -1    0.60    0.76 
  -3  15  -1    0.76    0.73 
  -2  15  -1    1.26    0.75 
  -1  15  -1    3.74    0.89 
   0  15  -1    8.62    1.18 
   1  15  -1    4.72    0.93 
   2  15  -1    1.23    0.71 
   3  15  -1    1.18    0.71 
   4  15  -1    0.00    0.66 
   5  15  -1    0.53    0.85 
  -4  15  -2    1.23    0.82 
  -3  15  -2    1.02    0.78 
  -2  15  -2    0.55    0.71 
  -1  15  -2    7.43    1.19 
   0  15  -2    4.87    0.98 
   1  15  -2    6.24    1.07 
   2  15  -2    5.17    0.97 
   3  15  -2    2.78    0.80 
   4  15  -2   -0.52    0.67 
   5  15  -2    1.57    0.86 
  -4  15  -3    0.07    0.77 
  -3  15  -3    0.93    0.83 
  -2  15  -3    0.57    0.72 
  -1  15  -3   -0.31    0.62 
   0  15  -3    3.80    0.91 
   1  15  -3    3.42    0.85 
   2  15  -3    1.09    0.70 
   3  15  -3    7.07    1.08 
   4  15  -3    2.69    0.83 
   5  15  -3    0.86    0.86 
  -3  15  -4    0.25    0.76 
  -2  15  -4    4.71    1.06 
  -1  15  -4    0.52    0.74 
   0  15  -4    0.65    0.72 
   1  15  -4    1.03    0.74 
   2  15  -4    3.09    0.86 
   3  15  -4    1.32    0.71 
   4  15  -4   -0.80    0.63 
   5  15  -4    1.66    0.82 
  -3  15  -5    2.53    1.01 
  -2  15  -5    1.37    0.88 
  -1  15  -5    0.62    0.81 
   0  15  -5    5.20    1.06 
   1  15  -5    1.55    0.78 
   1  15  -5    2.17    0.64 
   2  15  -5    2.54    0.82 
   2  15  -5    2.65    0.68 
   3  15  -5    1.40    0.77 
   3  15  -5    2.08    0.65 
   4  15  -5   -1.13    0.46 
   4  15  -5    0.00    0.68 
   5  15  -5   -0.03    0.61 
   5  15  -5   -0.69    0.69 
  -2  15  -6    0.27    0.87 
  -1  15  -6    0.79    0.84 
   0  15  -6    1.43    0.82 
   1  15  -6    0.52    0.71 
   1  15  -6   -0.10    0.51 
   2  15  -6    2.13    0.85 
   2  15  -6    1.87    0.64 
   3  15  -6    1.96    0.69 
   3  15  -6    1.58    0.82 
   4  15  -6    2.35    0.85 
   4  15  -6    1.18    0.69 
  -1  15  -7    2.04    0.99 
   0  15  -7    1.03    0.89 
   1  15  -7    1.44    0.83 
   2  15  -7    0.04    0.53 
   2  15  -7    0.16    0.78 
   3  15  -7    1.78    0.86 
   3  15  -7    0.69    0.62 
   4  15  -7    1.45    0.67 
   1  15  -8    0.83    0.90 
   2  15  -8    1.56    0.70 
   2  15  -8    0.26    0.83 
   2 -16  -7   -0.13    0.65 
   1 -16  -7   -0.07    0.64 
   2 -16  -6    0.93    0.64 
  -2  16   6   -0.18    0.66 
  -1  16   6   -0.01    0.65 
   0  16   6    0.84    0.68 
   1  16   6   -0.82    0.67 
   4 -16  -5    0.73    0.86 
  -3  16   5    0.76    0.75 
  -2  16   5    1.57    0.76 
  -1  16   5    0.86    0.70 
   0  16   5    0.01    0.62 
   1  16   5    1.12    0.78 
   2  16   5    0.03    0.77 
   4 -16  -4   -0.23    0.77 
  -3  16   4    0.04    0.69 
  -2  16   4    2.48    0.81 
  -1  16   4    3.52    0.87 
   0  16   4    1.64    0.70 
   1  16   4    1.49    0.73 
   2  16   4    0.46    0.73 
   4 -16  -3   -0.24    0.87 
  -4  16   3    0.20    0.73 
  -3  16   3    1.28    0.77 
  -2  16   3    1.01    0.72 
  -1  16   3    3.70    0.89 
   0  16   3    0.50    0.64 
   1  16   3    1.89    0.76 
   2  16   3   -0.41    0.65 
   3  16   3    0.34    0.77 
  -4  16   2    1.11    0.82 
  -3  16   2    1.51    0.82 
  -2  16   2    1.80    0.78 
  -1  16   2    0.84    0.69 
   0  16   2    0.67    0.65 
   1  16   2    2.55    0.78 
   2  16   2   -0.15    0.68 
   3  16   2    0.17    0.72 
  -4  16   1    1.03    0.80 
  -3  16   1    0.84    0.76 
  -2  16   1    2.41    0.85 
  -1  16   1    0.74    0.69 
   0  16   1    0.01    0.62 
   1  16   1    1.07    0.71 
   2  16   1   -0.58    0.58 
   3  16   1    0.10    0.71 
   4  16   1    0.11    0.85 
  -4  16   0   -0.56    0.70 
  -3  16   0    1.35    0.79 
  -2  16   0    1.83    0.84 
  -1  16   0    0.79    0.71 
   0  16   0    0.62    0.73 
   1  16   0    0.45    0.67 
   2  16   0    1.69    0.76 
   3  16   0    0.64    0.78 
   4  16   0   -0.61    0.77 
  -4  16  -1   -0.02    0.72 
  -3  16  -1    0.88    0.79 
  -2  16  -1    0.47    0.74 
  -1  16  -1    0.82    0.71 
   0  16  -1   -0.62    0.60 
   1  16  -1    0.94    0.73 
   2  16  -1    2.72    0.84 
   3  16  -1    0.78    0.74 
   4  16  -1    1.91    0.95 
  -3  16  -2    0.00    0.75 
  -2  16  -2    0.19    0.74 
  -1  16  -2    1.54    0.80 
   0  16  -2    0.43    0.71 
   1  16  -2    1.77    0.79 
   2  16  -2    1.29    0.76 
   3  16  -2    0.91    0.79 
   4  16  -2    0.86    0.83 
  -3  16  -3    0.35    0.81 
  -2  16  -3    0.57    0.80 
  -1  16  -3    2.29    0.87 
   0  16  -3    1.13    0.78 
   1  16  -3    3.90    0.94 
   2  16  -3    0.63    0.78 
   3  16  -3    1.74    0.82 
   4  16  -3   -0.20    0.77 
  -3  16  -4    1.73    0.92 
  -2  16  -4    1.60    0.93 
  -1  16  -4    1.36    0.87 
   0  16  -4    2.79    0.95 
   1  16  -4    2.36    0.87 
   1  16  -4    1.00    0.55 
   2  16  -4    4.08    0.98 
   3  16  -4    1.04    0.84 
   4  16  -4    0.48    0.79 
  -2  16  -5    0.05    0.87 
  -1  16  -5    0.95    0.92 
   0  16  -5   -0.19    0.74 
   1  16  -5    2.41    0.89 
   1  16  -5    1.50    0.63 
   2  16  -5   -0.09    0.73 
   2  16  -5    0.79    0.60 
   3  16  -5    0.95    0.80 
   3  16  -5    0.87    0.61 
   4  16  -5    0.24    0.56 
   4  16  -5    1.38    0.90 
  -1  16  -6    0.04    0.82 
   0  16  -6    0.48    0.87 
   1  16  -6    1.65    0.91 
   2  16  -6    0.93    0.84 
   2  16  -6    0.05    0.53 
   3  16  -6    0.04    0.55 
   3  16  -6    0.42    0.79 
   1  16  -7    1.74    0.95 
   2  16  -7    0.60    0.90 
   2  16  -7    0.21    0.60 
  -2  17   5    0.74    0.71 
  -1  17   5    0.53    0.70 
   0  17   5    3.41    0.90 
  -3  17   4    0.66    0.78 
  -2  17   4    0.72    0.74 
  -1  17   4    0.32    0.72 
   0  17   4    0.61    0.70 
   1  17   4   -0.50    0.64 
  -3  17   3    2.52    0.88 
  -2  17   3    0.79    0.82 
  -1  17   3    1.97    0.84 
   0  17   3    0.12    0.65 
   1  17   3    0.08    0.65 
   2  17   3    0.27    0.73 
  -3  17   2    0.50    0.78 
  -2  17   2    0.87    0.78 
  -1  17   2    0.38    0.69 
   0  17   2    2.31    0.84 
   1  17   2    0.37    0.71 
   2  17   2    1.14    0.77 
   3  17   2   -0.10    0.73 
  -3  17   1    0.91    0.82 
  -2  17   1    0.68    0.79 
  -1  17   1    0.37    0.71 
   0  17   1    1.88    0.84 
   1  17   1    0.02    0.68 
   2  17   1    0.62    0.70 
   3  17   1    0.04    0.79 
  -3  17   0   -0.54    0.70 
  -2  17   0   -0.19    0.71 
  -1  17   0    0.15    0.74 
   0  17   0   -0.51    0.65 
   1  17   0    0.44    0.71 
   2  17   0    0.30    0.77 
   3  17   0    0.14    0.76 
  -3  17  -1    0.49    0.79 
  -2  17  -1    0.17    0.76 
  -1  17  -1    1.81    0.88 
   0  17  -1    1.16    0.78 
   1  17  -1    1.17    0.81 
   2  17  -1    0.58    0.72 
   3  17  -1    1.29    0.88 
  -3  17  -2   -0.37    0.75 
  -2  17  -2    0.78    0.81 
  -1  17  -2   -0.07    0.73 
   0  17  -2    1.87    0.87 
   1  17  -2   -0.46    0.70 
   2  17  -2    0.63    0.82 
   3  17  -2    0.87    0.85 
  -2  17  -3    1.12    0.85 
  -1  17  -3    0.89    0.87 
   0  17  -3    0.53    0.79 
   1  17  -3    0.41    0.78 
   2  17  -3    1.58    0.91 
   3  17  -3    2.05    0.92 
  -1  17  -4   -0.29    0.83 
   0  17  -4    1.48    0.94 
   1  17  -4    0.30    0.82 
   2  17  -4    0.04    0.76 
   3  17  -4    0.92    0.89 
   0  17  -5    2.71    1.03 
   1  17  -5    1.10    0.90 
   2  17  -5    1.13    0.92 
   2  17  -5    0.34    0.58 
  -1  18   3    0.26    0.72 
   0  18   3    0.82    0.77 
  -2  18   2    0.47    0.79 
  -1  18   2    0.10    0.69 
   0  18   2    1.32    0.82 
   1  18   2    0.87    0.73 
  -2  18   1    0.58    0.81 
  -1  18   1    0.67    0.80 
   0  18   1    0.21    0.75 
   1  18   1    0.81    0.76 
   2  18   1   -0.56    0.69 
  -2  18   0    0.13    0.80 
  -1  18   0    1.12    0.81 
   0  18   0    3.16    0.97 
   1  18   0   -0.11    0.73 
   2  18   0    1.35    0.89 
  -2  18  -1   -1.49    0.67 
  -1  18  -1    0.80    0.81 
   0  18  -1    1.56    0.85 
   1  18  -1    1.22    0.89 
   2  18  -1    0.51    0.84 
  -1  18  -2    0.29    0.82 
   0  18  -2    1.52    0.92 
   1  18  -2   -0.90    0.73 
   2  18  -2    1.22    0.96 
   0  18  -3    1.32    0.96 
   1  18  -3    0.90    0.92 
   0   0   0    0.00    0.00 
;
_shelx_hkl_checksum              66595
#END Tags that were not found in dictionaries
loop_
_space_group_symop_operation_xyz
'x, y, z'
'-x, y+1/2, -z'
loop_
_atom_site_label
_atom_site_type_symbol
_atom_site_fract_x
_atom_site_fract_y
_atom_site_fract_z
_atom_site_U_iso_or_equiv
_atom_site_adp_type
_atom_site_occupancy
_atom_site_site_symmetry_order
_atom_site_calc_flag
_atom_site_refinement_flags_posn
_atom_site_refinement_flags_adp
Br1 Br 1.45457(12) 0.06309(8) -0.14293(8) 0.0629(3) Uani 1 1 d . .
N1 N 0.8164(11) -0.0843(4) 0.0929(7) 0.0453(16) Uani 1 1 d . .
O1 O 0.6719(11) -0.2094(5) -0.0337(7) 0.072(2) Uani 1 1 d . .
O2 O 0.9171(11) 0.1346(5) 0.6296(7) 0.0657(18) Uani 1 1 d . .
O3 O 1.0111(15) 0.2849(7) 0.6177(9) 0.095(3) Uani 1 1 d . .
O4 O 1.4139(9) 0.2217(6) 0.5300(6) 0.0670(18) Uani 1 1 d . .
O5 O 1.1877(9) 0.3201(5) 0.3958(6) 0.0593(16) Uani 1 1 d . .
C1 C 0.9587(12) -0.0594(5) 0.0276(7) 0.0417(18) Uani 1 1 d . .
C2 C 0.9958(15) -0.1008(6) -0.0838(9) 0.053(2) Uani 1 1 d . .
H2 H 0.9212 -0.1536 -0.1248 0.064 Uiso 1 1 calc R U
C3 C 1.1424(15) -0.0635(7) -0.1332(8) 0.053(2) Uani 1 1 d . .
H3 H 1.1677 -0.0908 -0.2083 0.064 Uiso 1 1 calc R U
C4 C 1.2506(14) 0.0129(7) -0.0730(8) 0.049(2) Uani 1 1 d . .
C5 C 1.2219(11) 0.0561(8) 0.0408(6) 0.0437(16) Uani 1 1 d . .
H5 H 1.2983 0.1087 0.0812 0.052 Uiso 1 1 calc R U
C6 C 1.0739(13) 0.0171(5) 0.0911(7) 0.0400(17) Uani 1 1 d . .
C7 C 0.8355(14) -0.0181(6) 0.2095(9) 0.049(2) Uani 1 1 d . .
H7A H 0.8626 -0.0539 0.2927 0.059 Uiso 1 1 calc R U
H7B H 0.7120 0.0184 0.1973 0.059 Uiso 1 1 calc R U
C8 C 1.0140(11) 0.0489(6) 0.2123(6) 0.0383(17) Uani 1 1 d . .
C9 C 1.1870(12) 0.0358(5) 0.3408(7) 0.0437(19) Uani 1 1 d . .
H9A H 1.3036 0.0714 0.3331 0.052 Uiso 1 1 calc R U
H9B H 1.2240 -0.0313 0.3506 0.052 Uiso 1 1 calc R U
C10 C 1.1351(11) 0.0689(8) 0.4667(6) 0.0433(15) Uani 1 1 d . .
H10A H 1.2539 0.0629 0.5439 0.052 Uiso 1 1 calc R U
H10B H 1.0304 0.0279 0.4815 0.052 Uiso 1 1 calc R U
C11 C 1.0611(11) 0.1740(5) 0.4540(7) 0.0375(16) Uani 1 1 d . .
C12 C 0.8969(12) 0.1864(5) 0.3248(7) 0.0375(16) Uani 1 1 d . .
C13 C 0.9507(13) 0.1532(5) 0.2017(7) 0.0382(17) Uani 1 1 d . .
H13A H 1.0604 0.1922 0.1899 0.046 Uiso 1 1 calc R U
H13B H 0.8348 0.1618 0.1232 0.046 Uiso 1 1 calc R U
C14 C 0.7128(13) 0.2172(8) 0.3173(9) 0.060(2) Uani 1 1 d . .
H14A H 0.6796 0.2324 0.3953 0.071 Uiso 1 1 calc R U
H14B H 0.6165 0.2235 0.2340 0.071 Uiso 1 1 calc R U
C15 C 0.6779(13) -0.1568(6) 0.0576(8) 0.051(2) Uani 1 1 d . .
C16 C 0.5337(13) -0.1669(7) 0.1406(9) 0.058(2) Uani 1 1 d . .
H16A H 0.4466 -0.2208 0.1093 0.087 Uiso 1 1 calc R U
H16B H 0.4536 -0.1098 0.1325 0.087 Uiso 1 1 calc R U
H16C H 0.6088 -0.1765 0.2331 0.087 Uiso 1 1 calc R U
C17 C 0.9946(12) 0.2053(7) 0.5759(8) 0.0481(19) Uani 1 1 d . .
C18 C 0.8531(17) 0.1629(9) 0.7459(11) 0.072(3) Uani 1 1 d . .
H18A H 0.9319 0.2167 0.7891 0.109 Uiso 1 1 calc R U
H18B H 0.8726 0.1104 0.8079 0.109 Uiso 1 1 calc R U
H18C H 0.7125 0.1802 0.7170 0.109 Uiso 1 1 calc R U
C19 C 1.2434(12) 0.2394(7) 0.4638(8) 0.0457(19) Uani 1 1 d . .
C20 C 1.3397(18) 0.3922(9) 0.4073(14) 0.085(3) Uani 1 1 d . .
H20A H 1.4256 0.3946 0.4983 0.128 Uiso 1 1 calc R U
H20B H 1.2758 0.4533 0.3830 0.128 Uiso 1 1 calc R U
H20C H 1.4193 0.3770 0.3483 0.128 Uiso 1 1 calc R U
loop_
_atom_site_aniso_label
_atom_site_aniso_U_11
_atom_site_aniso_U_22
_atom_site_aniso_U_33
_atom_site_aniso_U_23
_atom_site_aniso_U_13
_atom_site_aniso_U_12
Br1 0.0711(6) 0.0738(6) 0.0509(5) 0.0000(5) 0.0289(4) 0.0006(6)
N1 0.064(4) 0.027(3) 0.044(4) -0.001(3) 0.014(3) -0.005(3)
O1 0.089(5) 0.050(4) 0.072(4) -0.022(3) 0.014(4) -0.026(4)
O2 0.082(4) 0.062(4) 0.068(4) 0.006(3) 0.045(4) 0.007(3)
O3 0.140(8) 0.077(6) 0.095(6) -0.043(5) 0.077(6) -0.035(5)
O4 0.044(3) 0.086(5) 0.063(4) 0.010(3) 0.003(3) -0.002(3)
O5 0.061(4) 0.046(4) 0.061(4) 0.010(3) 0.001(3) -0.007(3)
C1 0.053(5) 0.032(4) 0.035(4) -0.002(3) 0.004(3) 0.003(3)
C2 0.074(6) 0.038(5) 0.039(4) -0.012(3) 0.002(4) 0.001(4)
C3 0.071(6) 0.053(5) 0.031(4) -0.011(4) 0.009(4) 0.010(5)
C4 0.061(5) 0.052(5) 0.039(4) 0.005(4) 0.022(4) 0.012(4)
C5 0.051(4) 0.043(4) 0.037(3) -0.011(4) 0.012(3) 0.000(4)
C6 0.056(4) 0.034(4) 0.030(3) -0.003(3) 0.013(3) 0.007(3)
C7 0.062(5) 0.037(4) 0.054(5) -0.010(4) 0.025(4) -0.012(4)
C8 0.052(4) 0.033(5) 0.031(3) -0.004(3) 0.015(3) 0.001(4)
C9 0.060(5) 0.034(5) 0.037(4) 0.004(3) 0.014(3) 0.012(3)
C10 0.051(4) 0.046(4) 0.032(3) 0.003(4) 0.012(3) 0.003(5)
C11 0.047(4) 0.040(4) 0.025(3) -0.001(3) 0.011(3) 0.000(3)
C12 0.047(4) 0.031(4) 0.035(4) 0.001(3) 0.012(3) 0.001(3)
C13 0.047(4) 0.035(4) 0.030(4) -0.001(3) 0.007(3) 0.003(3)
C14 0.055(5) 0.072(7) 0.046(5) -0.007(4) 0.007(4) 0.009(5)
C15 0.057(5) 0.039(5) 0.045(4) -0.001(4) -0.004(4) -0.003(4)
C16 0.056(5) 0.048(6) 0.065(6) 0.011(4) 0.009(4) -0.008(4)
C17 0.050(4) 0.051(5) 0.043(4) -0.007(4) 0.013(3) -0.005(4)
C18 0.075(6) 0.096(8) 0.060(6) 0.010(5) 0.042(5) 0.013(6)
C19 0.049(5) 0.054(5) 0.036(4) -0.011(3) 0.015(4) -0.001(4)
C20 0.077(7) 0.065(7) 0.108(9) 0.004(7) 0.018(6) -0.025(6)
loop_
_atom_type_symbol
_atom_type_description
_atom_type_scat_dispersion_real
_atom_type_scat_dispersion_imag
_atom_type_scat_source
C C 0.0033 0.0016 'International Tables Vol C Tables 4.2.6.8 and 6.1.1.4'
H H 0.0000 0.0000 'International Tables Vol C Tables 4.2.6.8 and 6.1.1.4'
N N 0.0061 0.0033 'International Tables Vol C Tables 4.2.6.8 and 6.1.1.4'
O O 0.0106 0.0060 'International Tables Vol C Tables 4.2.6.8 and 6.1.1.4'
Br Br -0.2901 2.4595 'International Tables Vol C Tables 4.2.6.8 and 6.1.1.4'
loop_
_geom_angle_atom_site_label_1
_geom_angle_atom_site_label_2
_geom_angle_atom_site_label_3
_geom_angle
C15 N1 C1 126.3(7)
C15 N1 C7 124.3(7)
C1 N1 C7 109.4(6)
C17 O2 C18 114.0(8)
C19 O5 C20 117.4(8)
C6 C1 C2 120.1(8)
C6 C1 N1 110.6(7)
C2 C1 N1 129.3(8)
C3 C2 C1 119.6(8)
C3 C2 H2 120.2
C1 C2 H2 120.2
C4 C3 C2 119.9(8)
C4 C3 H3 120.0
C2 C3 H3 120.0
C3 C4 C5 122.7(9)
C3 C4 Br1 119.1(6)
C5 C4 Br1 118.1(7)
C6 C5 C4 116.9(9)
C6 C5 H5 121.5
C4 C5 H5 121.5
C1 C6 C5 120.6(7)
C1 C6 C8 111.6(7)
C5 C6 C8 127.8(8)
N1 C7 C8 105.7(6)
N1 C7 H7A 110.6
C8 C7 H7A 110.6
N1 C7 H7B 110.6
C8 C7 H7B 110.6
H7A C7 H7B 108.7
C6 C8 C13 111.5(6)
C6 C8 C9 111.3(6)
C13 C8 C9 108.4(6)
C6 C8 C7 102.7(6)
C13 C8 C7 111.7(7)
C9 C8 C7 111.2(6)
C8 C9 C10 113.4(6)
C8 C9 H9A 108.9
C10 C9 H9A 108.9
C8 C9 H9B 108.9
C10 C9 H9B 108.9
H9A C9 H9B 107.7
C9 C10 C11 111.6(6)
C9 C10 H10A 109.3
C11 C10 H10A 109.3
C9 C10 H10B 109.3
C11 C10 H10B 109.3
H10A C10 H10B 108.0
C12 C11 C17 112.2(6)
C12 C11 C19 112.5(6)
C17 C11 C19 102.3(6)
C12 C11 C10 109.4(6)
C17 C11 C10 111.8(6)
C19 C11 C10 108.3(6)
C14 C12 C11 123.7(7)
C14 C12 C13 121.4(7)
C11 C12 C13 114.7(7)
C12 C13 C8 111.8(6)
C12 C13 H13A 109.3
C8 C13 H13A 109.3
C12 C13 H13B 109.3
C8 C13 H13B 109.3
H13A C13 H13B 107.9
C12 C14 H14A 120.0
C12 C14 H14B 120.0
H14A C14 H14B 120.0
O1 C15 N1 122.0(9)
O1 C15 C16 121.7(9)
N1 C15 C16 116.4(8)
C15 C16 H16A 109.5
C15 C16 H16B 109.5
H16A C16 H16B 109.5
C15 C16 H16C 109.5
H16A C16 H16C 109.5
H16B C16 H16C 109.5
O3 C17 O2 123.6(8)
O3 C17 C11 123.3(8)
O2 C17 C11 113.1(7)
O2 C18 H18A 109.5
O2 C18 H18B 109.5
H18A C18 H18B 109.5
O2 C18 H18C 109.5
H18A C18 H18C 109.5
H18B C18 H18C 109.5
O4 C19 O5 124.3(8)
O4 C19 C11 124.2(8)
O5 C19 C11 111.4(7)
O5 C20 H20A 109.5
O5 C20 H20B 109.5
H20A C20 H20B 109.5
O5 C20 H20C 109.5
H20A C20 H20C 109.5
H20B C20 H20C 109.5
loop_
_geom_bond_atom_site_label_1
_geom_bond_atom_site_label_2
_geom_bond_distance
Br1 C4 1.899(9)
N1 C15 1.368(11)
N1 C1 1.392(11)
N1 C7 1.501(10)
O1 C15 1.192(11)
O2 C17 1.323(11)
O2 C18 1.458(11)
O3 C17 1.187(12)
O4 C19 1.204(10)
O5 C19 1.328(11)
O5 C20 1.436(12)
C1 C6 1.381(11)
C1 C2 1.385(12)
C2 C3 1.367(14)
C2 H2 0.9300
C3 C4 1.349(13)
C3 H3 0.9300
C4 C5 1.394(11)
C5 C6 1.389(12)
C5 H5 0.9300
C6 C8 1.504(10)
C7 C8 1.542(11)
C7 H7A 0.9700
C7 H7B 0.9700
C8 C13 1.517(11)
C8 C9 1.523(10)
C9 C10 1.527(10)
C9 H9A 0.9700
C9 H9B 0.9700
C10 C11 1.549(13)
C10 H10A 0.9700
C10 H10B 0.9700
C11 C12 1.495(10)
C11 C17 1.534(11)
C11 C19 1.535(11)
C12 C14 1.323(12)
C12 C13 1.508(10)
C13 H13A 0.9700
C13 H13B 0.9700
C14 H14A 0.9300
C14 H14B 0.9300
C15 C16 1.504(13)
C16 H16A 0.9600
C16 H16B 0.9600
C16 H16C 0.9600
C18 H18A 0.9600
C18 H18B 0.9600
C18 H18C 0.9600
C20 H20A 0.9600
C20 H20B 0.9600
C20 H20C 0.9600
loop_
_geom_torsion_atom_site_label_1
_geom_torsion_atom_site_label_2
_geom_torsion_atom_site_label_3
_geom_torsion_atom_site_label_4
_geom_torsion
C15 N1 C1 C6 -179.9(8)
C7 N1 C1 C6 0.8(9)
C15 N1 C1 C2 -0.8(14)
C7 N1 C1 C2 179.8(8)
C6 C1 C2 C3 -2.1(13)
N1 C1 C2 C3 178.9(8)
C1 C2 C3 C4 0.3(14)
C2 C3 C4 C5 0.9(14)
C2 C3 C4 Br1 179.7(7)
C3 C4 C5 C6 -0.3(13)
Br1 C4 C5 C6 -179.0(6)
C2 C1 C6 C5 2.8(12)
N1 C1 C6 C5 -178.1(7)
C2 C1 C6 C8 -178.0(7)
N1 C1 C6 C8 1.1(9)
C4 C5 C6 C1 -1.6(12)
C4 C5 C6 C8 179.3(8)
C15 N1 C7 C8 178.3(7)
C1 N1 C7 C8 -2.3(9)
C1 C6 C8 C13 -122.2(7)
C5 C6 C8 C13 57.0(11)
C1 C6 C8 C9 116.6(8)
C5 C6 C8 C9 -64.2(11)
C1 C6 C8 C7 -2.4(9)
C5 C6 C8 C7 176.7(8)
N1 C7 C8 C6 2.7(8)
N1 C7 C8 C13 122.4(7)
N1 C7 C8 C9 -116.4(7)
C6 C8 C9 C10 178.9(7)
C13 C8 C9 C10 55.9(9)
C7 C8 C9 C10 -67.3(9)
C8 C9 C10 C11 -54.9(9)
C9 C10 C11 C12 51.0(8)
C9 C10 C11 C17 176.0(6)
C9 C10 C11 C19 -72.0(7)
C17 C11 C12 C14 -2.7(12)
C19 C11 C12 C14 -117.5(9)
C10 C11 C12 C14 122.0(9)
C17 C11 C12 C13 -177.7(7)
C19 C11 C12 C13 67.5(8)
C10 C11 C12 C13 -53.0(8)
C14 C12 C13 C8 -118.2(9)
C11 C12 C13 C8 57.0(9)
C6 C8 C13 C12 -178.2(7)
C9 C8 C13 C12 -55.3(8)
C7 C8 C13 C12 67.6(8)
C1 N1 C15 O1 2.8(13)
C7 N1 C15 O1 -177.9(8)
C1 N1 C15 C16 -177.4(7)
C7 N1 C15 C16 1.9(12)
C18 O2 C17 O3 -0.1(14)
C18 O2 C17 C11 180.0(8)
C12 C11 C17 O3 -88.4(11)
C19 C11 C17 O3 32.5(12)
C10 C11 C17 O3 148.2(10)
C12 C11 C17 O2 91.6(8)
C19 C11 C17 O2 -147.5(7)
C10 C11 C17 O2 -31.8(9)
C20 O5 C19 O4 -2.9(13)
C20 O5 C19 C11 173.8(8)
C12 C11 C19 O4 -153.3(8)
C17 C11 C19 O4 86.1(9)
C10 C11 C19 O4 -32.2(10)
C12 C11 C19 O5 30.0(9)
C17 C11 C19 O5 -90.6(8)
C10 C11 C19 O5 151.1(6)
loop_
_cod_related_entry_id
_cod_related_entry_database
_cod_related_entry_code
1 PubChem 139043743
