#------------------------------------------------------------------------------
#$Date: 2025-08-18 18:33:07 +0300 (Mon, 18 Aug 2025) $
#$Revision: 301779 $
#$URL: file:///home/coder/svn-repositories/cod/cif/1/54/75/1547555.cif $
#------------------------------------------------------------------------------
#
# This file is available in the Crystallography Open Database (COD),
# http://www.crystallography.net/
#
# All data on this site have been placed in the public domain by the
# contributors.
#
data_1547555
loop_
_publ_author_name
'Cheng, Yuyu'
'Han, Yuzhe'
'Li, Pengfei'
_publ_section_title
;
 Organocatalytic Enantioselective [1 + 4] Annulation of
 Morita-Baylis-Hillman Carbonates with Electron-Deficient Olefins: Access
 to Chiral 2,3-Dihydrofuran Derivatives.
;
_journal_issue                   18
_journal_name_full               'Organic letters'
_journal_page_first              4774
_journal_page_last               4777
_journal_paper_doi               10.1021/acs.orglett.7b02144
_journal_volume                  19
_journal_year                    2017
_chemical_absolute_configuration ad
_chemical_formula_moiety         'C23 H23 Br O3'
_chemical_formula_sum            'C23 H23 Br O3'
_chemical_formula_weight         427.32
_space_group_crystal_system      monoclinic
_space_group_IT_number           4
_space_group_name_Hall           'P 2yb'
_space_group_name_H-M_alt        'P 1 21 1'
_symmetry_space_group_name_Hall  'P 2yb'
_symmetry_space_group_name_H-M   'P 1 21 1'
_atom_sites_solution_hydrogens   geom
_atom_sites_solution_primary     dual
_audit_creation_date             2017-04-07
_audit_creation_method
;
Olex2 1.2
(compiled 2017.03.02 svn.r3394 for OlexSys, GUI svn.r5324)
;
_cell_angle_alpha                90
_cell_angle_beta                 99.2570(10)
_cell_angle_gamma                90
_cell_formula_units_Z            2
_cell_length_a                   5.5574(2)
_cell_length_b                   11.2786(4)
_cell_length_c                   16.5421(6)
_cell_measurement_reflns_used    9192
_cell_measurement_temperature    150
_cell_measurement_theta_max      68.50
_cell_measurement_theta_min      4.77
_cell_volume                     1023.35(6)
_computing_cell_refinement       'SAINT v8.37A (Bruker, 2015)'
_computing_data_reduction        'SAINT v8.37A (Bruker, 2015)'
_computing_molecular_graphics    'Olex2 (Dolomanov et al., 2009)'
_computing_publication_material  'Olex2 (Dolomanov et al., 2009)'
_computing_structure_refinement  'ShelXL (Sheldrick, 2015)'
_computing_structure_solution    'ShelXT (Sheldrick, 2015)'
_diffrn_ambient_temperature      150.0
_diffrn_detector                 'Bruker APEX2 area detector'
_diffrn_detector_area_resol_mean 7.9
_diffrn_detector_type            'CCD area detector'
_diffrn_measured_fraction_theta_full 0.993
_diffrn_measured_fraction_theta_max 0.991
_diffrn_measurement_device       'three-circle diffractometer'
_diffrn_measurement_device_type  'Bruker APEX-II CCD'
_diffrn_measurement_method       '\f and \w scans'
_diffrn_radiation_monochromator  'mirror optics'
_diffrn_radiation_probe          x-ray
_diffrn_radiation_type           CuK\a
_diffrn_radiation_wavelength     1.54178
_diffrn_reflns_av_R_equivalents  0.0308
_diffrn_reflns_av_unetI/netI     0.0208
_diffrn_reflns_Laue_measured_fraction_full 0.993
_diffrn_reflns_Laue_measured_fraction_max 0.991
_diffrn_reflns_limit_h_max       6
_diffrn_reflns_limit_h_min       -6
_diffrn_reflns_limit_k_max       13
_diffrn_reflns_limit_k_min       -13
_diffrn_reflns_limit_l_max       19
_diffrn_reflns_limit_l_min       -19
_diffrn_reflns_number            20365
_diffrn_reflns_point_group_measured_fraction_full 0.988
_diffrn_reflns_point_group_measured_fraction_max 0.985
_diffrn_reflns_theta_full        67.679
_diffrn_reflns_theta_max         68.615
_diffrn_reflns_theta_min         4.765
_diffrn_source                   'microfocus sealed X-ray tube'
_diffrn_source_type              'Incoatec I\ms'
_diffrn_standards_number         0
_exptl_absorpt_coefficient_mu    2.891
_exptl_absorpt_correction_T_max  0.7531
_exptl_absorpt_correction_T_min  0.5285
_exptl_absorpt_correction_type   multi-scan
_exptl_absorpt_process_details
'SADABS-2014/5 (Bruker,2014/5) was used for absorption correction. wR2(int) was 0.1003 before and 0.0474 after correction. The Ratio of minimum to maximum transmission is 0.7018. The \l/2 correction factor is Not present.'
_exptl_crystal_colour            colourless
_exptl_crystal_colour_primary    colourless
_exptl_crystal_density_diffrn    1.387
_exptl_crystal_description       block
_exptl_crystal_F_000             440
_exptl_crystal_size_max          0.3
_exptl_crystal_size_mid          0.2
_exptl_crystal_size_min          0.06
_refine_diff_density_max         0.410
_refine_diff_density_min         -0.291
_refine_diff_density_rms         0.071
_refine_ls_abs_structure_details
;
 Flack x determined using 1643 quotients [(I+)-(I-)]/[(I+)+(I-)]
 (Parsons, Flack and Wagner, Acta Cryst. B69 (2013) 249-259).
;
_refine_ls_abs_structure_Flack   0.033(7)
_refine_ls_extinction_method     none
_refine_ls_goodness_of_fit_ref   1.133
_refine_ls_hydrogen_treatment    constr
_refine_ls_matrix_type           full
_refine_ls_number_parameters     264
_refine_ls_number_reflns         3707
_refine_ls_number_restraints     37
_refine_ls_restrained_S_all      1.139
_refine_ls_R_factor_all          0.0359
_refine_ls_R_factor_gt           0.0351
_refine_ls_shift/su_max          0.000
_refine_ls_shift/su_mean         0.000
_refine_ls_structure_factor_coef Fsqd
_refine_ls_weighting_details
'w=1/[\s^2^(Fo^2^)+(0.0560P)^2^+0.5676P] where P=(Fo^2^+2Fc^2^)/3'
_refine_ls_weighting_scheme      calc
_refine_ls_wR_factor_gt          0.0983
_refine_ls_wR_factor_ref         0.0990
_reflns_Friedel_coverage         0.885
_reflns_Friedel_fraction_full    0.983
_reflns_Friedel_fraction_max     0.978
_reflns_number_gt                3606
_reflns_number_total             3707
_reflns_threshold_expression     'I > 2\s(I)'
_cod_data_source_file            ol7b02144_si_002.cif
_cod_data_source_block           cu_cxy0015_0m
_cod_database_code               1547555
_shelx_shelxl_version_number     2016/6
_shelx_space_group_comment
;
The symmetry employed for this shelxl refinement is uniquely defined
by the following loop, which should always be used as a source of
symmetry information in preference to the above space-group names.
They are only intended as comments.
;
_olex2_refinement_description
;
1. Fixed Uiso
 At 1.2 times of:
  All C(H) groups, All C(H,H) groups
 At 1.5 times of:
  All C(H,H,H) groups
2. Restrained distances
 C4-C2 = C4A-C2A = C2A-C1A = C2-C1 = C3A-C2A = C3-C2
 1.54 with sigma of 0.02
3. Uiso/Uaniso restraints and constraints
Uanis(O3) \\sim Ueq, Uanis(C4) \\sim Ueq, Uanis(C2) \\sim Ueq, Uanis(C3A) \\sim
Ueq, Uanis(C1) \\sim Ueq: with sigma of 0.01 and sigma for terminal atoms of
0.02
Uanis(C4) = Uanis(C4A)
Uanis(C2) = Uanis(C2A)
Uanis(C3) = Uanis(C3A)
Uanis(C1) = Uanis(C1A)
Uanis(O3) = Uanis(O3A)
4. Others
 Sof(O3A)=Sof(C1A)=Sof(H1AA)=Sof(H1AB)=Sof(H1AC)=Sof(C2A)=Sof(H2A)=Sof(C3A)=
 Sof(H3AA)=Sof(H3AB)=Sof(H3AC)=Sof(C4A)=Sof(H4AA)=Sof(H4AB)=1-FVAR(1)
 Sof(O3)=Sof(C1)=Sof(H1A)=Sof(H1B)=Sof(H1C)=Sof(C2)=Sof(H2)=Sof(C3)=Sof(H3A)=
 Sof(H3B)=Sof(H3C)=Sof(C4)=Sof(H4A)=Sof(H4B)=FVAR(1)
5.a Ternary CH refined with riding coordinates:
 C8(H8), C9(H9), C2(H2), C2A(H2A)
5.b Secondary CH2 refined with riding coordinates:
 C4(H4A,H4B), C4A(H4AA,H4AB)
5.c Aromatic/amide H refined with riding coordinates:
 C10(H10), C13(H13), C14(H14), C15(H15), C16(H16), C17(H17), C19(H19),
 C20(H20), C22(H22), C23(H23)
5.d X=CH2 refined with riding coordinates:
 C7(H7A,H7B)
5.e Idealised Me refined as rotating group:
 C1(H1A,H1B,H1C), C3(H3A,H3B,H3C), C1A(H1AA,H1AB,H1AC), C3A(H3AA,H3AB,H3AC)
;
_shelx_res_file
;
TITL cu_cxy0015_0m_b.res in P2(1)
    cu_cxy0015_0m.res
    created by SHELXL-2016/6 at 10:12:22 on 07-Apr-2017
REM Old TITL cu_cxy0015_0m in P2(1)
REM SHELXT solution in P2(1)
REM R1 0.118, Rweak 0.049, Alpha 0.034, Orientation as input
REM Flack x = 0.086 ( 0.008 ) from Parsons' quotients
REM Formula found by SHELXT: O3 N6 C5 Br
CELL 1.54178 5.5574 11.2786 16.5421 90 99.257 90
ZERR 2 0.0002 0.0004 0.0006 0 0.001 0
LATT -1
SYMM -X,0.5+Y,-Z
SFAC C H Br O
UNIT 46 46 2 6
DFIX 1.54 C4 C2 C4A C2A C2A C1A C2 C1 C3A C2A C3 C2
ISOR 0.01 0.02 O3 C4 C2 C3A C1
EADP C4 C4A
EADP C2 C2A
EADP C3 C3A
EADP C1 C1A
EADP O3 O3A

L.S. 10
PLAN  20
TEMP -123.15
BOND $H
LIST 6
fmap 2
acta
OMIT -1 1 2
OMIT -1 0 3
OMIT -1 0 6
OMIT 1 0 7
OMIT 1 1 2
OMIT -1 2 8
OMIT -1 -2 8
OMIT 1 0 3
OMIT 2 -10 3
OMIT 1 -1 2
REM <olex2.extras>
REM <HklSrc "%.\\cu_cxy0015_0m.hkl">
REM </olex2.extras>

WGHT    0.056000    0.567600
FVAR       1.00360   0.52407
BR1   3   -0.598908    0.946970   -0.000746    11.00000    0.04666    0.05412 =
         0.04199    0.00820    0.00290   -0.00023
O1    4   -0.034024    0.537282    0.269822    11.00000    0.04627    0.05745 =
         0.03293    0.00175    0.00789    0.00333
O2    4    0.489716    0.347424    0.427982    11.00000    0.11328    0.04171 =
         0.12943   -0.00167   -0.06854    0.00143
C5    1    0.503429    0.455188    0.427236    11.00000    0.07610    0.04744 =
         0.06025    0.00209   -0.02170   -0.00691
C6    1    0.331529    0.530621    0.372054    11.00000    0.06485    0.04356 =
         0.03812   -0.00398   -0.00647   -0.00140
C7    1    0.336291    0.646435    0.377269    11.00000    0.08722    0.04528 =
         0.04771   -0.00240   -0.01405   -0.00203
AFIX  93
H7A   2    0.452513    0.684398    0.417360    11.00000   -1.20000
H7B   2    0.223526    0.692521    0.340964    11.00000   -1.20000
AFIX   0
C8    1    0.155131    0.461639    0.310406    11.00000    0.04919    0.03959 =
         0.03783   -0.00042   -0.00097   -0.00060
AFIX  13
H8    2    0.080764    0.396370    0.339037    11.00000   -1.20000
AFIX   0
C9    1    0.285071    0.407868    0.242085    11.00000    0.03740    0.05061 =
         0.04094   -0.00694    0.00244   -0.00545
AFIX  13
H9    2    0.465864    0.409948    0.259521    11.00000   -1.20000
AFIX   0
C10   1    0.209490    0.498440    0.175547    11.00000    0.04100    0.04678 =
         0.04414   -0.00671    0.01310   -0.01000
AFIX  43
H10   2    0.281871    0.507415    0.127645    11.00000   -1.20000
AFIX   0
C11   1    0.027188    0.563515    0.193939    11.00000    0.03847    0.04824 =
         0.03518   -0.00276   -0.00030   -0.00827
C12   1    0.203892    0.283280    0.215670    11.00000    0.03901    0.05464 =
         0.03455   -0.00779    0.00898   -0.00621
C13   1    0.355853    0.187908    0.234096    11.00000    0.04358    0.06033 =
         0.07923   -0.02498   -0.00402    0.00425
AFIX  43
H13   2    0.515126    0.199937    0.263722    11.00000   -1.20000
AFIX   0
C14   1    0.280416    0.073695    0.210071    11.00000    0.05959    0.06321 =
         0.11450   -0.04010    0.00086    0.00713
AFIX  43
H14   2    0.386893    0.008448    0.224348    11.00000   -1.20000
AFIX   0
C15   1    0.053850    0.055249    0.166056    11.00000    0.06793    0.05610 =
         0.07847   -0.03376    0.02017   -0.01285
AFIX  43
H15   2    0.005742   -0.022276    0.147653    11.00000   -1.20000
AFIX   0
C16   1   -0.101480    0.146679    0.148685    11.00000    0.04818    0.07313 =
         0.04892   -0.00699    0.00611   -0.02555
AFIX  43
H16   2   -0.261041    0.133205    0.119702    11.00000   -1.20000
AFIX   0
C17   1   -0.027462    0.262533    0.173498    11.00000    0.04329    0.05624 =
         0.04027    0.00195   -0.00084   -0.01285
AFIX  43
H17   2   -0.137734    0.326792    0.161083    11.00000   -1.20000
AFIX   0
C18   1   -0.120197    0.656425    0.148128    11.00000    0.03808    0.04437 =
         0.03134   -0.00798    0.00576   -0.00800
C19   1   -0.072552    0.692906    0.070759    11.00000    0.04415    0.05308 =
         0.03520   -0.00072    0.01109   -0.00462
AFIX  43
H19   2    0.058515    0.658243    0.048673    11.00000   -1.20000
AFIX   0
C20   1   -0.214327    0.778214    0.027103    11.00000    0.04445    0.05362 =
         0.03369    0.00080    0.00598   -0.00559
AFIX  43
H20   2   -0.180280    0.803118   -0.024745    11.00000   -1.20000
AFIX   0
C21   1   -0.406159    0.827623    0.058689    11.00000    0.04044    0.04073 =
         0.03784   -0.00174   -0.00258   -0.00868
C22   1   -0.461857    0.791646    0.133803    11.00000    0.04235    0.04430 =
         0.03758   -0.00218    0.00776   -0.00341
AFIX  43
H22   2   -0.596503    0.825210    0.154476    11.00000   -1.20000
AFIX   0
C23   1   -0.317298    0.705582    0.178392    11.00000    0.04451    0.04131 =
         0.03006   -0.00149    0.00668   -0.00555
AFIX  43
H23   2   -0.353638    0.680281    0.229863    11.00000   -1.20000
AFIX   0
PART 1
O3    4    0.700998    0.512359    0.467692    21.00000    0.06859    0.05061 =
         0.05135    0.00182   -0.01614   -0.00503
C1    1    1.149692    0.429380    0.650549    21.00000    0.08911    0.11690 =
         0.06760    0.01296   -0.01775   -0.00588
AFIX 137
H1A   2    1.311284    0.458853    0.643951    21.00000   -1.50000
H1B   2    1.131363    0.347240    0.631220    21.00000   -1.50000
H1C   2    1.132158    0.432651    0.708516    21.00000   -1.50000
AFIX   0
C2    1    0.953200    0.506580    0.600475    21.00000    0.05433    0.11440 =
         0.04761    0.00372    0.00758    0.00059
AFIX  13
H2    2    0.807735    0.513041    0.628787    21.00000   -1.20000
AFIX   0
C3    1    1.049605    0.629750    0.584391    21.00000    0.10241    0.06464 =
         0.09268   -0.00391   -0.03382   -0.01772
AFIX 137
H3A   2    1.096660    0.671342    0.636554    21.00000   -1.50000
H3B   2    0.922066    0.674850    0.549645    21.00000   -1.50000
H3C   2    1.191935    0.622077    0.556656    21.00000   -1.50000
AFIX   0
C4    1    0.885679    0.443132    0.518730    21.00000    0.08009    0.05614 =
         0.06905    0.01450   -0.02867   -0.01652
AFIX  23
H4A   2    1.031376    0.434820    0.491737    21.00000   -1.20000
H4B   2    0.822293    0.362907    0.527473    21.00000   -1.20000
AFIX   0
PART 0
PART 2
O3A   4    0.636954    0.514900    0.484086   -21.00000    0.06859    0.05061 =
         0.05135    0.00182   -0.01614   -0.00503
C1A   1    1.234488    0.431298    0.621719   -21.00000    0.08911    0.11690 =
         0.06760    0.01296   -0.01775   -0.00588
AFIX 137
H1AA  2    1.217895    0.449960    0.678420   -21.00000   -1.50000
H1AB  2    1.401635    0.448047    0.613212   -21.00000   -1.50000
H1AC  2    1.198049    0.347219    0.610948   -21.00000   -1.50000
AFIX   0
C2A   1    1.055635    0.507575    0.563065   -21.00000    0.05433    0.11440 =
         0.04761    0.00372    0.00758    0.00059
AFIX  13
H2A   2    1.121261    0.518122    0.510672   -21.00000   -1.20000
AFIX   0
C3A   1    1.008557    0.630315    0.597846   -21.00000    0.10241    0.06464 =
         0.09268   -0.00391   -0.03382   -0.01772
AFIX 137
H3AA  2    0.850699    0.660393    0.570623   -21.00000   -1.50000
H3AB  2    1.137945    0.685074    0.588251   -21.00000   -1.50000
H3AC  2    1.007022    0.623705    0.656832   -21.00000   -1.50000
AFIX   0
C4A   1    0.807029    0.450050    0.544625   -21.00000    0.08009    0.05614 =
         0.06905    0.01450   -0.02867   -0.01652
AFIX  23
H4AA  2    0.825702    0.368528    0.524328   -21.00000   -1.20000
H4AB  2    0.737741    0.444131    0.595994   -21.00000   -1.20000
AFIX   0
HKLF 4




REM  cu_cxy0015_0m_b.res in P2(1)
REM R1 =  0.0351 for    3606 Fo > 4sig(Fo)  and  0.0359 for all    3707 data
REM    264 parameters refined using     37 restraints

END

WGHT      0.0559      0.5672

REM Highest difference peak  0.410,  deepest hole -0.291,  1-sigma level  0.071
Q1    1   0.8476  0.4478  0.6906  11.00000  0.05    0.41
Q2    1  -0.7397  0.7391  0.1572  11.00000  0.05    0.31
Q3    1  -0.7484  0.9438 -0.0584  11.00000  0.05    0.30
Q4    1   1.0552  0.4486  0.5634  11.00000  0.05    0.30
Q5    1   0.4685  0.5644  0.0635  11.00000  0.05    0.30
Q6    1  -0.1211  0.2010  0.2376  11.00000  0.05    0.29
Q7    1   0.2688  0.2341  0.1431  11.00000  0.05    0.29
Q8    1   0.2982  0.1640  0.1531  11.00000  0.05    0.28
Q9    1   0.3094 -0.1448  0.2751  11.00000  0.05    0.27
Q10   1   0.2856  0.6576  0.1535  11.00000  0.05    0.26
Q11   1  -0.1702  0.6874 -0.0751  11.00000  0.05    0.26
Q12   1   0.3243  0.0361  0.2808  11.00000  0.05    0.24
Q13   1  -0.2809  0.7708 -0.0395  11.00000  0.05    0.24
Q14   1   1.2596  0.5077  0.5330  11.00000  0.05    0.23
Q15   1  -0.4282  0.2970  0.1259  11.00000  0.05    0.23
Q16   1  -0.2403 -0.0460  0.1054  11.00000  0.05    0.22
Q17   1  -0.0790  0.5997 -0.0394  11.00000  0.05    0.22
Q18   1  -0.4943  0.8240 -0.0646  11.00000  0.05    0.21
Q19   1   1.0092  0.3821  0.4809  11.00000  0.05    0.21
Q20   1  -0.0711  0.4409  0.0849  11.00000  0.05    0.20
;
_shelx_res_checksum              66335
_shelx_hkl_file
;
   1   0   0  106.89    4.30
   1   0   0  102.99    4.20
   1   0   0  110.09    4.40
   1   0   0  118.79    4.90
   1   0   0  108.09    5.20
  -1   0   0  100.99    4.30
  -1   0   0  109.79    4.90
   1   0   0  102.69    4.40
   2   0   0  793.12   32.90
   2   0   0  855.11   33.70
   2   0   0  834.52   32.20
   2   0   0  865.41   32.20
   2   0   0  878.71   34.40
   2   0   0  863.41   34.40
  -2   0   0  796.92   32.40
   3   0   0  375.56   16.80
   3   0   0  413.56   16.60
   3   0   0  390.66   21.60
   3   0   0  398.86   19.80
  -4   0   0  150.18    8.80
   5   0   0  228.58   11.10
  -5   0   0  230.08   11.20
  -6   0   0   51.59    5.10
   0  -1   0    0.50    0.20
   0  -1   0   -0.20    0.30
   0  -1   0    0.40    0.30
   0  -1   0    0.20    0.30
   0  -1   0    0.30    0.30
   0   1   0    0.60    0.40
   0   1   0    0.10    0.30
   0   1   0    0.60    0.40
   0   1   0    0.40    0.20
   0   1   0    0.30    0.30
   1  -1   0 1377.16   50.99
   1  -1   0 1326.97   50.39
   1  -1   0 1342.87   51.49
   1  -1   0 1333.57   50.69
  -1  -1   0 1293.57   50.49
  -1  -1   0 1241.98   50.49
   1  -1   0 1357.26   50.69
   1  -1   0 1314.67   50.39
   1  -1   0 1318.97   51.19
  -1   1   0 1491.45   58.49
   1   1   0 1461.55   58.59
  -1   1   0 1498.05   58.19
   1   1   0 1574.94   58.19
  -1   1   0 1510.35   57.79
   1   1   0 1543.15   57.89
   1   1   0 1505.95   57.49
   2  -1   0 2293.47   86.89
   2  -1   0 2295.37   87.69
   2  -1   0 2217.88   86.49
  -2  -1   0 2192.88   86.69
   2  -1   0 2291.77   88.29
   2  -1   0 2300.47   86.89
   2  -1   0 2293.27   87.79
   2   1   0 2361.46   92.89
   2   1   0 2451.25   93.19
   2   1   0 2458.85   93.89
  -2   1   0 2407.06   93.09
   2   1   0 2357.86   92.29
   3  -1   0 1637.24   60.49
   3  -1   0 1581.44   65.19
   3  -1   0 1337.77   60.79
   3  -1   0 1652.03   60.99
   3  -1   0 1573.54   63.79
   3  -1   0 1592.34   60.89
  -3  -1   0 1562.84   60.89
   3  -1   0 1719.53   60.99
   3   1   0 1545.65   65.99
   3   1   0 1683.53   64.19
  -4  -1   0   30.20    6.50
   4  -1   0   46.50    3.80
  -4   1   0   30.50    5.00
   5  -1   0    3.20    1.90
   5  -1   0    0.90    3.80
  -5  -1   0   -0.50    3.20
  -5   1   0    0.70    2.60
  -6   1   0   47.20    4.40
  -1  -2   0 5242.18  204.78
   1  -2   0 5490.85  207.58
   2  -2   0  137.79    7.30
   2  -2   0  134.39    6.30
   2  -2   0  132.89    5.60
   2  -2   0  129.79    5.10
   2  -2   0  129.09    7.30
   2  -2   0  120.99    6.20
   2  -2   0  118.79    6.50
  -2  -2   0  131.89    5.70
   2  -2   0  122.49    8.30
   2   2   0  144.39    7.30
   2   2   0  122.89    8.00
  -2   2   0  142.89    7.60
  -2   2   0  140.69    8.30
   2   2   0  148.59    6.90
   2   2   0  147.69    7.10
   2   2   0  150.28    8.80
   3  -2   0  778.82   33.30
   3  -2   0  771.12   31.30
   3  -2   0  747.33   31.30
   3  -2   0  803.52   30.40
   3  -2   0  777.62   29.90
  -3  -2   0  799.52   30.80
   3   2   0  817.62   37.50
   3   2   0  842.42   34.70
   3   2   0  868.41   33.90
  -3   2   0  805.62   35.40
   4  -2   0  161.58    7.80
   4  -2   0  151.08    6.60
  -4   2   0  139.59    8.30
  -4   2   0  155.08    9.20
   5  -2   0  347.77   13.90
   5  -2   0  338.47   15.70
  -5   2   0  340.07   15.20
  -6   2   0   72.19    5.00
   0  -3   0    0.80    0.80
   0  -3   0   -0.10    1.00
   0  -3   0    0.80    3.20
   0  -3   0    0.10    0.50
   0  -3   0    3.20    1.40
   0  -3   0    1.40    1.10
   0  -3   0    0.50    1.10
   0   3   0   -0.30    1.20
   0   3   0    2.50    1.00
   0   3   0   -0.40    1.10
   0   3   0    2.20    0.90
   1  -3   0 1133.39   46.30
  -1  -3   0 1223.98   48.40
   1  -3   0 1261.37   47.50
   1  -3   0 1227.88   46.70
  -1  -3   0 1191.88   48.40
   1  -3   0 1246.78   47.50
  -1  -3   0 1046.80   47.60
  -1  -3   0 1251.17   47.70
   1  -3   0 1246.08   49.50
  -1  -3   0 1263.27   46.90
  -1  -3   0 1152.38   46.70
   1  -3   0 1323.67   47.50
   1  -3   0 1218.78   47.60
   1   3   0 1225.48   46.10
  -1   3   0 1181.48   47.00
   1   3   0 1212.68   46.70
   1   3   0 1279.77   47.00
   1   3   0 1283.67   46.80
   1   3   0 1150.78   46.20
  -1   3   0 1218.68   47.10
   1   3   0 1201.18   46.70
  -1   3   0 1148.49   47.90
   1   3   0 1138.39   45.80
   1   3   0 1193.68   46.70
   1   3   0 1248.98   47.90
  -1   3   0 1239.08   45.90
  -1   3   0 1151.88   46.50
   2  -3   0 2299.07   86.99
   2  -3   0 2265.47   87.49
   2  -3   0 2101.29   85.39
   2  -3   0 2244.88   85.99
   2  -3   0 2327.77   87.39
   2  -3   0 2233.88   89.29
   2  -3   0 2079.29   85.39
   2  -3   0 2416.36   87.09
  -2  -3   0 2299.97   87.09
  -2  -3   0 2186.78   86.09
   2   3   0 2189.28   89.59
  -2   3   0 2256.67   88.49
  -2   3   0 2202.38   89.29
   2   3   0 2304.67   87.99
   2   3   0 2404.66   87.79
   3  -3   0 1123.09   48.30
   3  -3   0 1169.78   45.30
   3  -3   0 1242.88   46.10
  -3  -3   0 1196.68   46.30
   3  -3   0 1190.08   45.40
   3   3   0 1196.28   48.90
  -3   3   0 1214.88   50.19
   3   3   0 1208.78   48.30
  -4  -3   0  378.26   16.80
   4  -3   0  427.06   17.00
  -4  -3   0  376.96   16.80
   4  -3   0  413.96   15.70
  -4  -3   0  410.16   17.80
  -4  -3   0  407.46   17.50
   4  -3   0  363.86   15.60
  -4   3   0  406.26   17.20
  -4   3   0  382.66   17.10
   5  -3   0   45.50    3.90
   5  -3   0   41.50    7.20
   5  -3   0   40.80    3.50
  -5   3   0   43.00    4.70
   6  -3   0   51.59    3.90
  -6   3   0   61.89    4.50
   0  -4   0 3548.04  135.09
   0  -4   0 3541.25  136.69
   0  -4   0 3416.76  134.39
   0  -4   0 3469.15  134.29
   0  -4   0 3599.54  134.49
   0  -4   0 3430.36  133.49
   0   4   0 3815.82  139.49
   0   4   0 3633.84  138.59
   0   4   0 3586.14  138.49
   0   4   0 3570.74  138.69
   0   4   0 3609.44  137.79
   0   4   0 3458.65  137.79
  -1  -4   0 1192.58   49.20
   1  -4   0 1248.48   46.50
   1  -4   0 1227.78   47.10
  -1  -4   0 1203.28   47.50
  -1  -4   0 1171.08   46.90
   1  -4   0 1180.48   46.50
  -1  -4   0 1244.98   47.60
   1  -4   0 1192.38   48.20
   1  -4   0 1253.77   51.19
   1  -4   0 1225.58   48.20
  -1  -4   0 1204.88   48.30
   1  -4   0 1256.77   48.20
   1  -4   0 1224.48   48.10
  -1  -4   0 1225.38   49.80
  -1   4   0 1134.19   46.90
   1   4   0 1136.19   44.90
   1   4   0 1195.68   44.30
   1   4   0 1106.89   43.80
  -1   4   0 1083.69   44.50
   1   4   0 1176.28   45.20
  -1   4   0 1128.09   44.00
  -1   4   0 1199.58   45.60
  -1   4   0 1175.38   44.00
  -1   4   0 1162.88   45.50
   1   4   0 1105.69   45.60
   1   4   0 1184.48   44.90
   2  -4   0   52.09    3.50
  -2  -4   0   51.59    6.80
   2  -4   0   54.69    6.30
   2  -4   0   52.19    5.00
  -2  -4   0   54.39    3.40
   2  -4   0   51.29    2.60
   2  -4   0   46.30    5.30
  -2   4   0   45.00    5.40
  -2   4   0   36.70    8.20
   2   4   0   44.80    2.50
   2   4   0   40.90    4.30
   2   4   0   37.80    1.90
   3  -4   0   22.10    3.40
   3  -4   0   23.40    1.90
  -3  -4   0   23.50    3.00
  -3   4   0   27.50    3.70
   3   4   0   27.30    5.90
   3   4   0   34.20    8.30
  -3   4   0   49.60   11.30
   3   4   0   30.40    2.50
   4  -4   0  752.62   28.90
   4  -4   0  750.02   28.80
   4  -4   0  785.02   30.40
  -4  -4   0  727.33   30.10
  -4  -4   0  729.33   29.60
  -4  -4   0  731.23   30.00
  -4  -4   0  731.83   29.60
   4   4   0  701.33   27.50
  -4   4   0  699.33   28.30
  -5  -4   0  110.39    7.10
  -5  -4   0  110.89    6.70
   5  -4   0  109.09    5.40
  -5  -4   0  106.89    7.60
   5  -4   0  109.29    9.80
   5  -4   0  120.99    5.90
  -5   4   0  151.58    8.00
   6  -4   0   27.50    3.30
  -6   4   0   41.20    3.70
   0  -5   0    0.90    2.00
   0  -5   0    1.60    2.00
   0  -5   0    1.80    1.00
   0  -5   0    0.50    2.90
   0  -5   0    8.90    7.10
   0  -5   0    0.70    2.40
   0   5   0    0.10    1.30
   0   5   0    2.90    5.30
   0   5   0    0.80    1.90
   0   5   0    2.70    1.90
   0   5   0    2.20    1.40
   0   5   0    2.60    2.20
  -1  -5   0   55.49    4.70
  -1  -5   0   74.19    6.50
  -1  -5   0   60.59    5.00
   1  -5   0   60.89    5.60
   1  -5   0   62.49    5.20
   1  -5   0   60.99    6.10
   1  -5   0   50.79    3.80
  -1  -5   0   65.39    3.50
  -1  -5   0   59.59    9.50
   1  -5   0   66.89   11.60
   1  -5   0   56.39    2.90
  -1   5   0   67.59    5.50
   1   5   0   66.49    2.90
  -1   5   0   58.99    5.40
   1   5   0   61.89    2.80
   1   5   0   63.69    4.80
  -1   5   0   64.49    3.20
   1   5   0   61.59    5.90
   1   5   0   60.19    3.70
  -1   5   0   56.49    3.40
  -1   5   0   57.69    4.90
  -1   5   0   73.49    9.40
  -2  -5   0 1365.56   52.69
   2  -5   0 1365.66   51.69
   2  -5   0 1404.26   54.89
  -2  -5   0 1336.07   57.39
   2  -5   0 1366.26   51.79
   2  -5   0 1330.57   51.79
   2  -5   0 1303.27   53.09
   2   5   0 1358.96   54.79
   2   5   0 1359.96   54.29
  -2   5   0 1371.06   55.69
   2   5   0 1428.96   52.99
   2   5   0 1334.17   52.19
  -3  -5   0  920.51   36.40
  -3  -5   0  942.51   36.60
   3  -5   0  935.81   36.60
   3  -5   0  899.91   35.30
   3  -5   0  955.30   35.30
  -3  -5   0  936.81   36.50
   3  -5   0  950.30   35.40
  -3  -5   0  888.41   35.90
  -3  -5   0  884.51   36.00
  -3  -5   0  833.32   37.50
  -3   5   0 1081.99   44.30
   3   5   0  967.80   36.70
  -3   5   0  862.91   37.30
  -3   5   0  945.51   37.10
  -3   5   0  852.81   36.10
   4  -5   0  499.05   21.10
   4  -5   0  461.25   19.20
  -4  -5   0  516.25   25.40
  -4  -5   0  466.95   19.90
  -4  -5   0  465.55   19.70
   4  -5   0  485.45   19.20
  -4  -5   0  486.75   20.40
  -4  -5   0  487.85   20.30
   4  -5   0  489.45   19.10
   4   5   0  412.56   19.40
   4   5   0  413.36   16.00
  -4   5   0  401.16   17.60
  -5  -5   0    0.20    2.80
   5  -5   0    2.50    1.70
  -5  -5   0    3.60    2.50
  -5  -5   0    7.90    4.60
   5  -5   0    4.70    2.20
   5  -5   0    0.80    2.10
  -5   5   0    1.70    1.90
   6  -5   0   22.00    3.30
  -6   5   0   24.20    3.10
   0  -6   0 1197.28   48.30
   0  -6   0 1156.98   48.30
   0  -6   0 1162.38   46.00
   0  -6   0 1209.78   53.59
   0  -6   0 1226.68   49.50
   0   6   0 1293.47   50.79
   0   6   0 1294.17   53.49
   0   6   0 1352.96   51.79
   0   6   0 1378.16   53.39
   0   6   0 1327.27   51.89
   1  -6   0  582.34   22.60
  -1  -6   0  588.14   27.70
   1  -6   0  589.84   26.70
   1  -6   0  573.94   23.80
   1  -6   0  580.74   22.80
  -1  -6   0  610.74   24.60
   1  -6   0  600.84   26.40
   1  -6   0  570.64   26.00
   1  -6   0  585.84   22.70
   1   6   0  638.94   24.10
  -1   6   0  626.84   27.30
   1   6   0  636.34   26.70
   1   6   0  631.64   25.80
   1   6   0  669.33   25.30
  -1   6   0  581.04   24.50
   1   6   0  645.04   24.30
   1   6   0  630.04   27.00
   1   6   0  598.74   24.20
  -1   6   0  595.24   27.40
  -2  -6   0   13.40    2.70
  -2  -6   0    7.00    8.40
   2  -6   0   12.50    1.90
   2  -6   0   15.30    2.00
  -2  -6   0   14.00    3.10
  -2  -6   0   13.20    2.70
   2  -6   0   10.10    2.80
   2  -6   0   14.30    1.60
  -2   6   0   15.60    6.60
   2   6   0   15.40    5.10
   2   6   0   15.30    1.40
   2   6   0   19.60    5.00
   2   6   0   20.30    2.90
   2   6   0   17.20    1.60
  -3  -6   0  229.68   13.20
  -3  -6   0  208.58   10.40
  -3  -6   0  206.48    9.90
   3  -6   0  219.48   11.00
  -3  -6   0  211.78   10.30
   3  -6   0  215.18    8.80
   3  -6   0  215.78    9.00
  -3  -6   0  202.88    9.70
  -3  -6   0  206.48   10.40
   3   6   0  190.28    9.10
   3   6   0  183.48    7.60
  -3   6   0  175.08    9.50
   3   6   0  198.88    7.80
  -3   6   0  185.08   13.50
   4  -6   0  140.79   10.60
   4  -6   0  146.89    6.80
  -4  -6   0  116.79   10.80
   4  -6   0  142.79    6.60
   4  -6   0  144.89    6.30
  -4  -6   0  138.29    8.00
  -4  -6   0  142.79    7.50
  -4  -6   0  144.59    7.40
  -4  -6   0  154.48    8.00
   4   6   0  170.28    7.40
   4   6   0  168.58    9.40
  -4   6   0  172.78    8.80
   5  -6   0  219.58    9.50
   5  -6   0  214.78   10.20
  -5  -6   0  241.38   10.30
  -5  -6   0  232.18   10.30
  -5  -6   0  240.28   10.20
   5  -6   0  231.38    9.60
   5  -6   0  232.48   10.50
  -5  -6   0  212.58   11.70
   0  -7   0    4.40    1.80
   0  -7   0    3.10    4.60
   0   7   0   -1.30    2.40
   0   7   0   -0.20    1.00
   0   7   0    1.50    0.90
   0   7   0    0.20    0.80
   0   7   0   -2.70    6.20
   0   7   0    5.60    3.20
   0   7   0    1.20    4.20
   1  -7   0  261.47   10.90
  -1  -7   0  264.87   11.60
  -1  -7   0  295.47   20.20
   1  -7   0  263.67   10.60
   1  -7   0  263.77   10.50
  -1  -7   0  269.27   12.00
   1  -7   0  236.98   16.10
   1   7   0  254.87   11.40
   1   7   0  236.48    9.80
   1   7   0  251.27    9.70
   1   7   0  251.87   10.00
   1   7   0  222.58   14.00
   1   7   0  231.68   12.50
  -1   7   0  236.58   10.10
  -1   7   0  260.67   19.40
  -2  -7   0  746.33   30.20
   2  -7   0  762.72   28.50
  -2  -7   0  736.93   29.50
   2  -7   0  739.43   28.70
  -2  -7   0  758.42   29.80
  -2  -7   0  719.63   29.10
  -2  -7   0  694.93   29.30
   2  -7   0  716.43   30.20
   2  -7   0  761.32   28.50
   2  -7   0  706.13   28.80
  -2  -7   0  751.62   29.70
   2   7   0  744.63   28.20
   2   7   0  664.73   26.70
   2   7   0  691.23   26.60
  -2   7   0  611.64   29.70
   2   7   0  724.23   26.80
  -3  -7   0  316.77   13.50
   3  -7   0  318.67   16.00
  -3  -7   0  307.07   14.40
   3  -7   0  317.17   12.80
  -3  -7   0  320.67   13.70
   3  -7   0  300.87   14.30
   3  -7   0  310.77   13.00
  -3  -7   0  303.77   17.60
  -3  -7   0  332.07   14.10
   3   7   0  270.07   10.90
   3   7   0  276.27   12.70
   3   7   0  263.37   10.70
  -3   7   0  250.67   15.50
   4  -7   0   67.79    3.90
   4  -7   0   77.99   13.10
  -4  -7   0   52.69    9.00
  -4  -7   0   76.69    5.10
   4  -7   0   70.19    5.00
  -4  -7   0   75.09    5.00
  -4  -7   0   79.49    5.50
  -4  -7   0   73.59    5.70
   4  -7   0   74.49    4.40
   4   7   0   68.39    7.80
  -4   7   0   81.69    5.60
   4   7   0   76.89    4.10
   5  -7   0    3.00    1.80
   5  -7   0    1.60    1.50
   5  -7   0    6.80    2.10
   5  -7   0    0.50    4.60
  -5  -7   0    3.50    2.10
  -5  -7   0    3.50    1.90
  -5  -7   0    7.30    2.20
  -5   7   0    2.90    2.00
   0  -8   0 1128.79   43.40
   0  -8   0 1099.79   44.10
   0  -8   0 1167.58   44.50
   0  -8   0 1139.29   44.90
   0   8   0 1100.69   40.40
   0   8   0  982.90   40.50
   0   8   0 1006.00   42.30
   0   8   0 1059.99   40.70
   0   8   0 1094.29   40.40
  -1  -8   0  706.13   28.20
  -1  -8   0  712.13   27.70
   1  -8   0  699.23   28.10
   1  -8   0  699.83   27.40
  -1  -8   0  676.53   28.20
  -1  -8   0  664.33   28.00
  -1  -8   0  694.03   28.20
  -1  -8   0  714.83   28.30
  -1  -8   0  712.23   27.00
   1  -8   0  707.33   27.10
   1   8   0  746.73   28.30
   1   8   0  658.93   28.70
   1   8   0  734.33   30.10
   1   8   0  763.02   28.60
   1   8   0  747.23   28.20
   2  -8   0  126.59    6.00
   2  -8   0  140.49    5.90
  -2  -8   0  137.29    6.90
  -2  -8   0  138.09    7.20
  -2  -8   0  137.09    7.70
  -2  -8   0  137.49    6.20
   2  -8   0  134.29    6.30
  -2  -8   0  130.39    7.50
  -2  -8   0  136.89    7.60
  -2  -8   0  122.19    8.20
   2   8   0  136.59    8.20
   2   8   0  126.09    5.80
   2   8   0  132.59    6.10
   2   8   0  130.99    5.60
  -2   8   0  125.59   10.40
   3  -8   0   29.20    2.60
  -3  -8   0   22.70    4.30
   3  -8   0   14.30   12.50
   3  -8   0   24.30    2.60
  -3  -8   0   17.10    4.90
  -3  -8   0   24.80    3.80
  -3  -8   0   31.70    4.10
   3  -8   0   26.30    4.30
   3  -8   0   27.80    3.30
  -3  -8   0   34.90    4.50
  -3  -8   0   22.80    2.40
   3   8   0   19.20    2.10
   3   8   0   17.60    3.10
  -3   8   0   21.20    5.80
   3   8   0   22.70    2.70
  -3   8   0   29.40    4.80
   3   8   0   18.70    4.60
   4  -8   0  142.19    6.30
  -4  -8   0  139.89    7.60
  -4  -8   0  139.79    7.00
   4  -8   0  129.19    8.00
   4  -8   0  143.29    6.80
   4  -8   0  129.99    6.30
  -4  -8   0  127.79   13.10
  -4  -8   0  144.39    7.50
  -4  -8   0  155.08    7.20
  -4   8   0  135.89    7.20
   4   8   0  133.69    6.60
   4   8   0  131.69    6.00
   5  -8   0   61.49    3.80
  -5  -8   0   66.19    3.80
  -5  -8   0   60.29    4.00
   5  -8   0   50.39    4.90
  -5  -8   0   57.39    4.10
  -5   8   0   67.09    4.40
   0  -9   0    0.00    2.40
   0  -9   0    2.00    2.00
   0  -9   0    1.00    1.20
   0   9   0    3.10    1.60
   0   9   0   -1.20    1.50
   0   9   0   -0.40    1.00
   1  -9   0  393.96   16.90
  -1  -9   0  418.86   17.30
  -1  -9   0  377.66   15.50
   1  -9   0  353.36   14.90
  -1  -9   0  354.76   16.00
   1   9   0  340.07   17.80
   1   9   0  384.16   15.50
   1   9   0  394.36   15.10
   1   9   0  393.16   15.00
   1   9   0  366.06   15.40
  -2  -9   0  146.69    8.70
  -2  -9   0  126.99    7.40
  -2  -9   0  141.79    6.20
   2  -9   0  142.79    7.80
   2  -9   0  145.19    6.50
   2  -9   0  133.69    6.10
  -2  -9   0  140.39    7.80
  -2  -9   0  141.79    7.10
  -2  -9   0  146.79    7.80
  -2   9   0  169.98   10.70
   2   9   0  167.58    7.20
   2   9   0  165.58    7.00
   2   9   0  159.38   10.70
   2   9   0  154.98    8.00
   2   9   0  171.88    7.60
  -3  -9   0   97.19    6.20
  -3  -9   0   97.49    5.80
  -3  -9   0   87.89    4.60
  -3  -9   0   93.59    7.90
   3  -9   0   94.79    6.10
   3  -9   0   99.79    4.80
   3  -9   0   89.09    5.20
   3  -9   0  101.29    5.00
  -3  -9   0   98.09    5.50
  -3  -9   0   98.89    6.20
   3   9   0   92.59    4.80
   3   9   0   84.79    5.50
   3   9   0   97.79    4.40
   3   9   0   82.49    9.80
  -3   9   0   94.09    8.70
  -4  -9   0   95.19    5.50
   4  -9   0   94.89    5.90
  -4  -9   0   95.49    5.20
   4  -9   0   88.99    4.50
  -4  -9   0   92.79    4.40
  -4  -9   0   81.29    5.60
   4  -9   0   90.49    5.50
   4  -9   0   97.79    4.70
  -4  -9   0   92.39    5.00
   4   9   0   76.09    5.30
  -4   9   0   81.39    5.40
   4   9   0   76.29    4.00
   4   9   0   77.79    4.50
   0 -10   0  448.46   18.90
   0 -10   0  465.85   18.10
   0 -10   0  478.05   19.60
   0  10   0  471.75   18.60
   1 -10   0  103.19    6.50
  -1 -10   0  104.59    6.70
  -1 -10   0  102.29    5.80
  -1 -10   0   94.29    6.40
  -1 -10   0  105.99    4.70
  -1 -10   0  100.49    6.70
   1  10   0   89.09    5.40
   1  10   0   85.29    4.80
   1  10   0   89.29    4.40
  -1  10   0   89.29    7.70
   1  10   0   86.09    4.30
  -2 -10   0  171.68    8.60
   2 -10   0  181.68    9.00
   2 -10   0  181.38    7.60
  -2 -10   0  183.68    9.80
  -2 -10   0  181.08    8.50
  -2 -10   0  181.18    9.10
  -2 -10   0  182.78    7.60
   2  10   0  176.98    7.20
   2  10   0  160.18    7.70
   2  10   0  164.68   13.60
   2  10   0  170.48    7.40
  -2  10   0  160.98   10.30
   3 -10   0   31.60    3.30
  -3 -10   0   26.80    2.60
  -3 -10   0   22.20    4.10
  -3 -10   0   25.80    3.40
  -3 -10   0   32.60    3.60
   3 -10   0   24.00    2.60
   3 -10   0   27.40    5.20
  -3 -10   0   27.60    4.00
   3  10   0   22.70    2.50
  -3  10   0   22.30    4.60
   3  10   0   24.40    2.30
   3  10   0   22.20    2.80
   3  10   0   19.90    3.80
  -4 -10   0   66.69    4.40
  -4 -10   0   70.99    4.00
   4 -10   0   71.29    4.90
  -4 -10   0   64.99    3.30
  -4 -10   0   72.69    3.90
   4 -10   0   75.19    3.60
   4  10   0   58.59    3.70
   4  10   0   59.49    3.50
   0 -11   0   -0.60    2.30
   0 -11   0    3.00    2.20
  -1 -11   0   67.49    5.40
  -1 -11   0   74.59    4.60
  -1 -11   0   68.29    3.40
  -1 -11   0   71.49    5.70
   1 -11   0   62.89    5.00
   1  11   0   58.09    3.40
   1  11   0   62.79    4.10
  -1  11   0   55.99    6.00
  -2 -11   0   91.49    6.10
  -2 -11   0  102.69    4.60
  -2 -11   0  107.59    8.10
   2 -11   0  104.79    6.10
  -2 -11   0  103.59    5.60
   2  11   0   88.49    6.60
  -2  11   0   92.59    9.90
   2  11   0   90.39    4.50
   2  11   0   91.89    4.40
   3 -11   0   85.79    5.20
  -3 -11   0   86.19    4.80
  -3 -11   0   84.69    3.80
  -3 -11   0   82.49    5.10
  -3 -11   0   90.69    4.60
  -3 -11   0   76.19    6.00
   3  11   0   80.39    4.20
   3  11   0   81.49    4.00
  -3  11   0   74.19    6.90
   3  11   0   86.39    4.80
   0 -12   0  192.48    8.90
   0 -12   0  201.38    9.80
   0  12   0  195.88   10.10
  -1 -12   0   97.09    4.50
  -1 -12   0  104.49    5.40
   1 -12   0   98.99    5.80
  -1 -12   0   97.29    6.00
  -1  12   0   81.89    6.20
   1  12   0   86.89    4.40
   2 -12   0   13.30    2.30
  -2 -12   0   19.90    3.60
  -2 -12   0   16.90    2.90
  -2 -12   0   15.80    1.80
  -2 -12   0   14.00    2.80
  -2 -12   0   16.90    2.00
   2  12   0   16.30    2.20
  -2  12   0   16.90    3.40
  -3 -12   0   -0.80    2.00
  -3 -12   0    1.30    1.90
   3 -12   0   -1.30    1.90
  -3 -12   0    2.40    1.30
  -3 -12   0   -0.90    0.80
   3  12   0    0.60    1.30
   0 -13   0   -0.80    1.90
   0  13   0   -1.80    1.90
   1 -13   0   38.50    3.40
  -1 -13   0   29.30    3.40
  -1 -13   0   32.70    3.20
   1  13   0   30.40    3.50
  -1  13   0   30.90    4.00
  -6   0   1  123.89    7.00
  -5   0   1  299.07   13.50
   5   0  -1  295.67   13.50
   4   0  -1  552.24   21.70
  -4   0   1  558.24   24.20
  -4   0   1  541.85   23.00
   3   0  -1  151.48    8.20
   3   0  -1  145.29   10.90
   3   0  -1  142.49   11.30
   3   0  -1  173.98    7.70
   2   0  -1   12.20    1.20
   2   0  -1   12.50    1.90
   2   0  -1   13.80    3.40
   2   0  -1    9.60    2.00
   2   0  -1   12.40    1.20
   2   0  -1    9.30    1.60
   1   0  -1   18.10    1.70
  -1   0   1   18.00    1.60
   1   0  -1   20.80    1.40
   1   0  -1   20.20    1.10
   1   0  -1   18.90    1.20
  -1   0   1   15.60    1.00
  -1   0  -1 3770.42  143.39
   2   0   1  788.02   28.40
   2   0   1  737.63   30.10
   2   0   1  752.52   28.80
   2   0   1  741.63   30.10
  -2   0  -1  694.73   28.50
   2   0   1  730.83   28.40
   2   0   1  722.63   30.20
   3   0   1  753.82   32.40
  -3   0  -1  763.82   29.10
   3   0   1  768.12   29.90
   3   0   1  697.73   30.70
  -4   0  -1  319.07   15.60
  -4   0  -1  327.17   15.10
   4   0   1  347.17   13.40
  -5   0  -1  544.55   23.90
  -5   0  -1  527.95   22.50
   5   0   1  531.75   21.80
  -6   0  -1  252.07   11.50
  -6   1   1   71.19    5.00
   5  -1  -1    7.90    3.90
  -5  -1   1    2.80    3.20
   5  -1  -1    4.50    2.00
  -5   1   1    1.50    2.60
   4  -1  -1   57.49    4.60
  -4  -1   1   60.89    8.80
   4  -1  -1   60.09    4.30
  -4   1   1   56.49    5.50
  -4   1   1   48.00    6.60
   3  -1  -1 1300.67   51.69
   3  -1  -1 1319.37   51.89
   3  -1  -1 1403.96   52.19
   3  -1  -1 1375.96   51.69
   3  -1  -1 1342.07   52.19
   3   1  -1 1285.57   56.39
   3   1  -1 1304.07   58.09
   3   1  -1 1471.95   54.79
   3   1  -1 1528.65   56.29
   3   1  -1 1424.06   55.69
   2  -1  -1 1655.93   62.89
   2  -1  -1 1671.43   62.99
   2  -1  -1 1676.63   65.19
   2  -1  -1 1677.73   64.09
  -2  -1   1 1547.75   63.19
   2  -1  -1 1655.03   62.99
   2  -1  -1 1695.93   63.49
   2  -1  -1 1664.63   64.39
   2  -1  -1 1622.34   62.89
   2  -1  -1 1640.44   63.39
   2   1  -1 1681.23   66.09
  -2   1   1 1636.24   65.99
   2   1  -1 1713.93   65.49
   2   1  -1 1697.43   67.49
   2   1  -1 1716.33   67.49
   2   1  -1 1744.23   65.49
   2   1  -1 1721.83   65.89
   1  -1  -1 1100.79   40.90
  -1  -1   1 1019.50   39.70
   1  -1  -1 1101.69   40.80
   1  -1  -1  960.70   39.80
   1  -1  -1 1038.90   39.70
  -1  -1   1 1042.80   39.70
   1  -1  -1 1008.60   39.60
   1  -1  -1 1087.89   40.10
   1  -1  -1 1008.30   40.10
   1   1  -1 1162.28   44.30
   1   1  -1 1120.99   44.30
   1   1  -1 1173.28   45.30
  -1   1   1 1158.88   45.20
   1   1  -1 1150.08   44.10
  -1   1   1 1154.28   44.30
  -1   1   1 1159.28   44.40
  -1   1   1 1154.38   45.20
   0  -1  -1 1253.27   49.20
   0  -1  -1 1310.37   49.99
   0  -1  -1 1264.17   49.30
   0  -1   1 1336.07   49.40
   0   1   1 1308.47   49.99
   0   1  -1 1340.57   50.19
   0   1  -1 1347.47   50.29
   0   1   1 1325.77   50.39
   0   1  -1 1268.17   49.99
   0   1   1 1288.87   50.79
   0   1   1 1311.87   50.19
   1  -1   1 2299.97   85.89
  -1  -1  -1 2081.09   85.69
   1  -1   1 2068.29   86.19
  -1  -1  -1 2217.68   85.99
   1  -1   1 2371.66   86.29
  -1  -1  -1 2375.06   86.89
   1  -1   1 2344.77   85.89
   1  -1   1 2301.27   86.69
  -1   1  -1 2595.04   93.89
  -1   1  -1 2323.37   93.99
   1   1   1 2375.56   93.99
   1   1   1 2399.36   94.39
   1   1   1 2494.05   94.49
  -1   1  -1 2578.74   94.29
  -1   1  -1 2530.15   94.49
   1   1   1 2413.36   94.09
   2  -1   1 1520.55   59.59
  -2  -1  -1 1505.95   58.49
   2  -1   1 1487.95   57.99
   2  -1   1 1534.15   59.59
   2  -1   1 1556.84   58.69
   2  -1   1 1521.95   59.89
   2  -1   1 1540.25   58.39
   2   1   1 1583.54   60.89
   2   1   1 1500.85   60.79
  -2   1  -1 1457.35   58.99
   2   1   1 1607.54   59.69
  -2   1  -1 1578.14   60.69
  -3  -1  -1 1170.58   44.80
   3  -1   1 1126.79   47.00
   3  -1   1 1119.69   44.70
   3  -1   1 1133.49   44.70
   3  -1   1 1199.48   44.30
   3  -1   1 1173.08   45.00
   3   1   1 1229.28   50.19
   3   1   1 1254.57   48.60
   3   1   1 1214.88   51.79
  -4  -1  -1  259.77   13.80
  -4  -1  -1  252.07   13.10
   4  -1   1  282.47   11.40
  -4   1  -1  270.27   13.10
  -4   1  -1  254.07   12.40
  -5  -1  -1   12.70    3.70
   5  -1   1    8.20    3.80
   5  -1   1   13.10    2.00
  -5   1  -1   13.60    3.20
  -5   1  -1    7.00    4.20
  -6   1  -1    6.00    2.50
   6  -2  -1  174.18    8.20
  -6   2   1  185.28    8.80
   5  -2  -1  464.35   20.00
  -5  -2   1  443.16   19.90
   5  -2  -1  479.35   18.40
  -5   2   1  491.65   20.70
   4  -2  -1  223.08    9.90
   4  -2  -1  219.28    8.80
  -4  -2   1  209.58   11.90
  -4  -2   1  205.38   12.00
  -4   2   1  191.08   12.60
  -4   2   1  201.18   10.10
  -3  -2   1  449.76   16.90
   3  -2  -1  426.46   17.70
   3  -2  -1  429.16   16.60
   3  -2  -1  408.96   16.00
   3  -2  -1  380.96   17.50
   3  -2  -1  381.96   21.20
   3   2  -1  363.26   18.30
  -3   2   1  373.16   18.30
   3   2  -1  417.86   17.10
   3   2  -1  391.96   21.20
   2  -2  -1  811.52   30.80
  -2  -2   1  760.62   30.20
   2  -2  -1  737.23   30.40
   2  -2  -1  786.62   31.20
   2  -2  -1  803.32   30.80
   2  -2  -1  739.73   29.70
   2  -2  -1  794.32   30.10
   2  -2  -1  799.32   32.00
   2  -2  -1  755.52   32.40
  -2   2   1  710.23   31.80
  -2   2   1  777.62   30.60
   2   2  -1  776.32   29.30
   2   2  -1  738.63   30.70
   2   2  -1  735.03   31.90
   2   2  -1  798.12   30.20
  -2   2   1  757.82   29.80
   2   2  -1  792.92   30.00
   2   2  -1  741.33   30.10
   1  -2  -1 1886.01   71.19
   1  -2  -1 1844.62   70.79
   1  -2  -1 1907.71   71.79
   1  -2  -1 1994.10   72.79
   1  -2  -1 1761.82   70.39
  -1  -2   1 1751.12   70.79
  -1  -2   1 1815.92   70.89
   1  -2  -1 1902.71   71.39
   1  -2  -1 1773.12   70.49
  -1  -2   1 1864.81   71.29
  -1  -2   1 1868.51   70.89
   1  -2  -1 1986.80   71.29
  -1  -2   1 1754.42   72.09
   1   2  -1 1814.42   67.29
  -1   2   1 1744.63   67.49
   1   2  -1 1693.63   66.69
  -1   2   1 1928.61   68.69
   1   2  -1 1671.93   66.69
  -1   2   1 1741.83   68.39
   1   2  -1 1725.43   67.29
   1   2  -1 1711.83   67.19
   1   2  -1 1761.82   68.29
   0  -2   1 1335.07   51.09
   0  -2  -1 1383.16   52.19
   0  -2   1 1282.47   50.59
   0  -2  -1 1230.78   50.59
   0  -2   1 1305.37   51.29
   0  -2  -1 1312.47   51.09
   0  -2  -1 1361.26   50.69
   0  -2   1 1316.97   50.79
   0  -2  -1 1374.26   51.19
   0  -2   1 1349.16   51.19
   0  -2   1 1378.26   51.09
   0  -2  -1 1330.27   51.09
   0  -2   1 1268.57   50.69
   0  -2  -1 1364.76   51.49
   0   2  -1 1073.59   41.40
   0   2  -1  997.60   41.10
   0   2   1 1112.39   41.40
   0   2   1 1092.49   42.00
   0   2  -1 1080.69   41.90
   0   2  -1 1064.39   41.30
   0   2   1 1108.39   42.80
   0   2  -1 1075.89   41.60
   0   2  -1 1056.89   41.70
   0   2   1 1059.09   41.30
   0   2   1 1101.59   41.70
   0   2   1 1108.09   41.70
   0   2  -1 1106.79   41.70
   1  -2   1 5530.45  206.48
  -1  -2  -1 5306.77  206.88
   1   2   1 5208.68  198.28
   2  -2   1  387.16   18.40
   2  -2   1  410.16   16.80
   2  -2   1  409.06   16.50
   2  -2   1  389.06   17.60
   2  -2   1  398.56   15.70
   2  -2   1  369.06   15.30
   2  -2   1  399.26   16.50
  -2  -2  -1  410.66   16.00
   2  -2   1  415.86   15.60
   2   2   1  464.85   20.10
   2   2   1  438.26   19.90
   2   2   1  446.16   18.60
   2   2   1  431.46   17.60
  -2   2  -1  475.45   19.60
   2   2   1  462.05   19.20
   3  -2   1  263.87   13.60
  -3  -2  -1  295.97   12.60
   3  -2   1  279.67   11.30
   3  -2   1  273.77   14.00
   3  -2   1  258.37   10.70
   3   2   1  244.38   16.20
   3   2   1  248.48   13.70
   3   2   1  241.58   12.40
  -3   2  -1  261.37   14.50
   4  -2   1  433.76   16.70
  -4  -2  -1  425.56   19.30
  -4  -2  -1  406.86   17.90
   4  -2   1  433.16   17.60
  -4   2  -1  422.76   18.10
  -4   2  -1  413.86   18.20
   5  -2   1  395.66   15.50
   5  -2   1  379.26   17.10
  -5   2  -1  376.66   16.20
  -5   2  -1  350.86   15.90
  -6   2  -1   32.70    4.00
   6  -3  -1   21.30    3.40
  -6   3   1   30.50    3.50
   5  -3  -1   74.99    4.40
  -5  -3   1   60.19    6.50
  -5  -3   1   60.19    6.50
   5  -3  -1   60.99    8.10
   5  -3  -1   64.39    4.00
  -5   3   1   73.09    5.50
   4  -3  -1  464.45   17.80
  -4  -3   1  471.35   19.70
   4  -3  -1  474.05   19.00
  -4  -3   1  401.96   19.40
  -4  -3   1  437.16   18.90
  -4  -3   1  455.15   19.40
  -4   3   1  464.25   24.80
  -4   3   1  453.45   19.50
   3  -3  -1  732.53   28.30
   3  -3  -1  711.03   32.00
   3  -3  -1  701.63   28.20
   3  -3  -1  766.02   29.10
  -3  -3   1  760.22   29.20
  -3   3   1  742.63   32.50
   3   3  -1  741.23   30.90
   3   3  -1  741.93   30.70
   2  -3  -1 2181.88   78.59
   2  -3  -1 2065.29   80.99
   2  -3  -1 2092.69   78.79
  -2  -3   1 2055.49   77.59
   2  -3  -1 1876.41   76.89
   2  -3  -1 2142.69   79.39
   2  -3  -1 1758.12   79.39
   2  -3  -1 1942.21   76.99
   2  -3  -1 2072.59   77.49
   2   3  -1 1865.01   75.69
   2   3  -1 2024.60   76.99
   2   3  -1 1922.51   79.09
  -2   3   1 1845.02   79.09
   2   3  -1 2044.40   76.39
   2   3  -1 2150.38   76.99
  -2   3   1 2080.29   77.69
   2   3  -1 1964.00   77.09
  -2   3   1 2000.60   77.09
   1  -3  -1  305.97   12.00
  -1  -3   1  315.37   13.20
  -1  -3   1  287.27   12.60
   1  -3  -1  292.67   11.90
   1  -3  -1  303.47   13.10
   1  -3  -1  314.17   13.20
  -1  -3   1  320.27   12.40
   1  -3  -1  328.77   13.50
   1  -3  -1  315.57   15.30
   1  -3  -1  301.97   12.40
   1  -3  -1  297.07   13.20
  -1  -3   1  326.37   14.20
  -1   3   1  307.17   13.80
   1   3  -1  305.37   12.10
   1   3  -1  292.27   12.20
   1   3  -1  317.17   13.50
  -1   3   1  273.97   12.40
   1   3  -1  267.77   12.20
   1   3  -1  286.77   11.60
  -1   3   1  280.27   11.90
  -1   3   1  310.87   12.60
   0  -3   1  180.78    7.40
   0  -3   1  184.18    8.00
   0  -3  -1  176.58    8.00
   0  -3  -1  176.98    7.30
   0  -3   1  181.68    8.00
   0  -3  -1  183.68    9.80
   0  -3  -1  185.58    8.10
   0  -3  -1  180.68    7.50
   0  -3   1  174.88    8.30
   0  -3  -1  181.48    8.10
   0  -3   1  182.48    8.10
   0  -3   1  170.88    7.30
   0  -3  -1  192.18    8.60
   0   3  -1  198.48    8.10
   0   3   1  189.18    8.70
   0   3   1  174.48    7.20
   0   3  -1  172.78    8.10
   0   3  -1  181.48    7.20
   0   3   1  186.38    7.60
   0   3   1  181.18    7.60
   0   3   1  190.58    8.10
   0   3  -1  176.68    7.60
   0   3   1  183.68    8.10
   0   3  -1  182.58    8.20
   0   3  -1  184.28    7.60
  -1  -3  -1 2948.21  112.99
   1  -3   1 2837.32  111.79
   1  -3   1 2867.61  110.89
  -1  -3  -1 2809.32  111.19
   1  -3   1 2778.72  110.79
  -1  -3  -1 2970.10  112.89
   1  -3   1 2965.70  111.99
  -1  -3  -1 2976.70  112.29
   1  -3   1 2904.61  111.19
  -1  -3  -1 2869.61  111.39
  -1  -3  -1 3002.60  111.49
   1  -3   1 2989.20  111.99
   1  -3   1 2971.10  112.09
   1   3   1 2649.43  104.29
  -1   3  -1 2847.71  105.29
  -1   3  -1 2758.12  104.19
   1   3   1 2755.72  104.89
   1   3   1 2816.92  104.89
   1   3   1 2844.42  105.29
  -1   3  -1 2463.95  105.69
   1   3   1 2804.12  105.99
  -1   3  -1 2703.53  105.39
   2  -3   1 1277.87   54.29
   2  -3   1 1387.66   51.89
   2  -3   1 1356.06   50.79
   2  -3   1 1320.07   51.69
   2  -3   1 1283.07   50.19
   2  -3   1 1326.67   51.89
   2  -3   1 1274.57   50.19
  -2  -3  -1 1309.17   50.89
   2   3   1 1407.96   53.39
  -2   3  -1 1279.07   53.59
   2   3   1 1373.56   52.09
   2   3   1 1344.17   54.59
  -2   3  -1 1337.37   53.59
  -3  -3  -1 1038.70   41.00
   3  -3   1 1033.00   40.10
   3  -3   1 1065.69   40.80
  -3   3  -1  986.30   42.20
   3   3   1 1001.20   40.20
   3   3   1  960.90   41.00
  -4  -3  -1  429.56   20.00
   4  -3   1  420.46   17.20
  -4  -3  -1  440.76   18.90
  -4  -3  -1  431.46   18.30
   4  -3   1  448.46   17.30
  -4  -3  -1  427.36   18.40
   4  -3   1  474.05   18.60
  -4   3  -1  442.16   19.20
  -4   3  -1  450.85   18.90
   5  -3   1   85.39    4.60
   5  -3   1   76.09    8.20
  -5  -3  -1   78.59    7.80
  -5   3  -1   83.49    6.80
  -5   3  -1   94.69    6.30
   6  -3   1   54.79    4.20
  -6   3  -1   54.39    4.30
   6  -4  -1   51.29    3.80
   6  -4  -1   56.09    4.50
  -6   4   1   66.89    4.40
  -5  -4   1   78.19    6.90
  -5  -4   1   96.29    6.30
   5  -4  -1   89.79    9.20
   5  -4  -1   87.29    4.70
  -5  -4   1   98.59    6.50
   5  -4  -1   93.59    5.30
  -5   4   1  103.89    6.30
  -4  -4   1  581.34   23.90
  -4  -4   1  595.24   24.30
   4  -4  -1  587.24   23.10
   4  -4  -1  603.24   24.60
  -4  -4   1  569.04   23.90
  -4  -4   1  582.64   24.30
   4  -4  -1  605.24   23.00
  -4   4   1  553.64   23.70
  -4   4   1  581.14   25.70
   4   4  -1  570.04   22.90
  -4   4   1  602.14   24.40
   3  -4  -1  300.47   11.60
   3  -4  -1  269.97   16.80
   3  -4  -1  294.57   12.80
   3  -4  -1  297.67   11.80
  -3  -4   1  303.77   12.80
   3   4  -1  281.17   11.20
   3   4  -1  270.57   14.80
  -3   4   1  317.27   15.80
   3   4  -1  256.47   14.50
  -3   4   1  254.37   17.70
  -2  -4   1  382.16   16.60
  -2  -4   1  378.96   16.40
   2  -4  -1  427.46   16.30
   2  -4  -1  438.46   16.20
   2  -4  -1  434.76   18.90
   2  -4  -1  431.46   17.10
   2  -4  -1  429.06   18.60
   2  -4  -1  422.26   18.90
  -2  -4   1  426.16   17.00
  -2   4   1  452.05   19.60
   2   4  -1  424.96   17.30
  -2   4   1  387.26   23.30
   2   4  -1  466.45   19.20
   2   4  -1  468.75   17.80
   2   4  -1  474.55   19.10
  -2   4   1  460.25   20.20
   2   4  -1  468.25   18.90
  -1  -4   1 1843.42   69.59
  -1  -4   1 1787.02   68.99
   1  -4  -1 1887.11   69.59
   1  -4  -1 1755.32   67.79
   1  -4  -1 1621.84   67.99
   1  -4  -1 1776.62   69.89
  -1  -4   1 1824.72   71.39
  -1  -4   1 1796.62   70.69
   1  -4  -1 1830.02   69.49
   1  -4  -1 1649.73   67.89
   1  -4  -1 1838.72   68.49
   1  -4  -1 1816.72   72.39
  -1  -4   1 1683.23   68.29
   1  -4  -1 1830.52   69.49
  -1  -4   1 1794.42   68.89
  -1   4   1 1791.02   69.59
   1   4  -1 1741.13   67.09
   1   4  -1 1725.43   66.59
  -1   4   1 1673.23   66.79
  -1   4   1 1748.43   67.79
   1   4  -1 1677.33   66.19
   1   4  -1 1788.82   67.59
   1   4  -1 1808.92   67.49
  -1   4   1 1639.64   66.19
   1   4  -1 1704.73   66.09
  -1   4   1 1778.62   67.79
   1   4  -1 1776.12   68.89
   0  -4   1  856.91   35.10
   0  -4  -1  916.91   35.40
   0  -4   1  940.61   36.30
   0  -4  -1  910.71   38.80
   0  -4  -1  940.21   36.20
   0  -4   1  906.81   36.20
   0  -4   1  898.31   36.80
   0  -4   1  902.31   35.30
   0  -4  -1  847.62   35.10
   0  -4   1  951.90   39.00
   0  -4   1  893.11   36.20
   0  -4  -1  922.61   36.30
   0  -4  -1  927.41   36.30
   0  -4  -1  961.40   37.10
   0   4   1 1009.30   39.60
   0   4  -1  946.01   37.40
   0   4  -1  961.00   38.70
   0   4  -1  969.80   37.30
   0   4  -1  987.40   38.60
   0   4   1  980.50   38.70
   0   4   1  960.90   37.90
   0   4  -1  982.90   38.80
   0   4  -1  990.50   37.90
   0   4   1  936.01   37.30
   0   4   1  923.81   37.40
   0   4  -1 1005.10   37.90
   0   4   1  980.70   37.90
   0   4   1 1007.40   38.70
   0   4  -1 1042.30   39.40
   0   4   1  953.40   37.90
  -1  -4  -1  916.21   38.10
  -1  -4  -1  974.10   37.20
   1  -4   1  908.11   37.60
   1  -4   1  957.80   36.70
   1  -4   1  908.41   37.80
   1  -4   1  931.71   40.80
   1  -4   1  965.70   37.80
  -1  -4  -1  957.90   39.00
   1  -4   1  929.81   36.10
  -1  -4  -1  938.61   39.40
  -1  -4  -1 1009.00   38.10
  -1  -4  -1  924.21   36.60
   1   4   1 1008.30   38.10
  -1   4  -1  901.21   38.30
   1   4   1  991.70   38.70
  -1   4  -1  926.01   40.30
   1   4   1  955.00   37.60
  -1   4  -1 1010.40   39.40
   1   4   1 1005.20   40.30
   1   4   1  958.80   38.70
  -1   4  -1 1026.00   39.50
  -1   4  -1 1015.50   37.90
   1   4   1  986.10   38.90
   1   4   1 1038.10   39.20
   2  -4   1  534.25   19.80
   2  -4   1  525.65   22.00
   2  -4   1  506.55   22.40
   2  -4   1  532.35   20.50
   2  -4   1  474.95   21.40
   2  -4   1  508.05   19.70
  -2  -4  -1  506.55   24.40
  -2  -4  -1  491.65   20.50
  -2   4  -1  424.96   21.50
   2   4   1  493.15   20.20
   2   4   1  492.95   18.20
  -2   4  -1  464.05   20.80
   2   4   1  430.76   19.00
   2   4   1  475.95   19.70
   2   4   1  455.75   17.70
  -3  -4  -1  191.78    9.30
   3  -4   1  192.08    7.80
  -3  -4  -1  203.78    9.20
   3  -4   1  196.68    8.00
   3  -4   1  197.88    9.10
  -3  -4  -1  169.58   12.70
  -3  -4  -1  193.18    9.30
  -3   4  -1  172.58   15.10
  -3   4  -1  169.08    9.20
   3   4   1  163.98   12.50
  -4  -4  -1  364.76   15.60
   4  -4   1  344.47   14.20
   4  -4   1  355.66   15.80
  -4  -4  -1  345.37   15.80
  -4  -4  -1  328.87   17.10
  -4  -4  -1  397.06   17.40
  -4   4  -1  307.37   14.20
   4   4   1  285.27   12.50
  -4   4  -1  300.67   13.80
  -5  -4  -1  146.79    8.80
  -5  -4  -1  161.68    8.40
  -5  -4  -1  162.48    8.20
   5  -4   1  168.38    7.40
   5  -4   1  157.48    7.10
  -5   4  -1  193.38    9.60
   6  -4   1   55.69    4.60
  -6   4  -1   66.99    4.60
   6  -5  -1   17.50    2.30
  -6   5   1   20.50    2.90
  -5  -5   1    1.20    2.50
   5  -5  -1   -3.60    2.00
   5  -5  -1    1.00    1.70
  -5  -5   1   -0.70    3.90
  -5  -5   1    2.20    3.30
  -5  -5   1   -1.50    2.40
   5  -5  -1    0.80    2.30
  -5   5   1    1.60    1.90
   4  -5  -1  222.68   13.00
   4  -5  -1  232.58    9.50
  -4  -5   1  237.18   11.10
  -4  -5   1  215.78   10.50
  -4  -5   1  230.68   10.60
   4  -5  -1  230.98    9.70
  -4  -5   1  232.68   11.20
   4   5  -1  194.58    8.30
  -4   5   1  196.08    9.90
  -4   5   1  215.88   14.10
   3  -5  -1  614.74   26.10
  -3  -5   1  592.34   24.20
   3  -5  -1  586.04   22.80
   3  -5  -1  563.64   23.00
  -3  -5   1  618.94   24.30
   3  -5  -1  564.64   22.90
  -3  -5   1  600.24   24.10
  -3  -5   1  582.34   23.80
  -3  -5   1  568.24   23.60
  -3   5   1  524.05   25.30
   3   5  -1  581.14   22.30
  -3   5   1  528.35   23.00
   3   5  -1  590.84   21.50
   2  -5  -1 1888.21   78.09
  -2  -5   1 1967.80   75.99
   2  -5  -1 1989.00   78.19
   2  -5  -1 1957.40   75.19
   2  -5  -1 2003.10   75.09
  -2  -5   1 2006.00   76.29
   2   5  -1 2027.30   76.09
   2   5  -1 1941.01   75.49
  -2   5   1 2024.30   78.69
   2   5  -1 2001.00   77.39
   2   5  -1 1986.90   77.69
   2   5  -1 1903.81   75.39
  -1  -5   1  360.96   19.90
   1  -5  -1  363.16   16.80
   1  -5  -1  399.86   17.00
   1  -5  -1  383.86   14.50
  -1  -5   1  357.46   14.90
  -1  -5   1  345.27   16.10
   1  -5  -1  369.46   17.00
   1  -5  -1  376.66   21.70
   1  -5  -1  379.16   15.30
  -1  -5   1  356.96   15.90
  -1  -5   1  362.76   17.90
   1   5  -1  387.86   17.20
   1   5  -1  399.06   15.80
  -1   5   1  368.16   16.10
  -1   5   1  369.46   17.20
   1   5  -1  380.26   17.30
   1   5  -1  393.36   16.80
   1   5  -1  399.66   15.10
  -1   5   1  367.16   15.20
   1   5  -1  404.66   15.00
  -1   5   1  407.56   17.30
  -1   5   1  371.06   15.20
   0  -5   1  202.28   10.10
   0  -5  -1  207.18   10.10
   0  -5   1  189.58   10.40
   0  -5  -1  197.38   10.00
   0  -5   1  198.28    8.80
   0  -5   1  196.98    9.90
   0  -5   1  191.58   14.40
   0  -5  -1  197.78   10.70
   0  -5  -1  189.78   13.90
   0  -5   1  205.08    8.20
   0  -5  -1  194.78    8.20
   0  -5  -1  188.08    8.90
   0   5   1  194.58    8.60
   0   5  -1  198.98    8.70
   0   5   1  192.98    7.90
   0   5  -1  197.98    7.90
   0   5   1  189.68    8.80
   0   5  -1  177.48    9.60
   0   5   1  201.48    8.70
   0   5  -1  196.48    8.60
   0   5  -1  201.98    9.70
   0   5   1  198.18    9.80
   0   5  -1  196.08   10.10
   0   5   1  198.58    9.60
   0   5  -1  199.78   11.10
   1  -5   1 1654.93   62.49
   1  -5   1 1508.85   62.39
  -1  -5  -1 1562.74   61.69
  -1  -5  -1 1565.24   60.79
   1  -5   1 1547.05   60.09
  -1  -5  -1 1479.55   64.69
   1  -5   1 1590.04   62.49
  -1  -5  -1 1678.73   64.29
   1  -5   1 1605.24   60.89
  -1  -5  -1 1556.24   61.59
  -1   5  -1 1439.36   55.69
   1   5   1 1469.65   55.59
  -1   5  -1 1495.25   58.39
   1   5   1 1508.65   56.39
   1   5   1 1481.25   57.09
   1   5   1 1475.95   57.59
  -1   5  -1 1520.15   58.09
  -1   5  -1 1303.97   59.59
   1   5   1 1363.66   55.69
  -1   5  -1 1459.75   55.99
   1   5   1 1542.85   57.79
   2  -5   1  992.20   43.70
  -2  -5  -1 1153.58   48.00
   2  -5   1 1093.59   41.50
   2  -5   1 1083.19   44.40
  -2  -5  -1 1073.59   42.30
   2  -5   1 1085.09   42.30
   2  -5   1 1054.29   41.40
   2  -5   1 1103.99   41.40
   2   5   1  942.31   36.40
   2   5   1  925.61   36.40
   2   5   1  928.11   39.10
   2   5   1  936.11   38.60
  -2   5  -1  993.00   40.20
   2   5   1  988.80   37.10
   3  -5   1 1114.49   42.90
  -3  -5  -1 1026.40   43.50
  -3  -5  -1 1083.49   42.30
  -3  -5  -1 1100.19   42.80
  -3  -5  -1 1069.09   42.70
  -3  -5  -1 1116.29   43.00
   3  -5   1 1124.79   41.70
  -3  -5  -1 1062.09   42.40
   3  -5   1 1123.79   41.80
   3  -5   1 1011.90   41.80
   3   5   1 1132.59   41.50
  -3   5  -1 1001.70   40.90
  -3   5  -1 1004.20   42.10
   3   5   1 1066.59   40.70
  -3   5  -1 1113.19   41.90
  -4  -5  -1   88.09    9.30
   4  -5   1  115.59    8.20
   4  -5   1  108.89    5.20
   4  -5   1  117.79    5.50
   4  -5   1  105.29    5.50
  -4  -5  -1  109.49    6.30
  -4  -5  -1  115.49    6.40
  -4  -5  -1  117.69    6.80
  -4  -5  -1   99.19    7.50
  -4   5  -1   79.09    4.90
  -4   5  -1  100.79    6.30
  -4   5  -1   96.49    6.50
   4   5   1   99.69    6.30
   5  -5   1    6.90    2.10
  -5  -5  -1    6.10    3.00
  -5  -5  -1    6.60    4.90
   5  -5   1    3.30    1.70
   5  -5   1    7.00    2.30
  -5   5  -1    5.70    2.10
   6  -5   1   36.80    3.50
  -6   5  -1   43.40    3.60
   5  -6  -1  133.19    7.90
  -5  -6   1  164.58    7.90
  -5  -6   1  153.78    8.00
   5  -6  -1  150.88    6.80
  -5  -6   1  149.09    7.70
   5  -6  -1  142.69    6.60
  -5  -6   1  146.49    7.90
   5  -6  -1  151.28    7.60
  -5   6   1  156.98    7.90
   5   6  -1  109.99    7.00
  -4  -6   1  207.78   10.40
   4  -6  -1  213.58    9.20
   4  -6  -1  212.88    9.40
   4  -6  -1  212.68    9.00
   4  -6  -1  221.58   12.80
  -4  -6   1  221.48   10.50
  -4  -6   1  224.48   10.20
  -4  -6   1  205.78    9.90
  -4   6   1  227.48   13.80
   4   6  -1  235.48   11.50
  -4   6   1  229.48   11.00
   4   6  -1  237.78    9.70
  -3  -6   1  141.99    8.10
   3  -6  -1  137.89    6.20
   3  -6  -1  140.69    8.60
  -3  -6   1  136.09    7.10
  -3  -6   1  126.69   11.50
  -3  -6   1  133.79    7.80
   3  -6  -1  135.89    6.20
   3  -6  -1  141.79    6.00
  -3  -6   1  127.09    7.20
  -3   6   1  115.79    7.00
   3   6  -1  116.39    5.10
  -3   6   1  116.49   11.40
   3   6  -1  111.39    5.00
   3   6  -1  117.99    6.60
   2  -6  -1  232.58    9.10
   2  -6  -1  219.28    9.20
  -2  -6   1  226.28   10.10
   2  -6  -1  201.98   13.80
   2  -6  -1  225.88   10.70
   2  -6  -1  225.48    9.00
  -2   6   1  212.08   14.60
   2   6  -1  209.98   12.10
   2   6  -1  199.38    8.30
   2   6  -1  192.98   12.20
   2   6  -1  214.88    8.50
   2   6  -1  213.28    9.50
  -1  -6   1 1285.57   49.60
   1  -6  -1 1246.38   48.10
   1  -6  -1 1280.37   47.90
  -1  -6   1 1252.67   52.89
   1  -6  -1 1216.58   51.49
   1  -6  -1 1234.98   49.00
   1  -6  -1 1247.18   51.69
   1  -6  -1 1278.57   47.90
   1  -6  -1 1238.58   51.19
   1   6  -1 1215.48   50.49
  -1   6   1 1392.76   49.30
  -1   6   1 1348.07   52.29
   1   6  -1 1291.87   49.00
   1   6  -1 1224.08   50.39
  -1   6   1 1228.18   52.19
   1   6  -1 1227.68   49.10
   1   6  -1 1339.57   51.59
   1   6  -1 1275.67   49.20
   0  -6   1 1556.04   72.29
   0  -6  -1 1675.83   72.39
   0  -6  -1 1751.82   69.19
   0  -6   1 1766.82   68.89
   0  -6  -1 1672.73   65.49
   0  -6   1 1722.13   67.69
   0  -6   1 1723.03   67.89
   0  -6  -1 1711.63   67.69
   0  -6  -1 1735.93   67.79
   0   6   1 1695.63   66.89
   0   6  -1 1683.23   65.89
   0   6   1 1733.73   68.39
   0   6  -1 1760.32   68.39
   0   6   1 1703.03   65.99
   0   6   1 1789.52   68.79
   0   6  -1 1758.82   66.89
   0   6   1 1630.74   65.99
   0   6  -1 1693.23   66.09
   0   6  -1 1764.62   69.39
   0   6  -1 1723.13   65.99
   0   6  -1 1800.32   67.09
   1  -6   1 1558.64   59.79
  -1  -6  -1 1574.14   65.09
   1  -6   1 1543.55   63.29
   1  -6   1 1541.55   63.49
   1  -6   1 1597.94   63.09
  -1  -6  -1 1604.04   60.89
   1  -6   1 1598.14   59.99
   1  -6   1 1519.35   60.79
  -1   6  -1 1511.35   58.49
   1   6   1 1568.34   58.99
   1   6   1 1538.55   59.69
   1   6   1 1559.74   60.69
   1   6   1 1456.55   57.89
   1   6   1 1476.25   57.99
   1   6   1 1461.35   60.59
  -1   6  -1 1588.94   61.19
   1   6   1 1503.75   58.09
  -2  -6  -1   10.40    2.80
  -2  -6  -1    7.30    2.30
   2  -6   1    7.70    1.20
  -2  -6  -1    9.40    2.20
   2  -6   1    7.30    1.30
  -2  -6  -1    6.80    2.60
   2  -6   1    6.40    2.60
   2   6   1    6.40    1.90
   2   6   1    8.50    1.40
   2   6   1    6.90    0.90
   2   6   1   10.70    5.00
  -3  -6  -1  185.08    9.20
  -3  -6  -1  175.68    9.30
   3  -6   1  184.08    7.60
  -3  -6  -1  192.38    9.60
  -3  -6  -1  175.68    8.70
  -3  -6  -1  182.68    8.70
   3  -6   1  177.38    7.80
  -3  -6  -1  193.78   11.20
   3  -6   1  177.18    7.80
   3  -6   1  176.38    9.90
  -3   6  -1  156.58    8.80
   3   6   1  160.58    6.80
   3   6   1  171.48    8.30
   3   6   1  172.68    7.00
   4  -6   1   93.39    4.50
   4  -6   1   87.09    9.60
  -4  -6  -1   84.69    6.10
  -4  -6  -1   83.39    6.70
  -4  -6  -1   84.59    8.90
   4  -6   1   94.19    5.10
  -4  -6  -1   89.89    5.60
  -4  -6  -1   94.19    5.70
  -4   6  -1   92.89    6.20
   4   6   1   88.59    7.30
   4   6   1   90.79    4.80
  -5  -6  -1  216.58    9.30
   5  -6   1  208.38    8.90
  -5  -6  -1  214.88    9.20
   5  -6   1  198.68    9.50
   5  -6   1  207.98    9.70
  -5  -6  -1  207.98    9.60
   5  -6   1  196.38    9.80
  -5   6  -1  233.58   10.80
  -5  -7   1    0.60    2.10
   5  -7  -1    2.40    1.50
  -5  -7   1    1.10    2.50
   5  -7  -1    2.10    2.00
  -5  -7   1    3.40    2.00
  -5  -7   1   -3.10    2.90
   5  -7  -1    0.60    1.70
  -5   7   1    0.50    1.80
  -4  -7   1  134.89    6.90
   4  -7  -1  124.19    6.60
   4  -7  -1  122.59    7.20
   4  -7  -1  121.19   14.00
  -4  -7   1  129.09    7.50
  -4  -7   1  124.29    7.20
   4  -7  -1  127.79    5.80
  -4  -7   1  122.89    6.80
  -4   7   1  144.59    7.50
   4   7  -1  124.29    9.40
   4   7  -1  144.29    6.20
   4   7  -1  139.49    7.00
  -4   7   1  138.19   10.70
   3  -7  -1  427.46   16.70
  -3  -7   1  419.16   17.50
   3  -7  -1  394.46   16.70
  -3  -7   1  424.06   17.90
   3  -7  -1  412.76   19.50
  -3  -7   1  369.86   17.30
  -3  -7   1  463.65   18.50
   3  -7  -1  411.56   16.50
   3   7  -1  333.87   13.20
  -3   7   1  328.87   15.10
   3   7  -1  346.17   14.80
   3   7  -1  332.47   12.90
  -3   7   1  272.07   17.70
  -2  -7   1  537.85   21.90
   2  -7  -1  539.85   20.80
   2  -7  -1  557.74   20.80
  -2  -7   1  506.55   21.40
  -2  -7   1  545.25   22.10
   2  -7  -1  517.35   21.10
   2  -7  -1  528.55   21.00
  -2  -7   1  549.05   22.10
  -2  -7   1  504.35   21.70
   2  -7  -1  507.15   22.60
  -2  -7   1  557.14   22.80
   2   7  -1  561.44   20.90
   2   7  -1  510.05   21.00
   2   7  -1  560.14   21.20
  -2   7   1  501.75   24.00
   2   7  -1  555.34   22.50
  -1  -7   1  551.14   22.00
  -1  -7   1  484.75   21.80
   1  -7  -1  517.55   26.30
  -1  -7   1  506.55   27.60
   1  -7  -1  520.75   21.00
   1  -7  -1  548.45   20.70
   1  -7  -1  583.84   22.40
  -1  -7   1  553.04   21.70
   1   7  -1  520.25   19.10
   1   7  -1  502.45   20.60
  -1   7   1  448.96   26.30
  -1   7   1  480.65   19.20
   1   7  -1  502.95   19.20
   1   7  -1  523.25   19.40
   1   7  -1  460.65   21.40
   1   7  -1  484.95   23.20
   0  -7   1  180.68   13.20
   0  -7  -1  195.08    8.40
   0  -7  -1  170.48   13.00
   0   7  -1  195.68    7.70
   0   7  -1  183.88    9.50
   0   7   1  192.18    7.70
   0   7  -1  203.08    7.80
   0   7   1  180.78    9.60
   0   7  -1  184.28    9.90
   0   7   1  185.78    9.70
   0   7   1  181.88   12.10
   0   7   1  198.18    7.80
   0   7   1  169.18   12.70
   0   7  -1  186.08    7.90
   0   7   1  193.08    8.00
   0   7  -1  186.88   12.10
   1  -7   1  240.08    9.40
  -1  -7  -1  229.98   11.00
  -1  -7  -1  241.18   10.60
   1  -7   1  229.48   15.20
   1  -7   1  221.78    9.70
   1  -7   1  229.48    9.50
  -1  -7  -1  249.88   11.40
  -1  -7  -1  240.18   10.90
   1   7   1  268.47   10.80
   1   7   1  266.17   12.20
   1   7   1  271.27   10.60
   1   7   1  280.67   10.90
   1   7   1  244.08   13.50
   2  -7   1  616.34   26.60
   2  -7   1  654.13   24.80
  -2  -7  -1  656.53   26.00
  -2  -7  -1  640.74   26.40
  -2  -7  -1  632.24   25.40
  -2  -7  -1  650.93   25.80
  -2  -7  -1  625.84   25.60
   2  -7   1  643.84   24.80
  -2  -7  -1  650.33   26.20
   2  -7   1  629.54   25.10
   2  -7   1  617.44   25.10
   2   7   1  601.84   22.50
  -2   7  -1  500.85   25.90
   2   7   1  556.54   22.40
   2   7   1  604.44   23.80
   2   7   1  599.84   22.30
  -3  -7  -1  409.36   17.30
  -3  -7  -1  399.26   18.60
   3  -7   1  403.66   19.10
   3  -7   1  412.66   16.20
  -3  -7  -1  395.06   17.10
   3  -7   1  398.16   16.40
   3  -7   1  419.66   18.10
   3  -7   1  398.06   16.10
  -3  -7  -1  385.46   21.20
  -3  -7  -1  411.76   16.80
  -3  -7  -1  404.86   17.00
  -3   7  -1  429.66   21.20
   3   7   1  419.06   17.00
  -3   7  -1  452.25   20.70
   3   7   1  410.96   16.70
   4  -7   1   33.00    3.10
   4  -7   1   23.80    4.10
  -4  -7  -1   29.30    4.20
   4  -7   1   27.00    2.70
  -4  -7  -1   29.70    4.90
   4  -7   1   24.40    4.10
  -4  -7  -1   31.00    3.90
   4  -7   1   27.10    8.00
  -4  -7  -1   33.70    3.80
  -4  -7  -1   21.80    4.90
   4   7   1   24.70    3.10
  -4   7  -1   26.80    4.10
   4   7   1   22.30    5.00
   4   7   1   25.20    2.70
  -5  -7  -1    1.50    2.20
   5  -7   1    0.90    1.90
   5  -7   1    1.30    2.00
   5  -7   1    1.80    1.50
  -5  -7  -1    5.20    1.90
  -5  -7  -1   -1.10    2.00
  -5   7  -1    0.80    1.90
  -5  -8   1   73.89    5.30
  -5  -8   1   82.69    4.80
  -5  -8   1   82.89    4.50
   5  -8  -1   78.89    4.80
  -5  -8   1   93.79    4.90
   5  -8  -1   86.49    4.40
   5  -8  -1   81.79    4.20
  -5   8   1   98.69    5.40
  -4  -8   1  119.69    6.30
  -4  -8   1  121.39    6.90
  -4  -8   1  118.99    6.70
   4  -8  -1  111.19    7.00
   4  -8  -1  117.69    5.50
   4  -8  -1  117.29    5.60
   4  -8  -1  109.39    7.50
  -4  -8   1  131.29    6.50
   4  -8  -1  116.49    5.90
   4   8  -1  129.09    5.80
  -4   8   1  125.29    6.90
   4   8  -1  126.29    6.40
   3  -8  -1  530.35   20.50
  -3  -8   1  487.55   20.20
   3  -8  -1  537.25   20.30
  -3  -8   1  510.45   21.50
  -3  -8   1  471.55   22.80
  -3  -8   1  519.95   20.90
  -3  -8   1  504.85   21.30
   3  -8  -1  509.95   20.80
  -3  -8   1  520.75   21.20
   3  -8  -1  547.35   20.30
   3   8  -1  493.25   20.00
   3   8  -1  517.55   22.20
  -3   8   1  493.45   20.90
   3   8  -1  540.75   20.20
  -3   8   1  458.05   22.90
   3   8  -1  524.05   19.80
   2  -8  -1  169.88    7.20
   2  -8  -1  164.98    7.30
  -2  -8   1  174.48    8.90
   2  -8  -1  175.18    8.70
  -2  -8   1  168.08    8.10
  -2  -8   1  172.88    8.80
  -2  -8   1  176.68    9.90
  -2  -8   1  174.78    8.60
  -2  -8   1  162.48    7.40
   2  -8  -1  172.48    7.60
   2   8  -1  173.28    7.00
  -2   8   1  169.58   11.10
   2   8  -1  170.98    9.50
   2   8  -1  158.38    7.20
   2   8  -1  167.18    7.40
  -1  -8   1  448.36   20.00
  -1  -8   1  499.25   18.90
  -1  -8   1  473.25   20.20
  -1  -8   1  478.55   20.30
   1  -8  -1  475.35   19.00
  -1  -8   1  506.45   20.20
  -1  -8   1  466.75   19.60
   1  -8  -1  479.45   20.00
   1  -8  -1  523.95   18.90
   1   8  -1  502.05   19.20
   1   8  -1  430.36   19.30
   1   8  -1  489.45   20.90
   1   8  -1  495.05   18.90
   1   8  -1  495.75   19.00
   0  -8   1  975.00   37.70
   0  -8  -1  990.00   38.60
   0  -8   1 1008.90   38.80
   0  -8  -1  929.61   38.30
   0  -8  -1  975.40   39.00
   0  -8  -1 1024.80   38.80
   0  -8  -1  989.80   37.70
   0  -8   1  959.90   38.30
   0   8   1 1009.50   37.90
   0   8  -1 1011.70   37.90
   0   8   1  959.30   38.20
   0   8  -1  905.31   38.10
   0   8  -1 1025.50   38.00
   0   8   1 1013.00   38.00
   0   8   1  969.30   40.00
  -1  -8  -1  419.86   17.30
   1  -8   1  411.56   17.20
  -1  -8  -1  430.56   17.30
  -1  -8  -1  413.16   15.90
   1  -8   1  416.86   16.00
  -1  -8  -1  393.76   17.30
  -1  -8  -1  394.36   16.60
  -1  -8  -1  391.46   17.10
   1  -8   1  408.36   16.10
   1  -8   1  369.16   16.70
  -1  -8  -1  407.26   17.20
   1   8   1  415.96   18.10
   1   8   1  412.86   16.00
   1   8   1  368.86   16.60
   1   8   1  405.06   16.10
   1   8   1  432.76   16.40
  -2  -8  -1  163.68    8.80
   2  -8   1  149.99    6.80
   2  -8   1  147.09    6.40
  -2  -8  -1  144.09    8.30
  -2  -8  -1  150.18    7.90
  -2  -8  -1  144.69    8.00
  -2  -8  -1  141.39    7.30
   2  -8   1  144.19    6.40
  -2  -8  -1  144.29    7.60
  -2  -8  -1  135.39    6.50
   2   8   1  121.69    5.70
   2   8   1  128.69    5.50
  -2   8  -1  117.19   10.80
   2   8   1  124.59    5.80
   2   8   1  131.79    8.20
  -3  -8  -1  129.29    6.80
  -3  -8  -1  137.69    7.10
  -3  -8  -1  137.49    9.20
   3  -8   1  135.99    6.00
  -3  -8  -1  120.89    7.40
   3  -8   1  134.69    6.50
  -3  -8  -1  143.19    7.50
   3  -8   1  138.29    6.00
   3  -8   1  123.29    7.10
  -3  -8  -1  121.29    6.20
   3   8   1  136.29    6.30
  -3   8  -1  117.19    7.80
   3   8   1  130.09    6.40
   3   8   1  130.79    9.10
   3   8   1  139.99    5.90
  -3   8  -1  145.29   11.10
  -4  -8  -1  196.58    9.50
   4  -8   1  192.98   10.00
   4  -8   1  199.78    8.50
  -4  -8  -1  199.38    9.20
  -4  -8  -1  205.88    9.10
   4  -8   1  202.38    8.50
   4  -8   1  205.18    8.90
  -4   8  -1  205.28    9.70
   4   8   1  196.18    8.30
   4   8   1  190.88    8.80
  -5  -8  -1   63.99    3.80
  -5  -8  -1   54.99    4.10
   5  -8   1   56.69    3.30
   5  -8   1   54.79    5.00
   5  -8   1   60.29    3.70
  -5  -8  -1   56.69    3.60
  -5   8  -1   67.39    4.50
  -5  -9   1    1.80    1.40
  -5  -9   1    3.60    1.90
   5  -9  -1    3.70    1.70
  -5  -9   1    1.40    1.30
  -5  -9   1    2.80    2.10
  -5   9   1    3.70    2.20
  -4  -9   1   44.40    4.30
   4  -9  -1   50.39    4.50
  -4  -9   1   42.50    2.90
   4  -9  -1   49.50    3.30
  -4  -9   1   54.09    3.80
   4  -9  -1   45.00    3.10
   4  -9  -1   52.89    4.60
  -4  -9   1   47.00    3.90
  -4  -9   1   48.00    4.20
   4   9  -1   47.50    3.70
  -4   9   1   38.70    7.30
  -4   9   1   42.40    4.50
   4   9  -1   43.80    3.00
   4   9  -1   48.10    4.30
  -3  -9   1  102.79    8.80
  -3  -9   1  113.29    6.30
  -3  -9   1  104.99    6.50
  -3  -9   1  109.69    5.00
   3  -9  -1  102.99    5.60
   3  -9  -1   99.99    6.60
  -3  -9   1  104.79    6.00
  -3  -9   1  108.29    6.60
   3  -9  -1  106.79    5.30
   3  -9  -1  106.59    5.10
   3   9  -1   91.49    4.80
   3   9  -1   96.59    4.30
  -3   9   1   74.59    8.40
   3   9  -1   73.79    9.50
  -2  -9   1   70.29    4.80
  -2  -9   1   74.89    6.60
  -2  -9   1   69.59    5.50
   2  -9  -1   61.69    3.70
   2  -9  -1   76.99    5.70
   2  -9  -1   72.89    4.10
  -2  -9   1   65.89    5.30
  -2  -9   1   69.79    5.70
  -2  -9   1   71.99    3.80
   2   9  -1   43.60    4.20
   2   9  -1   55.69    7.90
   2   9  -1   49.10    3.60
   2   9  -1   52.19    2.90
  -2   9   1   60.39    7.50
   2   9  -1   50.29    3.20
  -1  -9   1  313.77   14.10
   1  -9  -1  326.77   14.50
   1  -9  -1  306.97   12.50
  -1  -9   1  292.87   13.70
  -1  -9   1  325.27   13.20
  -1  -9   1  318.57   15.00
   1   9  -1  315.77   12.80
   1   9  -1  297.57   15.50
   1   9  -1  288.47   13.00
   1   9  -1  313.47   12.40
   1   9  -1  322.07   12.40
   0  -9  -1    4.00    2.30
   0  -9  -1    7.20    3.20
   0  -9   1    4.20    2.10
   0  -9   1    3.00    1.20
   0  -9   1    0.70    2.40
   0  -9  -1    5.70    1.30
   0  -9  -1    4.10    2.30
   0   9  -1    2.50    1.10
   0   9  -1    2.40    1.60
   0   9   1    5.20    1.50
   0   9  -1    4.80    1.60
   0   9   1    4.30    1.70
   0   9   1    3.50    1.20
  -1  -9  -1  245.38    9.90
  -1  -9  -1  245.18   11.20
  -1  -9  -1  254.97   12.50
  -1  -9  -1  245.98   12.00
   1  -9   1  246.28   11.30
   1  -9   1  228.28   10.80
   1   9   1  241.18   10.10
   1   9   1  244.78   10.10
   1   9   1  254.67   10.60
   1   9   1  251.47   10.90
   1   9   1  230.18   13.30
  -2  -9  -1  608.44   24.80
   2  -9   1  618.94   24.10
   2  -9   1  637.74   25.20
   2  -9   1  606.14   23.80
  -2  -9  -1  602.74   23.80
  -2  -9  -1  618.24   25.60
  -2  -9  -1  618.04   25.10
  -2  -9  -1  611.84   25.20
  -2  -9  -1  606.14   24.60
   2   9   1  618.44   23.80
   2   9   1  550.14   24.30
   2   9   1  623.44   23.70
  -2   9  -1  593.34   26.50
   2   9   1  642.14   24.20
   2   9   1  616.84   26.50
   3  -9   1  191.58    7.90
   3  -9   1  191.78    8.10
  -3  -9  -1  184.48    9.10
  -3  -9  -1  178.38    7.80
   3  -9   1  195.58    9.30
  -3  -9  -1  183.88    8.80
  -3  -9  -1  185.98   10.30
   3  -9   1  182.48    8.20
  -3  -9  -1  191.08    8.70
  -3  -9  -1  172.58    9.20
   3   9   1  207.88    8.80
   3   9   1  209.38    9.10
   3   9   1  205.88   13.10
   3   9   1  203.68    8.50
  -3   9  -1  193.88   12.00
   4  -9   1   46.70    3.30
  -4  -9  -1   46.20    3.50
  -4  -9  -1   45.10    2.90
   4  -9   1   56.79    4.40
   4  -9   1   48.80    3.10
  -4  -9  -1   52.99    3.70
   4  -9   1   36.10    4.50
  -4  -9  -1   44.40    6.60
  -4  -9  -1   47.40    4.10
   4   9   1   48.40    3.20
  -4   9  -1   48.70    4.70
   4   9   1   44.00    3.80
  -4 -10   1   63.59    3.20
   4 -10  -1   65.19    4.90
  -4 -10   1   69.09    4.40
  -4 -10   1   68.79    3.90
  -4 -10   1   67.09    4.00
   4 -10  -1   66.19    3.40
   4  10  -1   61.09    3.50
   4  10  -1   52.59    3.50
  -3 -10   1   52.09    4.50
  -3 -10   1   42.00    6.40
  -3 -10   1   49.99    3.90
   3 -10  -1   53.09    3.20
  -3 -10   1   42.80    4.40
   3 -10  -1   59.19    4.70
  -3 -10   1   49.40    3.00
   3 -10  -1   58.69    6.20
  -3 -10   1   46.80    4.20
   3  10  -1   50.39    3.20
  -3  10   1   55.99    8.00
   3  10  -1   48.90    3.00
   3  10  -1   49.50    4.40
   3  10  -1   50.09    4.60
  -2 -10   1    3.80    2.40
  -2 -10   1    1.90    3.10
   2 -10  -1    1.70    1.40
  -2 -10   1    3.10    2.10
  -2 -10   1    1.20    1.20
  -2 -10   1    0.70    2.30
   2 -10  -1    4.40    2.70
   2  10  -1    1.90    1.70
   2  10  -1   -5.50    6.90
   2  10  -1    2.10    1.20
  -2  10   1   -0.30    3.50
   2  10  -1    2.90    1.40
   1 -10  -1  160.28    8.30
  -1 -10   1  157.38    8.50
  -1 -10   1  163.98    7.60
  -1 -10   1  155.38    6.60
  -1 -10   1  160.48    8.60
  -1 -10   1  142.59    8.20
   1  10  -1  132.19    5.90
   1  10  -1  130.69    5.90
  -1  10   1  133.49    8.90
   1  10  -1  127.69    7.00
   1  10  -1  131.19    6.30
   0 -10   1   77.19    5.70
   0 -10   1   79.69    5.10
   0 -10  -1   87.39    5.80
   0 -10  -1   79.39    7.20
   0 -10  -1   82.99    5.40
   0 -10  -1   80.79    4.10
   0 -10   1   82.89    4.10
   0  10  -1   99.19    4.70
   0  10   1   93.19    4.60
  -1 -10  -1   97.29    6.70
   1 -10   1  101.39    6.20
  -1 -10  -1  110.59    4.70
  -1 -10  -1  107.49    6.50
  -1 -10  -1   93.09    5.70
   1 -10   1   99.59    6.50
  -1 -10  -1   94.39    6.30
   1  10   1   86.29    4.20
   1  10   1   79.09    4.80
   1  10   1   86.99    4.20
   1  10   1   78.09    5.20
  -2 -10  -1   38.20    3.90
  -2 -10  -1   40.50    3.90
  -2 -10  -1   40.80    2.70
   2 -10   1   45.50    4.70
   2 -10   1   36.00    3.00
  -2 -10  -1   36.60    5.40
  -2 -10  -1   41.90    4.50
   2  10   1   34.20    3.70
  -2  10  -1   34.60    6.60
   2  10   1   44.80    8.50
   2  10   1   41.30    3.00
   2  10   1   39.40    2.70
   2  10   1   39.10    5.20
  -3 -10  -1   30.50    3.40
  -3 -10  -1   35.50    4.30
   3 -10   1   33.10    2.90
  -3 -10  -1   39.60    5.50
  -3 -10  -1   37.30    5.60
   3 -10   1   30.50    3.30
   3 -10   1   42.50    5.80
   3  10   1   25.70    3.10
  -3  10  -1   24.50    4.80
   3  10   1   27.00    4.10
   3  10   1   30.30    2.40
   3  10   1   30.60    2.70
  -4 -10  -1   99.59    4.80
   4 -10   1  102.89    5.50
  -4 -10  -1   85.29    5.10
  -4 -10  -1   91.39    4.20
   4 -10   1  100.59    4.40
  -4 -10  -1   97.89    4.90
   4  10   1   90.79    4.60
   4  10   1   94.39    4.70
  -3 -11   1  138.19    6.20
  -3 -11   1  131.99    5.50
  -3 -11   1  133.99    6.40
   3 -11  -1  129.29    6.70
  -3 -11   1  131.29    6.70
  -3 -11   1  115.89    8.00
  -3  11   1  115.79    7.70
   3  11  -1  123.19    5.60
   3  11  -1  130.89    6.00
   3  11  -1  121.99    5.50
  -2 -11   1  111.19    7.50
  -2 -11   1  105.89    9.60
   2 -11  -1  119.99    6.60
  -2 -11   1  128.19   10.00
  -2 -11   1  112.09    5.00
  -2 -11   1  115.89    6.00
   2  11  -1   98.09    7.10
  -2  11   1  104.69   10.60
   2  11  -1  115.19    5.70
   2  11  -1  107.49    5.00
   2  11  -1  106.59    5.10
  -1 -11   1   49.99    4.00
   1 -11  -1   49.10    4.40
  -1 -11   1   48.20    2.80
  -1 -11   1   52.09    5.40
  -1 -11   1   44.70    5.00
   1  11  -1   50.59    4.00
   1  11  -1   50.89    3.50
   1  11  -1   49.80    3.20
  -1  11   1   53.59    5.60
   0 -11   1   21.90    3.50
   0 -11   1   20.40    3.80
   0 -11  -1   15.20    2.60
   0 -11  -1   23.20    4.00
  -1 -11  -1  107.49    6.70
   1 -11   1  111.89    6.40
  -1 -11  -1  104.49    4.80
  -1 -11  -1  107.19    6.80
  -1 -11  -1  109.69    5.90
   1  11   1   96.49    4.60
  -1  11  -1   92.89    7.20
   1  11   1   97.99    5.10
  -2 -11  -1  234.18   10.70
   2 -11   1  236.58   11.20
  -2 -11  -1  236.68    9.80
  -2 -11  -1  277.07   11.20
   2  11   1  236.68    9.30
   2  11   1  225.18    9.20
  -2  11  -1  220.68   11.50
   2  11   1  205.78   10.60
  -3 -11  -1   55.39    4.00
  -3 -11  -1   53.79    3.50
  -3 -11  -1   51.59    3.70
  -3 -11  -1   50.49    2.70
  -3 -11  -1   47.90    5.00
   3 -11   1   57.19    4.30
   3  11   1   54.09    3.30
   3  11   1   59.19    3.50
  -3 -12   1   22.20    3.50
  -3 -12   1   19.70    2.20
   3 -12  -1   18.60    2.90
  -3 -12   1   20.00    3.00
  -3 -12   1   21.90    1.60
  -3  12   1   20.30    4.20
   3  12  -1   19.50    2.30
  -2 -12   1   13.30    1.80
   2 -12  -1   14.10    2.40
  -2 -12   1   22.10    3.70
  -2 -12   1   11.50    1.80
  -2 -12   1   15.30    2.80
  -2 -12   1   12.30    2.90
   2  12  -1   15.30    2.10
  -2  12   1   10.00    2.90
  -1 -12   1   70.59    4.40
  -1 -12   1   67.49    3.50
   1 -12  -1   69.19    4.70
  -1 -12   1   61.29    5.20
  -1  12   1   69.39    5.40
   1  12  -1   67.29    4.00
   0 -12  -1   36.10    4.30
   0 -12  -1   33.60    4.20
   0 -12   1   39.20    4.40
   0 -12   1   37.20    3.90
   0  12  -1   46.00    5.20
   0  12   1   40.40    5.10
  -1 -12  -1   37.50    4.10
  -1 -12  -1   33.30    3.40
  -1 -12  -1   36.80    2.50
   1 -12   1   33.20    3.80
   1  12   1   43.30    3.20
  -1  12  -1   33.40    4.90
  -2 -12  -1    2.70    2.10
  -2 -12  -1    3.50    1.10
   2 -12   1    3.60    1.80
  -2 -12  -1    6.60    2.40
  -2 -12  -1    8.10    2.40
  -2  12  -1    0.60    3.10
   2  12   1    3.80    1.30
  -3 -12  -1    4.20    0.90
  -3 -12  -1    2.40    1.80
   3 -12   1    5.40    2.00
  -3 -12  -1    7.90    3.20
  -3 -12  -1    2.70    1.30
  -3 -12  -1    2.90    1.70
   3  12   1    4.40    2.40
   3  12   1    2.70    1.40
  -1 -13   1   25.00    3.00
   1 -13  -1   26.60    3.30
  -1 -13   1   24.30    3.40
   1  13  -1   30.50    3.50
  -1  13   1   25.20    3.60
   0 -13  -1    3.90    2.00
   0 -13   1    1.20    2.00
   0 -13   1    1.20    3.60
   0  13   1    1.30    1.80
   0  13  -1    1.70    2.10
   1 -13   1   15.10    2.90
  -1 -13  -1    9.50    2.70
  -1 -13  -1   11.20    2.40
  -1  13  -1    6.00    2.50
  -6   0   2   63.29    5.20
  -5   0   2  385.06   16.70
  -5   0   2  385.66   17.60
   5   0  -2  393.76   16.80
   5   0  -2  386.66   15.60
  -4   0   2  675.33   28.10
   4   0  -2  693.33   27.10
  -4   0   2  696.73   28.80
   3   0  -2  476.75   18.20
   3   0  -2  478.45   18.80
   3   0  -2  464.75   20.40
   3   0  -2  454.45   18.10
   3   0  -2  442.66   19.20
   3   0  -2  450.05   22.70
   2   0  -2 1053.09   41.90
   2   0  -2 1010.40   39.50
   2   0  -2 1038.40   39.90
   2   0  -2 1042.90   39.50
  -2   0   2  979.00   40.10
   0   0  -2  994.90   38.70
   0   0  -2  971.80   38.80
   0   0   2  964.30   38.80
   0   0   2 1029.20   39.10
   0   0  -2 1015.00   39.00
   0   0  -2 1010.80   39.00
   0   0   2 1033.60   38.80
   0   0   2 1038.50   39.00
   0   0  -2 1075.49   38.80
   1   0   2 3604.44  138.09
   1   0   2 3628.94  137.39
  -1   0  -2 3593.14  138.09
   2   0   2  353.86   14.00
  -2   0  -2  334.27   13.90
   2   0   2  350.16   15.30
   2   0   2  356.86   16.00
   2   0   2  355.96   14.10
   2   0   2  338.47   14.90
   2   0   2  345.97   14.40
   2   0   2  366.06   14.30
  -3   0  -2  145.89    6.40
   3   0   2  131.89    9.90
  -4   0  -2  444.56   19.20
   4   0   2  449.86   17.50
  -4   0  -2  419.46   19.00
   5   0   2  138.29    8.50
  -5   0  -2  149.69    8.50
  -5   0  -2  157.18    9.10
   5   0   2  125.89    7.40
  -6   0  -2  278.57   12.40
  -6   1   2    8.20    2.30
  -5  -1   2   -2.00    4.30
  -5  -1   2    3.70    3.30
   5  -1  -2    5.80    2.00
   5  -1  -2    4.10    4.20
  -5   1   2    6.30    2.70
  -5   1   2   11.30    4.90
  -4  -1   2  292.97   15.30
   4  -1  -2  283.27   11.30
  -4  -1   2  254.97   13.60
  -4  -1   2  286.47   14.30
   4  -1  -2  297.67   12.20
  -4   1   2  306.77   15.30
  -4   1   2  302.67   13.90
   3  -1  -2  615.64   26.60
   3  -1  -2  625.24   24.30
   3  -1  -2  628.34   28.60
   3  -1  -2  611.14   24.90
   3  -1  -2  641.74   24.30
   3  -1  -2  642.84   24.40
   3  -1  -2  590.64   25.00
   3   1  -2  613.84   28.50
   3   1  -2  599.34   24.80
   3   1  -2  646.04   24.30
   3   1  -2  557.64   25.50
   3   1  -2  566.24   25.00
   2  -1  -2 3708.43  139.09
   2  -1  -2 3670.63  136.69
   2  -1  -2 3527.15  136.69
   2  -1  -2 3611.34  138.59
   2  -1  -2 3625.24  137.29
  -2  -1   2 3648.03  137.19
   2  -1  -2 3612.74  136.79
   2  -1  -2 3615.04  139.19
   2  -1  -2 3655.23  136.79
   2  -1  -2 3274.27  136.69
   2   1  -2 3414.06  131.39
   2   1  -2 3591.34  131.89
  -2   1   2 3340.77  131.49
   2   1  -2 3517.95  131.69
   2   1  -2 3511.15  134.19
   2   1  -2 3344.67  131.99
   2   1  -2 3444.76  134.09
  -2   1   2 3435.66  132.19
  -1   1   2   34.60    3.20
   0  -1  -2  507.15   20.80
   0  -1  -2  557.34   21.10
   0  -1  -2  507.85   20.70
   0  -1  -2  549.35   21.30
   0  -1   2  547.45   20.80
   0  -1  -2  549.65   20.80
   0  -1  -2  571.24   22.00
   0  -1   2  512.55   20.80
   0  -1   2  552.54   21.10
   0  -1   2  535.55   21.00
   0  -1  -2  550.44   21.10
   0   1  -2  574.84   20.90
   0   1  -2  567.54   21.20
   0   1   2  524.55   20.90
   0   1   2  539.15   21.50
   0   1   2  567.14   22.10
   0   1   2  536.55   21.20
   0   1  -2  541.55   21.00
   0   1  -2  534.15   21.20
   0   1  -2  504.25   20.80
   0   1  -2  544.55   21.20
   0   1   2  529.15   21.10
   0   1   2  555.84   20.90
  -1  -1  -2  671.13   24.20
   1  -1   2  636.04   23.30
  -1  -1  -2  620.14   23.50
   1  -1   2  641.04   24.30
  -1  -1  -2  599.24   23.20
  -1  -1  -2  581.64   23.20
   1  -1   2  547.25   23.50
   1  -1   2  529.15   23.10
   1  -1   2  667.03   23.30
   1  -1   2  524.35   22.90
  -1   1  -2  511.15   22.60
   1   1   2  576.64   23.30
  -1   1  -2  579.84   22.20
   1   1   2  629.14   23.60
   1   1   2  590.04   23.00
  -1   1  -2  579.74   23.30
   1   1   2  561.24   22.50
  -1   1  -2  611.84   22.50
  -2  -1  -2  862.51   32.20
   2  -1   2  859.31   32.90
   2  -1   2  842.82   34.10
   2  -1   2  816.62   32.80
   2  -1   2  813.72   31.80
   2  -1   2  796.12   32.50
   2  -1   2  807.32   32.00
   2  -1   2  827.92   32.50
   2  -1   2  847.02   32.30
   2   1   2  939.51   36.20
  -2   1  -2  961.80   36.60
   2   1   2  904.01   35.30
  -2   1  -2  876.41   34.90
   2   1   2  844.22   36.70
   2   1   2  879.91   34.70
  -2   1  -2  886.21   34.50
   3  -1   2  663.53   27.10
   3  -1   2  677.73   26.70
   3  -1   2  672.23   27.10
  -3  -1  -2  712.83   27.00
   3   1   2  751.92   34.10
   3   1   2  810.02   33.90
  -4  -1  -2  349.17   16.30
   4  -1   2  342.17   13.50
  -4  -1  -2  319.47   14.90
  -4  -1  -2  345.27   15.90
   4  -1   2  364.26   14.30
  -4   1  -2  360.76   16.50
  -4   1  -2  383.96   16.60
  -5  -1  -2   74.19    7.60
  -5  -1  -2   70.69    6.50
   5  -1   2   65.29    7.00
   5  -1   2   66.19    4.20
  -5   1  -2   70.99    6.80
  -5   1  -2   70.99    6.10
  -6   1  -2   39.80    4.50
   6  -2  -2   65.59    4.70
  -6   2   2   71.69    4.80
   5  -2  -2  323.67   15.40
   5  -2  -2  337.47   13.50
  -5  -2   2  346.07   16.10
  -5  -2   2  313.47   15.00
   5  -2  -2  329.07   13.40
  -5   2   2  345.27   15.00
  -5   2   2  336.07   16.40
   4  -2  -2  341.57   13.60
  -4  -2   2  338.27   15.80
  -4  -2   2  331.07   15.90
   4  -2  -2  347.57   14.60
  -4   2   2  359.46   15.30
  -4   2   2  325.67   17.00
   3  -2  -2  353.86   15.80
   3  -2  -2  327.47   20.80
   3  -2  -2  367.06   14.00
   3  -2  -2  382.16   14.80
   3  -2  -2  378.66   18.90
   3  -2  -2  338.47   15.80
  -3   2   2  353.76   17.30
   3   2  -2  387.06   16.20
   3   2  -2  369.76   20.70
   3   2  -2  360.16   16.20
   2  -2  -2  748.43   28.40
   2  -2  -2  731.83   28.40
  -2  -2   2  728.13   29.60
   2  -2  -2  677.93   30.10
   2  -2  -2  708.53   29.80
   2  -2  -2  651.23   27.20
   2  -2  -2  738.63   27.70
   2  -2  -2  720.13   28.30
  -2  -2   2  682.43   27.60
   2   2  -2  712.63   27.20
   2   2  -2  648.74   29.40
  -2   2   2  688.63   27.60
   2   2  -2  702.23   27.10
  -2   2   2  705.43   27.20
  -2   2   2  628.84   29.50
   2   2  -2  645.24   27.50
   2   2  -2  739.33   26.80
   1  -2  -2 1863.01   71.09
  -1  -2   2 1834.12   71.29
   1  -2  -2 1739.33   70.69
  -1  -2   2 1925.31   71.29
  -1  -2   2 1724.73   70.89
   1  -2  -2 1774.62   70.69
  -1  -2   2 1870.11   71.19
   1  -2  -2 1851.01   71.29
   1  -2  -2 1952.80   73.09
  -1  -2   2 1878.11   71.29
   1  -2  -2 1943.91   72.29
   1  -2  -2 1949.20   71.59
   1   2  -2 1834.02   70.29
  -1   2   2 1789.12   70.79
   1   2  -2 1830.72   70.59
   1   2  -2 1757.52   69.99
  -1   2   2 1882.61   72.19
  -1   2   2 1933.91   72.59
   1   2  -2 1817.62   70.69
   1   2  -2 1996.00   72.09
   1   2  -2 1912.81   70.69
   1   2  -2 1687.13   70.29
   0  -2  -2 5814.82  222.58
   0   2   2 5810.22  222.48
   1   2   2 6919.71  265.27
   2  -2   2  267.47   11.60
   2  -2   2  265.97   10.60
   2  -2   2  258.17   10.70
  -2  -2  -2  267.87   10.90
   2  -2   2  284.67   11.50
   2  -2   2  256.77   13.10
   2  -2   2  242.78   13.70
   2  -2   2  253.47   11.00
   2  -2   2  262.47   10.20
   2   2   2  228.88   12.60
  -2   2  -2  249.68   11.80
   2   2   2  244.18    9.80
   2   2   2  243.18   10.90
   2   2   2  248.28   12.10
   2   2   2  234.38   11.50
  -2   2  -2  229.88    9.80
   3  -2   2  115.69    4.90
   3  -2   2  120.59    5.60
  -3  -2  -2  119.09    6.00
  -3   2  -2   95.19    9.90
   3   2   2  103.39    9.60
   3   2   2  113.19   11.90
  -4  -2  -2  711.13   29.40
  -4  -2  -2  748.23   28.90
  -4  -2  -2  742.43   30.10
  -4  -2  -2  707.03   30.60
   4  -2   2  764.52   28.90
  -4  -2  -2  659.63   29.00
   4  -2   2  740.73   28.00
  -4   2  -2  739.73   30.60
  -4   2  -2  758.02   30.30
  -5  -2  -2  257.97   13.50
   5  -2   2  270.27   13.20
   5  -2   2  272.27   11.20
  -5   2  -2  238.58   11.30
  -5   2  -2  215.98   11.00
  -6   2  -2   34.20    4.20
   6  -3  -2    6.90    2.30
  -6   3   2    8.80    2.10
  -5  -3   2    4.10    3.20
  -5  -3   2   -4.20    3.40
   5  -3  -2    1.00    4.90
   5  -3  -2    4.10    1.90
   5  -3  -2    2.00    1.80
  -5   3   2    9.80    5.00
  -5   3   2    3.50    2.40
   4  -3  -2  204.38    8.50
  -4  -3   2  190.58   10.10
  -4  -3   2  209.28   10.90
   4  -3  -2  211.68   10.10
   4  -3  -2  191.98    8.30
  -4  -3   2  206.48   10.90
  -4   3   2  207.18   10.30
  -4   3   2  207.88   13.10
   3  -3  -2  921.61   34.50
   3  -3  -2  878.11   38.70
   3  -3  -2  819.12   34.70
   3  -3  -2  964.40   35.30
   3   3  -2  785.72   37.40
  -3   3   2  817.82   34.50
   3   3  -2  862.51   32.90
   3   3  -2  732.13   33.40
   2  -3  -2 2468.15   98.39
   2  -3  -2 2287.07   94.29
   2  -3  -2 2573.04   95.99
  -2  -3   2 2375.16   94.79
   2  -3  -2 2523.65   96.99
   2  -3  -2 2483.15   94.89
   2  -3  -2 2495.65   95.79
   2  -3  -2 2645.04   95.99
   2  -3  -2 2450.45   94.19
  -2   3   2 2503.25   96.29
   2   3  -2 2383.36   95.09
   2   3  -2 2540.35   95.99
   2   3  -2 2476.55   94.99
  -2   3   2 2588.74   96.69
  -2   3   2 2270.27   98.79
   2   3  -2 2542.35   95.69
   2   3  -2 2643.04   96.09
  -1  -3   2 1625.34   64.09
  -1  -3   2 1572.54   63.69
   1  -3  -2 1748.33   65.19
   1  -3  -2 1678.03   64.39
   1  -3  -2 1709.03   64.69
   1  -3  -2 1647.34   63.79
  -1  -3   2 1630.24   65.49
   1  -3  -2 1641.74   63.29
  -1  -3   2 1728.13   64.39
   1  -3  -2 1611.64   63.39
   1  -3  -2 1688.83   66.69
   1  -3  -2 1607.44   63.39
  -1  -3   2 1678.53   64.19
   1  -3  -2 1724.33   64.59
  -1   3   2 1648.04   64.09
  -1   3   2 1713.03   64.29
   1   3  -2 1625.84   63.69
   1   3  -2 1712.73   65.19
   1   3  -2 1549.45   64.09
  -1   3   2 1734.83   65.79
   1   3  -2 1592.84   62.89
   1   3  -2 1682.83   63.79
  -1   3   2 1627.54   62.99
  -1   3   2 1638.84   62.99
   1   3  -2 1668.03   63.29
  -1   3   2 1741.33   66.49
  -1   3   2 1576.94   63.39
   0  -3   2  306.27   12.80
   0  -3   2  331.87   13.50
   0  -3   2  293.57   13.30
   0  -3   2  324.57   13.80
   0  -3   2  328.67   13.50
   0  -3  -2  328.87   13.50
   0  -3  -2  317.07   12.70
   0  -3  -2  333.77   15.40
   0  -3  -2  321.67   12.90
   0  -3  -2  341.77   14.20
   0  -3   2  320.37   12.50
   0  -3  -2  326.27   13.60
   0  -3  -2  316.67   13.50
   0  -3   2  334.27   13.70
   0   3  -2  334.07   13.60
   0   3  -2  333.97   13.10
   0   3   2  323.67   13.00
   0   3   2  334.07   15.50
   0   3   2  333.67   14.30
   0   3   2  334.37   13.60
   0   3   2  333.47   12.70
   0   3  -2  329.77   14.00
   0   3   2  314.77   13.60
   0   3  -2  322.47   12.70
   0   3   2  319.87   13.10
   0   3  -2  315.27   13.10
   0   3  -2  321.17   13.70
   1  -3   2 6250.17  244.38
   1  -3   2 6484.75  244.18
   1  -3   2 6177.18  243.28
  -1  -3  -2 6466.05  245.38
  -1  -3  -2 6603.64  245.38
   1  -3   2 6445.16  244.28
  -1  -3  -2 6365.96  243.68
   1   3   2 6279.77  221.78
  -1   3  -2 5353.86  223.98
   2  -3   2 1320.47   49.20
   2  -3   2 1254.57   50.39
   2  -3   2 1254.97   48.60
   2  -3   2 1224.68   48.60
  -2  -3  -2 1240.38   49.30
   2  -3   2 1241.88   49.50
   2  -3   2 1374.06   50.29
   2  -3   2 1249.68   48.80
  -2  -3  -2 1299.17   52.49
  -2   3  -2 1458.95   57.39
   2   3   2 1373.66   55.19
  -2   3  -2 1455.25   55.19
   2   3   2 1410.56   57.89
   2   3   2 1425.86   54.99
   2   3   2 1475.65   57.69
   2   3   2 1485.05   55.69
   3  -3   2  872.81   35.50
   3  -3   2  928.41   35.60
   3  -3   2  956.90   36.40
  -3  -3  -2  952.10   36.70
   3   3   2  910.91   37.40
   3   3   2  897.51   38.60
  -3   3  -2  898.41   39.60
   4  -3   2  213.58   10.00
  -4  -3  -2  205.98   10.60
  -4  -3  -2  204.78   11.90
   4  -3   2  198.18    8.50
  -4  -3  -2  195.58    9.80
  -4  -3  -2  213.78   10.90
   4  -3   2  211.68    8.60
  -4  -3  -2  200.88    9.80
  -4   3  -2  225.48   11.10
  -4   3  -2  235.08   11.60
  -5  -3  -2   88.49    6.70
   5  -3   2   92.89    5.00
   5  -3   2  102.99    5.10
  -5  -3  -2   92.49    8.70
   5  -3   2   90.69    9.20
  -5   3  -2  103.29    6.90
  -5   3  -2   97.39    6.60
  -6   3  -2   54.59    4.50
   6  -4  -2   59.29    4.00
   6  -4  -2   60.09    4.50
  -6   4   2   75.89    4.60
   5  -4  -2  293.17   12.20
  -5  -4   2  262.47   12.60
  -5  -4   2  279.97   12.60
   5  -4  -2  273.57   14.90
   5  -4  -2  275.17   11.40
   5  -4  -2  285.07   11.90
  -5  -4   2  276.67   12.40
   5   4  -2  193.18   16.40
  -5   4   2  233.48   12.90
  -5   4   2  264.47   11.10
  -4  -4   2  322.77   14.10
  -4  -4   2  334.97   14.80
  -4  -4   2  319.47   14.80
   4  -4  -2  329.67   15.00
   4  -4  -2  331.57   13.10
   4  -4  -2  332.07   13.30
  -4  -4   2  314.97   14.40
  -4   4   2  334.77   14.80
   4   4  -2  319.37   14.00
  -4   4   2  347.07   17.20
   3  -4  -2   64.89    5.50
   3  -4  -2   64.39   10.80
   3  -4  -2   83.39    5.30
   3  -4  -2   81.99    3.80
   3  -4  -2   78.49    3.60
  -3   4   2   71.49   12.20
  -3   4   2   77.69    7.60
   3   4  -2   75.49    9.30
   3   4  -2   77.29    4.10
   3   4  -2   79.09    8.60
   2  -4  -2  172.88    8.00
   2  -4  -2  184.08    9.80
  -2  -4   2  161.88    8.00
   2  -4  -2  178.68    6.90
   2  -4  -2  176.48    9.80
  -2  -4   2  157.18    7.60
  -2  -4   2  178.38    7.80
   2  -4  -2  173.88    7.10
   2   4  -2  158.08    6.90
   2   4  -2  152.88    8.00
   2   4  -2  164.88    8.30
   2   4  -2  159.08    6.40
  -2   4   2  173.48    9.40
   2   4  -2  155.88    8.20
  -1  -4   2  478.55   21.00
   1  -4  -2  454.55   19.70
   1  -4  -2  460.45   18.00
   1  -4  -2  459.95   18.30
   1  -4  -2  457.75   22.90
   1  -4  -2  466.55   20.30
  -1  -4   2  470.45   19.30
  -1  -4   2  462.85   18.50
   1  -4  -2  469.45   18.80
  -1  -4   2  477.15   19.80
   1  -4  -2  478.15   19.80
   1  -4  -2  479.15   20.00
  -1  -4   2  477.45   19.40
  -1   4   2  469.05   19.70
   1   4  -2  490.25   19.00
   1   4  -2  509.45   19.90
  -1   4   2  482.05   19.00
  -1   4   2  489.65   19.00
  -1   4   2  482.75   22.60
   1   4  -2  504.35   19.50
  -1   4   2  504.95   20.70
   1   4  -2  506.05   20.20
   1   4  -2  483.65   21.70
  -1   4   2  489.25   20.50
   1   4  -2  490.65   18.90
   1   4  -2  491.55   20.40
   0  -4   2 2229.38   89.29
   0  -4   2 2325.77   88.89
   0  -4   2 2207.98   88.69
   0  -4   2 2296.87   88.79
   0  -4  -2 2364.36   88.89
   0  -4   2 2228.88   87.79
   0  -4  -2 2312.87   87.79
   0  -4  -2 2297.67   88.89
   0  -4   2 2264.87   87.39
   0  -4  -2 2432.16   91.39
   0  -4  -2 2200.68   87.69
   0  -4  -2 2391.46   89.79
   0   4  -2 2295.37   87.59
   0   4  -2 2239.48   86.19
   0   4   2 2266.37   86.79
   0   4  -2 2220.48   86.29
   0   4   2 2165.28   86.19
   0   4   2 2233.58   86.79
   0   4   2 2304.27   87.59
   0   4  -2 2237.48   86.79
   0   4   2 2305.17   88.59
   0   4  -2 2388.96   88.29
   0   4  -2 2231.28   86.79
   0   4  -2 2337.37   87.79
   0   4   2 2233.58   87.69
  -1  -4  -2  557.54   23.20
  -1  -4  -2  572.74   22.60
   1  -4   2  572.74   22.60
  -1  -4  -2  549.95   25.60
   1  -4   2  562.24   22.10
   1  -4   2  578.14   24.00
   1  -4   2  562.24   22.60
   1  -4   2  576.14   23.60
   1  -4   2  586.94   23.80
  -1  -4  -2  611.64   25.30
  -1   4  -2  597.54   29.40
   1   4   2  687.73   28.40
  -1   4  -2  749.33   29.20
  -1   4  -2  740.83   27.60
  -1   4  -2  649.24   28.00
   1   4   2  744.43   29.00
  -1   4  -2  737.23   29.20
   1   4   2  692.33   27.10
  -1   4  -2  718.13   27.20
   1   4   2  744.23   30.10
   1   4   2  690.63   27.20
   1   4   2  723.33   27.70
   1   4   2  757.22   28.70
   2  -4   2 1912.51   72.19
   2  -4   2 1937.61   74.19
   2  -4   2 1935.61   73.69
   2  -4   2 1741.73   72.79
   2  -4   2 1775.12   71.59
   2  -4   2 1860.21   71.49
  -2  -4  -2 1960.80   76.79
   2   4   2 1825.92   69.19
  -2   4  -2 1609.24   68.99
   2   4   2 1755.62   67.89
   2   4   2 1750.52   66.49
  -2   4  -2 1803.92   69.69
  -3  -4  -2  183.38    9.10
   3  -4   2  200.78    9.10
  -3  -4  -2  191.88    9.10
  -3  -4  -2  192.58   10.00
   3  -4   2  193.78    7.90
  -3  -4  -2  194.28   11.30
  -3  -4  -2  205.18    9.30
   3  -4   2  197.28    8.10
   3   4   2  188.68    8.20
  -3   4  -2  182.88    9.70
  -3   4  -2  201.28    9.70
  -4  -4  -2   33.80    8.00
   4  -4   2   43.10    3.00
  -4  -4  -2   36.00    4.50
  -4  -4  -2   48.40    6.20
   4   4   2   47.90    4.60
  -4   4  -2   59.69    5.50
  -5  -4  -2  177.48   11.40
  -5  -4  -2  193.58    9.20
  -5  -4  -2  191.98    9.10
   5  -4   2  197.88    8.60
   5  -4   2  191.78    8.30
   5  -4   2  186.88    8.80
  -5   4  -2  170.78    8.10
  -5   4  -2  188.38    9.20
  -5   4  -2  191.68    9.40
   6  -4   2   53.69    4.50
  -6   4  -2   54.79    4.20
   6  -5  -2   13.50    2.20
  -6   5   2    8.30    1.90
   5  -5  -2    8.50    1.80
  -5  -5   2   12.20    2.80
   5  -5  -2   11.90    2.20
  -5  -5   2    7.50    3.10
   5  -5  -2   11.00    2.50
  -5  -5   2    8.90    2.80
  -5   5   2   20.40    8.10
  -5   5   2   11.30    2.50
   5   5  -2    9.80    2.60
  -4  -5   2  119.39    7.00
  -4  -5   2  136.99    7.70
   4  -5  -2  123.39    5.70
   4  -5  -2  107.79   13.00
   4  -5  -2  127.69    6.00
   4  -5  -2  121.79    6.10
  -4  -5   2  122.39    7.20
  -4  -5   2  128.79    7.70
   4   5  -2  120.99    5.50
  -4   5   2  121.59    7.20
  -4   5   2  125.49   10.60
   3  -5  -2  972.40   37.50
   3  -5  -2 1003.20   38.80
   3  -5  -2  971.90   37.60
  -3  -5   2  940.51   38.00
  -3  -5   2  945.21   38.30
  -3  -5   2  976.30   38.60
   3  -5  -2 1007.80   37.40
  -3  -5   2  953.10   38.70
  -3   5   2  876.11   36.00
   3   5  -2  964.40   34.80
  -3   5   2  871.41   47.40
  -3   5   2  844.12   37.60
   3   5  -2  959.80   35.60
   2  -5  -2  516.35   20.10
   2  -5  -2  472.85   23.30
   2  -5  -2  504.15   23.60
  -2  -5   2  540.05   20.90
   2  -5  -2  515.05   20.00
   2  -5  -2  530.65   19.90
  -2  -5   2  513.35   21.70
   2   5  -2  489.45   21.20
   2   5  -2  478.95   19.20
   2   5  -2  505.65   19.30
  -2   5   2  522.35   23.00
   2   5  -2  480.95   21.40
   2   5  -2  509.85   20.00
   1  -5  -2 1638.94   63.69
   1  -5  -2 1501.75   62.79
   1  -5  -2 1636.14   67.29
  -1  -5   2 1561.24   61.19
  -1  -5   2 1529.65   62.19
   1  -5  -2 1646.94   61.49
  -1  -5   2 1586.34   66.09
  -1  -5   2 1559.24   62.39
  -1  -5   2 1627.74   64.59
   1  -5  -2 1570.94   60.69
   1  -5  -2 1543.85   60.79
   1  -5  -2 1670.33   63.09
  -1   5   2 1585.64   63.89
  -1   5   2 1576.44   63.79
  -1   5   2 1645.04   65.99
   1   5  -2 1650.33   63.79
   1   5  -2 1703.43   64.49
   1   5  -2 1711.63   65.89
   1   5  -2 1678.03   63.59
   1   5  -2 1758.02   65.49
   1   5  -2 1643.74   64.79
  -1   5   2 1749.03   65.89
   0  -5  -2  392.66   17.30
   0  -5   2  391.66   16.20
   0  -5   2  406.16   17.60
   0  -5   2  399.56   17.40
   0  -5  -2  393.56   15.70
   0  -5   2  386.46   18.00
   0  -5  -2  395.56   17.40
   0  -5  -2  382.26   21.20
   0   5   2  403.16   16.50
   0   5   2  400.66   15.70
   0   5  -2  413.96   18.80
   0   5   2  401.86   17.70
   0   5  -2  396.26   18.00
   0   5  -2  410.56   16.50
   0   5  -2  413.26   17.60
   0   5  -2  408.56   16.40
   0   5   2  391.86   16.40
   0   5   2  389.96   16.50
   0   5  -2  396.76   15.70
  -1  -5  -2 1051.79   43.80
   1  -5   2 1029.10   42.30
  -1  -5  -2 1050.99   40.30
   1  -5   2 1040.80   39.50
   1  -5   2 1000.50   39.50
   1  -5   2 1063.69   40.30
   1  -5   2 1029.40   39.60
   1  -5   2 1084.99   42.00
   1  -5   2  935.71   49.70
  -1  -5  -2 1021.70   41.20
   1  -5   2 1040.70   41.80
  -1  -5  -2 1032.70   41.30
  -1   5  -2  965.30   39.90
   1   5   2 1021.40   39.40
   1   5   2  957.80   39.10
  -1   5  -2  960.70   37.70
   1   5   2  963.80   38.60
   1   5   2  950.20   37.10
   1   5   2  985.90   37.90
  -1   5  -2  963.50   39.60
  -2  -5  -2 1027.40   41.80
   2  -5   2 1057.99   41.20
  -2  -5  -2 1109.79   48.10
   2  -5   2 1062.29   44.40
  -2  -5  -2 1115.29   42.20
   2  -5   2 1151.18   41.20
   2  -5   2 1108.59   42.20
   2  -5   2  920.01   45.90
   2  -5   2 1104.19   41.30
   2   5   2 1059.59   39.50
  -2   5  -2 1006.10   42.60
   2   5   2  989.70   38.80
   2   5   2 1009.10   41.90
   2   5   2 1020.30   41.10
   2   5   2  995.40   38.70
  -3  -5  -2  605.34   25.10
  -3  -5  -2  599.74   24.50
   3  -5   2  583.34   23.80
   3  -5   2  620.44   23.70
  -3  -5  -2  582.34   24.90
  -3  -5  -2  633.54   25.80
  -3  -5  -2  613.54   24.40
   3  -5   2  620.14   25.00
   3  -5   2  613.24   23.80
  -3  -5  -2  616.34   24.80
  -3   5  -2  495.55   21.40
   3   5   2  587.54   22.20
  -3   5  -2  593.44   22.70
  -3   5  -2  522.45   22.90
   4  -5   2  208.28    8.80
   4  -5   2  213.28    8.60
  -4  -5  -2  200.08    9.40
  -4  -5  -2  202.38    9.40
  -4  -5  -2  195.18   11.20
  -4  -5  -2  200.08   11.70
   4  -5   2  214.68   11.40
  -4  -5  -2  195.08    9.90
   4  -5   2  199.28    8.80
   4   5   2  217.38   10.10
  -4   5  -2  203.88   10.40
   4   5   2  197.98    8.60
  -4   5  -2  208.18    8.70
  -4   5  -2  208.18   10.10
  -5  -5  -2   -5.60    4.60
   5  -5   2    1.30    2.20
  -5  -5  -2    3.80    2.90
   5  -5   2    1.70    1.70
  -5  -5  -2    2.70    2.70
  -5  -5  -2    0.90    3.00
  -5   5  -2    3.40    2.30
   6  -5   2   15.70    2.10
  -6   5  -2   19.80    3.10
   6  -6  -2   34.70    3.00
   6  -6  -2   38.60    3.70
  -6   6   2   37.30    3.20
  -5  -6   2  107.69    6.50
   5  -6  -2  115.09    6.60
   5  -6  -2  101.59    5.30
   5  -6  -2  103.99    5.10
  -5  -6   2  119.89    6.90
  -5  -6   2   96.89    8.80
   5  -6  -2  100.99    6.70
  -5  -6   2  111.29    6.90
  -5   6   2  111.19    6.20
   5   6  -2   89.49    6.00
   4  -6  -2  111.49    5.80
   4  -6  -2  104.09    5.00
  -4  -6   2  107.69    6.40
  -4  -6   2  102.49    7.00
  -4  -6   2  102.59    6.80
  -4  -6   2  106.79    6.40
   4  -6  -2  108.09    5.30
   4  -6  -2   96.29   10.10
  -4   6   2   80.39    9.50
  -4   6   2   96.29    6.00
   4   6  -2   91.09    5.50
   4   6  -2   85.69    7.20
   4   6  -2   92.09    4.70
   3  -6  -2   67.29    3.80
   3  -6  -2   73.09    7.10
  -3  -6   2   64.39    6.00
  -3  -6   2   77.69    5.20
  -3  -6   2   77.59    5.30
   3  -6  -2   70.69    4.00
   3  -6  -2   72.89    3.60
  -3  -6   2   69.39    5.80
   3  -6  -2   59.59    5.90
   3   6  -2   74.59    3.60
   3   6  -2   78.89    5.30
  -3   6   2   56.89    9.70
   3   6  -2   71.19    3.50
  -3   6   2   70.69    5.70
   2  -6  -2   55.79    3.00
   2  -6  -2   54.89    3.20
   2  -6  -2   48.10    8.70
   2  -6  -2   58.39    2.80
  -2  -6   2   49.50    5.80
   2  -6  -2   48.80    5.20
   2   6  -2   59.09    2.70
   2   6  -2   59.19    8.30
   2   6  -2   56.19    4.10
   2   6  -2   49.40    7.70
   2   6  -2   58.69    2.90
  -2   6   2   51.89   10.50
   1  -6  -2  610.94   27.90
   1  -6  -2  613.54   24.20
   1  -6  -2  632.24   24.00
   1  -6  -2  656.23   28.30
  -1  -6   2  636.64   29.20
   1  -6  -2  627.14   27.80
   1  -6  -2  612.74   25.30
   1  -6  -2  587.44   24.60
   1  -6  -2  629.14   24.00
   1   6  -2  695.83   28.60
   1   6  -2  683.53   27.10
   1   6  -2  721.83   27.00
  -1   6   2  684.33   30.10
   1   6  -2  727.53   27.20
  -1   6   2  671.73   30.40
   1   6  -2  711.23   29.70
   1   6  -2  709.23   28.20
  -1   6   2  713.03   27.10
   0  -6  -2 1972.70   77.49
   0  -6   2 1946.51   85.19
   0  -6  -2 1948.61   84.59
   0  -6   2 2099.69   80.99
   0  -6   2 1990.50   79.59
   0  -6  -2 2188.88   81.69
   0  -6  -2 1987.60   79.69
   0  -6   2 2001.80   79.89
   0   6  -2 1860.21   84.79
   0   6   2 2054.19   80.89
   0   6  -2 2286.87   83.59
   0   6  -2 2222.78   81.89
   0   6   2 2129.09   81.89
   0   6  -2 1896.41   80.89
   0   6   2 2139.99   80.79
   0   6   2 2180.78   81.89
   0   6  -2 2088.99   80.89
   0   6  -2 2159.68   80.79
   0   6   2 2170.78   83.39
   0   6   2 2231.78   83.79
   0   6   2 2113.89   80.69
   1  -6   2  717.33   31.50
  -1  -6  -2  755.12   29.10
   1  -6   2  743.03   28.30
   1  -6   2  709.73   31.70
  -1  -6  -2  733.03   33.70
   1  -6   2  698.43   29.10
   1  -6   2  741.03   28.10
   1  -6   2  742.23   28.20
   1   6   2  664.63   28.80
  -1   6  -2  659.33   26.60
   1   6   2  680.13   29.00
  -1   6  -2  643.74   29.10
   1   6   2  698.43   25.80
   1   6   2  652.03   26.00
  -1   6  -2  627.84   30.40
   1   6   2  709.33   27.00
   1   6   2  701.93   26.00
   1   6   2  670.43   27.80
   2  -6   2  268.07   10.30
  -2  -6  -2  242.18   11.20
   2  -6   2  251.17   11.80
  -2  -6  -2  248.28   11.10
   2  -6   2  262.57   10.50
  -2  -6  -2  254.97   11.50
  -2  -6  -2  259.17   11.70
   2  -6   2  265.07   10.40
  -2  -6  -2  250.87   12.50
   2   6   2  260.47   10.60
   2   6   2  278.57   10.80
   2   6   2  266.47   11.70
  -3  -6  -2  493.55   20.70
   3  -6   2  466.45   20.40
  -3  -6  -2  461.45   19.40
   3  -6   2  473.95   18.60
   3  -6   2  470.55   18.70
  -3  -6  -2  476.65   20.30
  -3  -6  -2  475.85   20.00
  -3  -6  -2  464.95   19.70
   3  -6   2  470.35   18.60
  -3  -6  -2  461.25   19.20
   3   6   2  447.26   18.30
  -3   6  -2  497.95   19.70
   3   6   2  485.55   19.70
  -3   6  -2  461.25   20.00
  -3   6  -2  470.25   18.50
  -4  -6  -2  274.87   11.90
  -4  -6  -2  268.17   12.30
  -4  -6  -2  277.97   11.90
   4  -6   2  273.57   11.10
   4  -6   2  274.27   14.70
   4  -6   2  280.27   11.40
  -4  -6  -2  248.18   13.70
  -4   6  -2  237.58   11.40
   4   6   2  225.68   11.90
   4   6   2  248.18    9.90
  -5  -6  -2  188.08    8.70
   5  -6   2  184.48    8.30
   5  -6   2  185.58    8.20
  -5  -6  -2  199.98    9.20
  -5  -6  -2  203.58    8.70
   5  -6   2  189.38    9.20
   5  -6   2  200.78    9.30
  -5   6  -2  197.68    9.40
  -5  -7   2    2.40    2.80
   5  -7  -2    2.30    1.80
  -5  -7   2    4.20    2.00
  -5  -7   2    0.10    2.60
  -5  -7   2    2.60    2.20
   5  -7  -2   -1.00    1.40
   5  -7  -2   -0.10    1.90
  -5   7   2    1.00    1.80
   5   7  -2   -1.60    2.00
   4  -7  -2  179.48   15.50
  -4  -7   2  165.78    8.70
  -4  -7   2  172.78    8.40
  -4  -7   2  178.98    9.00
  -4  -7   2  170.38    8.30
   4  -7  -2  165.18    7.30
   4  -7  -2  160.68    9.00
   4  -7  -2  170.38    8.30
   4  -7  -2  163.68    8.10
  -4   7   2  148.09    7.90
   4   7  -2  156.68    9.90
   4   7  -2  161.78    7.40
   4   7  -2  158.58    6.70
  -4   7   2  147.59   10.80
  -3  -7   2  841.12   34.30
  -3  -7   2  763.02   34.50
   3  -7  -2  822.72   35.50
  -3  -7   2  828.92   34.00
   3  -7  -2  876.61   33.70
   3  -7  -2  861.21   33.40
   3  -7  -2  909.21   33.10
  -3  -7   2  904.51   34.10
   3  -7  -2  871.21   33.10
   3   7  -2  811.22   31.30
  -3   7   2  744.73   33.30
   3   7  -2  819.42   31.00
   3   7  -2  840.52   32.80
  -2  -7   2  426.66   17.90
   2  -7  -2  444.76   18.00
   2  -7  -2  474.55   17.70
  -2  -7   2  486.55   19.00
  -2  -7   2  452.35   19.10
   2  -7  -2  466.75   17.70
  -2  -7   2  437.96   20.00
  -2  -7   2  443.76   18.40
  -2  -7   2  446.26   18.80
   2  -7  -2  434.36   19.90
   2  -7  -2  438.46   18.00
   2   7  -2  435.46   18.30
   2   7  -2  462.25   19.80
  -2   7   2  489.25   21.20
   2   7  -2  472.15   18.20
   2   7  -2  476.15   18.50
   1  -7  -2  229.38   10.50
   1  -7  -2  212.28    8.60
   1  -7  -2  202.18   15.10
  -1  -7   2  228.68   10.40
   1  -7  -2  213.18    9.00
  -1  -7   2  205.78   16.50
  -1  -7   2  208.28    9.50
   1   7  -2  254.97   10.00
   1   7  -2  229.48   14.30
   1   7  -2  254.17    9.70
   1   7  -2  248.78    9.80
   1   7  -2  243.98   11.40
  -1   7   2  241.88    9.90
   1   7  -2  220.68   12.60
  -1   7   2  221.18   19.40
   0  -7  -2   73.09   10.20
   0  -7   2   63.59   10.00
   0   7  -2   73.89    3.40
   0   7   2   75.19    3.50
   0   7  -2   62.69    6.30
   0   7   2   68.69    8.40
   0   7   2   63.09    9.80
   0   7  -2   69.99    5.80
   0   7  -2   66.89    9.10
   0   7  -2   75.29    3.50
   0   7   2   70.49    3.30
   0   7   2   69.69    6.30
   0   7  -2   69.99    3.70
   0   7   2   71.89    3.70
  -1  -7  -2  259.67   12.00
  -1  -7  -2  241.28   11.30
  -1  -7  -2  268.87   11.90
   1  -7   2  253.97   10.40
  -1  -7  -2  273.07   11.90
  -1  -7  -2  268.37   11.60
   1  -7   2  274.17   10.40
   1  -7   2  252.47   10.70
   1  -7   2  253.17   16.80
   1   7   2  271.87   10.70
   1   7   2  270.37   10.80
   1   7   2  267.37   10.50
   1   7   2  233.08   13.70
   1   7   2  275.97   12.20
   2  -7   2  132.89    7.60
   2  -7   2  115.29    6.20
  -2  -7  -2  122.49    7.20
  -2  -7  -2  119.19    6.80
   2  -7   2  120.29    5.50
  -2  -7  -2  133.99    7.20
  -2  -7  -2  114.59    7.90
  -2  -7  -2  141.69    7.40
  -2  -7  -2  126.99    6.50
   2  -7   2  120.29    8.30
   2   7   2  103.39    4.40
   2   7   2  104.39    4.80
  -2   7  -2   73.79   12.20
   2   7   2  103.79    6.50
   3  -7   2  274.57   11.40
   3  -7   2  267.87   12.00
  -3  -7  -2  273.37   12.60
  -3  -7  -2  282.57   12.70
  -3  -7  -2  271.17   12.20
  -3  -7  -2  279.67   13.50
  -3  -7  -2  279.57   13.80
  -3  -7  -2  282.47   12.20
   3  -7   2  280.57   11.40
   3  -7   2  279.77   11.80
   3  -7   2  304.77   18.50
  -3   7  -2  239.58   12.10
   3   7   2  268.47   12.50
   3   7   2  260.77   10.70
   3   7   2  260.17   10.80
   4  -7   2   59.29    4.70
   4  -7   2   59.29    4.60
  -4  -7  -2   56.89    5.00
  -4  -7  -2   56.09    7.10
  -4  -7  -2   58.59    4.40
  -4  -7  -2   52.19    6.20
  -4  -7  -2   51.29    4.40
   4  -7   2   57.49    3.50
   4  -7   2   57.29    3.60
   4   7   2   49.10    8.90
  -4   7  -2   59.39    5.20
   4   7   2   51.89    3.40
   4   7   2   53.29    3.90
  -5  -7  -2    6.70    1.90
   5  -7   2    5.90    2.00
  -5  -7  -2    4.10    1.90
   5  -7   2    9.10    2.10
   5  -7   2    6.10    1.60
  -5  -7  -2    1.50    2.30
  -5   7  -2    5.50    2.20
  -5  -8   2   99.59    5.00
  -5  -8   2   96.79    5.10
   5  -8  -2   97.59    4.80
   5  -8  -2   94.29    4.50
   5  -8  -2   92.69    5.20
  -5  -8   2   92.09    5.30
  -5  -8   2   97.29    5.60
  -5   8   2  101.99    5.50
  -4  -8   2   39.90    4.00
   4  -8  -2   44.90    5.50
   4  -8  -2   41.40    3.20
  -4  -8   2   43.90    4.70
  -4  -8   2   42.70    4.50
   4  -8  -2   49.10    5.90
  -4  -8   2   40.00    4.10
   4  -8  -2   42.60    3.60
   4  -8  -2   39.50    3.00
  -4   8   2   30.30    4.00
   4   8  -2   38.40    3.80
  -4   8   2   38.40    7.80
   4   8  -2   31.70    2.80
  -3  -8   2   61.99    4.50
   3  -8  -2   49.40    5.20
   3   8  -2   48.10    6.90
  -3   8   2   28.10    6.00
  -3   8   2   43.90    4.90
   2  -8  -2  158.58    8.20
  -2  -8   2  156.08    6.80
  -2  -8   2  163.28    9.80
  -2  -8   2  147.69    7.60
   2  -8  -2  151.98    6.80
   2  -8  -2  159.38    7.10
  -2  -8   2  150.68    8.00
  -2  -8   2  162.38    8.40
   2  -8  -2  159.48    6.70
  -2  -8   2  157.78    8.40
   2   8  -2  158.08    7.20
   2   8  -2  152.18    7.00
   2   8  -2  175.08    9.60
  -2   8   2  168.38   10.50
   2   8  -2  167.38    6.90
  -1  -8   2  424.76   16.20
  -1  -8   2  386.86   17.50
   1  -8  -2  409.16   16.30
  -1  -8   2  426.16   17.60
   1  -8  -2  415.46   17.40
  -1  -8   2  418.06   17.00
  -1  -8   2  401.66   17.70
  -1  -8   2  423.26   17.80
   1   8  -2  401.56   15.70
   1   8  -2  401.76   15.30
   1   8  -2  387.06   15.40
   1   8  -2  384.76   17.50
   1   8  -2  367.96   15.80
   0  -8   2  513.85   20.70
   0  -8  -2  528.05   20.00
   0  -8   2  521.15   21.20
   0  -8   2  517.85   20.00
   0  -8  -2  525.85   21.20
   0  -8  -2  476.45   20.70
   0  -8  -2  518.35   21.00
   0  -8  -2  511.25   21.30
   0   8  -2  567.94   23.00
   0   8   2  614.14   23.10
   0   8   2  541.05   23.00
   0   8   2  561.84   24.80
   0   8  -2  598.14   22.70
   0   8  -2  555.64   22.90
   0   8  -2  601.24   22.70
   0   8   2  592.74   22.70
   0   8   2  610.34   22.70
  -1  -8  -2  288.97   12.90
  -1  -8  -2  298.67   13.50
  -1  -8  -2  303.57   13.50
  -1  -8  -2  303.37   13.30
  -1  -8  -2  324.07   13.50
  -1  -8  -2  312.17   12.10
   1  -8   2  291.07   12.90
   1  -8   2  295.87   12.00
   1  -8   2  314.27   12.30
   1   8   2  311.67   14.70
   1   8   2  279.67   13.10
   1   8   2  325.37   12.90
   1   8   2  326.77   12.60
   1   8   2  321.87   12.50
  -2  -8  -2  177.08    9.50
  -2  -8  -2  180.28   10.50
  -2  -8  -2  177.38    7.70
   2  -8   2  180.48    7.60
   2  -8   2  182.98    7.70
   2   8   2  174.28    7.70
   2   8   2  189.58   10.30
   2   8   2  186.88    7.50
   2   8   2  184.18    7.90
  -2   8  -2  162.18   12.70
  -3  -8  -2    8.70    3.90
   3  -8   2    6.20    1.60
  -3  -8  -2   13.20    2.90
  -3  -8  -2    8.90    2.30
  -3  -8  -2   12.80    2.40
  -3  -8  -2   12.20    3.10
   3  -8   2    6.20    1.80
   3  -8   2    9.10    1.70
  -3  -8  -2    9.30    4.20
   3  -8   2    9.70    2.80
  -3  -8  -2    4.50    1.90
  -3   8  -2    5.80    3.10
   3   8   2   12.50    4.50
   3   8   2    8.30    1.90
   3   8   2    7.70    1.70
   4  -8   2  156.38    9.40
  -4  -8  -2  181.48    8.80
  -4  -8  -2  176.28    8.20
  -4  -8  -2  172.38   10.20
   4  -8   2  173.98    7.70
   4  -8   2  180.98    7.60
  -4  -8  -2  180.98    8.20
   4  -8   2  184.58    8.20
  -4   8  -2  175.28    9.00
   4   8   2  164.88    7.20
   4   8   2  159.48    7.80
  -5  -8  -2   70.89    3.80
   5  -8   2   61.59    3.40
   5  -8   2   51.59    4.80
  -5  -8  -2   62.89    4.20
  -5  -8  -2   64.59    3.70
   5  -8   2   65.09    3.70
  -5   8  -2   67.39    4.50
  -5  -9   2    0.90    2.40
   5  -9  -2    4.20    1.70
  -5  -9   2    0.30    1.40
   5  -9  -2    2.00    1.20
  -5  -9   2    0.40    1.60
  -5  -9   2   -1.90    1.20
  -5   9   2   -2.70    2.10
  -4  -9   2   53.49    3.90
  -4  -9   2   43.90    4.20
   4  -9  -2   50.69    5.10
   4  -9  -2   48.80    3.10
   4  -9  -2   48.40    3.30
   4  -9  -2   35.20    4.60
  -4  -9   2   43.20    2.90
  -4  -9   2   50.29    4.00
  -4  -9   2   51.79    4.30
   4   9  -2   50.39    4.40
  -4   9   2   54.39    6.80
   4   9  -2   50.99    3.20
  -4   9   2   49.90    4.70
   4   9  -2   43.00    3.70
   3  -9  -2  284.47   12.30
  -3  -9   2  262.67   10.90
  -3  -9   2  270.67   11.80
  -3  -9   2  275.67   12.30
  -3  -9   2  235.38   14.00
  -3  -9   2  268.47   12.00
   3  -9  -2  266.47   11.30
   3  -9  -2  274.17   11.00
  -3  -9   2  265.47   12.20
   3  -9  -2  284.47   11.20
  -3   9   2  251.27   14.50
   3   9  -2  266.17   12.90
   3   9  -2  294.97   11.60
   3   9  -2  277.87   15.40
   3   9  -2  305.17   11.40
  -2  -9   2  200.08    8.30
  -2  -9   2  197.28   10.80
  -2  -9   2  205.48    9.30
  -2  -9   2  199.28    9.90
   2  -9  -2  206.58    8.50
   2  -9  -2  199.08    9.70
  -2  -9   2  198.48    9.60
  -2  -9   2  199.78    9.80
   2  -9  -2  193.48    8.30
  -2   9   2  166.18   10.40
   2   9  -2  155.98    7.80
   2   9  -2  172.08    7.20
   2   9  -2  162.88    7.60
   2   9  -2  172.78    7.10
   2   9  -2  158.88   10.80
  -1  -9   2  107.39    7.00
  -1  -9   2  107.09    5.00
   1  -9  -2  109.29    6.80
   1  -9  -2   99.19    5.10
  -1  -9   2  119.89    6.90
  -1  -9   2  117.49    6.20
  -1  -9   2  113.09    7.30
   1   9  -2   96.69    9.10
  -1   9   2  101.79    7.80
   1   9  -2   97.99    5.20
   1   9  -2   96.79    4.50
   1   9  -2   93.29    4.60
   0  -9  -2   88.79    4.20
   0  -9   2   89.09    4.20
   0  -9  -2   83.19    6.50
   0  -9   2   81.79    5.20
   0  -9   2   92.19    6.10
   0  -9  -2   82.99    5.50
   0   9  -2   83.29    4.10
   0   9   2   84.89    4.10
   0   9   2   87.09    4.30
   0   9  -2   78.59    4.50
   0   9  -2   85.89    4.70
  -1  -9  -2   55.69    5.10
  -1  -9  -2   51.19    4.20
   1  -9   2   39.60    5.40
  -1  -9  -2   51.69    3.00
   1  -9   2   49.00    3.20
  -1  -9  -2   59.59    5.80
   1  -9   2   45.40    4.90
  -1  -9  -2   50.79    5.10
   1   9   2   54.49    7.80
   1   9   2   40.80    5.30
   1   9   2   39.70    2.70
   1   9   2   36.90    3.40
   2  -9   2  180.48    8.20
   2  -9   2  174.98    7.90
  -2  -9  -2  193.58   10.80
  -2  -9  -2  191.08    8.90
  -2  -9  -2  217.08    9.60
  -2  -9  -2  188.08   10.10
  -2  -9  -2  187.88    7.90
  -2  -9  -2  192.08    9.00
   2   9   2  147.99   10.30
  -2   9  -2  124.59   10.50
   2   9   2  152.78    6.40
   2   9   2  131.59    7.50
   2   9   2  157.88    6.60
   2   9   2  157.48    7.00
  -3  -9  -2  192.98   10.30
  -3  -9  -2  185.98    8.70
  -3  -9  -2  189.18    9.40
   3  -9   2  185.58    8.50
   3  -9   2  195.98    8.30
   3  -9   2  193.68    8.00
  -3  -9  -2  175.08    7.90
  -3  -9  -2  196.38    8.90
   3   9   2  174.58    7.40
   3   9   2  181.08    8.10
   3   9   2  167.58    7.70
  -4  -9  -2   36.80    3.10
   4  -9   2   25.20    3.40
   4  -9   2   27.10    3.80
  -4  -9  -2   29.10    2.50
  -4  -9  -2   32.50    3.10
   4  -9   2   32.80    2.80
   4  -9   2   31.90    2.70
  -4  -9  -2   28.60    3.50
  -4  -9  -2   30.60    5.60
   4   9   2   27.40    2.80
   4   9   2   29.20    3.30
  -4   9  -2   35.70    4.70
  -4 -10   2   31.50    2.30
  -4 -10   2   40.90    3.10
   4 -10  -2   35.70    2.50
   4 -10  -2   38.70    5.00
  -4 -10   2   31.20    3.20
  -4 -10   2   33.10    2.90
  -4  10   2   29.80    4.70
   4  10  -2   23.20    2.70
   4  10  -2   29.30    2.70
  -3 -10   2   16.80    2.70
  -3 -10   2   11.50    2.50
  -3 -10   2   16.10    2.00
  -3 -10   2    9.40    2.10
  -3 -10   2    7.80    4.20
  -3 -10   2   14.40    2.70
   3 -10  -2   11.50    1.60
   3  10  -2   12.30    2.00
   3  10  -2    8.20    2.10
   3  10  -2    9.70    1.50
   3  10  -2    6.20    2.40
  -3  10   2    5.40    5.70
  -2 -10   2   53.59    5.10
  -2 -10   2   49.10    3.00
  -2 -10   2   46.60    6.10
  -2 -10   2   54.29    4.80
  -2 -10   2   49.70    4.60
   2 -10  -2   52.79    5.00
   2 -10  -2   47.50    3.30
  -2 -10   2   50.29    4.10
   2  10  -2   28.90    8.20
   2  10  -2   36.30    2.80
   2  10  -2   36.60    2.60
   2  10  -2   38.90    3.50
  -2  10   2   48.70    6.40
  -1 -10   2  585.04   24.90
  -1 -10   2  620.34   24.70
  -1 -10   2  639.34   25.50
  -1 -10   2  611.64   23.90
  -1 -10   2  601.64   25.30
   1 -10  -2  639.94   25.20
   1  10  -2  640.94   24.50
  -1  10   2  654.43   26.60
   1  10  -2  618.24   24.70
   1  10  -2  642.34   24.50
   1  10  -2  576.74   25.10
   0 -10  -2  377.96   14.80
   0 -10  -2  368.36   15.70
   0 -10   2  385.56   16.30
   0 -10   2  366.86   14.80
   0 -10  -2  392.36   16.40
   0 -10   2  375.06   15.70
   0 -10  -2  371.66   16.60
   0  10   2  355.46   14.10
   0  10  -2  360.06   14.30
   0  10  -2  341.17   14.00
  -1 -10  -2  259.17   12.10
  -1 -10  -2  261.67   11.30
  -1 -10  -2  248.98   11.60
  -1 -10  -2  253.17   11.90
  -1 -10  -2  262.17   10.40
   1 -10   2  250.47   11.40
   1 -10   2  262.67   11.80
  -1  10  -2  271.37   13.20
   1  10   2  235.28   11.10
   1  10   2  255.57   10.40
   1  10   2  249.08   10.40
  -2 -10  -2   43.50    4.40
   2 -10   2   41.10    4.60
   2 -10   2   31.50    2.90
  -2 -10  -2   39.90    4.20
  -2 -10  -2   34.70    5.00
  -2 -10  -2   36.30    3.80
  -2 -10  -2   40.70    2.60
   2  10   2   29.50    8.60
   2  10   2   37.60    4.10
  -2  10  -2   34.00    6.70
   2  10   2   31.70    3.90
   2  10   2   38.50    2.60
   2  10   2   39.10    2.90
  -3 -10  -2    6.40    2.60
   3 -10   2    5.70    2.90
  -3 -10  -2    6.60    1.30
  -3 -10  -2    9.30    3.50
   3 -10   2    7.50    2.70
  -3 -10  -2    3.10    3.10
   3 -10   2    5.80    2.20
   3  10   2    3.10    1.50
   3  10   2    2.60    2.40
   3  10   2    3.00    2.70
   3  10   2    2.60    1.40
  -4 -10  -2   60.69    3.60
  -4 -10  -2   63.29    3.50
  -4 -10  -2   68.59    6.20
  -4 -10  -2   55.19    4.00
  -4 -10  -2   54.69    3.00
   4 -10   2   63.09    3.20
   4 -10   2   60.29    4.30
   4  10   2   57.29    3.70
   4  10   2   56.09    3.80
  -3 -11   2  130.39    6.30
  -3 -11   2  126.99    6.70
  -3 -11   2  127.39    6.10
  -3 -11   2  126.19    5.40
   3 -11  -2  137.39    6.80
  -3  11   2  117.49    7.60
   3  11  -2  130.29    5.70
   3  11  -2  131.59    5.90
   3  11  -2  133.59    6.10
  -2 -11   2  133.49    5.70
  -2 -11   2  122.99    8.10
  -2 -11   2  122.79    7.00
  -2 -11   2  157.78    9.10
  -2 -11   2  137.99    6.70
   2 -11  -2  133.39    7.30
   2  11  -2  126.29    5.60
   2  11  -2  124.59    5.70
  -2  11   2  130.39    9.00
   2  11  -2  128.49    6.40
   2  11  -2  109.09    7.80
   1 -11  -2   65.09    4.90
  -1 -11   2   68.09    5.60
  -1 -11   2   68.09    3.30
  -1 -11   2   52.29    6.10
  -1 -11   2   67.39    4.50
  -1  11   2   54.49    5.60
   1  11  -2   50.19    5.20
   1  11  -2   60.09    3.40
   1  11  -2   63.59    3.70
   0 -11   2   35.40    3.80
   0 -11  -2   28.60    4.30
   0 -11  -2   26.90    4.20
   0 -11   2   28.70    4.00
   0  11   2   34.00    5.10
   1 -11   2   26.80    3.90
  -1 -11  -2   27.40    4.60
  -1 -11  -2   22.50    3.60
  -1 -11  -2   26.80    2.20
  -1 -11  -2   24.60    4.20
   1 -11   2   24.20    3.00
  -1  11  -2   32.10    5.70
   1  11   2   34.30    3.40
   1  11   2   25.30    2.50
  -2 -11  -2  126.09    8.10
  -2 -11  -2  121.19    6.80
  -2 -11  -2  135.79    8.30
  -2 -11  -2  115.29    6.40
  -2 -11  -2  128.89    6.10
  -2  11  -2  114.69    7.70
   2  11   2  101.09    7.10
   2  11   2  111.79    5.10
   2  11   2  103.79    6.10
  -3 -11  -2   43.30    2.40
  -3 -11  -2   41.40    3.70
  -3 -11  -2   39.10    3.00
  -3 -11  -2   45.60    4.50
  -3 -11  -2   40.00    3.30
   3 -11   2   42.70    3.70
   3  11   2   42.20    2.80
   3  11   2   35.30    3.00
  -3 -12   2   15.20    2.10
  -3 -12   2   11.90    1.50
   3 -12  -2   12.70    3.00
  -3 -12   2   17.10    2.80
  -3 -12   2   12.30    2.60
   3  12  -2   16.50    2.20
  -3  12   2   11.90    3.20
   2 -12  -2    6.70    2.20
  -2 -12   2    8.00    2.80
  -2 -12   2    3.20    1.60
  -2 -12   2    7.00    2.50
  -2 -12   2    1.80    2.70
  -2 -12   2    7.10    1.10
  -2  12   2    2.70    2.50
   2  12  -2    5.40    1.30
  -1 -12   2   71.99    4.40
  -1 -12   2   72.89    5.40
   1 -12  -2   70.99    4.90
  -1  12   2   71.29    5.40
   0 -12   2  180.08    8.20
   0 -12   2  176.98    8.70
   0 -12  -2  177.98    8.90
   0  12  -2  156.48    8.60
   0  12   2  158.88    8.40
  -1 -12  -2   30.00    4.00
  -1 -12  -2   35.30    2.50
  -1 -12  -2   44.10    3.50
   1 -12   2   35.10    3.70
  -1  12  -2   30.00    4.70
   1  12   2   35.10    3.00
   1  12   2   29.60    4.20
   2 -12   2    3.60    1.70
  -2 -12  -2    5.90    2.30
  -2 -12  -2    6.30    1.10
  -2 -12  -2    4.70    2.40
  -2 -12  -2    6.00    2.30
  -2 -12  -2    8.20    1.80
  -2  12  -2    4.30    3.80
   2  12   2    5.50    2.40
   2  12   2    5.80    1.30
  -1 -13   2   49.99    3.40
  -1 -13   2   43.40    4.00
   1 -13  -2   43.20    3.70
  -1  13   2   34.10    3.70
   1  13  -2   44.60    3.70
   0 -13  -2    3.80    1.80
   0 -13   2    6.90    2.10
   0 -13   2    5.80    3.00
   0  13   2    5.90    1.90
   0  13  -2    8.40    2.50
  -1 -13  -2   24.90    3.30
  -1 -13  -2   22.90    3.30
   1 -13   2   20.70    3.00
  -1  13  -2   22.70    3.50
   1  13   2   25.00    3.00
  -6   0   3   83.69    5.70
   5   0  -3  350.66   15.50
  -5   0   3  337.97   15.00
   5   0  -3  344.97   14.00
  -5   0   3  339.17   15.90
   4   0  -3  406.06   16.50
  -4   0   3  395.46   17.40
  -4   0   3  398.06   18.20
   3   0  -3   16.90    3.40
   3   0  -3   16.20    4.70
  -2   0   3   54.99    4.80
  -1   0   3  114.09    6.60
   0   0   3   35.90    2.30
   0   0  -3   30.60    1.90
   0   0   3   35.30    3.30
   0   0   3   30.00    2.00
   0   0   3   29.00    1.70
   0   0  -3   30.10    2.00
   0   0   3   29.40    2.00
   0   0  -3   29.40    1.60
   0   0   3   30.40    1.70
   0   0  -3   30.10    1.70
   0   0   3   27.70    1.40
   1   0   3  852.91   30.40
  -1   0  -3  707.93   29.30
   1   0   3  738.33   29.10
  -1   0  -3  838.82   29.40
   1   0   3  673.93   28.90
   1   0   3  636.44   28.70
   1   0   3  782.42   29.50
  -1   0  -3  783.32   29.00
   1   0   3  780.62   29.30
   2   0   3   35.40    5.80
  -2   0  -3   40.10    3.10
   2   0   3   38.60    4.80
   2   0   3   38.50    3.30
   2   0   3   44.10    3.90
   2   0   3   39.80    2.80
  -2   0  -3   39.00    2.40
   2   0   3   36.50    1.90
   2   0   3   37.80    3.60
   3   0   3   15.90    3.00
   3   0   3   15.10    2.80
  -3   0  -3   20.40    2.50
   3   0   3   17.00    1.90
   4   0   3  606.64   23.70
  -4   0  -3  562.34   24.30
  -4   0  -3  626.44   25.40
  -4   0  -3  610.34   25.10
   5   0   3  495.25   19.50
  -5   0  -3  512.95   21.10
   5   0   3  462.35   20.90
  -5   0  -3  512.75   21.30
  -6   0  -3   79.19    6.20
  -6   1   3  105.19    5.90
   5  -1  -3   17.80    2.40
   5  -1  -3   20.80    4.60
  -5  -1   3   16.80    3.60
  -5  -1   3   15.90    4.20
  -5   1   3   14.90    4.60
   5   1  -3   11.50    4.70
  -5   1   3   14.20    2.90
  -4  -1   3  418.16   19.40
  -4  -1   3  442.76   19.30
   4  -1  -3  467.15   18.00
   4  -1  -3  428.96   17.10
  -4  -1   3  398.36   18.60
   4   1  -3  449.16   19.10
   4   1  -3  457.75   18.70
  -4   1   3  496.45   21.00
  -4   1   3  462.85   19.70
   3  -1  -3  729.43   29.50
   3  -1  -3  766.72   28.60
   3  -1  -3  801.32   28.20
   3  -1  -3  716.03   28.50
   3  -1  -3  746.43   33.30
   3  -1  -3  648.24   29.40
   3   1  -3  731.33   30.20
   3   1  -3  771.32   34.70
   3   1  -3  696.43   29.40
   3   1  -3  829.32   30.40
   2  -1  -3 1867.31   72.49
  -2  -1   3 1780.72   69.89
   2  -1  -3 1910.91   70.19
   2  -1  -3 1715.23   70.09
   2  -1  -3 1933.21   72.79
  -2  -1   3 1867.01   71.49
   2  -1  -3 1761.12   69.89
   2  -1  -3 1824.72   70.69
   2  -1  -3 1839.22   70.39
   2  -1  -3 1886.21   69.89
   2  -1  -3 1778.72   69.69
  -2  -1   3 1827.42   69.89
  -2   1   3 1768.52   71.09
   2   1  -3 1913.61   70.99
   2   1  -3 1840.42   73.59
   2   1  -3 1914.61   73.59
   2   1  -3 1830.52   70.69
  -2   1   3 1859.81   72.79
   2   1  -3 1825.32   70.29
   2   1  -3 1765.42   70.29
  -2   1   3 1888.31   70.99
   2   1  -3 1903.11   70.89
   2   1  -3 1798.52   70.79
  -1  -1   3 3207.28  125.89
   1  -1  -3 3307.07  126.99
   1  -1  -3 3354.56  125.99
   1  -1  -3 3444.96  127.49
  -1  -1   3 3150.08  125.79
   1  -1  -3 3327.77  125.69
   1   1  -3 3130.69  118.59
   1   1  -3 3196.68  118.29
   1   1  -3 3152.18  119.69
  -1   1   3 3174.58  120.09
  -1   1   3 2862.51  119.69
   0  -1   3 1721.63   68.19
   0  -1  -3 1787.12   69.09
   0  -1   3 1781.92   68.39
   0  -1   3 1813.32   68.69
   0  -1  -3 1777.82   68.49
   0  -1   3 1748.72   68.49
   0  -1  -3 1834.32   70.09
   0  -1  -3 1853.21   68.89
   0  -1  -3 1819.62   68.49
   0  -1   3 1796.72   68.79
   0   1  -3 1814.12   67.89
   0   1  -3 1825.72   68.09
   0   1  -3 1783.12   68.29
   0   1  -3 1733.63   68.19
   0   1   3 1896.21   69.59
   0   1   3 1785.62   67.89
   0   1   3 1755.12   67.79
   0   1   3 1632.74   67.49
   0   1  -3 1705.43   67.69
   0   1   3 1807.92   68.19
   0   1  -3 1802.92   67.89
   0   1   3 1774.32   68.59
   0   1   3 1784.22   68.09
   1  -1   3 2599.54  100.09
  -1  -1  -3 2694.93   99.59
   1  -1   3 2471.15   99.49
  -1  -1  -3 2569.64   99.79
  -1  -1  -3 2947.01  100.59
  -1  -1  -3 2659.73   99.89
   1  -1   3 2510.55   99.69
   1  -1   3 2722.73  100.69
   1  -1   3 2340.17   99.19
   1   1   3 2708.03  100.29
   1   1   3 2552.64   99.49
  -1   1  -3 2721.63   99.89
   1   1   3 2612.44   99.99
  -1   1  -3 2772.22  100.79
   1   1   3 2488.55   99.59
  -1   1  -3 2559.84  100.09
   1   1   3 2568.74   99.99
   1   1   3 2859.81  100.99
  -1   1  -3 2316.17   99.69
   2  -1   3 3262.57  122.19
   2  -1   3 3029.10  119.79
   2  -1   3 3162.48  119.49
  -2  -1  -3 3157.48  120.29
  -2  -1  -3 3064.29  119.79
   2  -1   3 3139.39  120.29
   2  -1   3 3133.59  119.99
   2  -1   3 3360.36  120.29
   2  -1   3 2928.41  119.09
  -2   1  -3 2889.11  109.59
  -2   1  -3 2927.61  111.19
   2   1   3 2905.21  109.89
   2   1   3 2627.64  111.39
  -2   1  -3 2776.72  109.09
   2   1   3 2932.81  109.89
   2   1   3 2913.91  110.29
   2   1   3 2926.81  109.39
   3  -1   3 1035.10   40.40
  -3  -1  -3 1074.19   41.40
   3  -1   3 1065.99   40.90
   3   1   3 1073.39   45.30
  -4  -1  -3  196.18   11.10
  -4  -1  -3  204.08   11.50
   4  -1   3  211.78    9.30
   4  -1   3  208.88    8.30
  -4  -1  -3  194.58    9.80
   4   1   3  206.58    8.70
  -4   1  -3  197.58   10.50
  -4   1  -3  201.18   10.60
  -5  -1  -3  137.79    8.50
   5  -1   3  126.19    9.20
  -5  -1  -3  136.69    8.70
   5  -1   3  140.29    6.40
  -5   1  -3  143.59    8.50
  -5   1  -3  146.69    8.60
  -6   1  -3   60.49    5.30
  -6  -2   3   29.40    5.70
   6  -2  -3   34.50    3.80
  -6   2   3   26.70    3.50
   5  -2  -3  203.68   11.40
  -5  -2   3  200.28   10.80
  -5  -2   3  198.58   10.60
   5  -2  -3  199.78    8.70
   5  -2  -3  212.08    9.00
  -5   2   3  204.18    9.90
   5   2  -3  189.78   11.90
  -5   2   3  211.28   11.60
  -4  -2   3  497.65   22.00
  -4  -2   3  518.05   22.10
   4  -2  -3  515.85   21.20
   4  -2  -3  507.55   20.20
   4  -2  -3  532.85   20.10
  -4   2   3  505.05   22.70
  -4   2   3  533.15   21.40
   4   2  -3  492.75   20.20
   3  -2  -3  382.06   15.10
   3  -2  -3  410.16   19.00
   3  -2  -3  388.56   15.90
   3  -2  -3  369.86   20.30
   3   2  -3  351.86   14.00
   3   2  -3  333.77   14.90
   3   2  -3  381.36   15.50
   3   2  -3  352.66   13.60
  -3   2   3  330.47   16.20
   3   2  -3  350.56   20.30
   3   2  -3  330.97   13.90
   2  -2  -3  980.60   36.30
  -2  -2   3  901.71   37.90
   2  -2  -3  872.21   39.00
   2  -2  -3  903.01   35.80
  -2  -2   3  950.10   36.00
   2  -2  -3  957.10   37.00
   2  -2  -3  953.80   36.60
   2  -2  -3  981.30   38.80
   2  -2  -3  912.21   35.70
  -2  -2   3  916.61   35.90
   2   2  -3  930.41   35.30
   2   2  -3  977.10   36.10
  -2   2   3  946.11   36.40
  -2   2   3  948.81   36.50
   2   2  -3  927.61   35.80
   2   2  -3  956.90   36.10
   2   2  -3  911.41   36.20
  -2   2   3  846.62   39.00
   2   2  -3  846.22   35.30
  -2   2   3  926.61   38.80
   1  -2  -3 1880.31   70.49
   1  -2  -3 1657.73   68.59
  -1  -2   3 1684.43   68.99
   1  -2  -3 1854.61   68.69
   1  -2  -3 1739.93   71.19
   1  -2  -3 1852.51   68.99
  -1  -2   3 1800.42   69.29
   1  -2  -3 1907.61   69.59
   1  -2  -3 1779.52   69.09
  -1  -2   3 1857.21   69.29
  -1   2   3 1953.70   69.19
  -1   2   3 1745.53   69.59
   1   2  -3 1748.33   68.89
  -1   2   3 1715.13   71.59
   1   2  -3 1781.52   69.49
  -1   2   3 1704.43   69.29
   1   2  -3 1861.11   69.29
   1   2  -3 1747.53   69.79
   1   2  -3 1735.13   69.39
  -1   2   3 2069.79   71.69
  -1   2   3 1885.81   69.99
   0  -2  -3 5120.29  199.18
   0  -2  -3 5253.67  197.28
   0   2   3 5545.15  208.48
   0   2  -3 5310.17  206.38
   1  -2   3 1595.64   65.29
   1  -2   3 1746.43   66.59
   1  -2   3 1785.62   66.99
  -1  -2  -3 1765.92   66.19
  -1  -2  -3 1731.13   67.69
   1  -2   3 1661.93   65.69
  -1  -2  -3 1712.93   65.99
  -1  -2  -3 1631.64   65.69
   1  -2   3 1747.63   66.39
  -1  -2  -3 1746.13   67.19
   1  -2   3 1771.12   66.09
  -1   2  -3 1702.23   71.19
  -1   2  -3 1872.01   71.59
   1   2   3 1760.42   71.39
  -1   2  -3 1963.10   72.49
   1   2   3 1960.60   73.39
   1   2   3 1765.02   70.99
   1   2   3 1837.12   71.19
   1   2   3 1898.41   72.49
   1   2   3 1921.81   71.89
   1   2   3 1898.11   72.49
   1   2   3 1973.00   71.89
  -1   2  -3 1873.21   72.49
   2  -2   3  227.18   10.00
   2  -2   3  209.98   10.20
   2  -2   3  216.88    8.50
   2  -2   3  210.08    9.00
   2  -2   3  214.08    9.40
   2  -2   3  209.68    8.60
  -2  -2  -3  233.08    9.30
   2   2   3  253.27   12.20
  -2   2  -3  248.48   12.60
   2   2   3  229.58    9.60
  -2   2  -3  242.88    9.70
   2   2   3  248.48    9.60
  -2   2  -3  243.68   10.30
   2   2   3  223.88   14.80
   2   2   3  263.77   10.40
   3  -2   3   12.00    1.40
  -3  -2  -3   11.10    2.30
   3  -2   3   11.70    2.30
   3   2   3    5.90    8.40
  -4  -2  -3  642.44   25.50
  -4  -2  -3  616.74   26.90
   4  -2   3  666.63   25.70
  -4  -2  -3  627.14   26.30
  -4  -2  -3  663.83   26.60
   4  -2   3  615.34   25.00
  -4  -2  -3  606.04   25.60
   4  -2   3  647.04   24.70
  -4   2  -3  634.54   25.50
  -4   2  -3  611.44   25.80
   4   2   3  609.64   24.30
   5  -2   3  159.38    6.80
   5  -2   3  151.88    6.90
  -5  -2  -3  131.49   10.70
  -5  -2  -3  133.69    9.20
  -5  -2  -3  144.79    8.00
   5  -2   3  147.79   10.00
  -5   2  -3  149.69    8.60
  -5   2  -3  144.19    8.30
  -6   2  -3   88.69    5.70
  -6  -3   3   47.20    6.60
   6  -3  -3   49.80    3.80
  -6   3   3   68.09    4.40
   5  -3  -3   57.79    8.50
   5  -3  -3   59.19    4.40
  -5  -3   3   47.40    5.90
   5  -3  -3   53.09    3.60
  -5  -3   3   53.89    5.90
  -5   3   3   45.70    7.60
   5   3  -3   68.29    9.70
  -5   3   3   52.49    4.70
  -4  -3   3   80.69    6.80
   4  -3  -3   90.49    4.40
   4  -3  -3   84.69    6.40
  -4  -3   3  103.29    7.10
  -4  -3   3   84.59    7.40
   4  -3  -3   74.09    4.10
   4   3  -3   82.29    5.10
  -4   3   3   86.79    9.70
  -4   3   3   73.69    6.00
   3  -3  -3  564.14   21.90
   3  -3  -3  593.64   23.10
   3  -3  -3  570.94   22.10
   3  -3  -3  544.65   27.10
   3   3  -3  536.85   22.50
  -3   3   3  523.75   24.00
   3   3  -3  539.35   20.60
   3   3  -3  535.55   27.70
   3   3  -3  489.35   21.00
   2  -3  -3 1212.08   47.90
   2  -3  -3 1253.57   48.10
   2  -3  -3 1245.18   49.30
   2  -3  -3 1204.28   47.60
   2  -3  -3 1229.08   46.10
   2  -3  -3 1137.99   50.59
   2  -3  -3 1198.58   46.20
   2  -3  -3 1229.48   46.90
   2  -3  -3 1162.58   46.10
  -2   3   3 1384.76   53.39
   2   3  -3 1349.27   52.69
   2   3  -3 1337.17   52.49
  -2   3   3 1337.27   53.19
   2   3  -3 1337.67   51.89
   2   3  -3 1375.46   53.59
   1  -3  -3 1419.46   55.39
  -1  -3   3 1587.64   56.59
   1  -3  -3 1443.06   55.89
  -1  -3   3 1406.16   56.69
  -1  -3   3 1405.96   56.29
   1  -3  -3 1453.45   58.99
  -1  -3   3 1395.26   56.29
   1  -3  -3 1516.35   56.69
   1  -3  -3 1522.15   57.49
   1  -3  -3 1352.36   55.29
   1  -3  -3 1465.85   56.89
   1  -3  -3 1463.45   56.39
   1  -3  -3 1457.05   55.49
  -1   3   3 1489.05   55.99
   1   3  -3 1284.57   53.89
  -1   3   3 1476.75   54.29
   1   3  -3 1296.97   53.49
  -1   3   3 1310.37   53.79
  -1   3   3 1415.46   56.59
   1   3  -3 1326.77   52.79
  -1   3   3 1538.45   52.99
  -1   3   3 1311.97   53.29
   1   3  -3 1396.46   53.19
   1   3  -3 1399.36   53.49
   0  -3  -3  382.46   15.20
   0  -3  -3  390.86   18.00
   0  -3  -3  390.86   16.50
   0  -3  -3  373.06   15.90
   0  -3   3  365.46   15.10
   0  -3   3  375.56   15.70
   0  -3   3  409.96   15.90
   0  -3   3  381.86   16.00
   0  -3  -3  361.26   14.90
   0  -3   3  395.66   15.40
   0  -3  -3  364.76   15.10
   0  -3  -3  375.26   15.90
   0  -3   3  376.96   16.10
   0  -3  -3  384.66   15.80
   0  -3   3  365.36   14.70
   0   3  -3  395.66   15.50
   0   3  -3  378.46   15.70
   0   3  -3  373.36   14.90
   0   3   3  378.36   17.80
   0   3  -3  377.96   15.70
   0   3   3  365.96   14.90
   0   3   3  376.36   15.60
   0   3   3  381.96   15.50
   0   3  -3  384.76   14.90
   0   3  -3  368.36   14.50
   0   3  -3  358.46   14.60
   0   3   3  368.96   14.90
   0   3   3  357.06   14.40
   0   3   3  357.36   16.20
  -1  -3  -3 1359.86   53.19
   1  -3   3 1294.37   50.79
  -1  -3  -3 1354.56   50.99
   1  -3   3 1341.27   51.69
   1  -3   3 1267.27   51.79
   1  -3   3 1327.57   51.39
   1  -3   3 1253.77   49.99
  -1  -3  -3 1293.37   50.49
   1  -3   3 1305.77   50.49
   1  -3   3 1293.87   50.59
  -1  -3  -3 1329.47   51.09
  -1  -3  -3 1408.76   52.89
   1  -3   3 1241.38   50.09
   1   3   3 1463.85   55.79
   1   3   3 1477.45   56.39
   1   3   3 1367.86   54.59
  -1   3  -3 1469.45   54.89
   1   3   3 1334.57   54.29
   1   3   3 1499.85   57.49
  -1   3  -3 1474.75   56.09
  -1   3  -3 1404.26   55.79
   1   3   3 1442.36   55.29
   1   3   3 1454.25   55.99
  -1   3  -3 1414.56   55.29
  -1   3  -3 1315.07   54.39
   2  -3   3 4187.58  161.88
   2  -3   3 4512.05  161.88
   2  -3   3 4169.98  160.48
   2  -3   3 3963.40  159.88
   2  -3   3 4190.08  160.48
  -2  -3  -3 4093.59  160.68
  -2  -3  -3 4340.87  164.18
   2   3   3 3872.31  151.88
  -2   3  -3 4037.60  153.78
  -2   3  -3 3934.61  152.68
   2   3   3 3943.91  153.88
  -2   3  -3 4067.09  151.48
   2   3   3 3844.92  151.08
   2   3   3 4097.89  153.48
   3  -3   3  753.92   29.90
  -3  -3  -3  755.42   30.70
   3  -3   3  796.22   30.80
   3  -3   3  792.62   30.00
  -3  -3  -3  791.42   31.10
   3   3   3  712.83   33.30
  -3   3  -3  689.93   29.50
  -3   3  -3  747.63   29.30
   3   3   3  750.62   28.10
   4  -3   3  161.38    8.40
  -4  -3  -3  157.88    9.40
   4  -3   3  162.18    6.60
  -4  -3  -3  136.19    8.40
   4  -3   3  142.29    6.60
   4   3   3  156.88    7.60
  -4   3  -3  158.08    8.90
  -5  -3  -3   10.60    4.30
   5  -3   3    3.40    2.00
  -5   3  -3   -0.10    3.00
  -5   3  -3    3.40    2.50
  -6   3  -3   69.89    5.00
   6  -4  -3   55.09    3.80
   6  -4  -3   63.09    4.40
  -6   4   3   77.49    4.60
   5  -4  -3  286.87   11.80
  -5  -4   3  289.77   13.10
  -5  -4   3  290.47   13.10
   5  -4  -3  296.37   12.30
  -5  -4   3  288.27   12.80
   5  -4  -3  285.97   12.50
   5  -4  -3  290.07   15.70
  -5   4   3  279.97   14.40
  -5   4   3  295.37   12.80
   5   4  -3  280.57   12.30
   4  -4  -3  364.96   14.60
  -4  -4   3  365.56   16.20
  -4  -4   3  363.06   15.80
  -4  -4   3  367.46   16.20
   4  -4  -3  375.66   16.70
   4  -4  -3  358.86   14.80
   4  -4  -3  378.76   15.10
  -4   4   3  323.47   16.60
   4   4  -3  325.47   13.00
   4   4  -3  340.87   14.10
   3  -4  -3    6.30    2.40
   3  -4  -3    7.70    1.90
  -3  -4   3    8.00    3.40
  -3  -4   3    9.30    4.00
   3  -4  -3    5.50    1.10
   3  -4  -3    7.30    7.20
   3  -4  -3    4.80    1.20
   3   4  -3    3.10    0.80
   3   4  -3    7.40    5.00
  -3   4   3    6.60    7.10
  -3   4   3    0.30    2.50
   3   4  -3    3.50    1.60
   2  -4  -3  241.08    9.50
  -2  -4   3  230.18   10.70
   2  -4  -3  221.18   12.50
   2  -4  -3  246.78   10.60
   2  -4  -3  244.38   12.60
   2  -4  -3  245.88   12.50
  -2  -4   3  248.78   11.50
   2  -4  -3  240.38   13.00
   2  -4  -3  244.58    9.70
   2   4  -3  247.88   10.10
   2   4  -3  234.78   10.90
   2   4  -3  236.58    9.40
  -2   4   3  252.47   12.30
   2   4  -3  252.87   11.10
   2   4  -3  227.18   11.20
   2   4  -3  227.18    9.40
  -1  -4   3  867.31   34.60
  -1  -4   3  906.81   34.80
   1  -4  -3  859.71   34.70
   1  -4  -3  876.61   33.80
   1  -4  -3  876.41   33.00
   1  -4  -3  901.41   35.20
   1  -4  -3  862.51   34.80
   1  -4  -3  841.52   38.00
   1  -4  -3  815.62   33.20
   1  -4  -3  848.42   35.60
   1  -4  -3  842.12   33.20
  -1  -4   3  868.61   36.10
  -1   4   3  772.32   35.10
  -1   4   3  852.51   33.20
   1   4  -3  829.32   31.30
   1   4  -3  818.32   32.90
   1   4  -3  787.02   34.20
  -1   4   3  855.11   33.00
  -1   4   3  791.02   32.10
   1   4  -3  831.42   32.20
   1   4  -3  847.12   32.50
  -1   4   3  800.82   36.40
   1   4  -3  813.02   31.20
  -1   4   3  826.52   31.50
   1   4  -3  854.61   31.90
  -1   4   3  757.32   31.40
   0  -4   3 3083.59  117.09
   0  -4   3 2989.70  115.59
   0  -4  -3 2928.71  115.89
   0  -4   3 3027.00  117.59
   0  -4   3 3047.60  116.49
   0  -4   3 2882.21  116.99
   0  -4  -3 3062.29  116.09
   0  -4  -3 3085.99  119.69
   0  -4  -3 3159.78  118.29
   0  -4  -3 3101.19  117.09
   0  -4   3 3023.90  117.29
   0  -4  -3 3131.39  117.29
   0  -4  -3 3082.89  117.29
   0  -4   3 2937.81  116.09
   0   4  -3 3003.00  114.09
   0   4  -3 2815.82  112.69
   0   4   3 3052.09  117.19
   0   4  -3 2982.30  113.29
   0   4   3 3011.30  114.19
   0   4   3 3038.60  114.29
   0   4  -3 2929.71  114.29
   0   4   3 2933.91  115.49
   0   4   3 2924.91  113.19
   0   4  -3 2945.01  112.59
   0   4   3 2828.32  113.29
   0   4  -3 3090.29  114.69
   0   4  -3 2956.20  113.29
   1  -4   3  847.82   32.70
   1  -4   3  798.92   32.00
  -1  -4  -3  825.52   33.30
  -1  -4  -3  815.92   32.60
   1  -4   3  819.02   33.30
   1  -4   3  845.22   33.80
   1  -4   3  809.32   34.00
  -1  -4  -3  914.41   35.70
   1  -4   3  824.32   32.60
  -1  -4  -3  836.12   36.10
   1   4   3  778.42   33.20
  -1   4  -3  783.32   30.40
   1   4   3  771.02   30.20
   1   4   3  786.82   32.30
   1   4   3  771.72   30.30
  -1   4  -3  810.32   32.50
  -1   4  -3  731.73   34.10
   1   4   3  809.92   30.90
  -1   4  -3  826.82   32.50
  -1   4  -3  789.92   30.90
   1   4   3  846.82   32.00
   2  -4   3  533.15   20.60
   2  -4   3  532.95   23.10
   2  -4   3  531.25   21.30
  -2  -4  -3  523.05   21.40
  -2  -4  -3  536.95   26.30
   2  -4   3  524.15   20.50
   2   4   3  491.65   19.80
   2   4   3  518.55   19.20
   2   4   3  483.05   20.80
   2   4   3  505.55   22.30
  -2   4  -3  499.85   22.80
   3  -4   3  189.28    7.60
  -3  -4  -3  182.78    9.30
  -3  -4  -3  172.58   10.50
   3  -4   3  178.78    8.10
  -3  -4  -3  176.88    8.70
   3  -4   3  187.18    7.50
  -3  -4  -3  190.48    9.10
   3  -4   3  186.38    8.80
  -3  -4  -3  174.58    8.70
  -3   4  -3  168.48    8.60
   3   4   3  167.58    7.40
   3   4   3  164.28    6.60
  -3   4  -3  149.29    8.80
   4  -4   3  177.08    7.80
  -4  -4  -3  167.98   10.60
   4  -4   3  187.88    9.90
  -4  -4  -3  212.18   11.60
   4  -4   3  198.28    9.60
  -4  -4  -3  170.48    8.60
  -4  -4  -3  170.88    8.60
  -4  -4  -3  184.38    9.50
   4  -4   3  167.48    7.70
  -4   4  -3  210.48   10.20
   4   4   3  194.28    8.50
  -4   4  -3  219.08   10.60
   5  -4   3  212.18    9.70
  -5  -4  -3  215.48   15.80
   5  -4   3  232.38    9.60
   5  -4   3  216.88    9.20
  -5  -4  -3  200.18   11.80
  -5  -4  -3  227.18   10.40
  -5   4  -3  213.48   10.30
  -5   4  -3  219.98    9.60
  -5   4  -3  218.18   10.70
   6  -4   3   36.30    4.40
  -6   4  -3   45.00    3.90
   6  -5  -3   12.70    3.00
   6  -5  -3   12.00    2.10
  -6  -5   3    9.80    3.50
  -6   5   3   13.20    2.70
  -5  -5   3    9.10    2.70
   5  -5  -3   13.50    2.60
   5  -5  -3    5.30    1.70
  -5  -5   3   10.90    3.20
  -5  -5   3    9.90    2.80
   5  -5  -3   10.30    2.10
  -5   5   3   10.10    2.20
   5   5  -3    7.50    2.50
  -5   5   3    9.90    5.00
   4  -5  -3  167.68    7.50
  -4  -5   3  150.68    8.90
   4  -5  -3  190.28   12.90
  -4  -5   3  163.78    9.10
  -4  -5   3  163.68    9.00
  -4  -5   3  169.38    8.50
   4  -5  -3  171.68    7.60
   4  -5  -3  165.18    7.20
  -4   5   3  174.18   11.90
  -4   5   3  176.98    9.00
   4   5  -3  185.28    7.60
  -3  -5   3  936.21   36.80
  -3  -5   3  901.91   36.90
   3  -5  -3  958.80   37.10
  -3  -5   3  883.81   36.40
   3  -5  -3  970.00   35.50
   3  -5  -3  910.31   35.70
  -3  -5   3  897.91   36.30
   3   5  -3  943.51   35.20
  -3   5   3  841.12   35.40
   3   5  -3  866.21   34.40
  -3   5   3  874.21   37.10
   3   5  -3  927.01   34.30
   2  -5  -3 1168.48   43.00
   2  -5  -3 1105.39   46.50
   2  -5  -3 1121.69   43.10
   2  -5  -3 1136.39   43.00
   2  -5  -3 1076.69   46.90
   2   5  -3 1078.59   40.90
   2   5  -3 1085.69   41.70
   2   5  -3 1030.60   40.80
  -2   5   3 1129.89   44.50
   2   5  -3 1042.30   42.70
   2   5  -3 1034.20   42.60
   1  -5  -3  647.14   27.40
  -1  -5   3  645.74   28.00
   1  -5  -3  611.04   24.00
   1  -5  -3  616.74   25.00
   1  -5  -3  619.94   24.10
   1  -5  -3  605.44   24.30
   1  -5  -3  613.04   26.70
   1  -5  -3  631.14   27.50
  -1  -5   3  621.34   26.20
   1   5  -3  597.74   24.50
  -1   5   3  580.84   23.60
   1   5  -3  609.54   23.30
  -1   5   3  617.24   25.60
  -1   5   3  565.64   23.60
   1   5  -3  623.84   26.00
   1   5  -3  614.54   23.40
  -1   5   3  591.44   25.80
  -1   5   3  591.34   24.50
   1   5  -3  624.84   25.20
   1   5  -3  617.64   24.20
  -1   5   3  629.14   23.50
   0  -5   3   60.49    4.50
   0  -5  -3   52.49   11.10
   0  -5   3   61.89    5.20
   0  -5   3   58.19    5.90
   0  -5  -3   59.59    5.70
   0  -5  -3   62.59    5.70
   0  -5  -3   59.49    6.00
   0  -5   3   63.39    5.70
   0  -5  -3   61.79    3.40
   0   5  -3   57.39    7.60
   0   5   3   63.39    4.00
   0   5  -3   62.29    3.90
   0   5   3   61.79    5.10
   0   5   3   60.89    4.50
   0   5  -3   65.69    6.90
   0   5   3   63.09    5.40
   0   5   3   63.89    3.00
   0   5  -3   63.39    3.00
   0   5  -3   61.89    6.10
   0   5  -3   60.99    4.10
   1  -5   3  298.97   13.10
   1  -5   3  318.07   12.40
   1  -5   3  305.87   13.60
  -1  -5  -3  288.97   14.40
   1  -5   3  309.37   12.30
   1  -5   3  312.87   15.00
   1  -5   3  309.77   14.50
  -1  -5  -3  329.77   13.20
   1  -5   3  317.37   12.30
   1  -5   3  310.97   15.80
  -1  -5  -3  340.47   17.10
   1   5   3  280.97   13.30
  -1   5  -3  275.57   13.70
  -1   5  -3  254.27   15.70
  -1   5  -3  269.07   14.30
   1   5   3  285.97   10.90
   1   5   3  298.27   11.90
   1   5   3  288.77   13.50
  -1   5  -3  272.17   11.70
   2  -5   3 2885.81  110.79
   2  -5   3 2866.71  110.79
   2  -5   3 2998.90  111.79
  -2  -5  -3 2880.81  118.19
   2   5   3 2696.33  105.09
   2   5   3 2803.12  105.89
   2   5   3 2783.12  108.49
  -3  -5  -3  362.36   15.50
  -3  -5  -3  335.47   16.00
   3  -5   3  351.86   14.00
  -3  -5  -3  350.56   15.00
   3  -5   3  347.57   15.30
   3  -5   3  345.47   14.00
  -3  -5  -3  348.87   14.60
  -3  -5  -3  343.77   14.70
  -3   5  -3  275.17   13.60
  -3   5  -3  305.87   13.30
   3   5   3  311.07   12.80
   3   5   3  301.27   11.80
   4  -5   3   62.09    3.80
  -4  -5  -3   64.49    5.40
   4  -5   3   60.69    3.90
  -4  -5  -3   50.59    7.10
  -4  -5  -3   60.99    7.50
  -4  -5  -3   62.39    4.70
  -4  -5  -3   54.59    4.80
   4  -5   3   58.39    3.50
   4  -5   3   67.99    7.90
  -4   5  -3   62.39    5.40
   4   5   3   62.79    6.20
  -4   5  -3   69.09    3.80
   4   5   3   63.49    3.80
  -4   5  -3   59.99    5.70
  -5  -5  -3   56.89    4.20
   5  -5   3   38.60    4.30
   5  -5   3   44.50    3.30
  -5  -5  -3   51.79    4.20
  -5  -5  -3   39.10    6.50
   6  -6  -3   24.50    2.80
  -6  -6   3   26.70    4.50
   6  -6  -3   28.40    3.50
  -6   6   3   26.70    2.90
   5  -6  -3  110.19    6.70
  -5  -6   3  109.49    7.10
   5  -6  -3  125.99    6.90
   5  -6  -3  110.59    5.50
   5  -6  -3  106.29    5.30
  -5  -6   3  122.99    7.50
  -5   6   3  100.89    8.80
   5   6  -3  107.59    6.30
  -5   6   3  132.29    6.70
  -4  -6   3  238.08   10.90
   4  -6  -3  240.58   10.30
   4  -6  -3  235.18   14.10
   4  -6  -3  241.98    9.80
  -4  -6   3  237.28   10.80
   4  -6  -3  232.18    9.70
   4  -6  -3  208.38   10.90
  -4  -6   3  232.88   11.40
  -4  -6   3  235.38   11.20
   4   6  -3  208.58    8.60
  -4   6   3  208.08    9.80
  -4   6   3  190.18   12.60
   4   6  -3  204.68    8.70
   4   6  -3  200.48   10.90
   3  -6  -3  101.59    5.00
   3  -6  -3  103.69    5.20
  -3  -6   3  102.89    6.90
   3  -6  -3  104.49    6.60
  -3  -6   3   98.89    6.30
   3  -6  -3   98.39    8.50
   3  -6  -3  106.19    4.80
  -3  -6   3  114.49    7.10
  -3  -6   3  106.89    6.40
   3   6  -3  110.59    6.50
  -3   6   3  107.89    9.90
   3   6  -3  101.79    4.60
  -3   6   3   97.09    6.50
   3   6  -3  105.49    4.80
  -2  -6   3   17.40    3.00
   2  -6  -3   15.60    1.70
  -2  -6   3   12.50    3.10
   2  -6  -3   21.70    2.00
   2  -6  -3   20.20    6.70
   2  -6  -3   21.10    3.80
  -2  -6   3   27.20    5.10
  -2  -6   3   25.80    3.60
   2  -6  -3   19.80    2.30
   2   6  -3   21.20    1.60
   2   6  -3   19.60    1.80
  -2   6   3   23.50    7.40
   2   6  -3   16.60    3.30
   2   6  -3   24.70    5.10
  -2   6   3   29.10    5.50
   1  -6  -3 1075.49   43.10
   1  -6  -3 1152.48   43.30
   1  -6  -3 1131.99   44.30
  -1  -6   3 1116.99   48.00
   1  -6  -3 1139.79   42.90
   1  -6  -3 1130.89   47.40
   1  -6  -3 1057.09   46.70
   1  -6  -3 1159.98   42.90
   1  -6  -3 1118.09   46.60
  -1   6   3 1158.18   44.10
   1   6  -3 1161.68   45.20
   1   6  -3 1141.39   46.50
  -1   6   3 1080.29   47.50
  -1   6   3 1190.18   47.30
   1   6  -3 1141.59   45.60
   1   6  -3 1116.49   44.00
   1   6  -3 1171.78   44.20
   1   6  -3 1176.48   44.00
   0  -6   3 1550.04   68.99
   0  -6  -3 1561.84   63.69
   0  -6  -3 1547.35   62.89
   0  -6   3 1550.44   62.49
   0  -6   3 1455.35   61.69
   0  -6   3 1557.44   62.99
   0  -6  -3 1580.64   59.59
   0   6  -3 1505.85   58.79
   0   6   3 1504.35   58.69
   0   6  -3 1608.24   61.59
   0   6  -3 1551.04   58.79
   0   6   3 1530.85   58.89
   0   6   3 1595.74   59.89
   0   6  -3 1519.15   62.39
   0   6   3 1548.05   58.79
   0   6   3 1526.65   61.39
   0   6  -3 1511.65   59.89
   0   6  -3 1560.64   59.79
   0   6   3 1520.85   61.79
   0   6  -3 1504.35   58.89
  -1  -6  -3  601.04   29.10
  -1  -6  -3  617.54   23.90
   1  -6   3  577.74   26.90
   1  -6   3  603.34   23.00
   1  -6   3  589.14   22.90
   1  -6   3  590.24   24.10
   1  -6   3  560.24   26.20
   1   6   3  595.94   22.40
   1   6   3  578.14   22.60
   1   6   3  557.34   25.60
   1   6   3  599.84   22.60
   1   6   3  594.14   23.60
   1   6   3  582.14   24.60
  -1   6  -3  576.54   26.20
  -1   6  -3  561.34   23.40
  -2  -6  -3   76.09    5.10
  -2  -6  -3   73.79    5.10
   2  -6   3   72.49    5.80
   2  -6   3   72.79    3.60
  -2  -6  -3   80.39    6.60
  -2  -6  -3   80.59    5.50
   2  -6   3   71.49    5.60
   2  -6   3   72.89    4.00
  -2  -6  -3   80.59    5.10
  -2  -6  -3   88.39    7.00
  -2   6  -3   84.79    4.30
  -2   6  -3   89.09    6.00
   2   6   3   85.99    3.80
   2   6   3   81.99    5.20
   3  -6   3  257.67   10.40
  -3  -6  -3  228.48   12.10
   3  -6   3  267.67   12.90
  -3  -6  -3  263.87   11.70
  -3  -6  -3  257.17   12.40
  -3  -6  -3  246.58   11.60
   3  -6   3  254.37   10.60
   3  -6   3  245.68   11.50
  -3  -6  -3  257.17   11.30
   3  -6   3  251.47   10.50
  -3  -6  -3  272.87   12.70
   3   6   3  258.87   10.90
  -3   6  -3  293.17   12.50
   3   6   3  280.37   12.40
  -3   6  -3  275.07   11.10
  -3   6  -3  264.07   12.80
  -4  -6  -3  299.37   15.80
  -4  -6  -3  302.97   13.10
  -4  -6  -3  295.77   13.40
   4  -6   3  283.47   16.20
   4  -6   3  319.37   12.50
   4  -6   3  305.77   13.60
   4  -6   3  320.17   12.80
  -4  -6  -3  309.37   13.10
   4  -6   3  302.97   13.70
  -4  -6  -3  318.77   14.80
   4   6   3  286.37   14.10
   4   6   3  306.77   12.40
   4   6   3  305.37   12.20
  -4   6  -3  293.97   13.60
  -5  -6  -3  153.88    9.90
   5  -6   3  176.88    8.60
   5  -6   3  176.68    7.60
  -5  -6  -3  179.68    8.00
  -5  -6  -3  163.88    8.60
   5  -6   3  178.88    7.60
  -5  -6  -3  190.88    7.90
  -5   6  -3  191.18    9.20
  -5  -7   3    1.90    2.50
   5  -7  -3    1.20    1.50
   5  -7  -3    0.00    1.80
   5  -7  -3    1.10    1.90
  -5  -7   3    1.10    2.10
  -5  -7   3    3.20    2.10
  -5  -7   3   -0.10    3.20
  -5   7   3    0.60    1.80
  -5   7   3   -2.50    4.50
   5   7  -3    1.90    1.90
  -4  -7   3  125.39    7.30
  -4  -7   3  121.59    6.80
   4  -7  -3  105.39   14.80
   4  -7  -3  121.59    6.40
  -4  -7   3  118.29    7.10
   4  -7  -3  120.39    7.40
  -4  -7   3  118.69    6.80
   4  -7  -3  115.29    5.50
   4   7  -3   91.39    6.10
  -4   7   3   92.89    5.70
   4   7  -3   84.39    4.40
  -4   7   3   81.59    9.00
   4   7  -3   84.09    8.50
   3  -7  -3  498.15   20.30
   3  -7  -3  490.95   23.30
  -3  -7   3  507.55   20.70
  -3  -7   3  509.65   21.20
  -3  -7   3  499.65   21.10
   3  -7  -3  529.75   20.60
   3  -7  -3  507.45   21.50
   3  -7  -3  510.55   19.90
  -3  -7   3  488.35   20.80
   3   7  -3  459.15   18.20
   3   7  -3  465.05   20.10
  -3   7   3  444.76   21.60
   3   7  -3  463.65   18.00
  -2  -7   3  582.24   24.10
   2  -7  -3  565.04   25.00
   2  -7  -3  599.84   23.10
  -2  -7   3  592.84   23.50
  -2  -7   3  591.24   23.80
   2  -7  -3  574.84   23.10
   2  -7  -3  569.34   23.80
  -2  -7   3  604.84   24.00
  -2  -7   3  563.04   22.80
   2  -7  -3  607.74   22.70
   2  -7  -3  616.74   22.80
  -2  -7   3  548.65   25.20
   2   7  -3  616.24   23.50
   2   7  -3  607.74   24.00
   2   7  -3  603.94   25.20
  -2   7   3  602.54   26.00
   2   7  -3  603.24   23.80
   1  -7  -3  377.46   14.40
   1  -7  -3  369.36   14.70
  -1  -7   3  387.56   16.10
  -1  -7   3  390.36   28.80
  -1  -7   3  342.27   15.10
   1  -7  -3  365.86   15.80
  -1  -7   3  357.56   14.60
   1   7  -3  386.56   16.80
   1   7  -3  371.16   17.90
   1   7  -3  404.06   15.40
   1   7  -3  345.17   19.60
   1   7  -3  404.26   15.10
   1   7  -3  385.16   15.20
  -1   7   3  394.86   15.30
   0  -7  -3  101.99    6.30
   0  -7  -3  103.79    4.70
   0  -7  -3  105.29    5.60
   0  -7   3   95.29   11.70
   0   7  -3  104.99    7.50
   0   7   3   98.29   13.70
   0   7   3   96.09    7.50
   0   7  -3   95.79   10.60
   0   7  -3   97.89    5.40
   0   7   3  111.69    5.00
   0   7  -3  110.29    4.70
   0   7  -3  113.89    4.70
   0   7  -3  104.79    5.00
   0   7  -3  101.19    7.20
   0   7   3  107.49    4.60
   0   7   3  107.89    4.70
   0   7   3   92.29   11.50
   0   7   3  109.09    7.00
  -1  -7  -3  152.18    7.40
   1  -7   3  140.99    6.10
  -1  -7  -3  139.19    7.20
   1  -7   3  143.79    6.50
   1  -7   3  146.49    6.20
  -1  -7  -3  143.19    7.70
  -1  -7  -3  148.49    7.70
   1  -7   3  133.59    7.40
  -1  -7  -3  145.79    7.90
  -1  -7  -3  147.99    6.40
   1   7   3  177.48    7.60
   1   7   3  182.48    9.20
   1   7   3  179.58    7.60
   1   7   3  179.58    7.30
   2  -7   3 1257.27   49.20
  -2  -7  -3 1285.17   49.50
  -2  -7  -3 1282.77   50.29
  -2  -7  -3 1235.58   49.60
   2  -7   3 1285.77   49.20
  -2  -7  -3 1314.97   49.99
   2  -7   3 1203.78   50.59
  -2  -7  -3 1293.37   49.90
   2  -7   3 1279.17   49.00
  -2  -7  -3 1270.07   50.39
   2  -7   3 1309.87   48.90
   2   7   3 1273.27   49.60
   2   7   3 1254.87   48.00
   2   7   3 1279.77   48.30
   2   7   3 1205.18   48.20
   3  -7   3  354.56   14.80
  -3  -7  -3  363.46   16.70
   3  -7   3  361.36   14.50
  -3  -7  -3  359.56   15.20
   3  -7   3  361.06   15.00
  -3  -7  -3  344.47   15.70
  -3  -7  -3  357.86   15.60
  -3  -7  -3  364.06   15.30
  -3  -7  -3  378.56   16.50
   3  -7   3  369.96   17.60
   3   7   3  354.76   15.90
   3   7   3  369.56   14.20
  -3   7  -3  321.37   15.40
   3   7   3  349.07   13.90
   4  -7   3  109.39    5.30
   4  -7   3  115.69    6.30
  -4  -7  -3  110.59    8.00
  -4  -7  -3  106.59    6.60
   4  -7   3  114.09    5.40
   4  -7   3  105.19    6.10
  -4  -7  -3  103.59    5.90
  -4  -7  -3  116.79    6.20
  -4   7  -3  110.99    6.80
   4   7   3  106.49    5.30
   4   7   3  117.39    5.80
   5  -7   3    5.80    2.10
   5  -7   3    3.30    1.90
  -5  -7  -3    2.90    1.80
  -5  -7  -3    3.30    1.90
  -5  -7  -3    7.30    2.70
  -5  -7  -3   -2.10    7.30
   5  -7   3    3.10    1.50
  -5   7  -3    2.60    2.00
   5  -8  -3   85.89    5.00
  -5  -8   3   88.89    5.60
  -5  -8   3   84.39    6.00
   5  -8  -3   91.29    4.30
  -5  -8   3   89.89    5.00
  -5  -8   3   97.59    4.90
   5  -8  -3   99.89    4.60
  -5  -8   3   87.29    5.10
  -5   8   3   97.29    5.30
  -4  -8   3  179.28    9.30
   4  -8  -3  204.18    8.50
   4  -8  -3  193.78   10.60
  -4  -8   3  213.98    9.50
   4  -8  -3  204.38    8.60
   4  -8  -3  208.18    8.80
  -4  -8   3  200.18    9.70
  -4  -8   3  202.98    9.80
  -4  -8   3  209.98    9.50
  -4   8   3  179.08   11.80
   4   8  -3  205.98    8.40
   4   8  -3  203.58    9.00
   4   8  -3  204.78    9.00
  -4   8   3  207.28    9.50
   3  -8  -3   62.49    5.70
  -3  -8   3   54.39    3.70
  -3  -8   3   62.49    4.70
   3  -8  -3   59.29    3.60
  -3  -8   3   55.79    5.40
  -3  -8   3   54.69    4.80
   3  -8  -3   63.09    4.10
   3  -8  -3   59.69    5.70
  -3  -8   3   62.49    5.40
   3  -8  -3   64.89    3.50
  -3   8   3   52.49    5.10
  -3   8   3   52.09    8.10
   3   8  -3   55.59    7.50
   3   8  -3   53.69    3.80
   3   8  -3   53.09    3.70
   3   8  -3   55.79    3.10
  -2  -8   3  121.19    9.20
  -2  -8   3  111.99    7.20
   2  -8  -3  112.69    6.90
  -2  -8   3  123.29    6.90
  -2  -8   3  114.49    6.30
  -2  -8   3  117.99    5.30
   2  -8  -3  117.59    5.70
   2  -8  -3  118.09    5.20
  -2  -8   3  111.89    7.40
   2  -8  -3  106.89    5.50
   2   8  -3  122.09    8.10
  -2   8   3  122.09    8.80
   2   8  -3  125.19    5.40
   2   8  -3  123.39    5.80
   2   8  -3  119.29    5.50
   1  -8  -3  428.26   16.60
  -1  -8   3  399.36   17.80
  -1  -8   3  414.26   18.10
  -1  -8   3  405.06   18.00
  -1  -8   3  408.36   17.20
   1  -8  -3  436.66   17.80
  -1  -8   3  442.36   17.90
  -1  -8   3  427.76   16.50
  -1   8   3  422.26   17.70
   1   8  -3  400.26   15.40
   1   8  -3  358.96   15.80
   1   8  -3  378.76   17.60
   1   8  -3  392.66   15.80
   1   8  -3  391.86   15.50
   0  -8   3  615.44   23.90
   0  -8  -3  602.64   23.90
   0  -8  -3  569.44   23.70
   0  -8  -3  586.64   22.60
   0  -8   3  584.74   22.60
   0  -8  -3  578.64   23.90
   0  -8   3  566.84   23.30
   0  -8  -3  566.24   23.40
   0   8  -3  611.74   23.60
   0   8   3  589.04   25.90
   0   8  -3  614.84   23.80
   0   8  -3  601.04   23.50
   0   8   3  610.84   23.60
   0   8   3  593.04   23.90
   0   8   3  612.54   23.50
  -1  -8  -3  201.48    9.00
   1  -8   3  187.28    9.00
  -1  -8  -3  202.08    9.80
  -1  -8  -3  196.78    8.10
  -1  -8  -3  198.38    9.70
   1  -8   3  183.28    8.00
   1  -8   3  191.38    8.30
  -1  -8  -3  191.98    9.30
  -1  -8  -3  210.38    9.70
   1   8   3  183.28   10.50
   1   8   3  197.38    8.30
   1   8   3  181.98    8.90
   1   8   3  192.38    8.00
   1   8   3  197.48    7.90
   2  -8   3   26.60    3.00
   2  -8   3   22.10    2.50
   2  -8   3   29.70    2.90
  -2  -8  -3   25.70    3.70
  -2  -8  -3   30.40    3.90
  -2  -8  -3   27.40    5.30
  -2  -8  -3   28.30    5.00
  -2  -8  -3   28.90    4.20
   2   8   3   31.90    5.80
   2   8   3   32.40    2.80
   2   8   3   32.30    2.80
  -3  -8  -3   35.70    3.30
  -3  -8  -3   36.40    6.80
   3  -8   3   33.20    5.20
  -3  -8  -3   38.70    5.60
  -3  -8  -3   33.50    3.80
   3  -8   3   34.10    2.90
   3  -8   3   37.40    3.50
   3  -8   3   33.60    3.00
  -3  -8  -3   31.00    4.40
  -3  -8  -3   40.30    3.80
  -3   8  -3   31.20    4.00
   3   8   3   24.40    5.20
   3   8   3   30.00    3.00
   3   8   3   29.50    2.50
   3   8   3   27.00    3.40
  -4  -8  -3  102.79    6.80
   4  -8   3   81.49    7.50
  -4  -8  -3  112.09    7.30
   4  -8   3   98.49    5.30
   4  -8   3   93.99    4.70
   4  -8   3   96.09    5.60
  -4  -8  -3   84.69    4.80
  -4   8  -3   96.69    6.10
   4   8   3   85.69    5.40
   4   8   3   95.69    6.20
  -5  -8  -3   92.99    4.50
  -5  -8  -3   80.59    4.50
   5  -8   3   83.69    5.00
   5  -8   3   97.49    4.60
   5  -8   3   95.49    4.40
  -5  -8  -3   92.99    5.30
  -5  -8  -3   95.09    4.50
  -5   8  -3   98.99    6.00
  -5  -9   3    4.00    1.20
  -5  -9   3    4.00    1.70
   5  -9  -3    4.80    1.90
  -5  -9   3    5.00    2.70
  -5  -9   3    4.90    1.60
   5  -9  -3    3.90    1.30
  -5   9   3    1.70    2.10
   4  -9  -3    8.10    4.10
  -4  -9   3    6.60    2.30
   4  -9  -3    5.20    1.50
  -4  -9   3    8.60    2.40
   4  -9  -3    8.40    1.60
  -4  -9   3    7.70    1.30
  -4  -9   3    5.30    2.10
  -4  -9   3   10.70    2.30
   4  -9  -3    9.20    4.10
  -4   9   3    1.00    3.80
   4   9  -3    5.60    1.50
  -4   9   3    4.20    2.30
   4   9  -3    2.60    1.70
   4   9  -3    2.70    2.40
   3  -9  -3   80.79    4.30
  -3  -9   3   85.49    5.80
  -3  -9   3   82.29    5.80
   3  -9  -3   81.39    6.10
  -3  -9   3   84.49    5.20
  -3  -9   3   85.69    5.60
   3  -9  -3   81.09    4.40
  -3  -9   3   77.39    4.10
   3   9  -3   67.49   10.30
   3   9  -3   77.39    5.10
  -3   9   3   88.09    7.80
   3   9  -3   82.19    4.00
   3   9  -3   76.19    4.30
  -2  -9   3  479.55   19.40
   2  -9  -3  429.06   17.80
  -2  -9   3  443.16   20.20
  -2  -9   3  450.05   19.30
   2  -9  -3  464.55   18.10
  -2  -9   3  474.05   17.90
  -2  -9   3  453.15   19.10
   2  -9  -3  461.25   19.20
  -2  -9   3  456.35   18.80
   2   9  -3  420.26   19.80
   2   9  -3  427.96   17.10
   2   9  -3  390.36   17.00
   2   9  -3  430.26   16.70
   2   9  -3  421.96   16.60
  -2   9   3  427.76   19.20
  -1  -9   3    9.10    2.20
  -1  -9   3   14.10    3.80
  -1  -9   3   14.30    6.00
  -1  -9   3   13.60    1.50
  -1  -9   3   10.60    2.70
   1   9  -3    9.60    3.60
   1   9  -3    9.70    1.70
   1   9  -3   10.60    1.40
  -1   9   3    9.70    3.50
   1   9  -3    7.90    5.50
   1   9  -3   10.50    2.10
   0  -9   3  138.59    5.90
   0  -9  -3  140.59    8.00
   0  -9  -3  124.79    7.00
   0  -9  -3  124.89    7.80
   0   9  -3  134.49    6.10
   0   9  -3  142.69    7.20
   0   9   3  138.89    6.10
   0   9   3  143.19    6.20
  -1  -9  -3  153.88    8.10
   1  -9   3  148.69    6.70
   1  -9   3  155.08    8.20
  -1  -9  -3  155.78    8.40
   1  -9   3  150.08    7.50
  -1  -9  -3  161.18    6.50
  -1  -9  -3  155.88    8.10
  -1  -9  -3  140.59    9.30
  -1  -9  -3  156.78    7.50
   1   9   3  149.19    6.40
   1   9   3  141.89    7.10
   1   9   3  145.69    7.00
   1   9   3  131.39   10.50
   1   9   3  151.98    6.40
   2  -9   3  475.65   18.70
  -2  -9  -3  478.75   19.80
  -2  -9  -3  465.05   19.30
  -2  -9  -3  467.75   20.90
  -2  -9  -3  466.85   18.40
  -2  -9  -3  473.25   19.30
  -2  -9  -3  462.25   20.10
   2  -9   3  474.25   18.40
   2   9   3  490.95   19.20
   2   9   3  488.25   18.80
   2   9   3  440.56   19.30
  -2   9  -3  464.35   21.70
   2   9   3  483.05   22.00
   2   9   3  481.75   18.70
  -3  -9  -3  208.68   10.70
  -3  -9  -3  215.78   10.00
   3  -9   3  188.78    9.20
   3  -9   3  208.98    8.70
  -3  -9  -3  219.38    9.50
  -3  -9  -3  208.98    8.70
   3  -9   3  211.58    9.00
  -3  -9  -3  214.68    9.50
   3   9   3  212.28    8.70
   3   9   3  207.18    9.30
   3   9   3  201.58    8.90
   4  -9   3   33.00    2.70
  -4  -9  -3   30.70    4.80
  -4  -9  -3   29.00    2.40
   4  -9   3   27.50    3.60
  -4  -9  -3   32.90    2.90
   4  -9   3   28.00    2.60
  -4  -9  -3   35.50    3.00
  -4  -9  -3   30.40    3.70
   4   9   3   32.20    4.50
   4   9   3   39.10    3.00
  -4   9  -3   33.40    4.80
  -4 -10   3   22.80    3.20
  -4 -10   3   26.50    2.80
  -4 -10   3   25.00    3.10
  -4 -10   3   24.10    2.00
   4 -10  -3   24.00    2.30
  -4 -10   3   23.10    2.80
   4  10  -3   21.70    2.60
  -4  10   3   19.30    3.80
   4  10  -3   23.90    2.50
   4  10  -3   26.30    3.90
  -3 -10   3   20.90    2.20
   3 -10  -3   24.60    4.80
  -3 -10   3   22.20    3.70
  -3 -10   3   21.70    3.10
  -3 -10   3   22.70    3.90
   3 -10  -3   19.10    2.50
  -3 -10   3   20.10    3.70
  -3  10   3    7.10    6.10
   3  10  -3   15.70    2.20
   3  10  -3   14.70    2.80
   3  10  -3   21.40    2.40
   3  10  -3   19.70    2.20
  -2 -10   3   61.49    3.30
  -2 -10   3   64.49    4.50
  -2 -10   3   58.19    4.90
  -2 -10   3   55.69    5.40
  -2 -10   3   58.09    6.60
   2 -10  -3   64.59    5.20
  -2 -10   3   61.59    5.20
   2 -10  -3   56.99    3.50
   2  10  -3   46.80    3.70
   2  10  -3   54.09    3.20
  -2  10   3   50.59    6.30
   2  10  -3   51.39    4.80
   2  10  -3   68.19    8.90
   2  10  -3   52.29    3.10
  -1 -10   3  217.08    8.70
  -1 -10   3  207.38   10.70
  -1 -10   3  197.48   10.10
  -1 -10   3  221.98    9.70
   1 -10  -3  215.08   10.20
  -1 -10   3  215.48   10.60
  -1  10   3  240.68   11.80
   1  10  -3  227.68    9.90
   1  10  -3  226.58    9.60
   1  10  -3  231.78    9.60
   0 -10   3  356.66   14.60
   0 -10   3  377.26   16.20
   0 -10  -3  370.86   16.10
   0 -10  -3  373.26   14.60
   0 -10  -3  363.66   15.50
   0 -10   3  380.16   15.50
   0  10  -3  334.37   14.00
   0  10   3  357.46   14.00
   0  10  -3  359.66   14.20
   1 -10   3  540.85   22.10
  -1 -10  -3  524.45   21.50
  -1 -10  -3  537.95   22.10
  -1 -10  -3  533.15   21.60
  -1 -10  -3  535.55   20.70
   1 -10   3  511.25   21.40
  -1 -10  -3  539.05   22.30
  -1  10  -3  529.35   22.80
   1  10   3  524.65   20.60
   1  10   3  506.15   21.30
   1  10   3  534.15   20.60
   2 -10   3   29.50    4.10
  -2 -10  -3   31.10    4.90
  -2 -10  -3   37.20    2.40
   2 -10   3   28.90    2.70
  -2 -10  -3   28.60    3.50
  -2 -10  -3   36.60    3.90
   2  10   3   24.10    2.50
   2  10   3   26.40    2.40
   2  10   3   21.50    4.00
  -3 -10  -3   32.90    4.00
   3 -10   3   33.10    3.90
  -3 -10  -3   32.00    2.30
  -3 -10  -3   33.60    3.30
  -3 -10  -3   29.60    4.60
  -3 -10  -3   36.00    3.40
   3 -10   3   31.70    2.70
   3  10   3   37.40    4.50
   3  10   3   27.80    2.90
   3  10   3   28.70    2.80
  -4 -10  -3   47.10    3.00
  -4 -10  -3   49.60    2.60
   4 -10   3   52.39    2.80
  -4 -10  -3   49.30    3.50
   4 -10   3   50.29    3.80
  -4 -10  -3   49.40    5.10
  -4 -10  -3   45.10    3.00
   4  10   3   51.09    3.60
   3 -11  -3   59.19    4.90
  -3 -11   3   58.49    3.70
  -3 -11   3   54.49    4.40
  -3 -11   3   60.19    4.00
  -3 -11   3   61.09    2.90
   3  11  -3   59.99    3.80
   3  11  -3   60.19    3.60
  -3  11   3   58.89    5.60
   3  11  -3   63.99    3.40
  -2 -11   3  151.18    8.20
  -2 -11   3  148.99    7.60
  -2 -11   3  152.68    7.30
  -2 -11   3  159.58    6.40
  -2 -11   3  145.09    8.50
  -2  11   3  173.18   10.90
   2  11  -3  159.68    7.00
   2  11  -3  157.88    7.50
  -1 -11   3   14.20    2.20
  -1 -11   3   17.70    3.20
  -1 -11   3   13.90    1.50
   1  11  -3   13.40    1.80
   1  11  -3   14.60    2.20
  -1  11   3   11.50    2.80
   0 -11   3   20.10    3.00
   0 -11  -3   15.60    3.30
   0 -11   3   17.70    2.50
   0 -11  -3   13.30    2.70
   0  11   3   16.20    3.30
  -1 -11  -3  111.69    6.00
  -1 -11  -3  110.09    6.80
   1 -11   3  108.69    7.00
  -1 -11  -3  112.79    6.80
  -1 -11  -3  115.09    5.00
   1 -11   3  114.99    6.60
   1  11   3  112.09    5.70
   1  11   3  111.29    5.10
  -1  11  -3  102.49    7.80
  -2 -11  -3  149.29    7.90
  -2 -11  -3  159.38    6.50
   2 -11   3  151.68    7.80
  -2 -11  -3  153.08    7.20
  -2 -11  -3  155.58    8.30
  -2 -11  -3  154.98    7.40
   2  11   3  153.58    6.70
   2  11   3  152.68    6.80
  -2  11  -3  159.88   12.30
  -3 -11  -3  100.09    4.80
  -3 -11  -3   96.69    4.20
  -3 -11  -3   90.99    5.20
   3 -11   3  100.89    5.20
  -3 -11  -3   93.09    5.60
  -3 -11  -3   97.79    5.00
   3  11   3   87.79    4.50
   3  11   3   88.49    4.50
  -3 -12   3    1.40    1.90
   3 -12  -3    4.80    2.80
  -3 -12   3   -0.10    0.80
  -3 -12   3   -2.40    2.20
  -3 -12   3    0.30    1.30
  -3  12   3    1.80    3.60
   3  12  -3    1.50    1.30
  -2 -12   3   20.80    3.00
  -2 -12   3   21.50    3.70
  -2 -12   3   18.70    1.80
  -2 -12   3   19.90    2.60
  -2 -12   3   18.90    3.20
   2 -12  -3   24.40    3.60
   2  12  -3   16.50    2.20
  -2  12   3   17.10    3.00
  -1 -12   3   13.80    2.70
   1 -12  -3   12.80    2.50
  -1 -12   3   12.40    2.20
  -1  12   3    7.80    2.50
   0 -12   3  143.79    7.00
   0 -12  -3  149.39    7.70
   0 -12   3  144.89    7.50
   0  12   3  132.69    7.30
   0  12  -3  131.69    7.60
   1 -12   3   19.60    4.70
  -1 -12  -3   18.90    2.40
   1 -12   3   14.70    2.40
  -1 -12  -3   15.00    2.20
  -1 -12  -3   19.10    3.60
  -1  12  -3   15.70    3.30
   1  12   3   19.50    2.10
   1  12   3   19.80    3.80
  -2 -12  -3    5.00    1.10
  -2 -12  -3    8.10    2.30
  -2 -12  -3    5.10    1.80
   2 -12   3    5.90    1.90
  -2 -12  -3    8.30    4.10
   2  12   3    7.50    1.90
   2  12   3    5.10    2.40
  -1 -13   3    8.40    3.60
   1 -13  -3    9.50    2.10
  -1 -13   3   10.50    1.90
  -1  13   3    9.30    2.40
   1  13  -3    9.50    2.50
   0 -13   3    5.70    2.80
   0 -13  -3    7.70    2.10
   0 -13   3   11.00    2.30
   0  13  -3   12.10    2.70
   0  13   3    6.80    1.90
   1 -13   3   26.00    3.10
  -1 -13  -3   21.30    3.20
  -1  13  -3   28.10    5.20
   1  13   3   20.80    2.90
  -6   0   4  238.98   10.80
  -6   0   4  240.28   11.30
   5   0  -4  229.98   11.90
  -5   0   4  216.78   11.70
  -5   0   4  215.98   10.50
   5   0  -4  219.38    9.70
   4   0  -4  107.99    5.10
  -4   0   4  111.69    9.90
  -4   0   4   92.89    8.30
  -4   0   4   97.49    7.20
   4   0  -4  103.99    6.30
   3   0  -4  346.07   13.20
   3   0  -4  309.27   18.30
   3   0  -4  339.37   13.70
   3   0  -4  284.17   14.00
   3   0  -4  334.17   12.50
  -2   0   4   42.40    3.10
   2   0  -4   40.50    2.60
  -2   0   4   37.00    2.80
  -2   0   4   37.10    5.40
   1   0  -4 4014.90  153.58
  -1   0   4 4095.69  155.88
  -1   0   4 4102.19  154.18
   1   0  -4 4091.99  155.18
   1   0  -4 4254.77  154.28
  -1   0   4 3831.42  155.38
  -1   0   4 3856.11  153.68
   0   0  -4 1664.43   62.39
   0   0  -4 1544.05   61.69
   0   0   4 1615.24   62.19
   0   0  -4 1604.94   61.89
   0   0  -4 1656.93   61.89
   0   0  -4 1679.93   62.39
   0   0   4 1638.44   62.29
   0   0   4 1603.24   61.49
   0   0   4 1620.54   62.49
   0   0   4 1629.24   61.79
   0   0   4 1513.95   63.89
   1   0   4  954.10   38.20
  -1   0  -4  971.80   37.50
   1   0   4  934.51   36.70
  -1   0  -4  968.30   37.20
   1   0   4  993.60   39.30
   1   0   4  970.50   37.20
  -1   0  -4  941.41   36.80
   1   0   4 1000.10   37.50
   1   0   4  881.11   36.40
  -2   0  -4    9.70    1.70
   2   0   4    7.70    2.50
  -2   0  -4    4.50    2.00
   2   0   4    5.80    1.90
   2   0   4    6.80    1.30
   2   0   4   15.50    6.20
  -3   0  -4  251.67   10.70
   3   0   4  250.87   10.10
   3   0   4  236.08    9.60
  -4   0  -4  399.16   17.90
   4   0   4  382.76   15.40
  -4   0  -4  398.36   16.60
  -4   0  -4  393.16   17.40
   4   0   4  405.06   16.30
  -5   0  -4  732.53   29.60
   5   0   4  719.23   28.30
  -5   0  -4  734.93   30.10
  -6   0  -4    2.90    3.30
   6  -1  -4   35.90    5.30
  -6  -1   4   26.20    5.00
  -6   1   4   29.90    5.80
  -6   1   4   40.60    4.00
  -5  -1   4   12.70    3.60
   5  -1  -4   12.00    5.00
  -5  -1   4   10.70    4.00
  -5  -1   4    6.50    4.40
   5  -1  -4   14.30    2.50
  -5   1   4   13.50    2.90
   5   1  -4   14.40    2.70
   5   1  -4   14.90    5.10
  -5   1   4   11.20    4.40
   4  -1  -4  366.26   14.20
   4  -1  -4  360.76   15.30
  -4  -1   4  325.67   15.70
  -4  -1   4  347.67   16.70
  -4  -1   4  372.16   16.50
  -4   1   4  334.27   14.40
   4   1  -4  297.87   13.90
  -4   1   4  341.17   15.90
   4   1  -4  325.47   13.80
   3  -1  -4 1685.23   68.79
   3  -1  -4 1852.11   67.19
   3  -1  -4 1843.32   67.99
   3  -1  -4 1689.63   67.89
   3  -1  -4 1785.42   67.59
   3  -1  -4 1781.02   72.49
   3  -1  -4 1694.03   68.69
   3   1  -4 1771.62   66.09
   3   1  -4 1692.13   66.59
   3   1  -4 1688.83   71.19
  -2  -1   4 2116.39   80.69
   2  -1  -4 2082.29   81.19
   2  -1  -4 2057.89   80.29
   2  -1  -4 2083.19   79.99
   2  -1  -4 1980.50   80.29
  -2  -1   4 2148.78   82.79
   2  -1  -4 2147.79   80.59
   2  -1  -4 2079.49   80.29
   2  -1  -4 2230.28   83.39
   2   1  -4 1998.00   79.09
   2   1  -4 2147.49   79.39
   2   1  -4 1955.70   78.59
  -2   1   4 2088.59   81.89
   2   1  -4 1889.31   78.99
   2   1  -4 2140.49   78.99
  -2   1   4 2030.40   79.19
   2   1  -4 2219.28   82.39
  -2   1   4 2134.49   79.69
   2   1  -4 2108.29   79.69
  -2   1   4 2034.80   79.09
   1  -1  -4 8617.14  329.97
   1   1  -4 8436.26  327.97
  -1   1   4 8741.23  328.77
   0  -1  -4 2015.60   76.69
   0  -1  -4 2027.00   77.49
   0  -1  -4 2031.60   77.19
   0  -1  -4 2075.79   79.09
   0  -1  -4 1907.91   76.49
   0  -1   4 1930.91   76.79
   0  -1   4 1984.40   76.99
   0  -1   4 1993.10   76.29
   0  -1   4 2093.29   77.29
   0  -1  -4 2010.90   76.79
   0   1   4 1931.11   76.39
   0   1  -4 2100.09   77.39
   0   1   4 1970.70   77.69
   0   1  -4 2118.19   77.19
   0   1   4 2027.70   76.69
   0   1  -4 1864.51   76.39
   0   1   4 1866.11   76.99
   0   1  -4 2050.59   76.79
   0   1  -4 2044.80   76.89
   0   1   4 2021.70   77.19
   0   1   4 1989.10   77.29
   0   1   4 2040.40   78.99
   0   1  -4 2092.69   77.29
  -1  -1  -4  571.84   22.10
  -1  -1  -4  575.44   21.70
  -1  -1  -4  593.64   22.60
   1  -1   4  560.54   23.00
   1  -1   4  515.85   21.50
   1  -1   4  516.15   21.20
   1  -1   4  546.55   22.30
   1  -1   4  581.14   21.90
  -1  -1  -4  530.45   22.10
   1   1   4  608.04   23.70
   1   1   4  559.04   22.70
   1   1   4  600.14   23.70
   1   1   4  607.94   25.50
   1   1   4  620.54   23.60
  -1   1  -4  588.64   23.50
  -1   1  -4  598.64   24.40
   1   1   4  604.54   24.60
   1   1   4  588.84   23.00
  -1   1  -4  591.14   23.10
  -1   1  -4  580.84   23.80
   2  -1   4 2333.57   91.89
   2  -1   4 2392.36   91.29
  -2  -1  -4 2487.55   92.39
   2  -1   4 2262.97   90.89
   2  -1   4 2501.95   92.29
  -2  -1  -4 2371.46   91.59
   2   1   4 2513.85   96.39
   2   1   4 2582.04   97.29
   2   1   4 2481.55   98.39
  -2   1  -4 2535.75   96.69
  -2   1  -4 2647.34   97.39
   2   1   4 2426.06   96.69
   3  -1   4  796.82   30.70
   3  -1   4  792.82   31.20
  -3  -1  -4  813.92   31.80
   3   1   4  690.43   33.30
   3   1   4  779.22   28.60
   4  -1   4   59.59    4.70
  -4  -1  -4   44.40    7.00
  -4  -1  -4   48.80    5.00
  -4  -1  -4   43.00    6.50
   4  -1   4   50.09    2.90
  -4   1  -4   28.80    3.90
  -4   1  -4   35.80    5.90
  -4   1  -4   29.20    5.30
  -5  -1  -4    7.70    3.30
  -5  -1  -4    9.50    3.60
  -5  -1  -4   14.30    3.80
  -5   1  -4   12.60    3.70
   5   1   4   15.90    2.50
  -5   1  -4   16.00    3.60
  -6   1  -4   73.49    5.70
  -6  -2   4   73.19    5.50
   6  -2  -4   65.99    4.50
  -6   2   4   73.59    7.30
  -6   2   4   87.79    5.10
   5  -2  -4  117.89    9.80
  -5  -2   4  116.09    7.90
  -5  -2   4  132.19    8.50
   5  -2  -4  115.69    5.90
   5  -2  -4  140.29    6.50
   5   2  -4  116.09    5.90
  -5   2   4  100.89    6.40
  -5   2   4  105.69    8.60
   5   2  -4  100.19   10.10
  -4  -2   4  463.85   20.70
  -4  -2   4  496.45   20.80
   4  -2  -4  479.85   20.20
   4  -2  -4  501.95   18.70
   4  -2  -4  489.95   19.00
  -4  -2   4  440.26   23.20
   4   2  -4  476.85   20.00
  -4   2   4  512.95   20.70
  -4   2   4  508.25   22.10
   4   2  -4  481.85   20.50
   3  -2  -4  182.48    8.50
   3  -2  -4  181.48    7.30
   3  -2  -4  168.88   13.60
   3  -2  -4  186.88    7.50
   3   2  -4  170.08   14.80
   3   2  -4  169.78    8.70
   3   2  -4  180.98    9.60
   3   2  -4  196.28    7.80
   2  -2  -4  491.45   22.00
   2  -2  -4  488.15   19.30
   2  -2  -4  488.55   18.60
  -2  -2   4  446.66   21.90
   2  -2  -4  485.05   19.70
   2  -2  -4  478.75   18.50
   2  -2  -4  498.85   20.20
   2  -2  -4  430.96   22.60
   2  -2  -4  499.45   18.80
  -2  -2   4  498.15   19.40
   2  -2  -4  476.05   18.80
   2   2  -4  509.65   20.50
   2   2  -4  513.95   23.80
  -2   2   4  529.25   24.60
   2   2  -4  539.35   21.00
   2   2  -4  483.85   20.30
  -2   2   4  523.45   21.40
  -2   2   4  517.35   21.10
   2   2  -4  533.75   21.20
   2   2  -4  537.35   20.40
   1  -2  -4 1394.86   54.79
   1  -2  -4 1376.46   54.89
   1  -2  -4 1398.86   55.29
   1  -2  -4 1437.46   54.99
   1  -2  -4 1471.85   58.19
   1  -2  -4 1471.35   55.99
   1  -2  -4 1496.65   54.79
   1  -2  -4 1460.15   56.89
  -1  -2   4 1442.26   55.19
   1  -2  -4 1434.56   55.39
  -1  -2   4 1430.26   55.59
   1   2  -4 1453.75   55.29
  -1   2   4 1461.75   57.69
  -1   2   4 1496.25   55.59
   1   2  -4 1439.26   55.29
   1   2  -4 1357.76   55.19
   1   2  -4 1415.46   54.89
  -1   2   4 1360.56   55.19
  -1   2   4 1409.46   55.29
  -1   2   4 1458.05   58.29
   1   2  -4 1468.55   55.99
   1   2  -4 1511.25   57.39
  -1   2   4 1439.96   56.09
   1   2  -4 1465.75   55.49
   0  -2  -4 5645.24  206.58
   0  -2  -4 5198.38  205.08
   0  -2  -4 5062.09  203.88
   0  -2  -4 5534.55  204.58
   0   2   4 5524.75  206.58
   0   2   4 5269.37  205.18
   0   2   4 5347.06  204.48
   0   2  -4 5293.67  203.88
   0   2  -4 5351.26  204.48
  -1  -2  -4  895.51   34.20
   1  -2   4  901.01   35.60
  -1  -2  -4  893.21   34.70
   1  -2   4  833.32   34.10
   1  -2   4  912.51   34.40
   1  -2   4  818.72   33.70
   1  -2   4  828.02   33.70
  -1  -2  -4 1018.80   36.10
   1  -2   4  884.41   35.00
  -1  -2  -4  845.82   34.70
   1   2   4  995.70   37.60
   1   2   4  953.60   37.30
   1   2   4  970.60   38.20
   1   2   4  998.80   38.90
   1   2   4  965.20   38.90
   1   2   4 1019.80   38.40
   1   2   4 1010.60   40.30
  -1   2  -4 1017.40   38.00
  -1   2  -4  985.20   39.00
  -1   2  -4  928.91   38.60
  -1   2  -4  907.11   37.50
   2  -2   4  919.81   33.90
   2  -2   4  900.71   35.10
   2  -2   4  842.12   33.30
   2  -2   4  824.42   34.30
   2  -2   4  862.31   35.20
   2  -2   4  874.51   33.40
  -2  -2  -4  876.81   34.10
   2   2   4  964.10   36.40
  -2   2  -4  906.81   36.40
  -2   2  -4  916.71   37.70
   2   2   4  914.41   38.40
  -2   2  -4  989.10   39.20
   2   2   4  938.01   37.20
   2   2   4  977.40   39.00
  -2   2  -4  962.90   37.20
  -3  -2  -4  210.98    9.20
  -3  -2  -4  179.88    9.40
  -3  -2  -4  184.18   10.30
   3  -2   4  198.88    7.80
   3  -2   4  181.38    7.70
   3  -2   4  193.38    8.50
  -3   2  -4  186.58   10.30
   3   2   4  201.58    8.20
  -3   2  -4  191.28    9.80
  -4  -2  -4  448.96   22.00
   4  -2   4  449.76   17.90
  -4  -2  -4  420.06   18.90
  -4  -2  -4  418.16   19.30
   4  -2   4  429.86   16.60
  -4  -2  -4  400.46   17.70
   4  -2   4  393.96   16.60
   4   2   4  371.96   16.20
  -4   2  -4  422.56   19.90
  -4   2  -4  388.16   17.60
  -5  -2  -4  139.29    7.30
   5  -2   4  132.39    6.40
   5  -2   4  143.39    6.60
  -5  -2  -4  136.29    8.70
  -5  -2  -4  123.69    9.10
  -5   2  -4  158.98    8.60
  -5   2  -4  158.18    9.00
  -6   2  -4   85.09    5.70
   6  -3  -4   88.39    4.90
  -6  -3   4   98.29    5.90
  -6   3   4  105.19    5.60
  -5  -3   4   30.30    5.40
   5  -3  -4   32.80    4.00
   5  -3  -4   27.70    3.00
  -5  -3   4   25.60    4.00
   5   3  -4   28.90    4.40
  -5   3   4   28.30    5.10
  -5   3   4   26.30    4.00
   5   3  -4   35.40    6.60
  -4  -3   4  495.45   20.30
  -4  -3   4  453.45   20.10
  -4  -3   4  449.95   19.80
   4  -3  -4  461.05   18.60
   4  -3  -4  477.95   20.20
   4  -3  -4  480.05   18.40
  -4   3   4  448.16   18.90
   4   3  -4  446.36   18.90
   4   3  -4  447.06   18.30
  -4   3   4  452.35   20.70
   4   3  -4  437.86   17.40
   3  -3  -4  579.24   21.90
   3  -3  -4  568.04   21.70
   3  -3  -4  581.84   22.90
   3  -3  -4  508.95   27.40
   3   3  -4  560.84   20.70
   3   3  -4  540.45   20.00
   3   3  -4  500.55   22.30
   3   3  -4  521.25   28.10
  -3   3   4  468.85   23.90
  -2  -3   4  507.95   21.80
   2  -3  -4  558.24   20.70
   2  -3  -4  535.35   23.00
  -2  -3   4  504.85   21.60
   2  -3  -4  532.55   20.90
   2  -3  -4  557.94   20.90
   2  -3  -4  547.25   24.20
   2  -3  -4  553.14   21.70
   2  -3  -4  552.64   22.90
   2  -3  -4  524.25   22.10
   2   3  -4  559.34   21.80
  -2   3   4  540.85   22.50
   2   3  -4  495.55   21.10
   2   3  -4  524.25   20.40
  -2   3   4  533.25   22.30
   2   3  -4  558.34   21.00
   2   3  -4  513.75   21.90
   1  -3  -4 2052.99   79.99
   1  -3  -4 2051.59   77.59
   1  -3  -4 2119.49   79.19
  -1  -3   4 2134.89   79.09
   1  -3  -4 2120.39   81.99
   1  -3  -4 1892.61   77.79
   1  -3  -4 2043.80   78.69
   1  -3  -4 2035.50   77.89
   1  -3  -4 2046.00   78.29
   1  -3  -4 1898.41   77.69
  -1   3   4 2022.60   77.29
  -1   3   4 1908.11   76.09
  -1   3   4 2041.10   80.19
  -1   3   4 1896.91   79.09
   1   3  -4 1975.20   78.39
   1   3  -4 2044.80   76.29
  -1   3   4 2131.99   76.99
  -1   3   4 2004.10   76.39
   1   3  -4 1931.11   75.69
   1   3  -4 1993.50   76.49
   1   3  -4 2043.20   77.19
   1   3  -4 1865.81   75.79
   1   3  -4 2020.20   76.49
   0  -3   4  264.57   11.70
   0  -3   4  286.47   11.50
   0  -3   4  287.97   12.30
   0  -3  -4  272.47   11.90
   0  -3  -4  263.47   12.10
   0  -3   4  286.27   12.00
   0  -3   4  264.87   11.10
   0  -3   4  286.37   10.70
   0  -3  -4  239.48   11.20
   0  -3  -4  269.57   11.20
   0  -3  -4  257.87   12.50
   0  -3  -4  266.27   10.90
   0   3   4  254.97   11.10
   0   3  -4  279.27   11.20
   0   3  -4  270.57   12.00
   0   3  -4  285.07   11.10
   0   3   4  256.27   12.80
   0   3   4  269.87   11.00
   0   3   4  278.87   11.80
   0   3  -4  263.97   10.50
   0   3  -4  264.17   11.60
   0   3   4  263.47   10.50
   0   3   4  274.47   11.90
   0   3  -4  282.77   12.70
   0   3   4  248.58   14.40
   0   3  -4  267.77   10.70
   0   3   4  247.08   10.40
   0   3  -4  278.17   10.50
  -1  -3  -4 1018.20   40.30
   1  -3   4 1061.49   40.10
  -1  -3  -4 1086.69   42.80
  -1  -3  -4 1008.20   40.80
   1  -3   4 1001.30   39.70
   1  -3   4 1056.69   41.70
   1  -3   4 1066.99   40.30
   1  -3   4 1038.10   41.90
   1  -3   4 1053.19   41.30
  -1  -3  -4  996.60   43.20
  -1  -3  -4 1044.90   41.00
   1  -3   4 1042.50   40.50
   1   3   4 1207.68   45.80
   1   3   4 1146.39   44.80
   1   3   4 1085.49   44.30
   1   3   4 1104.69   44.30
  -1   3  -4 1203.58   46.10
   1   3   4 1153.68   46.60
   1   3   4 1185.28   48.10
  -1   3  -4 1205.08   45.10
  -1   3  -4 1204.58   46.30
   1   3   4 1185.48   46.20
  -1   3  -4 1105.19   44.50
  -2  -3  -4  594.54   24.60
   2  -3   4  627.74   24.60
   2  -3   4  529.35   26.00
   2  -3   4  609.54   25.60
   2  -3   4  610.04   23.40
   2  -3   4  622.14   23.40
  -2  -3  -4  657.43   28.20
   2   3   4  729.13   27.90
  -2   3  -4  741.63   28.60
   2   3   4  716.43   30.50
   2   3   4  694.83   31.10
   2   3   4  707.63   28.90
  -2   3  -4  746.73   30.90
   2   3   4  687.83   27.40
   3  -3   4  748.83   29.40
   3  -3   4  781.02   29.00
  -3  -3  -4  699.33   29.30
  -3  -3  -4  750.82   29.90
   3  -3   4  731.73   28.60
  -3  -3  -4  713.73   29.30
  -3  -3  -4  760.32   30.30
  -3   3  -4  739.83   29.10
  -3   3  -4  693.33   29.50
   3   3   4  735.23   28.20
   3   3   4  718.03   27.60
   4  -3   4  253.07   10.10
   4  -3   4  244.28   12.10
  -4  -3  -4  243.68   12.40
  -4  -3  -4  248.78   13.50
  -4  -3  -4  245.48   11.10
  -4  -3  -4  236.68   10.90
  -4   3  -4  229.08   11.60
  -4   3  -4  250.67   11.20
   4   3   4  212.88    9.30
  -5  -3  -4   63.99    5.00
   5  -3   4   64.09    4.50
  -5  -3  -4   66.99    6.90
  -5   3  -4   60.49    5.50
  -5   3  -4   70.99    5.90
  -6   3  -4   65.09    4.80
   6  -4  -4   59.29    4.10
  -6  -4   4   56.79    5.70
  -6  -4   4   57.89    4.70
   6  -4  -4   54.39    3.70
  -6   4   4   66.59    4.30
   5  -4  -4  153.98    7.00
   5  -4  -4  140.79   12.40
  -5  -4   4  162.68    8.70
   5  -4  -4  149.59    7.60
  -5  -4   4  166.78    8.60
  -5  -4   4  144.59    8.50
   5  -4  -4  179.88    7.70
  -5   4   4  142.19   10.00
   5   4  -4  128.89   15.00
  -5   4   4  165.98    7.90
   5   4  -4  152.48    7.20
  -4  -4   4  401.06   18.90
  -4  -4   4  361.76   15.50
   4  -4  -4  355.86   14.30
  -4  -4   4  362.16   18.30
   4  -4  -4  355.86   16.60
   4  -4  -4  338.37   14.60
   4  -4  -4  347.97   14.60
   4   4  -4  346.37   14.60
   4   4  -4  340.67   13.40
  -4   4   4  317.77   16.90
   3  -4  -4  121.49    5.50
   3  -4  -4  116.79    5.70
  -3  -4   4  109.29    7.40
  -3  -4   4  129.99    8.10
   3  -4  -4  129.29    5.20
   3  -4  -4  125.49    7.20
   3  -4  -4  116.79   14.30
  -3  -4   4  117.79    8.10
   3   4  -4  124.29    6.10
   3   4  -4  122.19    5.10
  -3   4   4  116.99    9.70
  -3   4   4  109.69    7.00
   2  -4  -4  583.94   23.00
   2  -4  -4  532.25   24.70
   2  -4  -4  563.44   25.60
   2  -4  -4  586.84   22.00
   2  -4  -4  579.94   25.00
  -2  -4   4  556.74   23.50
   2  -4  -4  579.44   21.80
   2  -4  -4  538.35   24.20
   2  -4  -4  553.14   21.90
   2   4  -4  555.14   22.00
   2   4  -4  507.55   22.50
   2   4  -4  510.25   21.60
   2   4  -4  477.55   20.30
   2   4  -4  546.75   20.40
  -2   4   4  576.04   23.30
  -1  -4   4 1319.17   51.69
  -1  -4   4 1322.27   51.59
   1  -4  -4 1254.57   49.99
   1  -4  -4 1309.77   52.99
   1  -4  -4 1288.77   51.59
   1  -4  -4 1301.97   50.19
   1  -4  -4 1312.77   52.19
   1  -4  -4 1288.67   51.89
   1  -4  -4 1353.46   55.79
   1  -4  -4 1322.97   50.79
  -1   4   4 1210.88   49.30
   1   4  -4 1291.87   49.60
   1   4  -4 1320.97   49.40
   1   4  -4 1261.97   49.00
  -1   4   4 1346.67   50.19
  -1   4   4 1237.28   53.89
  -1   4   4 1216.28   48.50
  -1   4   4 1312.97   50.39
   1   4  -4 1282.17   50.19
  -1   4   4 1261.67   48.80
   1   4  -4 1251.87   48.40
   1   4  -4 1259.37   48.30
   1   4  -4 1204.28   51.59
   0  -4  -4 1705.63   71.49
   0  -4   4 1791.72   71.49
   0  -4   4 1942.31   72.69
   0  -4  -4 1749.32   71.29
   0  -4   4 1875.01   72.99
   0  -4   4 1875.11   70.89
   0  -4  -4 1861.21   72.79
   0  -4   4 1849.42   72.59
   0  -4  -4 1873.01   75.69
   0  -4  -4 1818.52   72.89
   0  -4   4 1993.40   73.19
   0  -4   4 1888.11   71.99
   0  -4  -4 1902.01   72.59
   0  -4  -4 1913.61   73.79
   0   4   4 2005.30   79.99
   0   4  -4 1886.01   74.99
   0   4   4 1872.41   77.89
   0   4  -4 2011.20   75.69
   0   4  -4 2013.20   76.99
   0   4  -4 1836.72   75.09
   0   4   4 1967.40   75.59
   0   4  -4 1995.50   76.89
   0   4  -4 2024.10   75.59
   0   4  -4 1958.10   74.89
   0   4   4 1918.71   75.69
   0   4   4 2061.59   76.69
   0   4   4 1997.50   76.79
   0   4  -4 1992.40   76.49
   1  -4   4 3821.92  140.69
   1  -4   4 3628.24  140.89
  -1  -4  -4 3445.56  139.09
  -1  -4  -4 3582.04  143.09
  -1  -4  -4 3760.72  140.19
  -1  -4  -4 3651.33  139.99
   1  -4   4 3676.73  139.19
   1  -4   4 3643.74  139.39
  -1  -4  -4 3762.12  142.59
   1  -4   4 3456.85  139.59
  -1   4  -4 3430.86  133.89
  -1   4  -4 3510.25  135.99
  -1   4  -4 3530.85  134.49
  -1   4  -4 3524.65  136.09
   1   4   4 3548.94  135.99
   1   4   4 3701.53  139.19
   1   4   4 3390.06  133.69
   1   4   4 3550.44  135.59
  -1   4  -4 3482.35  135.29
  -2  -4  -4  447.96   18.50
   2  -4   4  461.55   17.50
   2  -4   4  465.55   18.40
   2  -4   4  472.55   17.60
   2  -4   4  423.66   17.60
   2  -4   4  446.96   20.50
  -2  -4  -4  447.96   18.50
  -2  -4  -4  423.66   23.90
   2   4   4  447.66   18.20
   2   4   4  487.95   18.30
   2   4   4  483.75   18.90
   2   4   4  473.65   21.80
  -2   4  -4  471.95   22.40
   3  -4   4   64.39    3.40
  -3  -4  -4   65.29    4.70
   3  -4   4   64.99    3.20
  -3  -4  -4   63.19    5.10
  -3  -4  -4   57.09    5.60
   3  -4   4   63.19    4.10
   3  -4   4   68.59    5.00
  -3  -4  -4   65.39    4.80
  -3  -4  -4   69.89    6.70
  -3   4  -4   57.09    5.80
   3   4   4   58.69    3.30
  -3   4  -4   60.89    5.40
   3   4   4   59.39    4.20
  -4  -4  -4  290.57   13.00
   4  -4   4  311.17   12.30
  -4  -4  -4  277.87   13.60
  -4  -4  -4  306.67   12.90
   4  -4   4  306.37   12.20
   4  -4   4  319.37   14.40
  -4  -4  -4  320.67   15.50
   4  -4   4  271.77   12.50
  -4  -4  -4  311.67   14.60
   4   4   4  308.77   12.40
  -4   4  -4  314.47   14.50
  -4   4  -4  299.37   12.90
  -4   4  -4  317.77   13.90
  -5  -4  -4  134.39    6.90
   5  -4   4  137.39    6.60
   5  -4   4  131.59    6.60
  -5  -4  -4  129.79    6.90
  -5  -4  -4  132.89    8.60
   5  -4   4  124.69    6.10
  -5   4  -4  149.39    8.30
  -5   4  -4  148.39   10.60
  -5   4  -4  140.69    6.40
  -6  -5   4   22.10    4.50
   6  -5  -4   29.10    4.80
  -6  -5   4   22.00    3.60
   6  -5  -4   28.80    4.40
   6  -5  -4   23.40    2.80
  -6   5   4   28.60    3.10
   5  -5  -4    6.20    2.70
   5  -5  -4    9.40    1.80
  -5  -5   4    7.60    2.80
   5  -5  -4    7.70    2.10
  -5  -5   4    9.80    3.10
  -5  -5   4   10.30    3.00
  -5   5   4    4.30    4.70
   5   5  -4    5.00    2.50
  -5   5   4    3.00    2.00
   4  -5  -4  306.67   12.70
   4  -5  -4  309.27   12.90
  -4  -5   4  327.97   14.30
  -4  -5   4  316.47   14.20
  -4  -5   4  300.77   14.00
   4  -5  -4  315.87   15.70
  -4  -5   4  309.87   13.70
   4  -5  -4  301.67   12.50
   4   5  -4  298.07   13.80
   4   5  -4  312.57   12.30
  -4   5   4  286.87   15.90
  -4   5   4  306.97   13.50
   3  -5  -4  707.13   26.80
  -3  -5   4  667.23   27.70
   3  -5  -4  687.83   27.10
  -3  -5   4  656.93   27.80
  -3  -5   4  697.13   28.30
   3  -5  -4  709.63   26.90
  -3  -5   4  728.93   28.30
   3  -5  -4  685.23   28.60
   3   5  -4  695.93   26.30
   3   5  -4  655.03   26.10
  -3   5   4  680.43   28.90
   3   5  -4  709.53   27.30
  -3   5   4  641.04   27.30
   2  -5  -4  814.22   36.60
   2  -5  -4  848.42   32.80
   2  -5  -4  900.81   32.60
   2  -5  -4  805.32   37.00
   2  -5  -4  889.91   32.60
   2  -5  -4  821.22   34.50
   2   5  -4  832.02   34.50
   2   5  -4  792.92   35.20
   2   5  -4  872.51   33.60
   2   5  -4  839.62   32.60
  -2   5   4  899.41   36.60
   2   5  -4  860.81   32.70
   1  -5  -4  337.47   16.90
   1  -5  -4  377.16   17.30
   1  -5  -4  344.17   13.80
   1  -5  -4  358.56   13.80
  -1  -5   4  342.87   16.60
  -1  -5   4  360.96   16.70
   1  -5  -4  349.17   14.20
   1  -5  -4  351.66   15.10
   1  -5  -4  351.36   14.00
   1  -5  -4  370.56   17.60
   1   5  -4  430.16   17.00
   1   5  -4  390.66   16.30
  -1   5   4  393.66   17.40
   1   5  -4  438.56   16.20
  -1   5   4  377.66   16.70
   1   5  -4  425.46   18.00
   1   5  -4  428.16   17.40
  -1   5   4  404.46   16.10
   1   5  -4  413.56   19.00
  -1   5   4  391.86   16.60
  -1   5   4  400.26   16.50
  -1   5   4  459.75   18.80
  -1   5   4  401.66   18.90
   0  -5   4  265.97   13.60
   0  -5  -4  258.27   13.10
   0  -5   4  260.67   12.80
   0  -5  -4  249.88   18.90
   0  -5  -4  261.07   13.30
   0  -5  -4  272.17   14.20
   0  -5   4  254.47   13.20
   0  -5  -4  265.97   10.90
   0   5  -4  259.37   10.70
   0   5   4  264.27   10.30
   0   5   4  267.57   10.50
   0   5  -4  261.77   11.50
   0   5   4  242.88   11.70
   0   5   4  271.37   11.40
   0   5   4  248.38   18.20
   0   5  -4  275.47   12.70
   0   5  -4  263.97   10.40
   0   5   4  239.98   12.70
   0   5  -4  263.77   10.50
   0   5   4  250.97   10.40
   0   5   4  275.17   12.80
   0   5  -4  269.77   14.20
   0   5  -4  265.57   11.30
   1  -5   4  558.04   24.70
   1  -5   4  580.64   24.40
   1  -5   4  557.84   26.40
   1  -5   4  644.04   26.00
   1  -5   4  569.34   22.70
   1  -5   4  610.04   22.70
   1  -5   4  588.94   23.60
   1  -5   4  593.34   22.80
  -1  -5  -4  591.84   27.80
  -1  -5  -4  578.14   23.80
   1   5   4  492.75   23.00
  -1   5  -4  555.34   25.40
  -1   5  -4  589.84   22.40
   1   5   4  554.14   24.40
  -1   5  -4  571.44   22.70
   1   5   4  578.34   21.80
  -1   5  -4  596.34   25.00
   1   5   4  533.25   24.10
   1   5   4  589.34   21.80
  -2  -5  -4 1409.66   53.59
  -2  -5  -4 1249.07   54.99
   2  -5   4 1483.15   52.99
  -2  -5  -4 1243.68   60.69
   2  -5   4 1462.25   54.09
   2  -5   4 1428.96   52.99
  -2  -5  -4 1448.06   54.19
  -2  -5  -4 1322.07   53.49
  -2   5  -4 1343.67   67.99
   2   5   4 1514.95   57.99
   2   5   4 1603.04   58.89
  -2   5  -4 1582.04   59.09
   2   5   4 1530.55   57.89
   3  -5   4  796.72   30.60
   3  -5   4  766.02   30.60
  -3  -5  -4  742.03   31.30
  -3  -5  -4  813.92   32.10
  -3  -5  -4  747.53   31.10
  -3  -5  -4  795.82   32.20
  -3  -5  -4  802.62   31.10
   3  -5   4  829.12   32.00
   3   5   4  772.42   30.10
  -3   5  -4  808.92   30.30
  -3   5  -4  723.93   29.10
   3   5   4  715.23   29.10
  -3   5  -4  734.33   30.70
   3   5   4  767.72   29.10
   4  -5   4   86.29    4.50
  -4  -5  -4   92.99    7.70
   4  -5   4   97.59    4.90
   4  -5   4   80.69    8.70
  -4  -5  -4   87.29    9.40
  -4  -5  -4   92.39    6.40
  -4  -5  -4   85.69    5.60
   4  -5   4   87.59    4.90
  -4  -5  -4   91.49    5.60
   4   5   4   77.29    4.30
  -4   5  -4   76.59    5.70
  -4   5  -4   78.29    6.10
   4   5   4   70.89    6.90
  -4   5  -4   70.59    4.00
   5  -5   4    6.80    2.50
   5  -5   4    5.70    1.90
  -5  -5  -4    5.10    2.20
  -5  -5  -4    4.90    3.60
   5  -5   4    5.20    2.10
  -5  -5  -4    3.60    2.30
  -5   5  -4    4.10    2.40
  -6  -6   4   19.50    3.50
   6  -6  -4   20.40    2.70
  -6  -6   4   19.40    3.90
  -6   6   4   26.10    2.80
   5  -6  -4  224.88   10.60
   5  -6  -4  246.98   10.00
   5  -6  -4  254.77   11.20
  -5  -6   4  201.38   12.70
   5  -6  -4  237.78    9.90
  -5  -6   4  256.57   11.70
  -5  -6   4  252.87   10.90
   5   6  -4  253.67   10.20
  -5   6   4  247.58   12.80
   5   6  -4  233.08   10.70
  -4  -6   4  144.79    7.70
  -4  -6   4  138.39    8.30
  -4  -6   4  144.29    8.10
   4  -6  -4  137.79    7.60
  -4  -6   4  132.29    7.80
   4  -6  -4  142.89    6.50
   4  -6  -4  146.79    6.30
   4  -6  -4  150.28   13.00
   4  -6  -4  147.59    7.20
  -4   6   4   93.59   10.10
   4   6  -4  117.09    5.50
   4   6  -4  124.89    5.80
   4   6  -4  129.59    8.70
   4   6  -4  130.59    8.70
  -4   6   4  126.79    6.90
   3  -6  -4  171.58    7.10
  -3  -6   4  170.08    8.50
  -3  -6   4  175.58    9.00
   3  -6  -4  162.88    7.60
   3  -6  -4  166.28    8.30
   3  -6  -4  172.58   10.70
  -3  -6   4  162.48    9.20
   3  -6  -4  162.38    7.20
  -3  -6   4  174.08    8.60
   3   6  -4  165.08    7.00
   3   6  -4  166.68    8.80
  -3   6   4  158.18   10.80
   3   6  -4  163.98    6.80
  -3   6   4  159.28    8.40
   2  -6  -4   89.89    4.70
  -2  -6   4   96.79    6.60
  -2  -6   4   92.99    7.10
   2  -6  -4   93.69    5.50
   2  -6  -4   94.79    4.20
  -2  -6   4   97.29    5.80
   2  -6  -4   96.09    4.40
   2  -6  -4   90.99    7.30
  -2  -6   4   91.59    6.30
  -2   6   4   98.89   13.60
   2   6  -4  120.09    6.40
   2   6  -4  112.39    5.00
   2   6  -4   98.09    5.00
  -2   6   4  118.79    8.50
   2   6  -4  106.69    4.70
   1  -6  -4  642.84   27.20
   1  -6  -4  730.53   26.90
   1  -6  -4  706.43   31.90
   1  -6  -4  734.43   26.90
   1  -6  -4  709.93   27.50
   1  -6  -4  669.23   31.30
  -1   6   4  765.52   32.30
   1   6  -4  759.72   28.90
  -1   6   4  758.92   28.80
   1   6  -4  756.62   28.70
   1   6  -4  725.63   28.70
   1   6  -4  742.53   31.50
   1   6  -4  731.73   29.90
   1   6  -4  715.93   30.40
   0  -6  -4 1044.40   38.70
   0  -6  -4 1011.90   43.20
   0  -6   4  907.91   41.70
   0  -6   4  976.50   41.90
   0   6  -4  874.71   35.00
   0   6  -4  895.51   36.00
   0   6   4  869.71   36.00
   0   6   4  925.01   36.00
   0   6  -4  898.31   34.80
   0   6   4  897.31   34.70
   0   6   4  907.61   34.80
   0   6  -4  907.81   37.70
   0   6  -4  909.61   35.90
   0   6   4  899.31   34.60
   0   6  -4  897.61   34.70
   0   6   4  908.91   38.30
   0   6   4  921.41   37.80
   0   6  -4  913.71   34.60
  -1  -6  -4  372.06   15.60
   1  -6   4  353.16   19.50
  -1  -6  -4  356.96   21.50
   1  -6   4  350.76   15.90
   1  -6   4  374.46   14.70
   1  -6   4  397.96   14.60
   1  -6   4  370.86   14.50
   1   6   4  399.46   15.60
   1   6   4  398.46   15.60
   1   6   4  391.66   15.40
   1   6   4  394.66   19.20
  -1   6  -4  372.46   19.90
   1   6   4  406.46   16.70
  -2  -6  -4  146.39    7.80
  -2  -6  -4  141.99    7.20
  -2  -6  -4  144.49    7.60
   2  -6   4  142.99    7.30
  -2  -6  -4  142.79    7.30
  -2  -6  -4  147.09    8.50
   2  -6   4  152.08    6.20
   2  -6   4  148.99    6.30
   2  -6   4  142.79    8.20
   2  -6   4  135.79    7.60
  -2  -6  -4  146.39    8.70
  -2   6  -4  139.49    7.40
   2   6   4  133.19    7.10
  -2   6  -4  132.99    5.90
  -2   6  -4  121.09    9.00
   2   6   4  138.49    5.60
  -3  -6  -4  129.59    8.20
  -3  -6  -4  122.29    8.20
   3  -6   4  124.09    8.70
  -3  -6  -4  129.99    6.70
   3  -6   4  123.99    5.80
  -3  -6  -4  126.49    6.70
  -3  -6  -4  129.19    7.50
   3  -6   4  120.89    5.90
   3  -6   4  114.29    7.00
   3   6   4  115.69    5.40
  -3   6  -4  133.09    7.20
  -3   6  -4  119.49    5.60
   3   6   4  121.19    5.60
   3   6   4  128.19    7.40
   4  -6   4  237.68   12.40
  -4  -6  -4  262.47   11.50
   4  -6   4  235.78   11.50
  -4  -6  -4  251.67   15.20
  -4  -6  -4  251.97   11.90
  -4  -6  -4  271.87   11.40
   4  -6   4  276.07   10.90
   4  -6   4  277.77   15.50
   4  -6   4  269.37   11.00
  -4  -6  -4  287.37   13.00
   4   6   4  282.07   11.50
  -4   6  -4  282.07   13.10
  -4   6  -4  291.87   11.30
   4   6   4  263.07   14.00
  -5  -6  -4   73.29    4.10
   5  -6   4   65.59    3.90
   5  -6   4   61.99    4.00
  -5  -6  -4   56.79    6.10
  -5  -6  -4   69.89    4.20
   5  -6   4   64.09    5.00
  -5   6  -4   82.59    5.40
   5  -7  -4    7.10    1.90
  -5  -7   4    4.10    2.30
  -5  -7   4    3.80    2.20
   5  -7  -4    4.50    1.50
   5  -7  -4    5.90    1.90
  -5  -7   4    7.00    2.50
  -5   7   4    8.50    2.00
  -5   7   4    5.00    4.00
   5   7  -4    8.10    2.10
  -4  -7   4  176.88    9.40
   4  -7  -4  185.98   16.60
  -4  -7   4  193.88    9.10
  -4  -7   4  191.78    9.60
   4  -7  -4  190.08    8.10
   4  -7  -4  184.38    8.00
   4  -7  -4  180.98    8.50
  -4  -7   4  185.78    9.20
   4   7  -4  175.48    6.90
  -4   7   4  173.88    8.10
   4   7  -4  160.18   10.30
  -4   7   4  142.59   11.00
   4   7  -4  129.29   10.90
   3  -7  -4  265.87   16.80
  -3  -7   4  299.97   13.10
   3  -7  -4  297.17   12.20
   3  -7  -4  301.27   11.90
   3  -7  -4  289.07   12.30
   3  -7  -4  296.47   12.60
  -3  -7   4  292.57   12.80
  -3  -7   4  304.07   13.40
  -3  -7   4  287.57   13.50
   3   7  -4  256.57   11.20
  -3   7   4  286.27   14.60
  -3   7   4  262.67   12.20
   3   7  -4  275.47   11.20
  -2  -7   4  505.65   21.70
   2  -7  -4  536.05   20.20
  -2  -7   4  485.65   20.30
   2  -7  -4  534.85   20.50
  -2  -7   4  540.75   21.60
  -2  -7   4  511.85   21.40
  -2  -7   4  514.45   21.00
   2  -7  -4  534.85   20.20
   2  -7  -4  511.15   20.70
   2  -7  -4  510.65   21.40
   2   7  -4  509.95   20.50
  -2   7   4  500.95   21.70
   2   7  -4  529.85   20.70
   2   7  -4  525.15   22.20
  -2   7   4  535.35   22.80
   2   7  -4  539.25   20.40
   1  -7  -4  235.08   10.70
  -1  -7   4  214.98   10.90
  -1  -7   4  217.68    9.90
   1  -7  -4  218.78    9.20
  -1  -7   4  232.68    9.20
  -1  -7   4  233.78   10.90
   1  -7  -4  225.98    9.30
   1   7  -4  248.38   16.80
   1   7  -4  276.97   11.00
   1   7  -4  265.37   12.80
  -1   7   4  264.37   13.10
   1   7  -4  287.87   11.40
  -1   7   4  303.07   11.30
   0  -7  -4   26.20    4.60
   0  -7   4   20.00    2.40
   0  -7  -4   27.50    3.50
   0  -7  -4   19.30    3.10
   0  -7   4   25.80    2.90
   0  -7   4   34.60    8.50
   0  -7  -4   20.40    2.20
   0   7  -4   21.60    1.90
   0   7   4   21.50    2.00
   0   7   4   18.70    3.60
   0   7  -4   25.80    3.00
   0   7   4   21.50    2.30
   0   7   4   25.60    5.50
   0   7  -4   20.60    1.90
   0   7  -4   21.70    2.80
   0   7   4   18.70    1.70
   0   7  -4   20.70    4.80
   1  -7   4  138.99    6.40
  -1  -7  -4  146.49    8.10
  -1  -7  -4  155.08    6.50
  -1  -7  -4  151.38    7.70
   1  -7   4  143.79    7.30
   1  -7   4  151.38    6.30
  -1  -7  -4  150.98    7.40
  -1  -7  -4  155.28    7.80
   1  -7   4  142.09    6.60
  -1  -7  -4  155.18    7.80
   1   7   4  131.19    5.60
   1   7   4  145.09    6.20
   1   7   4  124.89    6.50
   1   7   4  132.99    7.70
  -2  -7  -4  165.88    8.20
  -2  -7  -4  161.08    8.90
  -2  -7  -4  160.48    7.80
   2  -7   4  139.89    7.90
  -2  -7  -4  159.68    7.10
   2  -7   4  150.18    7.30
   2  -7   4  163.88    7.30
  -2  -7  -4  158.38    7.70
   2  -7   4  159.28    6.80
   2  -7   4  141.89   10.00
  -2  -7  -4  160.58    8.70
   2   7   4  119.99    5.10
   2   7   4  119.19    7.40
   2   7   4  118.49    5.50
   2   7   4  112.99    5.60
  -3  -7  -4  508.25   20.70
  -3  -7  -4  509.15   22.30
  -3  -7  -4  506.35   20.60
   3  -7   4  507.05   20.00
  -3  -7  -4  520.55   21.70
   3  -7   4  480.65   23.10
   3  -7   4  501.85   20.30
  -3  -7  -4  510.15   21.00
   3   7   4  460.25   20.00
   3   7   4  469.35   18.20
   3   7   4  460.65   18.00
  -3   7  -4  436.56   19.50
  -4  -7  -4  104.69    7.50
   4  -7   4  101.29    6.20
   4  -7   4   98.49    4.90
   4  -7   4   98.39    5.80
  -4  -7  -4   96.59    5.50
  -4  -7  -4   94.79    6.10
  -4  -7  -4  105.29    5.60
   4  -7   4  100.39    4.90
  -4   7  -4   92.09    6.30
   4   7   4   94.59    4.80
   4   7   4   91.49    5.40
   5  -7   4    8.20    1.90
   5  -7   4    4.10    1.50
  -5  -7  -4    5.60    1.80
  -5  -7  -4    4.00    5.50
   5  -7   4    8.20    2.30
  -5  -7  -4    1.70    1.70
  -5   7  -4    5.80    2.10
  -5  -8   4   37.10    3.50
   5  -8  -4   36.00    2.90
  -5  -8   4   39.90    3.30
   5  -8  -4   38.70    3.90
  -5  -8   4   34.20    3.50
  -5  -8   4   36.90    2.80
  -5   8   4   24.20    5.10
  -5   8   4   25.70    3.30
   5   8  -4   17.70    3.10
  -4  -8   4  299.77   13.40
   4  -8  -4  283.87   14.00
  -4  -8   4  303.97   13.10
   4  -8  -4  295.37   12.20
  -4  -8   4  316.77   13.10
   4  -8  -4  302.27   12.10
   4  -8  -4  308.07   12.40
  -4  -8   4  296.77   13.30
  -4   8   4  301.97   12.50
   4   8  -4  288.57   12.10
   4   8  -4  282.27   11.80
  -4   8   4  250.87   14.50
   4   8  -4  291.47   11.50
  -3  -8   4   24.10    4.70
   3  -8  -4   15.90    2.10
  -3  -8   4   22.10    2.60
   3  -8  -4   20.90    2.70
  -3  -8   4   21.90    4.40
   3  -8  -4   20.40    2.40
  -3  -8   4   15.90    2.70
   3  -8  -4   30.70    5.20
   3  -8  -4   15.00    3.70
  -3  -8   4   28.60    4.20
   3   8  -4   19.20    2.60
  -3   8   4   13.00    4.50
   3   8  -4   17.20    2.10
   3   8  -4   16.80    2.90
   3   8  -4    8.90    4.80
   2  -8  -4   85.99    4.20
  -2  -8   4  105.39    7.80
  -2  -8   4   94.59    7.10
   2  -8  -4   83.89    5.10
  -2  -8   4   82.19   13.90
  -2  -8   4   87.39    4.40
   2  -8  -4   74.39    5.60
   2  -8  -4   78.89    6.10
   2   8  -4   96.29    4.40
   2   8  -4   99.19    7.70
   2   8  -4   90.69    4.50
  -2   8   4   88.59    9.70
   2   8  -4   90.29    4.90
  -1  -8   4  334.47   14.50
  -1  -8   4  328.87   13.00
   1  -8  -4  337.77   14.30
  -1  -8   4  332.17   14.90
   1  -8  -4  335.47   13.10
  -1  -8   4  307.27   14.80
  -1  -8   4  305.77   14.30
  -1  -8   4  335.77   13.80
   1   8  -4  330.67   13.20
   1   8  -4  304.57   15.30
   1   8  -4  324.17   12.80
   1   8  -4  312.07   13.20
   1   8  -4  321.67   12.70
  -1   8   4  323.47   15.00
   1   8  -4  317.87   13.90
   0  -8  -4  773.02   29.10
   0  -8  -4  787.22   30.40
   0  -8   4  767.12   30.30
   0  -8  -4  723.83   29.80
   0  -8  -4  751.52   30.30
   0  -8  -4  737.33   30.30
   0  -8   4  738.03   29.00
   0  -8   4  750.92   29.70
   0   8  -4  736.33   28.50
   0   8  -4  721.53   28.40
   0   8   4  691.33   30.90
   0   8   4  748.13   28.50
   0   8   4  752.62   28.40
   0   8  -4  751.62   28.70
   0   8   4  733.53   29.50
  -1  -8  -4  189.38    8.70
  -1  -8  -4  208.68    9.40
  -1  -8  -4  191.08    7.80
  -1  -8  -4  177.68    9.40
   1  -8   4  184.98    7.90
   1  -8   4  172.38    7.70
  -1  -8  -4  192.48    9.60
   1  -8   4  167.98    8.60
  -1  -8  -4  194.58    9.20
   1   8   4  199.08    8.50
   1   8   4  199.58    8.20
   1   8   4  202.18    8.10
   1   8   4  195.08   10.90
   1   8   4  178.18    9.10
  -2  -8  -4   51.29    5.60
  -2  -8  -4   38.50    5.70
  -2  -8  -4   44.00    3.20
   2  -8   4   44.10    3.40
  -2  -8  -4   47.50    4.40
  -2  -8  -4   44.70    4.30
  -2  -8  -4   49.90    4.70
   2  -8   4   33.00    4.60
   2  -8   4   48.20    3.00
   2   8   4   44.70    3.30
   2   8   4   44.00    6.80
   2   8   4   46.60    2.80
   2   8   4   41.40    3.10
  -3  -8  -4  203.78   12.40
   3  -8   4  229.58    9.30
  -3  -8  -4  200.28    9.20
  -3  -8  -4  220.78   10.00
  -3  -8  -4  218.58   10.40
  -3  -8  -4  231.08   10.10
  -3  -8  -4  231.78   11.30
   3  -8   4  228.48    9.70
   3   8   4  222.28    9.60
   3   8   4  217.78    9.10
   3   8   4  222.28   12.60
  -3   8  -4  201.08   10.80
   3   8   4  233.68    9.70
   4  -8   4   74.29    4.30
   4  -8   4   77.79    4.40
   4  -8   4   75.09    4.00
  -4  -8  -4   77.49    5.10
  -4  -8  -4   77.79    4.50
  -4  -8  -4   76.79    4.60
  -4  -8  -4   67.89    4.10
  -4  -8  -4   82.39    6.10
   4   8   4   84.29    5.50
   4   8   4   87.69    5.50
   4   8   4   90.99    4.60
  -4   8  -4   91.39    5.90
  -5  -9   4    1.70    1.10
  -5  -9   4    2.00    2.60
  -5  -9   4    3.60    1.70
  -4  -9   4   51.49    2.90
   4  -9  -4   56.89    3.20
  -4  -9   4   50.09    4.10
  -4  -9   4   49.80    4.30
  -4  -9   4   52.19    4.40
   4  -9  -4   57.59    3.40
  -4  -9   4   47.90    4.30
   4   9  -4   60.29    3.40
  -4   9   4   51.59    6.60
  -4   9   4   64.29    4.80
   4   9  -4   60.79    3.70
   4   9  -4   47.70    5.00
  -3  -9   4  127.09    5.70
   3  -9  -4  121.69    7.60
  -3  -9   4  130.79    7.40
   3  -9  -4  126.29    5.80
  -3  -9   4  127.09    7.00
   3  -9  -4  132.99    6.00
  -3  -9   4  142.29    7.40
  -3  -9   4  128.49    6.80
  -3   9   4  118.29    8.60
   3   9  -4  107.29    5.20
   3   9  -4  104.99    5.80
   3   9  -4   94.89   12.00
   3   9  -4  109.59    5.00
   3   9  -4  116.39    9.20
  -3   9   4   92.19    7.00
   2  -9  -4  622.54   22.80
  -2  -9   4  569.64   24.00
  -2  -9   4  581.44   23.50
  -2  -9   4  601.34   22.70
   2  -9  -4  586.54   23.90
  -2  -9   4  522.25   24.80
  -2  -9   4  597.64   24.10
  -2  -9   4  577.14   23.80
   2   9  -4  572.54   23.20
   2   9  -4  551.84   23.00
   2   9  -4  584.04   24.50
  -2   9   4  612.14   25.10
   2   9  -4  595.14   22.80
   2   9  -4  568.54   26.20
   2   9  -4  579.44   22.70
   1  -9  -4  419.06   17.50
  -1  -9   4  406.26   17.90
  -1  -9   4  413.76   16.20
  -1  -9   4  410.36   19.80
  -1  -9   4  414.86   17.00
  -1  -9   4  420.06   17.70
  -1  -9   4  398.56   17.50
   1   9  -4  390.96   15.40
  -1   9   4  406.96   17.40
   1   9  -4  376.46   15.80
   1   9  -4  388.36   15.60
   1   9  -4  361.26   19.60
   1   9  -4  376.36   16.80
   1   9  -4  393.86   15.40
   0  -9  -4   24.30    2.40
   0  -9  -4   22.50    3.20
   0  -9  -4   24.70    4.30
   0  -9   4   20.40    3.40
   0  -9  -4   23.10    4.70
   0  -9   4   22.20    3.30
   0   9   4   22.30    2.80
   0   9  -4   29.50    2.90
   0   9  -4   24.40    2.30
   0   9   4   23.90    2.30
  -1  -9  -4  105.09    4.60
  -1  -9  -4  101.69    7.20
  -1  -9  -4   93.49    6.40
  -1  -9  -4   96.49    6.50
   1  -9   4   91.09    4.70
   1  -9   4   94.89    6.30
   1  -9   4   92.39    5.60
  -1  -9  -4   95.29    5.70
  -1  -9  -4  107.09    6.40
   1   9   4   86.29    4.10
   1   9   4   80.69   13.30
   1   9   4   81.39    4.20
   1   9   4   82.39    5.00
  -2  -9  -4   89.79    5.60
  -2  -9  -4   96.49    6.10
  -2  -9  -4   79.49    5.30
  -2  -9  -4   84.99    8.00
   2  -9   4   87.99    4.40
   2  -9   4   87.69    4.50
  -2  -9  -4   87.49    4.30
   2  -9   4   86.59    5.90
  -2  -9  -4   86.29    6.50
   2   9   4   55.39    9.40
   2   9   4   61.59    4.30
   2   9   4   64.39    3.70
   2   9   4   60.09    3.30
  -3  -9  -4   91.89    5.80
  -3  -9  -4   89.49    4.30
   3  -9   4   87.29    4.40
  -3  -9  -4   87.29    5.00
   3  -9   4   83.59    4.50
  -3  -9  -4   83.79    5.10
  -3  -9  -4   86.49    6.30
   3   9   4   80.29    4.50
   3   9   4   78.49    5.00
   3   9   4   79.09    4.10
  -4  -9  -4   26.50    2.20
  -4  -9  -4   21.60    2.50
  -4  -9  -4   25.20    4.30
   4  -9   4   25.00    2.50
  -4  -9  -4   18.80    3.20
   4  -9   4   26.50    2.80
  -4  -9  -4   23.50    2.70
   4  -9   4   25.60    3.20
   4   9   4   25.20    3.40
   4   9   4   18.90    2.80
  -4 -10   4   37.80    3.60
  -4 -10   4   41.10    3.20
  -4 -10   4   42.10    3.50
  -4 -10   4   48.50    3.50
  -4 -10   4   43.90    2.40
   4 -10  -4   45.80    2.70
  -4  10   4   43.80    5.20
   4  10  -4   42.40    3.80
   4  10  -4   45.30    3.00
   4  10  -4   43.40    3.00
  -3 -10   4   12.50    4.30
  -3 -10   4   20.50    4.40
  -3 -10   4   15.80    4.10
   3 -10  -4   12.20    3.30
  -3 -10   4   13.90    2.90
  -3 -10   4   15.20    2.00
   3  10  -4   14.40    3.00
   3  10  -4   19.30    2.30
   3  10  -4   13.40    2.10
   3  10  -4   19.60    2.20
  -2 -10   4  141.29    7.40
  -2 -10   4  137.89    7.70
  -2 -10   4  120.49    9.10
  -2 -10   4  135.09    7.70
   2 -10  -4  142.89    7.70
  -2 -10   4  146.89    6.00
  -2 -10   4  151.08    7.10
   2  10  -4  138.99    6.10
   2  10  -4  136.99    6.50
   2  10  -4  130.29    7.20
  -2  10   4  136.59    8.70
   2  10  -4  140.89    6.10
  -1 -10   4  122.29    6.40
   1 -10  -4  111.39    6.90
  -1 -10   4  128.19    5.30
  -1 -10   4  112.09    7.00
  -1 -10   4  117.19    7.50
   1  10  -4  113.49    5.40
   1  10  -4  112.29    5.60
   1  10  -4  114.49    5.30
  -1  10   4  116.59    7.60
   0 -10   4   91.69    6.40
   0 -10  -4   95.39    6.30
   0 -10  -4   72.79    8.10
   0 -10  -4   94.29    4.40
   0 -10   4  100.79    5.50
   0  10   4   94.59    7.00
   0  10  -4   93.89    5.00
   0  10   4   93.69    4.70
  -1 -10  -4  151.88    6.30
  -1 -10  -4  150.38    8.10
  -1 -10  -4  142.29    7.30
   1 -10   4  144.59    7.30
   1 -10   4  134.99    9.60
  -1 -10  -4  140.39    7.70
  -1 -10  -4  155.48    8.20
   1  10   4  138.29    6.30
  -1  10  -4  132.39    9.30
   1  10   4  139.09    6.00
   1  10   4  114.79    7.70
   2 -10   4   28.20    2.60
  -2 -10  -4   31.70    4.00
   2 -10   4   19.70    3.80
  -2 -10  -4   27.70    2.30
  -2 -10  -4   22.70    4.50
  -2 -10  -4   23.40    3.20
  -2 -10  -4   23.40    3.70
   2  10   4   28.70    4.20
   2  10   4   20.70    2.40
   2  10   4   18.20    2.30
  -3 -10  -4   15.70    2.20
  -3 -10  -4   15.30    2.00
   3 -10   4   15.90    2.60
  -3 -10  -4   12.20    2.80
  -3 -10  -4   18.70    3.40
  -3 -10  -4   20.00    3.00
   3 -10   4   14.50    2.20
   3  10   4   11.50    1.70
   3  10   4   11.00    1.70
  -4 -10  -4   22.90    2.30
  -4 -10  -4   19.80    1.70
   4 -10   4   16.40    1.90
  -4 -10  -4   19.00    2.70
  -4 -10  -4   14.20    3.10
   4 -10   4   22.50    2.90
  -4 -10  -4   24.30    2.10
   4  10   4   20.40    2.90
  -3 -11   4   73.59    4.90
  -3 -11   4   78.99    3.60
  -3 -11   4   75.79    4.50
  -3 -11   4   80.19    4.40
   3 -11  -4   77.29    5.50
  -3  11   4   70.89    5.70
   3  11  -4   74.49    3.80
   3  11  -4   69.19    4.00
   3  11  -4   74.89    4.00
   2 -11  -4  123.79    7.00
  -2 -11   4  117.99    7.20
  -2 -11   4  126.29    8.10
  -2 -11   4  123.59    6.60
  -2  11   4   88.09   10.90
   2  11  -4  126.79    5.40
   2  11  -4  120.99    6.00
   2  11  -4  115.19    5.60
  -1 -11   4  170.08    8.00
  -1 -11   4  171.48    8.90
  -1 -11   4  163.38    7.00
   1 -11  -4  178.28    8.70
   1  11  -4  151.58    6.60
  -1  11   4  148.89    8.40
   1  11  -4  161.28    6.90
   0 -11  -4    5.00    2.50
   0 -11   4    4.30    2.10
   0 -11   4    6.30    2.60
   0  11   4    1.00    2.60
  -1 -11  -4   16.20    2.00
   1 -11   4   20.70    5.10
   1 -11   4   20.30    3.00
  -1 -11  -4   13.40    3.60
  -1 -11  -4   13.80    2.80
   1  11   4   16.50    2.40
   1  11   4   22.70    3.50
  -1  11  -4   27.50    5.80
   1  11   4   25.40    3.90
  -2 -11  -4   60.99    4.90
   2 -11   4   63.29    4.50
  -2 -11  -4   63.29    4.40
  -2 -11  -4   59.09    4.20
  -2 -11  -4   65.49    3.10
  -2 -11  -4   59.89    4.70
   2  11   4   60.79    3.70
   2  11   4   57.89    5.30
   2  11   4   59.19    3.40
  -3 -11  -4   76.49    4.20
  -3 -11  -4   78.09    4.10
   3 -11   4   77.09    4.60
  -3 -11  -4   75.29    4.60
  -3 -11  -4   83.29    3.60
  -3 -11  -4   82.79    5.00
   3  11   4   76.59    4.60
   3  11   4   75.79    3.90
  -3 -12   4   -0.70    1.30
   3 -12  -4    1.20    3.40
  -3 -12   4    2.00    1.80
  -3 -12   4    2.30    2.30
  -3 -12   4    0.10    0.90
   3  12  -4    2.60    1.40
  -2 -12   4    5.00    2.60
   2 -12  -4    3.80    2.40
  -2 -12   4    3.00    1.50
  -2 -12   4    0.60    1.10
  -2  12   4   -0.40    2.20
   2  12  -4    0.70    1.20
   2  12  -4    2.00    1.60
  -1 -12   4   36.00    3.30
  -1 -12   4   35.70    4.30
   1 -12  -4   35.50    4.00
  -1  12   4   20.80    3.90
   0 -12   4  157.18    7.40
   0 -12   4  154.98    7.80
   0 -12  -4  161.68    8.00
   0  12   4  135.79    7.40
   0  12  -4  139.19    7.70
   1 -12   4   32.00    3.50
  -1 -12  -4   33.40    2.40
  -1 -12  -4   28.40    3.60
   1 -12   4   25.60    4.00
  -1 -12  -4   32.30    3.60
  -1  12  -4   27.80    4.10
   1  12   4   30.30    3.70
   1  12   4   27.50    3.40
   2 -12   4   31.70    3.20
  -2 -12  -4   28.00    3.90
  -2 -12  -4   25.00    2.80
  -2 -12  -4   31.60    3.30
  -2 -12  -4   29.60    2.00
   2  12   4   29.50    3.80
   2  12   4   22.30    2.50
  -1 -13   4   41.40    4.70
  -1 -13   4   56.69    3.40
   1 -13  -4   50.99    3.90
   1  13  -4   51.29    3.90
  -1  13   4   47.10    3.90
   0 -13   4   24.50    3.40
   0 -13   4   27.00    3.10
   0 -13  -4   28.70    3.30
   0  13  -4   27.50    4.10
   0  13   4   28.20    3.20
  -1 -13  -4   39.00    3.60
   1 -13   4   39.50    3.40
   1  13   4   29.60    3.20
  -6   0   5  220.98   10.50
  -6   0   5  209.98    9.90
   5   0  -5  213.88   12.30
  -5   0   5  214.78   10.30
  -5   0   5  220.38   12.30
  -5   0   5  210.18   11.60
   5   0  -5  218.98    9.60
  -4   0   5  136.49    8.00
   4   0  -5  137.89    6.10
   4   0  -5  133.89    7.70
  -4   0   5  121.69    9.80
  -4   0   5  136.19    9.10
   3   0  -5  206.78    9.80
   3   0  -5  213.18    9.50
   3   0  -5  202.68   14.90
   3   0  -5  230.08    9.30
   3   0  -5  217.58    8.60
  -2   0   5  111.99    9.40
   2   0  -5  120.19    5.60
  -2   0   5  115.49    6.10
   2   0  -5  120.49    4.90
   2   0  -5  114.19    6.50
   2   0  -5  118.09    8.50
   2   0  -5  121.19    4.90
   2   0  -5  122.29    5.60
   2   0  -5  114.99    5.30
  -2   0   5  121.59    6.10
   1   0  -5 1536.65   57.39
   1   0  -5 1500.95   57.29
   1   0  -5 1509.45   58.99
   1   0  -5 1420.96   56.89
  -1   0   5 1495.95   60.19
  -1   0   5 1524.15   57.99
  -1   0   5 1491.15   59.49
  -1   0   5 1430.36   57.39
   1   0  -5 1572.84   58.09
   1   0  -5 1438.16   57.09
   0   0   5 9999.00  382.76
  -1   0  -5 1920.31   73.09
  -1   0  -5 1801.02   72.49
   1   0   5 1965.30   73.39
   1   0   5 1737.93   72.09
  -1   0  -5 2024.90   73.49
   1   0   5 1960.80   75.79
   1   0   5 1928.91   74.09
   1   0   5 1877.41   72.49
   1   0   5 1846.52   72.99
  -3   0  -5  316.17   13.80
   3   0   5  330.27   12.70
  -3   0  -5  319.17   15.60
   3   0   5  338.27   13.40
  -3   0  -5  327.77   14.80
  -4   0  -5   13.50    3.70
   4   0   5   13.30    2.20
   4   0   5   16.90    3.70
  -4   0  -5   17.70    4.10
  -4   0  -5   16.40    4.80
   5   0   5  374.26   15.20
  -5   0  -5  336.67   17.10
  -5   0  -5  398.86   16.50
  -5   0  -5  384.46   17.10
  -6   0  -5   -1.50    3.20
  -6   0  -5    5.50    4.00
  -6  -1   5   24.20    4.80
   6  -1  -5   25.90    3.60
  -6   1   5   26.20    3.80
  -6   1   5   26.70    5.40
   5  -1  -5   16.00    5.50
  -5  -1   5   14.10    4.10
  -5  -1   5   15.60    4.40
   5  -1  -5   18.90    3.20
   5  -1  -5   17.60    2.70
  -5  -1   5   12.00    3.50
  -5   1   5   13.40    2.80
  -5   1   5   13.80    4.70
   5   1  -5   13.90    2.70
   5   1  -5   13.70    5.80
   4  -1  -5  118.19    7.60
   4  -1  -5  116.59    5.50
  -4  -1   5  147.29    9.50
   4  -1  -5  123.59    5.70
  -4  -1   5  138.59    8.70
  -4  -1   5   98.79    8.00
  -4   1   5  117.79    7.30
   4   1  -5  114.19    7.10
  -4   1   5  142.59   10.70
  -4   1   5  113.09    9.10
   4   1  -5  137.09    5.70
   4   1  -5  143.09    7.40
   3  -1  -5 1421.66   62.09
   3  -1  -5 1457.05   56.89
   3  -1  -5 1496.15   56.59
   3  -1  -5 1525.45   57.39
   3  -1  -5 1491.25   56.39
   3   1  -5 1428.66   53.39
   3   1  -5 1302.07   58.59
   3   1  -5 1406.46   53.89
   3   1  -5 1377.16   52.59
  -2  -1   5  894.61   37.90
  -2  -1   5  881.61   40.60
  -2  -1   5  881.91   38.00
   2  -1  -5 1012.20   37.40
   2  -1  -5 1064.69   40.80
   2  -1  -5  984.70   40.50
   2  -1  -5  988.10   37.70
   2  -1  -5  973.40   37.30
   2  -1  -5 1083.19   37.00
   2  -1  -5  891.21   36.80
   2   1  -5  987.80   35.00
   2   1  -5  955.20   35.40
   2   1  -5 1002.90   35.50
   2   1  -5  850.41   36.20
  -2   1   5  817.02   38.60
   2   1  -5  924.01   35.70
  -2   1   5  851.81   35.50
  -2   1   5  902.31   36.20
  -1  -1   5 1383.56   54.29
   1  -1  -5 1461.85   55.89
   1  -1  -5 1476.55   53.99
   1  -1  -5 1439.86   54.79
   1  -1  -5 1355.76   53.59
  -1  -1   5 1403.66   54.79
   1  -1  -5 1383.46   53.49
   1  -1  -5 1446.16   54.19
  -1  -1   5 1341.97   56.89
   1  -1  -5 1357.56   53.79
   1   1  -5 1664.43   62.49
  -1   1   5 1628.34   62.49
  -1   1   5 1585.84   64.79
   1   1  -5 1509.05   61.49
   1   1  -5 1754.32   61.29
   1   1  -5 1608.34   61.79
  -1   1   5 1537.15   61.79
   1   1  -5 1645.44   63.59
   1   1  -5 1637.74   61.79
  -1   1   5 1721.93   62.09
   1   1  -5 1504.55   61.29
  -1   1   5 1516.95   63.89
  -1   1   5 1588.04   61.69
   0  -1  -5  379.26   15.80
   0  -1   5  392.86   15.20
   0  -1  -5  407.16   16.60
   0  -1  -5  392.16   15.80
   0  -1  -5  405.16   16.40
   0  -1  -5  386.46   15.50
   0  -1   5  402.06   15.70
   0  -1   5  384.96   16.10
   0  -1   5  393.96   16.30
   0  -1   5  385.26   15.80
   0   1   5  395.46   16.10
   0   1  -5  409.36   16.10
   0   1   5  399.06   16.30
   0   1  -5  388.46   16.40
   0   1  -5  383.36   15.70
   0   1   5  393.76   15.10
   0   1   5  386.46   18.50
   0   1  -5  398.56   15.70
   0   1   5  364.76   17.10
   0   1  -5  388.66   16.10
   0   1  -5  418.66   15.40
   0   1   5  396.96   15.60
   0   1  -5  377.36   15.20
   0   1   5  377.96   15.70
   1  -1   5  932.21   37.30
   1  -1   5  927.31   37.30
  -1  -1  -5  975.00   38.70
   1  -1   5 1031.30   38.70
   1  -1   5  968.50   38.10
   1  -1   5  941.51   39.20
  -1  -1  -5  971.20   37.80
  -1  -1  -5 1043.60   38.60
  -1  -1  -5  977.60   38.30
   1  -1   5  993.20   37.70
   1   1   5  882.41   34.20
   1   1   5  855.01   35.10
  -1   1  -5  912.51   36.10
  -1   1  -5  859.61   34.50
   1   1   5  907.61   35.80
   1   1   5  900.51   36.40
   1   1   5  906.21   34.60
   1   1   5  893.31   37.70
  -1   1  -5  895.91   35.00
  -1   1  -5  930.21   35.60
   1   1   5  894.91   35.40
   2  -1   5 2334.07   86.89
   2  -1   5 2084.09   86.29
   2  -1   5 2183.38   86.29
  -2  -1  -5 2276.17   87.09
   2  -1   5 2307.87   88.09
  -2  -1  -5 2357.46   87.99
  -2  -1  -5 2343.07   86.99
  -2   1  -5 2385.06   90.99
   2   1   5 2399.26   89.99
   2   1   5 2370.96   90.89
   2   1   5 2312.57   90.89
   2   1   5 2381.56   92.59
   2   1   5 2268.17   89.49
  -2   1  -5 2365.16   90.19
   3  -1   5 1279.67   47.40
  -3  -1  -5 1238.38   48.80
  -3  -1  -5 1198.88   49.50
  -3  -1  -5 1321.07   48.70
  -3  -1  -5 1197.48   48.00
   3  -1   5 1284.17   48.10
   3  -1   5 1154.18   47.40
  -3   1  -5 1147.09   45.50
  -3   1  -5 1169.58   45.10
  -3   1  -5 1047.30   44.90
   3   1   5 1139.79   43.50
   3   1   5 1198.08   44.20
  -4  -1  -5  489.05   20.30
  -4  -1  -5  538.65   21.50
   4  -1   5  509.45   19.60
  -4  -1  -5  502.65   22.10
   4  -1   5  466.55   19.60
  -4   1  -5  558.94   23.10
   4   1   5  504.55   23.10
   4   1   5  516.15   20.60
  -4   1  -5  543.25   22.30
  -4   1  -5  537.15   23.00
  -5  -1  -5   58.79    6.10
  -5  -1  -5   44.30    4.90
  -5  -1  -5   47.70    6.80
   5  -1   5   50.19    4.10
   5  -1   5   46.90    4.10
  -5   1  -5   55.79    6.00
  -5   1  -5   65.89    5.80
   5   1   5   46.60    4.50
  -6   1  -5    4.80    3.80
   6  -2  -5  137.69    6.70
  -6  -2   5  155.58    7.50
  -6   2   5  178.28    8.10
  -6   2   5  162.88    9.20
   5  -2  -5  308.97   12.40
  -5  -2   5  302.97   14.10
  -5  -2   5  301.87   14.30
   5  -2  -5  319.37   12.80
   5  -2  -5  291.17   15.60
  -5   2   5  290.37   12.60
   5   2  -5  286.47   11.80
   5   2  -5  254.47   15.10
  -5   2   5  272.67   14.10
   4  -2  -5  312.67   12.60
   4  -2  -5  323.07   12.30
   4  -2  -5  307.07   14.00
  -4  -2   5  321.37   14.70
  -4  -2   5  264.37   15.30
  -4  -2   5  306.07   14.60
   4   2  -5  312.67   14.10
  -4   2   5  327.97   15.90
   4   2  -5  319.07   12.80
   4   2  -5  320.87   14.00
  -4   2   5  325.37   14.20
   3  -2  -5  104.09    5.40
   3  -2  -5  110.39    4.90
   3  -2  -5  108.69    6.10
   3  -2  -5  113.39   12.30
   3  -2  -5  108.89    4.70
   3   2  -5  124.19    5.00
   3   2  -5  113.09   13.50
   3   2  -5  114.99    6.00
   3   2  -5  117.39    7.90
   3   2  -5  121.39    5.90
   2  -2  -5  410.36   15.90
   2  -2  -5  385.16   16.20
   2  -2  -5  379.56   21.30
   2  -2  -5  413.66   15.60
   2  -2  -5  405.16   15.90
   2  -2  -5  429.26   19.60
   2  -2  -5  412.06   15.70
   2  -2  -5  406.26   17.60
   2  -2  -5  409.16   16.60
  -2  -2   5  399.76   16.90
  -2  -2   5  369.66   20.20
   2   2  -5  415.56   16.70
   2   2  -5  420.56   16.10
   2   2  -5  422.36   20.40
   2   2  -5  407.26   16.00
  -2   2   5  399.26   16.50
   2   2  -5  417.06   17.70
  -2   2   5  402.06   17.00
   2   2  -5  428.06   17.20
   2   2  -5  426.56   16.70
  -2   2   5  425.66   17.90
   1  -2  -5 2947.31  111.89
   1  -2  -5 3038.70  112.69
   1  -2  -5 2754.12  111.19
   1  -2  -5 2715.13  111.39
   1  -2  -5 2961.70  111.59
   1  -2  -5 2959.70  111.99
  -1  -2   5 3028.50  111.69
   1  -2  -5 2950.80  115.19
  -1  -2   5 2850.41  112.09
   1  -2  -5 2953.00  111.09
   1  -2  -5 3007.70  113.69
  -1   2   5 3020.10  113.09
   1   2  -5 3032.70  115.19
  -1   2   5 3017.10  113.99
   1   2  -5 2989.10  113.09
   1   2  -5 2972.20  113.19
   1   2  -5 2947.80  112.49
   1   2  -5 2793.62  112.79
   1   2  -5 2994.60  112.89
  -1   2   5 2904.71  115.69
   1   2  -5 2865.01  112.59
   1   2  -5 2910.51  115.19
  -1   2   5 2794.72  112.99
  -1   2   5 3083.69  113.39
   1   2  -5 3110.69  113.99
   0  -2  -5 1067.79   41.30
   0  -2  -5  973.40   40.50
   0  -2   5 1003.40   40.00
   0  -2   5 1056.59   40.80
   0  -2  -5 1012.80   40.30
   0  -2  -5 1092.49   40.70
   0  -2   5 1045.00   41.00
   0  -2  -5 1054.79   43.90
   0  -2   5 1044.60   40.50
   0  -2   5 1085.99   41.30
   0  -2  -5 1067.49   41.80
   0   2  -5 1140.99   43.20
   0   2   5 1096.89   43.80
   0   2   5 1102.19   43.00
   0   2  -5 1092.79   42.30
   0   2   5 1112.79   42.80
   0   2   5 1224.78   46.50
   0   2   5 1032.90   41.70
   0   2  -5 1101.49   42.90
   0   2  -5 1095.29   42.90
   0   2   5 1082.79   42.20
   0   2  -5 1053.39   41.90
   0   2   5 1053.99   42.30
   0   2   5 1021.20   41.60
   0   2  -5 1120.49   42.30
   0   2  -5 1092.69   42.70
   0   2  -5 1044.80   41.70
   1  -2   5 1590.34   62.09
  -1  -2  -5 1803.42   63.49
   1  -2   5 1535.65   61.19
   1  -2   5 1527.95   61.19
   1  -2   5 1536.35   63.19
   1  -2   5 1610.54   61.69
   1  -2   5 1658.83   63.49
  -1  -2  -5 1590.44   61.79
  -1  -2  -5 1583.54   63.59
  -1  -2  -5 1630.54   62.29
   1   2   5 1502.55   60.49
   1   2   5 1560.24   59.59
   1   2   5 1558.84   59.99
  -1   2  -5 1472.05   58.49
  -1   2  -5 1565.04   60.19
   1   2   5 1500.65   58.59
   1   2   5 1464.65   58.09
   1   2   5 1570.64   62.09
   1   2   5 1498.05   59.99
  -1   2  -5 1598.14   59.09
  -1   2  -5 1583.24   59.89
   1   2   5 1449.15   58.09
   2  -2   5  406.26   16.10
   2  -2   5  429.96   16.20
   2  -2   5  403.26   17.90
   2  -2   5  423.26   18.40
  -2  -2  -5  426.06   18.10
   2  -2   5  369.76   17.40
  -2  -2  -5  423.26   16.90
  -2  -2  -5  461.45   17.20
   2  -2   5  402.16   18.70
  -2   2  -5  444.26   17.10
   2   2   5  412.56   18.10
   2   2   5  424.66   16.60
   2   2   5  415.76   19.70
  -2   2  -5  456.55   20.40
   2   2   5  397.26   17.50
   2   2   5  457.55   20.10
  -2   2  -5  432.36   18.20
  -3  -2  -5  169.78    8.10
   3  -2   5  165.48    7.80
   3  -2   5  159.98    7.00
  -3  -2  -5  162.18    9.40
  -3  -2  -5  151.18    8.40
   3  -2   5  160.28    6.80
  -3  -2  -5  194.18   12.50
  -3  -2  -5  177.28    8.50
  -3   2  -5  182.08   10.00
  -3   2  -5  175.28    8.90
   3   2   5  180.28    7.20
   3   2   5  183.78    8.10
  -3   2  -5  176.28    9.30
  -4  -2  -5  131.09    7.80
  -4  -2  -5  122.09    6.90
   4  -2   5  137.79    7.80
  -4  -2  -5  130.99    9.90
   4  -2   5  132.09    5.90
  -4  -2  -5  129.89    8.30
  -4   2  -5   90.79    6.90
   4   2   5  100.89    5.00
  -4   2  -5  103.59    7.00
  -4   2  -5  120.89    7.80
   4   2   5  111.29    7.80
   5  -2   5  103.89    5.50
  -5  -2  -5  107.59    7.50
  -5  -2  -5   88.39    9.00
   5  -2   5   99.49    5.30
  -5  -2  -5  107.69    8.70
   5   2   5  100.29    6.10
  -5   2  -5  114.99    7.60
  -5   2  -5  111.79    6.90
  -6   2  -5   88.99    5.60
  -6  -3   5   48.70    5.80
   6  -3  -5   38.20    4.30
   6  -3  -5   41.50    3.50
  -6  -3   5   47.50    4.20
  -6   3   5   50.89    6.20
  -6   3   5   54.99    4.00
  -5  -3   5   15.00    3.70
  -5  -3   5    9.20    3.40
   5  -3  -5   11.90    2.00
   5  -3  -5   12.30    6.10
   5  -3  -5   11.80    2.60
  -5   3   5   14.20    4.60
  -5   3   5    7.80    2.50
   5   3  -5    9.80    6.60
  -4  -3   5  300.27   13.90
   4  -3  -5  289.87   14.10
  -4  -3   5  301.07   13.70
  -4  -3   5  296.77   14.00
   4  -3  -5  299.97   12.20
   4  -3  -5  288.67   11.80
  -4   3   5  297.37   13.30
   4   3  -5  301.87   13.50
   4   3  -5  295.37   11.90
  -4   3   5  301.57   15.40
   4   3  -5  293.77   13.20
   3  -3  -5 1149.98   52.49
   3  -3  -5 1233.38   47.70
   3  -3  -5 1166.18   46.50
   3  -3  -5 1257.67   46.60
   3  -3  -5 1249.28   46.40
   3   3  -5 1186.48   54.79
   3   3  -5 1170.38   49.00
   3   3  -5 1269.67   47.00
   3   3  -5 1268.77   47.80
   3   3  -5 1243.78   47.90
   2  -3  -5 1455.65   55.79
   2  -3  -5 1475.15   54.79
  -2  -3   5 1316.17   56.09
   2  -3  -5 1428.86   56.09
   2  -3  -5 1422.06   54.99
   2  -3  -5 1494.15   58.79
  -2  -3   5 1431.46   56.29
   2  -3  -5 1466.55   54.99
   2  -3  -5 1429.16   57.19
   2   3  -5 1461.15   53.39
   2   3  -5 1339.87   52.59
   2   3  -5 1422.36   52.69
   2   3  -5 1282.47   53.09
  -2   3   5 1349.77   54.29
   2   3  -5 1407.76   53.89
   2   3  -5 1271.07   54.29
   2   3  -5 1505.65   57.69
   1  -3  -5  814.32   32.30
   1  -3  -5  759.32   34.70
  -1  -3   5  740.33   33.00
   1  -3  -5  788.82   30.00
   1  -3  -5  782.02   29.80
   1  -3  -5  774.62   30.80
   1  -3  -5  767.72   31.30
   1  -3  -5  776.12   29.40
   1  -3  -5  713.13   29.60
  -1  -3   5  796.62   31.30
   1  -3  -5  745.33   30.30
   1   3  -5  754.22   28.60
   1   3  -5  701.73   30.80
   1   3  -5  707.63   28.60
  -1   3   5  736.93   29.70
  -1   3   5  712.73   28.70
   1   3  -5  748.23   28.00
  -1   3   5  730.33   28.50
   1   3  -5  709.03   27.80
   1   3  -5  761.32   28.80
   1   3  -5  711.53   28.30
  -1   3   5  689.03   28.00
   1   3  -5  734.43   29.60
  -1   3   5  753.32   29.20
   0  -3   5  118.29    4.80
   0  -3  -5  109.69    6.90
   0  -3   5  121.79    6.40
   0  -3  -5  113.59    6.50
   0  -3   5  116.19    6.10
   0  -3  -5  105.89    6.10
   0  -3  -5  116.69    5.10
   0  -3   5  116.09    5.50
   0  -3   5  108.19    4.70
   0  -3  -5  101.39   10.10
   0  -3   5  113.79    6.40
   0  -3  -5  115.59    5.60
   0   3   5  122.59    6.50
   0   3  -5  110.99    5.70
   0   3  -5  113.89    5.00
   0   3   5  112.69    5.70
   0   3   5  112.99    4.80
   0   3  -5  112.79    4.80
   0   3   5  117.79    5.50
   0   3  -5  113.69    4.70
   0   3  -5  119.29    5.50
   0   3   5  117.29    9.40
   0   3   5  119.39    6.20
   0   3   5  116.99    7.90
   0   3  -5  115.99    6.20
   0   3  -5  110.89    6.70
   0   3  -5  102.49    7.20
  -1  -3  -5 1290.27   54.89
   1  -3   5 1428.36   52.29
  -1  -3  -5 1317.67   53.59
  -1  -3  -5 1322.97   50.89
   1  -3   5 1367.06   50.89
  -1  -3  -5 1332.67   51.79
   1  -3   5 1329.07   51.29
   1  -3   5 1346.67   52.59
  -1  -3  -5 1125.69   52.29
   1  -3   5 1301.87   50.29
   1   3   5 1278.37   50.59
  -1   3  -5 1371.86   51.59
  -1   3  -5 1385.96   52.89
   1   3   5 1348.86   52.29
   1   3   5 1273.27   50.59
   1   3   5 1315.97   53.29
   1   3   5 1322.87   51.19
  -1   3  -5 1315.67   52.79
  -1   3  -5 1335.27   50.89
   1   3   5 1319.47   55.19
  -2  -3  -5  804.62   28.90
   2  -3   5  741.53   28.60
  -2  -3  -5  664.63   28.20
   2  -3   5  744.63   27.80
  -2  -3  -5  657.43   32.30
   2  -3   5  736.33   27.80
   2  -3   5  695.03   30.30
   2   3   5  647.64   28.60
  -2   3  -5  653.83   29.00
   2   3   5  614.44   25.20
   2   3   5  696.43   25.80
  -2   3  -5  639.14   26.80
   2   3   5  678.23   25.20
   3  -3   5  487.25   18.90
  -3  -3  -5  499.05   20.70
  -3  -3  -5  451.45   19.60
   3  -3   5  485.45   19.90
  -3  -3  -5  488.65   19.70
   3  -3   5  481.95   18.90
  -3  -3  -5  495.55   20.50
   3   3   5  428.36   16.50
   3   3   5  444.36   17.30
  -3   3  -5  407.06   17.60
  -3   3  -5  427.86   18.00
  -3   3  -5  411.36   18.60
  -4  -3  -5  211.88   12.60
   4  -3   5  209.38    8.70
   4  -3   5  211.38   10.90
  -4  -3  -5  192.08    9.60
  -4  -3  -5  209.08   11.00
   4  -3   5  203.68    8.60
  -4  -3  -5  200.78    9.40
  -4   3  -5  193.28   10.40
   4   3   5  192.68    9.70
   4   3   5  185.08    8.00
  -4   3  -5  193.48    9.70
  -5  -3  -5    5.70    5.30
  -5  -3  -5    1.90    2.60
   5  -3   5   -2.00    2.10
  -5   3  -5   -0.80    2.00
   5   3   5    2.80    3.00
  -5   3  -5   -0.60    4.00
  -5   3  -5    1.50    2.90
  -6  -4   5   37.80    4.10
   6  -4  -5   35.20    3.50
  -6  -4   5   39.40    4.90
   6  -4  -5   35.20    3.10
  -6   4   5   41.40    7.00
  -6   4   5   48.80    3.70
  -5  -4   5  129.69    7.80
   5  -4  -5  137.99    7.00
   5  -4  -5  127.19    6.00
  -5  -4   5  128.09    7.90
   5  -4  -5  137.09    6.60
  -5  -4   5  140.29    7.80
   5  -4  -5  125.69   13.10
  -5   4   5  129.09    9.80
  -5   4   5  154.38    7.50
   5   4  -5  140.09    7.00
   4  -4  -5  161.38    7.30
   4  -4  -5  154.68    7.30
  -4  -4   5  156.78    9.20
   4  -4  -5  166.88   10.50
  -4  -4   5  161.68    9.30
   4  -4  -5  156.68    6.90
   4   4  -5  178.48    9.50
   4   4  -5  169.98    7.40
   4   4  -5  169.28    9.20
  -4   4   5  164.68    8.70
  -4   4   5  187.48   14.60
   3  -4  -5  252.97   11.90
  -3  -4   5  240.58   12.30
   3  -4  -5  264.17   10.00
  -3  -4   5  240.88   11.40
   3  -4  -5  243.68   10.50
   3  -4  -5  244.08   10.20
  -3  -4   5  253.87   12.10
  -3   4   5  231.38   11.00
   3   4  -5  232.38    9.60
  -3   4   5  236.38   12.90
   3   4  -5  250.37    9.70
   3   4  -5  250.67   10.80
   2  -4  -5  349.87   14.30
   2  -4  -5  360.66   18.50
   2  -4  -5  324.77   17.80
   2  -4  -5  377.86   15.50
   2  -4  -5  376.46   14.00
  -2  -4   5  375.36   17.50
   2  -4  -5  356.86   14.20
   2  -4  -5  359.26   14.10
   2  -4  -5  330.37   17.60
   2   4  -5  312.37   13.80
  -2   4   5  317.67   15.60
   2   4  -5  313.97   14.30
   2   4  -5  332.17   13.50
   2   4  -5  316.27   12.50
   2   4  -5  328.07   12.60
   1  -4  -5 1528.95   64.59
   1  -4  -5 1496.95   59.19
  -1  -4   5 1473.65   60.09
  -1  -4   5 1574.34   60.49
  -1  -4   5 1543.45   60.09
   1  -4  -5 1496.55   58.39
   1  -4  -5 1570.24   61.09
   1  -4  -5 1570.84   61.59
   1  -4  -5 1506.75   58.69
   1  -4  -5 1541.45   60.59
   1  -4  -5 1508.65   60.19
   1   4  -5 1544.45   62.29
  -1   4   5 1579.84   68.19
  -1   4   5 1696.13   62.49
  -1   4   5 1535.75   62.79
  -1   4   5 1679.13   63.79
   1   4  -5 1683.23   62.89
  -1   4   5 1672.73   64.19
  -1   4   5 1703.53   61.99
  -1   4   5 1535.05   61.99
   1   4  -5 1686.53   62.69
   1   4  -5 1621.64   63.09
   1   4  -5 1554.04   63.89
   1   4  -5 1573.14   61.79
   1   4  -5 1625.44   61.89
   0  -4  -5  876.21   39.20
   0  -4  -5  839.52   35.40
   0  -4  -5  824.62   35.00
   0  -4   5  941.41   35.90
   0  -4   5  887.11   35.20
   0  -4  -5  806.72   36.90
   0  -4   5  897.81   33.20
   0  -4  -5  867.31   33.70
   0  -4   5  885.31   33.90
   0  -4  -5  845.42   36.30
   0  -4   5  839.52   34.50
   0  -4   5  859.21   35.10
   0  -4   5  821.52   33.10
   0  -4  -5  899.31   34.20
   0   4   5  856.21   34.40
   0   4  -5  931.21   34.50
   0   4  -5  890.61   35.80
   0   4  -5  860.91   35.30
   0   4   5  850.81   39.60
   0   4  -5  878.51   34.50
   0   4   5  922.91   35.60
   0   4   5  830.92   34.60
   0   4  -5  896.71   33.60
   0   4  -5  874.41   36.00
   0   4  -5  852.01   33.90
  -1  -4  -5 4515.25  171.88
   1  -4   5 4641.64  174.08
  -1  -4  -5 4533.95  175.58
  -1  -4  -5 4569.14  173.08
   1  -4   5 4493.85  171.88
   1  -4   5 4462.25  171.18
   1  -4   5 4624.84  173.48
   1  -4   5 4209.18  171.08
   1  -4   5 4464.55  172.28
  -1   4  -5 4424.16  172.08
   1   4   5 4536.55  171.68
  -1   4  -5 4471.05  172.08
   1   4   5 4517.65  171.98
  -1   4  -5 4435.36  169.78
  -1   4  -5 4554.24  170.48
   1   4   5 4279.47  169.38
   2  -4   5  148.59    6.30
   2  -4   5  149.19    7.40
  -2  -4  -5  153.08    7.50
   2  -4   5  154.28    6.50
  -2  -4  -5  130.99   14.40
   2  -4   5  148.99    6.20
   2   4   5  155.88    6.10
  -2   4  -5  144.99   11.70
   2   4   5  149.39   10.60
  -2   4  -5  123.49   11.40
   2   4   5  151.08    6.90
   3  -4   5  100.19    4.60
   3  -4   5  109.49    6.50
  -3  -4  -5   97.19    6.80
  -3  -4  -5   96.49    6.90
  -3  -4  -5   95.09    5.80
  -3  -4  -5  107.49    5.90
   3  -4   5  103.39    4.80
  -3  -4  -5   95.19    7.20
   3  -4   5  107.49    5.20
  -3   4  -5   93.39    6.90
  -3   4  -5  103.79    6.50
  -3   4  -5   94.79    5.00
   3   4   5   93.19    5.70
   3   4   5   90.99    4.30
  -4  -4  -5  358.56   17.80
  -4  -4  -5  342.47   14.80
   4  -4   5  366.56   14.30
   4  -4   5  360.16   16.50
   4  -4   5  352.26   14.20
   4  -4   5  328.57   14.40
  -4  -4  -5  376.06   16.20
  -4  -4  -5  338.07   14.90
   4   4   5  322.77   13.00
  -4   4  -5  327.87   15.10
  -4   4  -5  312.97   13.10
  -4   4  -5  333.37   14.40
   5  -4   5  196.88    9.00
  -5  -4  -5  208.28    9.10
  -5  -4  -5  210.08    9.30
  -5  -4  -5  228.18   10.50
   5  -4   5  210.38    9.30
   5  -4   5  187.38    8.80
  -5   4  -5  232.78   11.20
  -5   4  -5  220.28   10.30
  -5   4  -5  227.78    9.30
  -6  -5   5   17.60    3.50
  -6  -5   5   22.40    4.20
   6  -5  -5   17.00    2.70
   6  -5  -5   14.00    2.80
  -6   5   5   16.50    2.70
  -5  -5   5   10.90    3.20
   5  -5  -5    4.20    2.90
   5  -5  -5   13.50    1.90
  -5  -5   5   11.50    3.20
   5  -5  -5   11.70    2.00
  -5  -5   5   10.10    2.90
   5   5  -5    5.90    2.50
  -5   5   5    7.90    4.60
  -5   5   5    8.20    2.20
   5   5  -5    6.00    2.50
  -4  -5   5  150.98    8.60
   4  -5  -5  154.08    7.20
   4  -5  -5  147.49    6.80
  -4  -5   5  147.69   10.10
   4  -5  -5  147.99   11.10
  -4  -5   5  150.78    8.20
  -4  -5   5  152.38    8.70
   4  -5  -5  145.29    6.50
   4   5  -5  132.29    8.50
  -4   5   5  134.19    7.30
  -4   5   5  120.09   10.10
   4   5  -5  140.49    6.20
   4   5  -5  130.99    6.10
   4   5  -5  133.09    8.30
   3  -5  -5  637.04   24.70
  -3  -5   5  626.94   26.00
  -3  -5   5  605.84   25.40
   3  -5  -5  630.84   24.40
   3  -5  -5  630.54   26.40
  -3  -5   5  603.34   25.40
   3  -5  -5  657.53   24.40
  -3   5   5  612.54   25.40
   3   5  -5  639.34   25.60
   3   5  -5  624.74   24.40
  -3   5   5  651.33   27.00
   3   5  -5  606.64   24.20
   2  -5  -5 1304.97   47.20
   2  -5  -5 1224.68   47.40
   2  -5  -5 1115.59   51.49
   2  -5  -5 1283.67   47.30
   2  -5  -5 1173.28   52.09
   2  -5  -5 1292.77   48.80
   2   5  -5 1268.67   46.20
   2   5  -5 1218.78   45.20
   2   5  -5 1101.79   45.10
   2   5  -5 1188.18   47.00
   2   5  -5 1132.69   45.00
  -2   5   5 1148.39   48.90
   1  -5  -5   82.99    3.80
   1  -5  -5  101.29    9.20
   1  -5  -5   80.89    4.30
   1  -5  -5   94.19    7.90
   1  -5  -5   93.19    4.50
   1  -5  -5   86.59    6.20
   1  -5  -5   79.29    3.90
   1   5  -5   81.29    5.10
   1   5  -5   80.59    3.60
  -1   5   5   71.79    6.20
   1   5  -5   73.89    5.20
   1   5  -5   66.19    3.50
  -1   5   5   73.49    7.30
   1   5  -5   79.19    4.20
   1   5  -5   68.69    6.00
   0  -5   5  231.88   11.90
   0  -5   5  230.38   12.90
   0  -5  -5  212.28   18.40
   0  -5  -5  222.18   12.10
   0  -5  -5  186.28   12.10
   0  -5   5  188.28   11.10
   0  -5  -5  240.98   13.30
   0  -5  -5  235.18    9.50
   0   5  -5  229.18    9.50
   0   5   5  246.98   12.00
   0   5  -5  220.78   13.00
   0   5  -5  229.68    9.20
   0   5  -5  227.48    9.30
   0   5  -5  229.98    9.20
   0   5   5  221.38   10.30
   0   5   5  226.98    9.30
   0   5  -5  232.38   10.70
   0   5   5  232.28    9.10
   0   5  -5  215.98   13.30
   0   5   5  231.08   12.30
   0   5   5  228.18    9.30
   0   5  -5  233.58   11.80
   0   5   5  230.48   19.30
   0   5  -5  235.28   10.40
   1  -5   5  846.42   33.00
   1  -5   5  856.01   36.30
  -1  -5  -5  889.81   33.90
   1  -5   5  868.21   34.00
  -1  -5  -5  811.32   38.40
   1  -5   5  857.61   33.10
   1  -5   5  867.61   33.00
   1   5   5  848.72   31.80
   1   5   5  789.02   34.50
   1   5   5  843.52   31.60
  -1   5  -5  828.72   35.10
   1   5   5  782.02   31.80
   1   5   5  840.12   32.70
   1   5   5  835.82   34.80
   2  -5   5  502.25   19.40
  -2  -5  -5  492.15   20.40
  -2  -5  -5  504.75   20.70
   2  -5   5  513.25   19.50
  -2  -5  -5  480.05   20.00
  -2  -5  -5  482.65   20.00
   2  -5   5  501.05   20.60
  -2  -5  -5  481.45   20.80
  -2   5  -5  479.85   24.10
  -2   5  -5  529.45   21.00
  -2   5  -5  552.54   22.20
   2   5   5  576.44   22.10
   2   5   5  536.95   20.90
   2   5   5  563.94   21.10
  -3  -5  -5  762.92   30.70
   3  -5   5  770.82   28.80
  -3  -5  -5  759.12   30.40
  -3  -5  -5  729.13   29.50
   3  -5   5  750.42   28.90
   3  -5   5  723.33   28.90
  -3  -5  -5  712.83   29.70
   3  -5   5  739.53   30.40
  -3  -5  -5  726.33   29.50
  -3   5  -5  801.52   30.30
   3   5   5  727.33   28.90
  -3   5  -5  722.33   30.60
  -3   5  -5  719.13   28.90
   3   5   5  765.52   29.00
   3   5   5  759.82   30.20
   4  -5   5   71.59    4.40
   4  -5   5   62.59    3.70
  -4  -5  -5   61.69    4.90
   4  -5   5   71.99    9.20
  -4  -5  -5   74.89    6.80
  -4  -5  -5   66.89   10.30
  -4  -5  -5   61.39    4.70
  -4  -5  -5   59.69    6.00
   4   5   5   62.79    4.60
   4   5   5   58.79    7.20
  -4   5  -5   64.39    5.80
  -4   5  -5   61.29    3.50
   4   5   5   60.19    4.00
  -4   5  -5   52.49    5.30
  -5  -5  -5    1.20    2.60
  -5  -5  -5    1.50    2.20
   5  -5   5    1.70    1.90
   5  -5   5    1.10    1.90
  -5  -5  -5    2.40    1.80
  -5   5  -5   -1.60    2.30
  -5  -6   5  377.66   16.20
   5  -6  -5  346.57   15.10
   5  -6  -5  347.77   14.60
   5  -6  -5  369.36   14.70
  -5  -6   5  390.96   15.60
  -5  -6   5  361.56   15.80
   5  -6  -5  379.16   15.90
   5   6  -5  328.07   13.60
  -5   6   5  320.17   15.20
  -5   6   5  294.17   15.40
   5   6  -5  350.86   13.10
  -4  -6   5   34.60    5.60
   4  -6  -5   30.90    8.30
  -4  -6   5   25.30    4.80
  -4  -6   5   36.50    4.70
   4  -6  -5   27.60    2.90
   4  -6  -5   26.20    2.50
   4  -6  -5   26.10    4.40
   4  -6  -5   25.70    3.10
  -4  -6   5   31.80    4.80
   4   6  -5   26.50    2.60
  -4   6   5   25.50    3.90
  -4   6   5   21.30    5.50
   4   6  -5   26.70    3.20
   4   6  -5   41.90    7.20
   4   6  -5   34.90    6.70
  -3  -6   5  236.28   10.60
   3  -6  -5  211.58    9.60
  -3  -6   5  238.28   11.00
   3  -6  -5  193.38   12.90
   3  -6  -5  216.48    9.20
  -3  -6   5  228.28   10.50
   3  -6  -5  219.48    9.90
   3  -6  -5  219.38    9.10
  -3  -6   5  224.78   11.00
   3   6  -5  211.78   10.80
  -3   6   5  203.08   10.10
  -3   6   5  231.08   12.40
   3   6  -5  218.48    9.10
   3   6  -5  211.88    8.80
   2  -6  -5  338.27   16.00
  -2  -6   5  343.57   15.20
  -2  -6   5  339.87   14.50
   2  -6  -5  353.56   13.60
  -2  -6   5  332.47   14.80
   2  -6  -5  368.76   13.60
   2  -6  -5  352.06   14.10
   2  -6  -5  348.37   14.00
  -2  -6   5  315.87   15.40
   2   6  -5  347.67   14.40
   2   6  -5  368.96   16.00
  -2   6   5  356.66   15.70
   2   6  -5  393.16   14.30
  -2   6   5  365.46   16.60
  -2   6   5  342.77   22.60
   1  -6  -5  189.68    8.50
   1  -6  -5  176.78   13.10
   1  -6  -5  192.48    7.60
   1  -6  -5  190.58    8.00
   1   6  -5  246.18   10.00
   1   6  -5  239.78   10.50
   1   6  -5  253.97   12.20
   1   6  -5  240.28   11.30
  -1   6   5  237.88   14.40
   1   6  -5  236.08    9.80
  -1   6   5  254.97    9.80
   1   6  -5  223.08   13.20
   1   6  -5  246.48    9.70
   0  -6  -5 1224.28   47.10
   0  -6  -5 1188.38   51.89
   0   6  -5 1123.29   43.30
   0   6   5 1135.79   43.40
   0   6   5 1117.99   43.30
   0   6  -5 1140.29   43.30
   0   6  -5 1139.69   44.80
   0   6   5 1163.98   43.50
   0   6  -5 1109.69   44.80
   0   6   5 1159.88   46.80
   0   6  -5 1116.09   43.70
   0   6  -5 1090.29   43.50
   0   6   5 1157.08   44.80
   0   6  -5 1128.99   46.60
   0   6   5 1101.69   47.40
  -1  -6  -5  569.44   23.00
   1  -6   5  568.64   22.10
   1  -6   5  559.24   23.50
   1  -6   5  587.14   21.90
   1  -6   5  580.34   21.90
  -1  -6  -5  592.64   23.10
  -1  -6  -5  529.45   29.70
  -1  -6  -5  538.95   23.20
   1  -6   5  539.95   22.30
  -1   6  -5  509.75   27.40
   1   6   5  553.94   21.50
   1   6   5  552.14   21.30
   1   6   5  561.84   22.70
   1   6   5  563.14   21.50
   2  -6   5   67.39    3.40
   2  -6   5   66.89    3.50
  -2  -6  -5   61.39    4.70
   2  -6   5   67.09    3.90
  -2  -6  -5   72.89    5.20
  -2  -6  -5   64.19    5.30
   2  -6   5   56.99    6.20
  -2  -6  -5   66.49    4.80
   2  -6   5   54.99    4.80
  -2  -6  -5   60.29    5.80
  -2   6  -5   48.90    3.20
   2   6   5   52.59    2.90
  -2   6  -5   53.19    5.00
   2   6   5   55.59    4.70
   2   6   5   51.29    3.60
   2   6   5   50.39    2.70
  -2   6  -5   49.90    7.10
   3  -6   5  117.49    7.00
   3  -6   5  131.29    5.90
  -3  -6  -5  127.09    6.80
   3  -6   5  128.79    6.20
  -3  -6  -5  133.99    8.60
  -3  -6  -5  127.99    6.80
  -3  -6  -5  120.79    7.10
   3  -6   5  142.19   13.10
   3  -6   5  131.09    6.00
  -3  -6  -5  132.99    8.10
  -3   6  -5  109.49    5.00
   3   6   5  109.69    5.20
   3   6   5  103.39    7.20
   3   6   5  106.59    5.10
  -3   6  -5  116.29    6.80
  -3   6  -5  106.09    7.30
  -4  -6  -5  116.89    7.60
  -4  -6  -5  118.89    6.00
   4  -6   5  116.89    6.20
  -4  -6  -5  107.29    6.90
   4  -6   5  114.69    5.60
   4  -6   5  119.19    5.50
   4  -6   5  111.49    6.50
  -4  -6  -5  113.29    6.30
   4   6   5  108.99    5.50
  -4   6  -5  117.29    6.70
  -4   6  -5  119.89    5.30
  -4   6  -5  113.69    7.20
  -5  -6  -5   68.39    4.20
   5  -6   5   70.19    4.20
  -5  -6  -5   80.39    5.60
   5  -6   5   72.99    4.90
   5  -6   5   66.59    3.90
  -5  -6  -5   77.09    4.10
  -5   6  -5   88.19    5.50
  -5  -7   5    2.40    2.20
   5  -7  -5    0.90    1.80
   5  -7  -5    2.80    2.00
  -5  -7   5    1.80    2.30
  -5  -7   5    2.00    2.10
   5  -7  -5   -1.30    1.40
  -5   7   5    2.60    3.70
   5   7  -5    3.30    2.00
  -5   7   5    3.20    1.80
  -4  -7   5   34.40    4.90
  -4  -7   5   37.70    4.80
   4  -7  -5   39.10    3.10
  -4  -7   5   40.80    5.20
   4  -7  -5   35.60    3.80
   4  -7  -5   32.70    5.70
   4  -7  -5   23.00   11.50
  -4  -7   5   38.30    4.50
   4  -7  -5   39.80    3.00
  -4   7   5   47.30    4.30
   4   7  -5   41.60    3.80
   4   7  -5   45.50    3.10
  -4   7   5   41.60    7.80
   4   7  -5   47.90    9.20
   4   7  -5   36.00    7.30
   3  -7  -5  249.88   10.00
   3  -7  -5  249.78   10.50
  -3  -7   5  235.68   11.20
  -3  -7   5  245.88   11.80
   3  -7  -5  240.98   10.90
  -3  -7   5  242.98   11.60
  -3  -7   5  255.87   11.20
   3  -7  -5  211.08   16.30
   3  -7  -5  246.68   10.00
  -3   7   5  244.28   13.40
  -3   7   5  240.28   11.20
   3   7  -5  232.08   10.20
   3   7  -5  252.87   10.00
   3   7  -5  247.38   12.90
   3   7  -5  249.48   10.40
   3   7  -5  245.98   11.90
  -2  -7   5  780.52   30.40
  -2  -7   5  754.42   31.40
  -2  -7   5  840.82   31.80
  -2  -7   5  803.52   31.10
  -2  -7   5  800.12   31.90
   2  -7  -5  790.82   30.30
   2  -7  -5  726.73   31.40
   2  -7  -5  787.32   30.30
   2  -7  -5  792.82   30.60
   2   7  -5  692.23   28.20
   2   7  -5  754.02   28.20
  -2   7   5  776.92   30.40
  -2   7   5  682.23   29.20
   2   7  -5  729.33   30.00
   2   7  -5  736.33   28.50
  -1  -7   5  342.67   14.70
  -1  -7   5  319.27   19.00
   1  -7  -5  353.56   13.20
  -1  -7   5  327.37   13.70
  -1  -7   5  319.17   17.10
   1  -7  -5  339.87   14.40
   1  -7  -5  292.67   13.40
  -1  -7   5  326.97   14.50
  -1  -7   5  340.47   13.10
   1   7  -5  330.77   15.10
   1   7  -5  340.77   13.40
   1   7  -5  313.17   13.60
   1   7  -5  343.77   13.00
   1   7  -5  275.17   23.30
   1   7  -5  333.57   14.00
   1   7  -5  344.07   13.10
  -1   7   5  330.97   13.10
  -1   7   5  325.67   15.10
   0  -7   5   54.69    6.60
   0  -7  -5   38.50    2.80
   0  -7  -5   46.30    4.10
   0  -7  -5   46.70    4.90
   0  -7   5   43.80    3.40
   0  -7   5   39.60    2.80
   0  -7   5   42.70    3.80
   0  -7  -5   46.30    4.80
   0   7  -5   43.20    3.40
   0   7  -5   47.80    8.00
   0   7  -5   45.50    2.80
   0   7   5   49.40    5.90
   0   7   5   46.00    2.70
   0   7   5   44.50    2.60
   0   7  -5   45.60    3.80
   0   7   5   42.10    3.10
   1  -7   5  647.44   24.80
  -1  -7  -5  646.44   25.60
  -1  -7  -5  628.34   24.70
  -1  -7  -5  652.73   26.20
  -1  -7  -5  618.44   25.40
  -1  -7  -5  630.04   26.10
   1  -7   5  622.64   24.90
  -1  -7  -5  655.33   25.90
   1  -7   5  606.64   25.30
   1  -7   5  666.23   24.70
   1   7   5  668.63   26.20
   1   7   5  668.83   26.40
   1   7   5  683.03   26.10
   1   7   5  677.93   28.00
   2  -7   5  794.42   30.90
  -2  -7  -5  814.62   32.60
  -2  -7  -5  840.92   31.40
   2  -7   5  775.22   31.10
  -2  -7  -5  776.52   30.60
   2  -7   5  813.12   30.70
   2  -7   5  775.82   30.90
  -2  -7  -5  812.22   31.40
   2  -7   5  739.53   33.00
  -2  -7  -5  750.92   32.00
  -2  -7  -5  795.32   32.40
   2   7   5  739.73   29.00
   2   7   5  734.83   29.10
   2   7   5  752.22   28.90
   2   7   5  756.42   30.70
  -3  -7  -5  387.06   17.10
  -3  -7  -5  385.06   16.10
  -3  -7  -5  404.26   16.10
   3  -7   5  366.56   15.80
   3  -7   5  378.26   20.20
  -3  -7  -5  388.56   18.30
  -3  -7  -5  375.36   16.40
   3  -7   5  394.96   15.40
   3  -7   5  382.86   15.90
   3   7   5  370.66   17.10
  -3   7  -5  343.67   16.40
   3   7   5  369.16   15.10
   3   7   5  379.96   14.70
   3   7   5  382.26   15.00
   4  -7   5   61.49    6.40
   4  -7   5   61.99    5.70
   4  -7   5   62.29    3.50
  -4  -7  -5   54.79    6.60
  -4  -7  -5   69.19    7.50
  -4  -7  -5   56.89    4.30
  -4  -7  -5   50.79    3.90
   4  -7   5   56.09    3.60
   4   7   5   55.29    4.50
   4   7   5   55.39    3.70
  -5  -7  -5    3.00    1.60
   5  -7   5    8.60    1.60
   5  -7   5    5.30    1.70
  -5  -7  -5    7.20    1.80
  -5  -7  -5   11.10    3.50
  -5   7  -5    7.50    2.10
   5  -8  -5   17.70    2.50
  -5  -8   5   16.50    2.20
  -5  -8   5   18.00    2.80
  -5  -8   5   18.80    3.00
  -5  -8   5   17.00    2.70
   5  -8  -5   16.30    2.60
  -5   8   5   15.60    3.00
   5   8  -5    8.40    2.20
  -5   8   5   14.70    3.90
  -4  -8   5  113.29    6.50
  -4  -8   5   93.19    7.00
  -4  -8   5  103.59    6.00
   4  -8  -5  100.29    5.20
   4  -8  -5  106.09    5.20
   4  -8  -5  105.19    4.90
  -4  -8   5  100.19    6.30
   4   8  -5   91.89    4.50
   4   8  -5   91.49    5.10
  -4   8   5   88.99    8.40
  -4   8   5   88.89    5.60
   4   8  -5   89.79    5.50
  -3  -8   5    2.90    2.60
  -3  -8   5    5.60    1.40
  -3  -8   5    7.50    2.60
   3  -8  -5    1.60    3.60
   3  -8  -5    7.80    2.00
   3  -8  -5    5.80    1.70
  -3  -8   5    8.30    3.00
  -3  -8   5    5.30    2.60
   3  -8  -5    4.40    1.50
   3   8  -5    6.70    1.60
  -3   8   5    7.90    2.60
   3   8  -5    6.20    1.80
   3   8  -5    5.30    4.00
  -3   8   5    3.20    3.80
   3   8  -5   -3.20    5.10
   3   8  -5    7.30    1.40
  -2  -8   5   13.30    3.30
  -2  -8   5   13.90    3.00
   2  -8  -5   12.00    1.60
  -2  -8   5   12.90    2.50
  -2  -8   5   18.40    3.60
  -2  -8   5   12.00    1.50
  -2   8   5   11.40    3.80
   2   8  -5   17.60    2.20
   2   8  -5    9.90    2.60
   2   8  -5   16.40    3.50
   2   8  -5   13.00    2.00
   2   8  -5   21.20    4.70
   2   8  -5   14.10    1.80
  -1  -8   5  380.36   15.80
  -1  -8   5  363.46   16.40
  -1  -8   5  404.56   16.60
  -1  -8   5  388.36   15.10
   1  -8  -5  400.76   16.40
  -1  -8   5  371.56   17.10
  -1  -8   5  367.16   17.30
   1  -8  -5  382.46   15.10
   1   8  -5  410.56   16.00
   1   8  -5  397.66   16.30
   1   8  -5  398.96   16.40
   1   8  -5  390.86   18.70
   1   8  -5  414.76   16.00
  -1   8   5  408.46   17.80
   1   8  -5  401.76   17.00
   0  -8   5  393.46   16.20
   0  -8   5  416.56   17.80
   0  -8  -5  422.56   17.80
   0  -8   5  412.36   17.00
   0  -8  -5  407.46   17.80
   0  -8  -5  441.66   17.80
   0  -8  -5  417.06   16.30
   0   8  -5  383.96   15.80
   0   8  -5  412.06   16.10
   0   8   5  401.46   16.40
   0   8   5  398.86   15.80
   0   8   5  402.16   15.90
  -1  -8  -5  846.12   34.30
   1  -8   5  834.42   33.20
  -1  -8  -5  859.81   34.50
  -1  -8  -5  875.91   33.50
   1  -8   5  852.31   32.80
  -1  -8  -5  803.62   34.20
  -1  -8  -5  851.81   33.30
  -1  -8  -5  878.51   32.60
   1  -8   5  805.02   32.50
   1   8   5  866.91   33.20
   1   8   5  840.22   32.80
   1   8   5  849.12   33.00
   1   8   5  841.52   35.20
  -2  -8  -5  190.08    8.90
  -2  -8  -5  185.18    8.60
   2  -8   5  167.38    8.70
  -2  -8  -5  175.68    7.70
  -2  -8  -5  188.18   10.50
   2  -8   5  182.78    8.00
   2  -8   5  187.48    7.80
   2  -8   5  181.28    8.10
  -2  -8  -5  182.98    9.70
  -2  -8  -5  189.88    9.30
   2   8   5  189.48    8.40
   2   8   5  195.98   11.30
   2   8   5  187.88    8.20
   2   8   5  191.08    8.00
  -3  -8  -5  172.98   11.90
  -3  -8  -5  175.48    7.80
  -3  -8  -5  185.28    8.60
   3  -8   5  176.58   12.80
   3  -8   5  193.18    8.30
  -3  -8  -5  182.98    9.70
   3  -8   5  181.78    8.10
   3  -8   5  189.98    8.00
  -3  -8  -5  199.08    8.60
  -3  -8  -5  188.88    9.20
   3   8   5  175.48   12.00
   3   8   5  191.28    8.40
   3   8   5  184.18    8.20
  -3   8  -5  170.78    9.60
   3   8   5  185.98    7.80
  -4  -8  -5   57.79    4.40
   4  -8   5   59.89    4.00
   4  -8   5   56.79    3.40
  -4  -8  -5   55.89    3.90
  -4  -8  -5   54.49    3.40
  -4  -8  -5   54.19    3.70
  -4  -8  -5   58.79    5.10
   4  -8   5   60.09    3.70
  -4   8  -5   64.49    5.10
   4   8   5   50.19    4.60
   4   8   5   59.39    3.70
   4  -9  -5   51.49    3.20
  -4  -9   5   46.50    4.20
  -4  -9   5   49.80    4.10
  -4  -9   5   47.50    2.80
  -4  -9   5   46.40    4.30
   4  -9  -5   50.19    3.20
  -4  -9   5   50.09    4.30
  -4   9   5   40.30    4.30
   4   9  -5   42.50    2.90
   4   9  -5   44.50    3.30
  -4   9   5   44.90    6.10
  -3  -9   5   98.29    5.90
  -3  -9   5   91.99    6.20
   3  -9  -5   87.19    6.70
   3  -9  -5   93.79    4.70
  -3  -9   5   99.69    6.20
  -3  -9   5   95.69    4.50
   3  -9  -5   88.69    4.60
  -3  -9   5   90.89    5.60
   3   9  -5   82.09    5.10
  -3   9   5   64.09    5.80
   3   9  -5   79.39    4.00
  -3   9   5   84.99    7.20
   3   9  -5   76.39    5.20
   3   9  -5   79.59    4.30
  -2  -9   5  153.98    8.40
  -2  -9   5  159.88    6.60
  -2  -9   5  159.08    8.20
  -2  -9   5  153.38    7.60
   2  -9  -5  144.79    6.80
   2  -9  -5  136.79    8.20
  -2  -9   5  169.48    8.50
   2   9  -5  165.28   13.00
   2   9  -5  141.09    6.20
   2   9  -5  135.19    6.10
   2   9  -5  141.89    8.90
  -2   9   5  140.59    8.90
   2   9  -5  127.59    6.70
   2   9  -5  135.79    6.90
  -1  -9   5  350.06   16.10
  -1  -9   5  337.07   15.60
  -1  -9   5  360.46   14.20
   1  -9  -5  377.36   15.70
  -1  -9   5  372.66   15.20
  -1  -9   5  365.36   15.80
   1   9  -5  343.37   15.00
   1   9  -5  364.86   14.40
   1   9  -5  358.46   14.40
   1   9  -5  369.96   14.70
  -1   9   5  364.26   16.30
   0  -9  -5   29.70    4.40
   0  -9   5   24.10    3.40
   0  -9   5   30.20    3.40
   0  -9  -5   27.20    2.40
   0  -9   5   22.50    2.60
   0   9  -5   28.20    2.90
   0   9   5   24.80    2.50
   0   9   5   31.40    5.30
   0   9  -5   23.20    2.50
  -1  -9  -5  234.88   11.20
   1  -9   5  226.28    9.40
   1  -9   5  231.18   10.90
  -1  -9  -5  242.98    9.40
  -1  -9  -5  237.88   11.00
  -1  -9  -5  223.08   10.30
   1  -9   5  224.98   10.30
  -1  -9  -5  222.78   12.00
  -1  -9  -5  232.58   10.50
   1   9   5  256.47   10.40
   1   9   5  237.88   10.90
  -1   9  -5  274.97   13.90
   1   9   5  255.07   10.30
   1   9   5  226.58   15.30
  -2  -9  -5  330.47   13.10
  -2  -9  -5  335.07   14.00
   2  -9   5  339.67   13.50
   2  -9   5  316.57   13.90
  -2  -9  -5  332.97   13.90
  -2  -9  -5  326.67   14.80
  -2  -9  -5  299.77   15.80
  -2  -9  -5  335.37   14.60
   2  -9   5  333.47   13.30
   2   9   5  316.97   17.80
   2   9   5  341.67   13.50
   2   9   5  345.37   14.10
  -3  -9  -5   91.39    5.20
   3  -9   5   85.59    4.50
  -3  -9  -5   87.29    5.70
  -3  -9  -5   81.69    6.20
   3  -9   5   89.69    4.30
  -3  -9  -5   87.29    5.00
   3   9   5   88.79    4.60
   3   9   5   78.59    5.30
   3   9   5   87.19    4.30
  -4  -9  -5  144.69    7.00
  -4  -9  -5  135.19    6.40
  -4  -9  -5  142.59    6.10
   4  -9   5  152.18    6.30
  -4  -9  -5  146.69    7.30
   4  -9   5  148.59    6.90
   4  -9   5  154.78    6.30
  -4  -9  -5  143.29    6.50
   4   9   5  135.59    6.10
   4   9   5  123.99    5.90
  -4 -10   5   46.40    2.50
  -4 -10   5   47.70    3.70
  -4 -10   5   44.70    3.60
   4 -10  -5   49.70    2.70
  -4 -10   5   48.50    3.40
  -4 -10   5   41.30    3.60
  -4  10   5   39.90    4.90
   4  10  -5   40.90    2.80
   4  10  -5   30.90    2.80
   4  10  -5   35.50    3.50
  -3 -10   5   42.30    4.40
   3 -10  -5   38.80    5.60
  -3 -10   5   41.10    5.40
  -3 -10   5   39.50    4.60
  -3 -10   5   45.40    4.20
  -3 -10   5   41.40    2.70
   3 -10  -5   39.00    2.90
   3  10  -5   31.00    5.10
  -3  10   5   44.70    6.30
   3  10  -5   39.30    2.80
   3  10  -5   41.00    3.50
   3  10  -5   35.60    3.00
  -2 -10   5  264.57   10.60
  -2 -10   5  257.97   12.10
  -2 -10   5  262.77   11.70
  -2 -10   5  274.67   11.60
  -2 -10   5  255.87   12.10
   2 -10  -5  271.17   12.10
   2  10  -5  267.37   11.00
   2  10  -5  258.87   10.70
  -2  10   5  262.27   12.90
   2  10  -5  258.97   12.00
   2  10  -5  258.57   10.70
  -1 -10   5  205.28   10.40
   1 -10  -5  219.88   10.20
  -1 -10   5  205.68    8.50
  -1 -10   5  213.78    9.60
  -1 -10   5  192.78   10.10
  -1  10   5  196.38   10.00
   1  10  -5  196.48    8.30
   1  10  -5  174.38    8.20
   0 -10   5  239.78   10.70
   0 -10  -5  243.38    9.70
   0 -10  -5  244.58   11.50
   0 -10   5  239.48   11.50
   0  10  -5  246.28   10.30
   0  10   5  237.18   10.20
   0  10   5  260.77   12.10
  -1 -10  -5  205.98   10.10
   1 -10   5  206.38   10.00
  -1 -10  -5  200.38    9.60
  -1 -10  -5  202.98    9.30
  -1 -10  -5  204.68   10.20
  -1 -10  -5  209.78    8.40
   1 -10   5  208.38    9.40
   1  10   5  212.28    8.70
   1  10   5  197.58   10.20
   1  10   5  212.18    8.70
  -1  10  -5  197.48   11.70
  -2 -10  -5   31.50    3.80
   2 -10   5   18.60    3.50
  -2 -10  -5   27.50    2.30
   2 -10   5   25.40    3.90
  -2 -10  -5   31.30    3.50
  -2 -10  -5   30.40    3.80
  -2 -10  -5   27.00    4.50
   2 -10   5   29.20    2.60
   2  10   5   28.10    2.60
   2  10   5   29.10    4.80
   2  10   5   33.00    2.60
  -3 -10  -5   30.20    3.90
  -3 -10  -5   28.20    3.40
   3 -10   5   26.10    2.40
  -3 -10  -5   30.10    2.10
  -3 -10  -5   26.60    2.80
   3 -10   5   26.60    3.40
  -3 -10  -5   29.80    3.00
   3  10   5   23.30    2.70
   3  10   5   26.50    2.70
  -3 -11   5   42.90    3.60
   3 -11  -5   51.19    5.40
  -3 -11   5   36.10    4.10
  -3 -11   5   43.30    2.40
  -3 -11   5   48.70    3.30
  -3  11   5   41.30    4.60
   3  11  -5   40.70    2.70
   3  11  -5   40.70    3.20
   3  11  -5   43.30    3.00
  -2 -11   5   55.39    5.30
  -2 -11   5   60.19    4.20
  -2 -11   5   52.69    4.60
  -2 -11   5   59.49    3.00
   2 -11  -5   53.09    5.00
   2  11  -5   39.50    2.80
   2  11  -5   40.60    3.60
  -2  11   5   43.70    5.10
   2  11  -5   44.10    3.20
  -1 -11   5   28.00    3.30
   1 -11  -5   27.10    4.40
  -1 -11   5   40.10    7.80
   1  11  -5   22.70    2.50
  -1  11   5   30.20    5.20
  -1  11   5   22.60    4.20
   1  11  -5   29.00    2.60
   0 -11  -5    1.60    2.30
   0 -11   5    4.60    2.40
   0 -11   5   -1.30    1.90
   0  11   5   -0.50    2.20
  -1 -11  -5   51.89    4.80
  -1 -11  -5   45.50    4.20
   1 -11   5   44.00    6.20
   1 -11   5   49.80    4.40
  -1  11  -5   50.89    6.70
   1  11   5   52.79    7.80
   1  11   5   47.60    3.10
  -2 -11  -5  126.69    7.10
  -2 -11  -5  133.69    6.50
  -2 -11  -5  137.19    5.70
  -2 -11  -5  146.49    6.50
   2 -11   5  135.09    6.90
   2  11   5  135.99    6.00
   2  11   5  133.19    7.40
   2  11   5  134.29    6.30
  -3 -11  -5   86.39    5.00
  -3 -11  -5   84.69    4.30
   3 -11   5   88.49    4.70
  -3 -11  -5   90.69    3.80
  -3 -11  -5   84.89    4.40
   3  11   5   93.39    4.50
  -2 -12   5   11.20    4.20
  -2 -12   5    5.20    1.60
  -2 -12   5    9.10    1.30
   2 -12  -5    5.40    2.30
  -2  12   5    4.50    2.30
   2  12  -5    1.20    1.30
   2  12  -5    5.00    1.70
  -1 -12   5  118.19    5.80
   1 -12  -5  121.79    6.40
  -1 -12   5  111.29    6.70
  -1  12   5  101.39    6.10
   0 -12   5   76.49    4.60
   0 -12   5   69.79    4.90
   0 -12  -5   71.09    5.10
   0  12  -5   65.49    5.40
   0  12   5   63.49    4.80
   1 -12   5   87.49    5.20
   1 -12   5   83.29    5.00
  -1 -12  -5   89.29    5.30
  -1 -12  -5   84.29    5.40
   1  12   5   84.29    5.50
  -2 -12  -5   18.00    1.70
  -2 -12  -5   23.00    2.90
   2 -12   5   16.00    2.30
  -2 -12  -5   21.00    3.00
   2  12   5   20.10    4.10
   2  12   5   20.50    2.50
   1 -13  -5   41.10    3.70
  -1 -13   5   39.70    2.90
   1  13  -5   53.49    4.60
  -1  13   5   42.30    3.70
   0 -13   5    5.00    2.30
   0 -13  -5    3.50    2.00
   0 -13   5    7.50    2.00
   0  13   5    2.10    1.90
   0  13  -5    5.40    3.40
  -6   0   6   41.90    5.10
  -6   0   6   40.20    5.00
   6   0  -6   42.80    4.30
  -5   0   6  389.56   17.50
   5   0  -6  393.86   15.70
  -5   0   6  361.06   17.40
   5   0  -6  351.46   18.20
  -5   0   6  380.16   16.30
   5   0  -6  406.76   15.20
   4   0  -6  181.28    7.80
  -4   0   6  193.58    9.70
   4   0  -6  192.88    8.10
  -4   0   6  177.38   10.80
   4   0  -6  190.18   10.00
  -4   0   6  198.88   11.60
   3   0  -6   32.80    2.10
   3   0  -6   28.50    8.00
   3   0  -6   29.00    2.30
  -3   0   6   35.60    5.30
   3   0  -6   27.40    3.40
   3   0  -6   31.90    4.40
  -2   0   6   47.90    9.70
   2   0  -6   51.09    3.60
   2   0  -6   44.10    5.60
  -2   0   6   53.09    4.50
  -2   0   6   45.80    4.70
   2   0  -6   48.10    3.70
   2   0  -6   51.89    6.60
   2   0  -6   58.29    3.10
   2   0  -6   49.00    2.60
   1   0  -6  308.47   12.70
   1   0  -6  312.77   12.40
  -1   0   6  296.17   16.30
  -1   0   6  316.47   13.00
  -1   0   6  321.97   13.60
   1   0  -6  295.37   14.40
   0   0  -6 2749.82  111.99
   0   0   6 3019.50  116.19
   0   0  -6 3074.19  113.49
   0   0   6 2916.81  112.79
   0   0   6 2990.50  113.39
   0   0  -6 2898.81  112.29
   0   0   6 3004.10  112.49
   0   0  -6 3093.09  113.29
   0   0   6 2974.10  111.99
   0   0  -6 3023.90  112.69
   0   0  -6 2958.50  112.59
   0   0   6 2757.72  111.89
   0   0   6 2869.11  113.09
   0   0   6 2893.41  113.69
  -1   0  -6 1029.10   39.90
  -1   0  -6 1030.30   39.30
   1   0   6 1009.80   42.70
  -1   0  -6 1003.10   38.70
   1   0   6 1065.89   39.80
   1   0   6  981.10   38.20
   1   0   6 1001.70   38.70
   1   0   6  966.20   40.50
   1   0   6  949.21   38.10
   1   0   6  949.51   39.20
  -2   0  -6    8.90    1.80
   2   0   6    6.00    1.50
  -2   0  -6    9.50    3.20
   2   0   6    8.20    1.40
   2   0   6    6.60    1.10
   2   0   6    9.40    3.60
  -3   0  -6   24.30    3.80
   3   0   6   24.40    2.10
  -3   0  -6   23.60    4.60
   3   0   6   17.50    2.30
   3   0   6   18.80    3.10
  -3   0  -6   16.10    3.50
  -3   0  -6   20.90    4.40
  -4   0  -6 1132.09   44.70
   4   0   6 1061.19   44.20
  -4   0  -6 1201.88   45.70
  -4   0  -6 1166.68   46.50
   4   0   6 1162.88   44.20
   4   0   6 1176.78   45.30
  -5   0  -6  233.98   14.10
  -5   0  -6  190.48    9.80
  -5   0  -6  201.28    9.10
   5   0   6  186.78    8.80
   5   0   6  185.18    8.70
   6  -1  -6   34.70    3.60
  -6  -1   6   34.00    4.60
  -6   1   6   35.40    5.10
  -6   1   6   34.50    3.80
   5  -1  -6    6.70    2.00
  -5  -1   6    0.70    3.60
   5  -1  -6   10.50    2.60
  -5  -1   6    8.90    3.50
  -5  -1   6   15.80    4.20
   5  -1  -6   13.70    5.80
  -5   1   6    8.30    2.50
   5   1  -6    5.90    2.60
   5   1  -6    4.90    5.90
  -5   1   6    7.20    4.10
   4  -1  -6  133.39    6.20
   4  -1  -6  123.99    8.20
  -4  -1   6  151.88    9.40
  -4  -1   6  129.69    8.80
   4  -1  -6  125.79    5.70
   4   1  -6  143.89    8.30
  -4   1   6  131.99    7.80
  -4   1   6  168.38   11.10
  -4   1   6  133.19    9.50
   4   1  -6  145.69    6.40
   4   1  -6  136.59    7.80
   3  -1  -6 1121.09   41.90
   3  -1  -6 1046.60   48.10
   3  -1  -6 1052.19   42.20
   3  -1  -6 1095.79   42.90
   3  -1  -6 1124.99   41.60
   3   1  -6 1033.20   42.90
   3   1  -6 1120.29   42.50
   3   1  -6 1067.39   42.20
   3   1  -6 1106.09   41.60
   3   1  -6 1096.29   41.40
   2  -1  -6 2418.86   89.99
   2  -1  -6 2349.46   90.19
   2  -1  -6 2293.77   91.89
  -2  -1   6 2311.17   91.59
   2  -1  -6 2435.76   90.99
   2  -1  -6 2365.06   90.49
  -2  -1   6 2174.08   94.69
   2  -1  -6 2455.25   90.69
   2  -1  -6 2483.85   94.19
   2   1  -6 2464.05   92.09
   2   1  -6 2371.76   91.29
   2   1  -6 2319.27   91.69
   2   1  -6 2304.07   92.89
   2   1  -6 2506.05   95.59
   2   1  -6 2526.65   91.99
  -2   1   6 2278.47   92.09
   2   1  -6 2444.66   91.09
  -2   1   6 2348.57   92.89
   1  -1  -6  818.72   33.00
  -1  -1   6  859.61   37.30
   1  -1  -6  881.51   35.40
   1  -1  -6  871.81   33.60
  -1  -1   6  829.12   33.80
  -1  -1   6  860.51   34.30
   1  -1  -6  868.01   33.20
   1  -1  -6  850.41   33.40
   1  -1  -6  867.21   34.40
   1  -1  -6  865.01   32.80
   1   1  -6  864.11   34.10
  -1   1   6  820.42   34.00
   1   1  -6  873.11   33.20
  -1   1   6  875.81   37.20
   1   1  -6  874.61   33.20
  -1   1   6  859.01   36.00
  -1   1   6  834.42   33.20
  -1   1   6  856.41   32.90
   1   1  -6  861.51   32.80
   1   1  -6  819.92   32.50
  -1   1   6  829.42   32.90
   1   1  -6  869.71   35.10
   1   1  -6  840.72   32.40
  -1   1   6  794.32   33.20
   0  -1  -6  102.09    4.50
   0  -1   6   94.99    5.40
   0  -1   6   97.59    4.80
   0  -1   6   95.29    5.20
   0  -1   6   95.49    5.60
   0  -1   6   96.59    4.10
   0  -1  -6  103.09    5.80
   0  -1  -6   91.09    5.40
   0  -1  -6  105.79    5.00
   0  -1  -6  100.69    5.90
   0   1   6   98.09    4.20
   0   1  -6  102.19    6.00
   0   1   6  102.49    6.60
   0   1   6   99.69    5.80
   0   1  -6   91.49    4.40
   0   1   6  101.39    9.90
   0   1  -6  107.19    5.50
   0   1  -6   98.19    5.20
   0   1   6  101.29    5.70
   0   1   6   96.79    4.80
   0   1   6  105.99    5.40
   0   1  -6  101.39    4.50
   0   1   6   92.69    4.10
   0   1   6   97.79    5.10
   0   1  -6  101.79    5.00
  -1  -1  -6  601.44   23.40
   1  -1   6  579.54   22.10
  -1  -1  -6  558.24   23.70
   1  -1   6  545.35   24.60
   1  -1   6  570.64   22.10
   1  -1   6  583.24   22.70
  -1  -1  -6  586.44   22.70
   1  -1   6  549.95   23.20
   1  -1   6  612.44   23.90
  -1  -1  -6  549.54   23.60
   1   1   6  608.54   27.30
   1   1   6  599.34   24.50
   1   1   6  572.74   23.80
   1   1   6  561.44   22.30
   1   1   6  565.54   22.30
   1   1   6  550.64   27.60
   1   1   6  576.74   22.80
  -1   1  -6  606.64   23.50
   1   1   6  614.94   24.00
  -1   1  -6  557.54   24.10
  -1   1  -6  575.94   22.80
  -2  -1  -6 1966.60   72.89
   2  -1   6 1965.10   72.59
   2  -1   6 1854.11   71.89
   2  -1   6 1856.01   73.99
   2  -1   6 1790.92   71.79
  -2  -1  -6 1881.91   73.79
  -2   1  -6 1850.21   72.39
   2   1   6 1902.71   71.19
   2   1   6 1831.92   70.59
   2   1   6 1817.72   72.39
   2   1   6 1878.71   74.09
   2   1   6 1788.72   70.49
  -2   1  -6 1898.21   71.39
   3  -1   6  903.01   34.00
   3  -1   6  827.62   33.20
  -3  -1  -6  784.72   33.90
   3  -1   6  841.62   33.00
  -3  -1  -6  928.71   34.60
  -3  -1  -6  866.61   34.50
  -3  -1  -6  853.11   33.70
  -3  -1  -6  869.21   35.50
  -3   1  -6  801.02   32.40
  -3   1  -6  817.72   33.80
   3   1   6  817.82   31.90
  -3   1  -6  824.42   33.10
   3   1   6  863.71   32.60
  -4  -1  -6   71.69    6.60
  -4  -1  -6   75.19    7.80
   4  -1   6   78.19    6.80
  -4  -1  -6   65.59    5.10
   4  -1   6   77.49    4.00
   4  -1   6   76.09    4.10
   4   1   6   67.39    4.00
   4   1   6   68.29    6.40
  -4   1  -6   77.19    6.10
  -4   1  -6   73.19    5.40
  -4   1  -6   71.19    7.20
  -5  -1  -6    7.30    4.30
   5  -1   6    2.00    2.30
  -5  -1  -6    2.90    4.10
  -5  -1  -6    4.50    2.60
  -5   1  -6    5.80    3.20
   5   1   6    7.60    2.40
  -5   1  -6    0.90    3.40
  -5   1  -6    6.40    3.30
  -6  -2   6   39.90    4.60
  -6  -2   6   41.60    7.60
   6  -2  -6   49.20    3.60
  -6   2   6   50.19    3.90
  -6   2   6   45.90    5.70
   5  -2  -6  536.35   24.60
  -5  -2   6  559.94   23.40
   5  -2  -6  555.34   21.60
  -5  -2   6  542.35   23.20
   5  -2  -6  571.14   22.10
   5   2  -6  502.45   24.10
  -5   2   6  537.85   23.70
   5   2  -6  548.95   21.80
  -5   2   6  575.24   22.30
   4  -2  -6  312.07   12.90
   4  -2  -6  315.77   15.10
  -4  -2   6  339.07   15.30
   4  -2  -6  316.77   13.30
  -4  -2   6  342.87   15.20
  -4  -2   6  332.17   15.20
   4   2  -6  299.27   11.60
  -4   2   6  273.07   14.50
  -4   2   6  275.57   15.60
   4   2  -6  301.17   13.30
   4   2  -6  278.77   12.90
  -4   2   6  286.77   12.90
   3  -2  -6    5.10    2.20
   3  -2  -6   -0.30    8.00
   3  -2  -6    5.90    1.00
   3  -2  -6    3.20    2.40
   3  -2  -6    3.20    1.30
   3   2  -6   11.90    4.40
   3   2  -6    5.30    2.10
   3   2  -6    5.80    1.90
   3   2  -6    6.30    1.10
   3   2  -6   10.40    2.10
   3   2  -6    7.50    9.00
  -2  -2   6  179.28    9.40
   2  -2  -6  169.48   11.50
   2  -2  -6  191.38    7.80
   2  -2  -6  189.68    8.50
   2  -2  -6  165.98   10.20
   2  -2  -6  183.38    7.90
   2   2  -6  122.49    8.30
   2   2  -6  160.68    6.80
  -2   2   6  136.39    7.20
   2   2  -6  171.28   11.50
   2   2  -6  153.48    7.50
  -2   2   6  154.18    6.80
   1  -2  -6 1515.55   61.79
   1  -2  -6 1621.34   62.09
   1  -2  -6 1576.94   61.59
  -1  -2   6 1629.34   61.99
  -1  -2   6 1636.24   63.09
   1  -2  -6 1685.43   64.29
   1  -2  -6 1639.74   62.39
   1  -2  -6 1655.53   66.89
   1  -2  -6 1565.84   63.19
   1  -2  -6 1609.54   61.39
   1   2  -6 1564.64   58.29
  -1   2   6 1537.45   59.59
  -1   2   6 1503.05   61.69
   1   2  -6 1500.85   58.19
   1   2  -6 1612.74   60.79
   1   2  -6 1531.05   59.59
   1   2  -6 1407.46   60.69
   1   2  -6 1596.74   58.59
  -1   2   6 1466.05   62.69
  -1   2   6 1282.77   58.09
   1   2  -6 1590.44   58.69
   1   2  -6 1502.85   57.89
  -1   2   6 1519.75   58.59
  -1   2   6 1487.85   58.59
  -1   2   6 1640.04   58.79
   0  -2   6 1758.42   67.99
   0  -2  -6 1773.12   68.39
   0  -2  -6 1864.31   69.69
   0  -2   6 1841.32   69.29
   0  -2   6 1811.72   69.69
   0  -2   6 1711.23   67.89
   0  -2  -6 1849.91   70.09
   0  -2   6 1773.22   68.99
   0  -2   6 1766.12   68.59
   0  -2  -6 1801.12   68.89
   0  -2  -6 1669.63   68.59
   0   2  -6 1953.40   71.29
   0   2  -6 1756.92   71.39
   0   2  -6 1779.62   71.59
   0   2   6 1999.40   76.29
   0   2  -6 1882.61   73.09
   0   2  -6 1909.21   72.69
   0   2   6 1830.22   72.19
   0   2   6 1859.21   71.89
   0   2  -6 1950.20   72.69
   0   2  -6 1874.81   72.09
   0   2  -6 1850.11   72.09
   0   2   6 1809.02   71.29
   0   2   6 1841.82   73.89
   0   2  -6 1879.41   72.69
   0   2   6 1891.31   72.99
   0   2   6 1887.91   72.69
   1  -2   6 1526.75   63.69
   1  -2   6 1758.92   64.59
  -1  -2  -6 1685.83   64.29
   1  -2   6 1704.53   63.29
  -1  -2  -6 1720.53   63.99
   1  -2   6 1638.84   62.59
  -1  -2  -6 1454.95   64.89
  -1  -2  -6 1674.93   63.29
   1  -2   6 1612.24   62.59
   1   2   6 1982.50   75.79
   1   2   6 1861.81   75.19
   1   2   6 1896.31   75.19
  -1   2  -6 1965.30   77.29
   1   2   6 1938.11   80.09
  -1   2  -6 1940.81   75.69
   1   2   6 2001.40   77.59
  -1   2  -6 2073.59   76.39
   1   2   6 1994.20   80.49
  -1   2  -6 2014.40   77.59
   1   2   6 2064.79   77.09
   2  -2   6  163.08    6.50
  -2  -2  -6  157.38    9.30
   2  -2   6  160.18    7.30
   2  -2   6  150.08    6.40
  -2  -2  -6  156.88    7.60
   2   2   6  165.48    7.00
   2   2   6  154.28    6.30
   2   2   6  146.59    6.20
  -2   2  -6  155.58    7.20
   2   2   6  154.78   10.70
  -2   2  -6  159.78   11.10
  -2   2  -6  139.79    8.90
  -3  -2  -6  217.98   10.90
   3  -2   6  218.08    8.80
  -3  -2  -6  210.88   13.00
  -3  -2  -6  228.78    9.80
   3  -2   6  217.08    8.80
  -3  -2  -6  201.78   10.10
  -3  -2  -6  217.58   10.70
   3  -2   6  211.58    9.90
   3   2   6  198.98    9.00
  -3   2  -6  203.98    9.30
  -3   2  -6  190.58    9.70
  -3   2  -6  215.18   10.90
   3   2   6  184.48    8.40
  -4  -2  -6  840.22   36.40
   4  -2   6  890.21   34.30
   4  -2   6  923.81   35.80
  -4  -2  -6  820.42   34.80
  -4  -2  -6  942.71   35.90
   4  -2   6  886.81   34.20
  -4  -2  -6  894.81   34.80
   4   2   6  931.21   36.50
  -4   2  -6  928.91   37.10
  -4   2  -6  978.10   38.80
  -4   2  -6  966.90   37.90
   4   2   6  932.41   37.50
  -5  -2  -6  198.08    9.10
  -5  -2  -6  174.88   11.00
   5  -2   6  212.38    9.10
  -5  -2  -6  228.48   11.40
   5   2   6  178.18    9.10
  -5   2  -6  217.68   10.90
  -5   2  -6  198.28   13.20
  -6  -3   6    0.30    2.60
   6  -3  -6    1.30    2.40
  -6  -3   6    2.30    3.20
   6  -3  -6   -0.20    2.00
  -6   3   6    3.20    1.80
  -6   3   6    4.30    3.70
  -5  -3   6    9.60    3.50
   5  -3  -6    9.50    1.90
  -5  -3   6    9.70    3.40
  -5  -3   6    3.90    6.00
   5  -3  -6    9.90    6.90
   5  -3  -6   12.00    2.70
  -5   3   6    8.00    4.70
   5   3  -6    2.60    6.80
  -5   3   6    7.90    2.30
   5   3  -6    8.50    2.60
   4  -3  -6  157.18   10.00
  -4  -3   6  158.38    9.50
   4  -3  -6  159.28    6.90
   4  -3  -6  164.48    7.30
   4  -3  -6  158.98    7.40
  -4  -3   6  164.68    9.20
   4   3  -6  153.88    8.90
   4   3  -6  148.59    6.70
   4   3  -6  156.58    6.90
  -4   3   6  149.29   10.50
  -4   3   6  171.88    9.10
   4   3  -6  154.48    8.60
   3  -3  -6  676.83   26.90
   3  -3  -6  684.73   28.30
   3  -3  -6  710.33   27.10
  -3  -3   6  713.23   28.60
   3  -3  -6  693.53   26.70
  -3  -3   6  670.93   28.60
  -3  -3   6  707.23   29.20
   3   3  -6  663.13   29.50
  -3   3   6  694.73   29.30
   3   3  -6  717.53   27.00
   3   3  -6  732.13   27.10
   3   3  -6  716.23   28.00
  -3   3   6  655.43   28.00
   3   3  -6  721.13   28.10
   2  -3  -6 2204.38   81.09
  -2  -3   6 2024.70   83.09
   2  -3  -6 2196.28   85.59
   2  -3  -6 2117.69   81.19
   2  -3  -6 2196.28   82.39
   2  -3  -6 2084.79   81.49
   2  -3  -6 2286.17   84.79
   2  -3  -6 2079.69   81.29
   2  -3  -6 1987.40   81.39
  -2   3   6 1882.61   78.49
   2   3  -6 2020.50   77.19
   2   3  -6 2117.99   82.49
   2   3  -6 2079.69   78.39
   2   3  -6 1899.31   80.39
   2   3  -6 2099.59   77.09
   2   3  -6 2120.79   79.69
   2   3  -6 1964.90   77.79
   1  -3  -6  657.03   32.70
   1  -3  -6  714.73   26.90
  -1  -3   6  653.03   28.50
   1  -3  -6  684.13   26.60
   1  -3  -6  702.23   28.20
  -1  -3   6  699.53   28.40
   1  -3  -6  693.83   27.50
   1  -3  -6  668.73   28.60
   1  -3  -6  728.23   27.30
   1   3  -6  609.94   27.10
  -1   3   6  640.74   27.20
  -1   3   6  679.13   26.00
   1   3  -6  658.23   25.50
  -1   3   6  632.64   26.40
   1   3  -6  679.03   25.90
  -1   3   6  649.04   31.30
   1   3  -6  651.93   26.10
   1   3  -6  668.33   25.20
   1   3  -6  652.33   28.70
   1   3  -6  639.04   25.90
  -1   3   6  676.83   27.40
   1   3  -6  690.33   28.50
  -1   3   6  587.54   25.20
   0  -3   6  231.58    9.50
   0  -3  -6  252.67   16.70
   0  -3  -6  240.98   10.10
   0  -3   6  243.98   11.60
   0  -3   6  240.88   10.40
   0  -3  -6  256.87   10.70
   0  -3  -6  236.88   11.70
   0  -3  -6  246.38   12.30
   0  -3   6  232.28   11.20
   0  -3   6  236.38    9.60
   0  -3   6  242.58   11.50
   0   3  -6  247.78   11.20
   0   3   6  255.27   11.70
   0   3  -6  231.88   11.30
   0   3   6  246.78   15.50
   0   3   6  233.68    9.50
   0   3   6  240.98   11.20
   0   3  -6  262.97   10.50
   0   3  -6  240.68    9.80
   0   3  -6  231.38   10.60
   0   3   6  226.28   13.10
   0   3   6  219.88   10.50
   0   3  -6  236.78    9.40
   0   3  -6  226.78    9.60
   0   3  -6  241.88   11.40
   0   3   6  246.28   10.30
  -1  -3  -6  375.16   14.60
   1  -3   6  366.96   16.30
  -1  -3  -6  312.67   17.20
   1  -3   6  363.76   14.30
   1  -3   6  343.97   14.60
   1  -3   6  349.57   13.80
  -1  -3  -6  339.27   16.00
   1  -3   6  347.97   13.70
  -1  -3  -6  354.16   15.40
   1  -3   6  372.36   17.40
   1   3   6  351.66   15.70
  -1   3  -6  338.37   16.20
   1   3   6  356.26   14.20
  -1   3  -6  362.06   14.80
   1   3   6  330.67   17.30
   1   3   6  349.37   13.50
   1   3   6  341.37   15.90
  -1   3  -6  353.86   13.90
  -1   3  -6  336.97   16.40
   1   3   6  341.37   13.50
   2  -3   6 1218.28   45.60
   2  -3   6 1179.38   45.50
  -2  -3  -6 1198.48   46.70
   2  -3   6 1134.89   45.60
   2  -3   6 1209.78   46.40
   2   3   6 1219.28   44.70
  -2   3  -6 1039.00   46.60
   2   3   6 1231.68   45.40
  -2   3  -6 1180.28   49.00
  -3  -3  -6  421.76   16.80
  -3  -3  -6  386.26   19.40
   3  -3   6  392.86   16.40
  -3  -3  -6  410.96   18.00
   3  -3   6  409.66   17.30
  -3  -3  -6  408.96   16.90
   3  -3   6  397.16   16.00
   3  -3   6  423.56   16.10
  -3  -3  -6  411.76   17.80
  -3   3  -6  457.25   19.00
   3   3   6  470.95   18.10
  -3   3  -6  457.95   20.30
  -3   3  -6  458.55   19.50
   3   3   6  466.05   19.00
  -4  -3  -6   69.99    6.50
   4  -3   6   68.99    4.90
  -4  -3  -6   68.69    5.50
   4  -3   6   75.59    3.90
  -4  -3  -6   68.49    5.00
   4  -3   6   74.99    7.70
   4  -3   6   76.89    4.20
  -4  -3  -6   67.99   10.50
   4   3   6   63.59    3.90
   4   3   6   69.79    6.70
  -4   3  -6   69.59    6.60
  -4   3  -6   61.19    5.70
   5  -3   6   16.20    2.70
  -5  -3  -6   14.30    2.30
  -5  -3  -6   12.90    3.30
   5  -3   6   18.20    2.70
  -5   3  -6   15.40    3.40
  -5   3  -6   17.20    1.90
  -5   3  -6   15.30    2.80
   6  -4  -6   46.70    3.60
  -6  -4   6   46.90    4.00
   6  -4  -6   42.90    3.20
  -6  -4   6   54.89    4.90
  -6   4   6   48.70    5.90
  -6   4   6   50.99    3.70
  -5  -4   6  181.68    9.40
   5  -4  -6  169.38    7.70
   5  -4  -6  190.18    8.80
  -5  -4   6  182.68    9.70
  -5  -4   6  194.88    9.60
   5  -4  -6  172.68    8.00
   5   4  -6  182.18    8.60
  -5   4   6  199.88    9.00
  -5   4   6  158.78   11.00
   5   4  -6  190.28    8.20
  -4  -4   6  423.76   18.20
  -4  -4   6  436.26   18.60
   4  -4  -6  443.26   16.90
   4  -4  -6  427.66   17.00
   4  -4  -6  424.96   17.30
  -4  -4   6  405.46   18.70
  -4   4   6  427.76   19.80
   4   4  -6  409.36   16.70
   4   4  -6  412.16   16.60
  -4   4   6  430.96   17.80
  -3  -4   6   54.49    6.20
   3  -4  -6   59.89    3.50
  -3  -4   6   57.19    5.50
   3  -4  -6   56.59    6.30
  -3  -4   6   57.69    6.20
   3  -4  -6   55.49    3.00
  -3   4   6   66.59    7.40
  -3   4   6   75.39   10.60
   3   4  -6   64.99    4.90
  -3   4   6   55.99    4.90
   3   4  -6   60.99    3.20
   3   4  -6   52.69    4.40
   3   4  -6   67.09    4.70
   2  -4  -6  172.58    7.10
   2  -4  -6  164.58    7.30
   2  -4  -6  172.98    6.80
   2  -4  -6  160.88   12.30
   2  -4  -6  165.08    6.90
   2  -4  -6  150.98   11.90
   2   4  -6  142.49    6.70
  -2   4   6  159.18   10.20
   2   4  -6  140.39    8.20
   2   4  -6  137.89    5.90
   2   4  -6  146.29    6.10
   2   4  -6  143.09   13.10
   2   4  -6  139.19    7.10
  -1  -4   6 1877.41   74.59
   1  -4  -6 1870.71   73.79
   1  -4  -6 1836.22   74.99
   1  -4  -6 1929.81   73.19
   1  -4  -6 1905.61   72.69
   1  -4  -6 1981.70   73.59
  -1  -4   6 1905.11   75.49
   1  -4  -6 1990.90   76.49
   1  -4  -6 1912.61   75.39
   1  -4  -6 1933.51   84.99
   1  -4  -6 1864.91   72.89
  -1  -4   6 1890.21   74.99
   1   4  -6 1979.90   78.99
  -1   4   6 2070.19   76.19
   1   4  -6 1866.11   76.19
   1   4  -6 1870.21   77.49
  -1   4   6 2067.49   84.29
  -1   4   6 1864.51   77.29
  -1   4   6 2078.79   77.19
   1   4  -6 1990.50   76.79
  -1   4   6 1983.50   78.29
   1   4  -6 2073.49   77.39
  -1   4   6 2041.30   78.99
   1   4  -6 2070.09   77.29
   1   4  -6 2047.20   76.39
   0  -4  -6 1707.33   65.59
   0  -4   6 1782.82   68.09
   0  -4   6 1695.93   65.79
   0  -4  -6 1710.63   67.29
   0  -4   6 1711.83   64.99
   0  -4  -6 1661.33   71.69
   0  -4   6 1653.43   64.89
   0  -4  -6 1662.93   68.39
   0  -4   6 1727.73   67.29
   0   4  -6 1857.51   68.89
   0   4   6 1885.81   71.49
   0   4   6 1863.91   69.89
   0   4   6 1852.11   70.99
   0   4  -6 1846.92   69.89
   0   4  -6 1866.81   71.79
   0   4  -6 1780.72   69.89
   0   4   6 1638.44   75.29
   0   4  -6 1823.92   69.19
   0   4  -6 1792.82   71.09
   0   4   6 1683.53   68.79
   0   4   6 1757.42   68.89
   0   4   6 1721.33   68.89
   0   4  -6 1905.91   70.99
   1  -4   6  510.15   22.90
   1  -4   6  522.45   19.80
   1  -4   6  508.25   20.80
  -1  -4  -6  528.15   21.80
   1  -4   6  507.65   19.90
   1  -4   6  501.05   19.90
  -1  -4  -6  468.25   24.50
  -1  -4  -6  535.35   20.80
  -1   4  -6  591.84   23.10
   1   4   6  566.54   25.50
   1   4   6  587.84   22.80
  -1   4  -6  584.14   24.00
   1   4   6  603.14   22.70
   1   4   6  582.14   25.50
  -1   4  -6  605.24   26.00
  -2  -4  -6  148.09    7.60
  -2  -4  -6  153.98    8.00
   2  -4   6  165.18    6.70
  -2  -4  -6  157.28    8.90
   2  -4   6  159.98    6.80
   2  -4   6  151.98    6.50
  -2  -4  -6  140.79   17.10
  -2  -4  -6  150.58    7.60
   2  -4   6  167.28    7.90
  -2   4  -6  165.38   13.40
  -2   4  -6  155.28    8.50
   2   4   6  158.08    7.50
   2   4   6  161.58    6.50
   2   4   6  147.49    6.40
   3  -4   6    7.50    3.00
  -3  -4  -6    4.00    3.10
  -3  -4  -6    6.70    2.40
   3  -4   6    8.40    1.30
  -3  -4  -6   14.00    3.10
  -3  -4  -6    4.40    2.20
  -3  -4  -6    8.20    3.00
  -3   4  -6    7.20    3.20
   3   4   6    4.60    1.20
  -3   4  -6   11.60    2.80
  -3   4  -6   15.30    3.30
   3   4   6    5.80    1.30
   3   4   6    4.90    2.70
  -4  -4  -6  233.38   15.50
   4  -4   6  270.37   14.20
   4  -4   6  264.87   11.40
  -4  -4  -6  284.37   12.80
  -4  -4  -6  257.47   11.50
   4  -4   6  277.97   11.20
   4  -4   6  269.97   10.90
  -4  -4  -6  259.47   11.70
   4   4   6  255.27   10.10
   4   4   6  229.78   10.30
  -4   4  -6  247.88   11.40
  -4   4  -6  245.88   12.20
  -4   4  -6  236.38   10.00
  -5  -4  -6  197.98    9.20
   5  -4   6  179.88    7.90
  -5  -4  -6  193.78    8.10
  -5  -4  -6  175.18    8.60
   5  -4   6  174.48    8.10
  -5   4  -6  189.98    7.80
  -5   4  -6  187.78    9.70
  -5   4  -6  192.28    8.90
   6  -5  -6    8.90    1.80
   6  -5  -6    9.40    2.50
  -6  -5   6    8.40    2.50
  -6  -5   6    6.50    3.20
  -6   5   6    8.00    4.10
  -6   5   6    7.30    1.70
   5  -5  -6   32.40    5.50
   5  -5  -6   29.80    5.20
  -5  -5   6   33.10    4.80
   5  -5  -6   34.70    3.20
   5  -5  -6   30.20    2.70
  -5  -5   6   42.80    7.00
  -5  -5   6   30.70    4.90
   5   5  -6   31.10    3.30
  -5   5   6   18.60    5.20
  -5   5   6   33.80    3.60
   5   5  -6   27.40    3.20
  -4  -5   6   75.59    6.30
   4  -5  -6   69.69    4.80
   4  -5  -6   67.49    3.80
   4  -5  -6   83.79   10.60
  -4  -5   6   73.79    6.60
  -4  -5   6   77.69    6.00
   4  -5  -6   65.59    4.10
   4   5  -6   69.59    7.40
   4   5  -6   52.89    3.50
   4   5  -6   64.59    3.90
  -4   5   6   55.29    8.20
   4   5  -6   60.19    6.60
  -4   5   6   53.89    4.70
  -3  -5   6  606.74   25.50
   3  -5  -6  616.94   23.80
   3  -5  -6  617.04   24.20
  -3  -5   6  627.44   25.00
   3  -5  -6  578.84   24.50
  -3  -5   6  585.34   24.80
   3  -5  -6  629.54   23.80
   3  -5  -6  617.34   26.30
  -3  -5   6  632.34   25.30
  -3   5   6  586.24   24.30
   3   5  -6  590.74   24.80
  -3   5   6  629.14   25.90
   3   5  -6  588.24   23.20
   3   5  -6  599.54   23.50
   3   5  -6  601.24   24.50
   2  -5  -6  585.24   36.00
   2  -5  -6  582.64   21.90
   2  -5  -6  574.64   22.20
   2  -5  -6  537.75   23.80
   2  -5  -6  571.64   21.90
  -2  -5   6  539.95   22.90
   2   5  -6  563.44   22.50
   2   5  -6  601.04   23.90
  -2   5   6  586.44   24.60
   2   5  -6  593.44   22.70
   2   5  -6  597.04   23.40
   2   5  -6  546.15   22.60
   1  -5  -6  240.58    9.70
   1  -5  -6  226.58   10.10
   1  -5  -6  233.48   11.90
   1  -5  -6  246.88   15.30
   1  -5  -6  268.37   10.50
   1  -5  -6  256.27    9.70
   1  -5  -6  238.08   14.20
   1  -5  -6  233.58   14.60
  -1   5   6  209.88   12.50
  -1   5   6  249.68    9.10
   1   5  -6  239.58    9.20
   1   5  -6  223.98   10.90
   1   5  -6  218.78    9.00
  -1   5   6  212.18   13.20
   1   5  -6  203.38    9.00
   1   5  -6  233.78    9.70
   1   5  -6  218.68   11.40
   0  -5   6  106.69   11.30
   0  -5   6  108.19    9.30
   0  -5  -6  111.79    6.30
   0  -5  -6  107.19    9.60
   0   5   6  110.59    9.20
   0   5  -6  113.09    5.30
   0   5  -6  113.89    4.80
   0   5   6  118.19    8.30
   0   5  -6  110.69    5.20
   0   5  -6  119.29    6.70
   0   5  -6  107.09    7.20
   0   5  -6  106.59    8.30
   0   5   6  105.09    5.00
   0   5   6  121.59    6.50
   0   5   6  111.69    4.80
   0   5  -6  114.59    4.90
   0   5   6  110.39    5.00
   0   5  -6  105.59   10.50
   1  -5   6  380.16   20.70
   1  -5   6  418.76   17.80
   1  -5   6  424.86   16.50
   1  -5   6  431.16   16.40
  -1  -5  -6  427.56   17.40
   1  -5   6  438.46   16.40
  -1  -5  -6  393.96   23.00
   1   5   6  389.36   15.60
   1   5   6  410.66   16.70
  -1   5  -6  393.26   17.30
   1   5   6  379.06   19.00
   1   5   6  406.36   15.60
   1   5   6  407.26   15.50
  -1   5  -6  379.66   19.80
   2  -5   6  510.05   22.20
  -2  -5  -6  530.65   22.50
  -2  -5  -6  535.95   22.10
   2  -5   6  577.04   21.50
  -2  -5  -6  577.24   23.10
  -2  -5  -6  559.94   23.00
   2  -5   6  552.54   22.90
   2  -5   6  560.54   21.50
   2  -5   6  538.95   21.80
  -2  -5  -6  554.84   22.10
   2   5   6  561.24   21.70
   2   5   6  577.44   21.80
  -2   5  -6  572.84   23.00
  -2   5  -6  547.55   21.70
  -2   5  -6  525.25   23.50
   2   5   6  574.14   23.00
  -3  -5  -6  291.27   12.60
  -3  -5  -6  294.17   12.60
   3  -5   6  298.67   12.20
   3  -5   6  288.27   14.20
  -3  -5  -6  297.57   14.90
   3  -5   6  285.37   12.00
   3  -5   6  288.67   12.00
  -3  -5  -6  289.97   13.70
  -3  -5  -6  293.67   14.90
  -3   5  -6  297.87   14.10
  -3   5  -6  307.87   13.50
  -3   5  -6  297.67   12.10
   3   5   6  315.07   12.20
   3   5   6  281.17   15.50
   3   5   6  299.97   12.00
   4  -5   6   39.50    3.10
  -4  -5  -6   46.70    4.40
   4  -5   6   43.90    3.40
  -4  -5  -6   41.50    5.70
   4  -5   6   45.60    3.90
   4  -5   6   52.59   10.30
  -4  -5  -6   53.49    9.60
  -4  -5  -6   42.10    3.90
  -4  -5  -6   41.80    5.80
   4   5   6   35.70    5.80
   4   5   6   53.19    3.80
  -4   5  -6   49.99    4.90
  -4   5  -6   44.50    5.40
   4   5   6   43.10    3.60
  -4   5  -6   47.30    3.10
   5  -5   6    3.40    1.90
  -5  -5  -6    2.20    2.20
  -5  -5  -6    1.90    1.70
  -5  -5  -6    1.20    3.20
   5  -5   6   -4.60    2.70
   5  -5   6    5.20    2.00
  -5   5  -6    0.30    2.20
  -5  -6   6  257.17   10.40
   5  -6  -6  219.48    9.20
  -5  -6   6  212.18   10.30
  -5  -6   6  222.38   10.50
   5  -6  -6  184.88   10.00
   5  -6  -6  212.38    9.60
   5  -6  -6  237.18   11.20
   5   6  -6  198.68    8.40
   5   6  -6  191.28    9.30
  -5   6   6  164.78   10.80
  -5   6   6  219.38    9.20
   4  -6  -6  246.58   10.60
  -4  -6   6  237.68   11.70
  -4  -6   6  245.88   11.30
   4  -6  -6  252.77   11.00
  -4  -6   6  230.48   11.90
  -4  -6   6  246.38   11.50
   4  -6  -6  207.58   17.70
   4  -6  -6  247.08   10.00
   4  -6  -6  234.78    9.90
  -4   6   6  253.57   13.70
  -4   6   6  245.48   11.20
   4   6  -6  251.57   13.50
   4   6  -6  246.78   10.20
   4   6  -6  250.57   10.60
   4   6  -6  240.48   12.60
  -3  -6   6   63.19    6.00
   3  -6  -6   60.59    3.60
   3  -6  -6   63.59   10.10
  -3  -6   6   82.89    6.10
   3  -6  -6   62.89    3.50
  -3  -6   6   79.09    6.90
   3  -6  -6   70.79    4.90
   3  -6  -6   59.99    4.60
   3   6  -6   42.30    3.80
   3   6  -6   58.19    3.50
  -3   6   6   64.59    7.80
   3   6  -6   55.79    6.30
   3   6  -6   61.99    5.40
  -3   6   6   49.90    4.70
   3   6  -6   47.60    3.00
  -2  -6   6  278.77   12.80
  -2  -6   6  265.87   13.20
   2  -6  -6  291.17   11.10
   2  -6  -6  278.07   11.40
   2  -6  -6  273.77   11.50
   2  -6  -6  289.37   11.00
  -2  -6   6  266.07   12.00
   2  -6  -6  271.37   14.60
  -2  -6   6  263.97   12.40
   2   6  -6  266.67   11.10
   2   6  -6  264.97   10.80
  -2   6   6  254.07   15.50
  -2   6   6  255.57   11.90
   2   6  -6  258.77   11.60
   2   6  -6  256.17   12.30
   2   6  -6  275.67   10.50
  -2   6   6  253.77   12.80
   1  -6  -6  563.84   21.50
  -1  -6   6  542.35   21.30
   1  -6  -6  559.54   21.20
  -1  -6   6  528.95   21.90
   1   6  -6  559.34   21.50
  -1   6   6  542.55   26.30
   1   6  -6  507.15   24.80
   1   6  -6  563.54   21.60
   1   6  -6  616.84   25.00
  -1   6   6  533.35   23.30
   1   6  -6  540.25   23.10
  -1   6   6  564.44   21.50
   1   6  -6  546.45   21.80
   1   6  -6  560.94   22.20
   0  -6  -6 1413.76   57.79
   0  -6  -6 1425.26   62.49
   0  -6  -6 1512.45   56.19
   0  -6  -6 1503.25   57.19
   0  -6   6 1487.85   56.79
   0   6   6 1476.35   55.09
   0   6   6 1502.55   55.39
   0   6   6 1409.56   58.99
   0   6  -6 1452.15   55.09
   0   6   6 1419.76   60.19
   0   6  -6 1414.56   56.79
   0   6  -6 1220.68   55.29
   0   6  -6 1478.55   55.19
   0   6  -6 1469.85   55.49
   0   6  -6 1431.26   58.79
   0   6   6 1480.45   55.19
   0   6   6 1536.75   56.89
  -1  -6  -6  111.29    6.50
  -1  -6  -6  115.29    6.70
  -1  -6  -6  112.09    6.40
   1  -6   6  115.99    5.00
  -1  -6  -6  112.39    7.20
  -1  -6  -6  113.89    5.30
   1  -6   6  108.69    5.50
   1  -6   6  104.89    4.90
  -1  -6  -6  101.49    6.30
   1  -6   6  108.49    5.80
   1  -6   6  110.49    5.50
   1   6   6  131.19    5.80
   1   6   6  126.79    7.30
   1   6   6  129.59    5.50
  -1   6  -6  127.39    5.80
  -2  -6  -6  462.65   19.60
  -2  -6  -6  453.65   18.70
   2  -6   6  462.65   20.20
  -2  -6  -6  465.65   19.90
   2  -6   6  464.75   18.30
  -2  -6  -6  453.85   19.10
   2  -6   6  422.26   18.50
  -2  -6  -6  455.25   18.70
   2  -6   6  472.95   18.10
   2  -6   6  459.35   18.10
   2   6   6  415.16   16.70
  -2   6  -6  443.36   17.90
   2   6   6  417.76   16.50
   2   6   6  415.56   16.80
  -2   6  -6  382.36   18.50
  -2   6  -6  424.06   16.50
   2   6   6  446.16   18.30
   3  -6   6   70.09    9.70
   3  -6   6   67.79    3.90
   3  -6   6   70.19    5.10
   3  -6   6   69.69    4.50
  -3  -6  -6   76.59    7.70
  -3  -6  -6   69.99    4.80
  -3  -6  -6   71.89    5.30
  -3  -6  -6   70.79    6.30
  -3  -6  -6   68.89    4.90
   3  -6   6   70.49    3.90
   3   6   6   56.29    3.30
   3   6   6   55.19    6.30
   3   6   6   60.79    3.60
  -3   6  -6   61.69    6.00
  -3   6  -6   63.59    5.20
  -3   6  -6   50.39    3.30
  -4  -6  -6   92.59    5.00
   4  -6   6   77.59    5.50
   4  -6   6   88.89    4.60
   4  -6   6   93.69    5.60
  -4  -6  -6   90.19    7.70
   4  -6   6   83.09    4.50
  -4  -6  -6   86.39    5.30
  -4  -6  -6   87.39    6.40
  -4   6  -6   94.69    6.70
  -4   6  -6   92.19    4.40
   4   6   6   95.39    4.90
  -4   6  -6   89.09    5.90
   5  -6   6   58.49    4.00
  -5  -6  -6   65.29    3.60
  -5  -6  -6   60.09    3.90
   5  -6   6   68.99    4.40
  -5  -6  -6   72.09    4.90
   5  -6   6   57.19    3.60
  -5   6  -6   68.49    4.80
   5  -7  -6    3.90    1.50
   5  -7  -6    1.40    2.10
  -5  -7   6    3.20    1.50
  -5  -7   6    1.60    2.30
   5  -7  -6    3.70    1.80
  -5  -7   6    5.70    2.40
  -5  -7   6    2.40    2.20
   5   7  -6    6.40    1.90
  -5   7   6    3.70    1.80
   5   7  -6    0.10    4.10
  -5   7   6    0.10    3.80
   4  -7  -6   25.50    2.80
  -4  -7   6   27.00    4.60
   4  -7  -6   25.50    2.60
   4  -7  -6   25.20    4.10
   4  -7  -6   29.10    3.30
  -4  -7   6   16.40    3.60
  -4  -7   6   26.00    4.20
  -4  -7   6   24.70    4.40
  -4   7   6   42.20    6.80
   4   7  -6   16.90    8.70
   4   7  -6   25.20    3.60
   4   7  -6   37.60    7.70
   4   7  -6   33.10    4.00
   4   7  -6   24.10    2.70
  -4   7   6   31.10    3.80
  -3  -7   6  288.67   12.80
   3  -7  -6  287.67   11.60
   3  -7  -6  278.97   12.70
   3  -7  -6  284.07   11.60
   3  -7  -6  282.47   11.90
  -3  -7   6  288.07   12.90
  -3  -7   6  292.27   13.20
  -3  -7   6  286.17   13.40
   3   7  -6  306.97   12.00
   3   7  -6  300.77   12.40
  -3   7   6  302.57   14.90
   3   7  -6  307.77   14.00
   3   7  -6  290.27   14.90
  -3   7   6  286.47   13.00
   3   7  -6  277.97   12.10
  -2  -7   6  246.68   10.20
   2  -7  -6  251.57   10.10
  -2  -7   6  261.97   11.90
  -2  -7   6  254.17   11.20
   2  -7  -6  245.58   11.90
   2  -7  -6  260.47   10.40
   2  -7  -6  247.78   10.20
  -2  -7   6  235.98   11.40
  -2  -7   6  245.48   12.40
  -2   7   6  265.77   15.80
   2   7  -6  267.57   12.40
  -2   7   6  281.57   13.40
   2   7  -6  282.87   11.00
   2   7  -6  277.77   11.40
   2   7  -6  266.87   13.40
  -2   7   6  273.37   12.40
   2   7  -6  270.17   11.10
  -1  -7   6  341.47   15.20
   1  -7  -6  341.67   13.90
   1  -7  -6  338.87   15.30
  -1  -7   6  358.36   13.90
  -1  -7   6  348.17   14.60
  -1  -7   6  381.86   15.60
   1   7  -6  339.07   13.40
  -1   7   6  335.37   13.80
   1   7  -6  324.57   13.90
   1   7  -6  344.07   14.30
   1   7  -6  327.97   15.70
  -1   7   6  345.37   15.40
   1   7  -6  341.47   13.40
   0  -7   6   69.09    4.10
   0  -7   6   65.39    4.50
   0  -7   6   77.69    7.50
   0  -7  -6   66.19    5.70
   0  -7  -6   69.19    3.60
   0  -7   6   65.59    3.60
   0  -7  -6   67.59    5.50
   0  -7  -6   74.39    5.20
   0   7   6   68.59    3.40
   0   7   6   65.59    7.20
   0   7  -6   63.39    4.00
   0   7   6   69.29    3.50
   0   7   6   67.39    4.00
   0   7  -6   64.29    3.70
   0   7   6   65.89    7.00
   0   7  -6   65.79    3.40
   1  -7   6  148.19    7.70
   1  -7   6  154.28    7.00
  -1  -7  -6  162.28    8.60
   1  -7   6  154.18    7.00
   1  -7   6  155.98    6.70
  -1  -7  -6  169.28    8.80
  -1  -7  -6  163.18    8.10
  -1  -7  -6  164.48    6.80
  -1  -7  -6  157.68    8.30
  -1  -7  -6  155.48    7.80
   1   7   6  143.79    6.30
   1   7   6  141.39    6.10
   1   7   6  147.29    6.50
   1   7   6  131.09    8.70
   2  -7   6  582.04   23.90
  -2  -7  -6  604.04   24.30
   2  -7   6  600.54   24.40
   2  -7   6  604.64   23.80
   2  -7   6  580.44   24.00
  -2  -7  -6  592.14   24.10
  -2  -7  -6  625.44   25.20
  -2  -7  -6  628.84   28.40
  -2  -7  -6  611.54   24.70
   2   7   6  564.14   21.50
   2   7   6  524.85   21.70
   2   7   6  550.04   21.60
   2   7   6  535.55   24.00
   3  -7   6  341.07   13.30
   3  -7   6  339.27   13.70
   3  -7   6  303.77   13.90
  -3  -7  -6  337.17   14.00
  -3  -7  -6  322.77   16.40
   3  -7   6  287.67   19.90
   3  -7   6  322.17   14.00
  -3  -7  -6  343.77   13.90
  -3  -7  -6  322.67   13.20
  -3  -7  -6  338.87   14.50
  -3  -7  -6  333.37   14.90
   3   7   6  340.87   13.20
   3   7   6  338.27   13.50
  -3   7  -6  312.17   14.90
   3   7   6  318.07   15.80
   4  -7   6   52.09    3.30
  -4  -7  -6   56.79    4.20
  -4  -7  -6   53.49    4.90
   4  -7   6   48.40    4.00
  -4  -7  -6   51.99    4.80
  -4  -7  -6   46.60    3.60
   4  -7   6   61.69    7.50
  -4  -7  -6   48.00    3.80
   4  -7   6   60.09    4.20
   4   7   6   54.19    3.70
   4   7   6   55.39    4.70
  -4   7  -6   56.59    5.30
   5  -7   6    0.00    1.50
  -5  -8   6   63.79    3.80
   5  -8  -6   62.99    3.40
   5  -8  -6   60.09    3.30
  -5  -8   6   59.69    4.10
  -5  -8   6   59.69    3.10
  -5  -8   6   56.39    3.80
   5   8  -6   60.29    4.10
  -5   8   6   67.19    4.10
  -5   8   6   48.60    5.70
  -4  -8   6   75.39    5.60
  -4  -8   6   78.79    5.80
  -4  -8   6   76.49    4.00
   4  -8  -6   74.79    6.20
  -4  -8   6   81.99    5.40
   4  -8  -6   76.49    4.00
   4  -8  -6   82.89    4.40
  -4  -8   6   81.49    5.90
   4   8  -6   75.49    4.10
   4   8  -6   76.79    5.20
   4   8  -6   75.29    4.50
  -4   8   6   87.09    8.00
   3  -8  -6   11.60    1.80
  -3  -8   6   14.60    1.60
  -3  -8   6    7.80    2.90
   3  -8  -6   17.40    2.40
  -3  -8   6   14.00    3.20
  -3  -8   6   16.00    3.20
   3  -8  -6   15.10    2.60
  -3  -8   6   13.10    2.80
   3   8  -6   18.80    6.00
   3   8  -6   15.40    2.10
   3   8  -6   18.70    3.20
   3   8  -6   16.30    2.70
  -3   8   6    9.00    3.60
  -3   8   6   16.00    2.70
   3   8  -6   18.70    4.50
  -2  -8   6   77.19    5.70
  -2  -8   6   61.29    3.50
  -2  -8   6   62.89    5.00
   2  -8  -6   59.89    3.60
   2  -8  -6   63.69    3.80
  -2  -8   6   58.99    6.00
  -2  -8   6   66.49    5.20
   2  -8  -6   62.89    5.80
   2   8  -6   51.29    3.90
   2   8  -6   56.19    3.30
   2   8  -6   53.89    4.40
   2   8  -6   53.99    3.10
  -2   8   6   54.49    9.90
   2   8  -6   55.09    5.70
  -2   8   6   54.89    6.20
  -1  -8   6  482.85   18.80
  -1  -8   6  455.35   20.80
  -1  -8   6  505.35   20.20
   1  -8  -6  453.65   20.10
   1  -8  -6  461.35   18.70
  -1  -8   6  455.35   20.00
  -1  -8   6  557.94   20.70
   1   8  -6  472.95   19.70
   1   8  -6  456.85   21.90
   1   8  -6  463.75   18.80
  -1   8   6  474.05   20.50
   1   8  -6  468.65   18.50
   1   8  -6  471.25   18.50
   1   8  -6  482.25   19.00
   0  -8   6  234.88    9.80
   0  -8  -6  239.48   11.80
   0  -8  -6  247.58   11.50
   0  -8  -6  246.68    9.80
   0  -8   6  238.78   11.70
   0  -8   6  248.68   10.70
   0   8   6  260.77   12.10
   0   8  -6  226.18    9.70
   0   8   6  239.18    9.90
   0   8  -6  243.28   10.10
   0   8   6  244.58    9.80
   0   8   6  227.48   10.60
  -1  -8  -6  129.69    7.20
  -1  -8  -6  120.59    7.90
   1  -8   6  125.29    5.70
   1  -8   6  128.79    6.50
  -1  -8  -6  125.29    7.50
  -1  -8  -6  126.29    8.20
  -1  -8  -6  113.89    8.70
   1  -8   6  104.79    6.20
  -1  -8  -6  133.19    5.60
   1   8   6   90.39    5.00
   1   8   6   91.99    8.80
   1   8   6   88.79    4.50
   1   8   6   96.39    5.50
  -2  -8  -6   51.99    4.50
  -2  -8  -6   46.30    4.80
  -2  -8  -6   49.10    5.40
  -2  -8  -6   45.90    4.30
  -2  -8  -6   52.19    3.10
   2  -8   6   47.90    3.90
   2  -8   6   43.20    4.50
   2  -8   6   46.40    3.10
   2  -8   6   47.50    3.50
  -2  -8  -6   51.69    6.90
   2   8   6   36.00    5.80
   2   8   6   39.60    3.10
   2   8   6   38.80    3.50
   2   8   6   39.40    2.60
  -3  -8  -6  146.59    6.60
  -3  -8  -6  152.48    8.40
  -3  -8  -6  152.88    8.00
  -3  -8  -6  155.88    7.40
  -3  -8  -6  156.48    7.50
   3  -8   6  155.48    7.10
   3  -8   6  158.28    6.80
   3  -8   6  148.09    7.00
   3   8   6  164.18    7.70
   3   8   6  159.08    7.30
  -3   8  -6  153.68    9.20
   3   8   6  163.48    7.00
   4  -8   6   61.79    4.60
  -4  -8  -6   70.19    3.50
   4  -8   6   65.89    3.60
  -4  -8  -6   73.89    5.00
  -4  -8  -6   66.69    4.60
  -4  -8  -6   71.59    4.10
   4  -8   6   66.99    3.80
  -4  -8  -6   62.39    3.70
   4   8   6   58.89    4.30
   4   8   6   59.19    3.80
  -4   8  -6   63.69    5.20
  -4  -9   6   89.09    5.60
  -4  -9   6   94.59    5.60
   4  -9  -6  103.39    4.60
  -4  -9   6   95.69    5.50
   4  -9  -6   93.89    4.60
  -4  -9   6   95.19    4.30
  -4  -9   6   96.29    5.60
   4   9  -6   86.59    5.40
   4   9  -6   86.09    4.50
   4   9  -6   87.99    4.40
  -4   9   6   93.29    6.90
  -3  -9   6  265.07   11.50
   3  -9  -6  253.07   10.50
  -3  -9   6  257.17   11.60
  -3  -9   6  253.27   10.40
  -3  -9   6  255.57   11.90
  -3  -9   6  257.17   11.80
   3  -9  -6  269.77   10.70
  -3   9   6  246.98   12.40
   3   9  -6  245.38   10.10
   3   9  -6  246.98   10.20
   3   9  -6  237.98   10.60
   3   9  -6  250.87   10.90
  -2  -9   6  156.78    9.00
  -2  -9   6  164.18    8.80
  -2  -9   6  162.08    8.60
  -2  -9   6  163.68    7.00
  -2  -9   6  183.38    8.20
   2  -9  -6  162.18    8.80
   2  -9  -6  166.78    7.10
   2   9  -6  147.09    9.60
  -2   9   6  157.98    9.10
   2   9  -6  146.89    6.90
   2   9  -6  118.09   14.40
   2   9  -6  152.28    6.50
   2   9  -6  136.59    7.30
  -2   9   6  136.69   15.20
   2   9  -6  159.48    6.50
  -1  -9   6  161.58    8.70
   1  -9  -6  162.48    8.60
  -1  -9   6  152.88    9.50
  -1  -9   6  167.98    8.80
  -1  -9   6  170.08    8.00
  -1  -9   6  165.78    6.90
  -1   9   6  166.98    9.10
   1   9  -6  165.38    7.30
   1   9  -6  156.58    7.00
   1   9  -6  155.48    6.90
   0  -9   6   24.00    3.50
   0  -9  -6   28.90    2.50
   0  -9   6   25.70    4.90
   0  -9  -6   30.40    4.70
   0   9   6   19.30    3.10
   0   9   6   21.50    2.40
   0   9  -6   28.30    2.90
   0   9   6   25.70    5.00
  -1  -9  -6  142.89    7.50
   1  -9   6  143.09    7.10
  -1  -9  -6  139.19    8.20
  -1  -9  -6  137.29    9.40
   1  -9   6  132.59    6.10
  -1  -9  -6  146.19    7.30
  -1  -9  -6  135.79    7.80
  -1  -9  -6  142.19    6.10
   1   9   6  114.59    5.40
   1   9   6  109.69   12.80
   1   9   6  121.29    5.40
   1   9   6  113.19    6.40
   2  -9   6  128.59    6.00
   2  -9   6  128.49    6.00
  -2  -9  -6  136.09    7.40
  -2  -9  -6  134.59    6.90
   2  -9   6  134.29    7.00
  -2  -9  -6  133.89   10.30
  -2  -9  -6  135.09    6.70
  -2  -9  -6  135.09    7.80
  -2  -9  -6  133.59    5.90
   2   9   6  134.09    6.10
   2   9   6  134.39    5.90
   2   9   6  118.59   13.60
   2   9   6  131.09    6.80
  -3  -9  -6   64.39    4.90
   3  -9   6   66.09    3.80
  -3  -9  -6   64.19    3.40
  -3  -9  -6   67.39    4.60
  -3  -9  -6   70.29    4.30
  -3  -9  -6   58.39    5.40
   3  -9   6   66.09    3.60
   3   9   6   52.29    4.10
   3   9   6   55.29    4.80
   3   9   6   56.39    3.70
  -4  -9  -6   62.69    3.20
  -4  -9  -6   64.49    4.50
  -4  -9  -6   66.99    3.60
  -4  -9  -6   71.99    3.60
   4  -9   6   68.99    3.40
   4  -9   6   64.59    4.00
   4  -9   6   70.59    4.10
   4   9   6   66.39    4.10
   4 -10  -6   34.50    2.30
  -4 -10   6   37.20    3.10
  -4 -10   6   35.00    3.30
  -4 -10   6   36.20    2.10
  -4 -10   6   33.00    3.40
  -4 -10   6   30.00    3.00
  -4  10   6   37.80    4.60
   4  10  -6   26.50    3.00
   4  10  -6   31.00    3.80
   4  10  -6   29.60    2.60
   3 -10  -6   26.80    2.40
  -3 -10   6   33.00    3.60
  -3 -10   6   28.50    3.90
  -3 -10   6   21.50    4.10
  -3 -10   6   30.60    2.20
  -3 -10   6   29.80    3.60
  -3  10   6   23.60    4.00
   3  10  -6   27.90    2.50
   3  10  -6   33.60    3.10
   3  10  -6   24.20    2.40
  -2 -10   6   30.50    5.10
   2 -10  -6   26.50    4.80
  -2 -10   6   36.10    4.40
  -2 -10   6   37.30    2.40
  -2 -10   6   32.10    3.60
  -2 -10   6   28.30    4.40
   2  10  -6   27.20    4.30
   2  10  -6   32.50    2.70
  -2  10   6   28.30    5.00
   2  10  -6   33.70    2.50
   2  10  -6   31.60    3.00
   1 -10  -6   78.19    5.80
  -1 -10   6   62.99    6.40
  -1 -10   6   79.89    3.70
  -1 -10   6   73.49    5.90
  -1 -10   6   81.29    5.00
   1  10  -6   52.09    3.30
  -1  10   6   50.79    5.30
   1  10  -6   58.59    3.60
   0 -10  -6  192.18    7.90
   0 -10  -6  200.68    9.80
   0 -10   6  187.18    8.90
   0 -10   6  190.48    9.60
   0  10   6  198.08   10.20
   0  10   6  197.88    8.30
  -1 -10  -6   42.70    2.60
  -1 -10  -6   41.40    4.60
   1 -10   6   31.90    3.60
  -1 -10  -6   37.80    4.70
  -1 -10  -6   31.90    4.00
   1 -10   6   34.10    4.50
   1  10   6   22.20    2.50
   1  10   6   25.00    3.70
   1  10   6   24.40    2.80
  -2 -10  -6   21.40    2.10
  -2 -10  -6   18.70    3.00
  -2 -10  -6   22.10    3.50
   2 -10   6   25.60    4.20
   2 -10   6   16.10    2.40
   2 -10   6   24.80    3.90
  -2 -10  -6   17.70    3.20
  -2 -10  -6   24.70    4.70
   2  10   6   22.00    2.60
   2  10   6   16.30    3.40
   2  10   6   18.50    2.30
   2  10   6   18.30    3.80
  -3 -10  -6   17.80    2.60
   3 -10   6   20.00    2.90
  -3 -10  -6   16.60    1.80
   3 -10   6   17.90    2.10
  -3 -10  -6   13.60    2.50
   3  10   6   18.30    2.10
   3  10   6   14.80    1.80
  -3 -11   6   97.09    5.80
  -3 -11   6  110.39    5.60
  -3 -11   6  111.29    5.30
  -3 -11   6  106.09    4.50
   3  11  -6  108.49    4.90
   3  11  -6  103.39    4.80
  -3  11   6   93.99    6.20
  -2 -11   6  168.28    6.90
  -2 -11   6  173.98    7.80
  -2 -11   6  168.88    8.00
   2 -11  -6  172.18    8.60
  -2 -11   6  155.08    8.80
  -2  11   6  137.79    8.00
   2  11  -6  149.49    6.30
   2  11  -6  147.89    6.40
  -1 -11   6   43.10    4.10
   1 -11  -6   50.39    7.30
  -1 -11   6   31.00    5.10
   1  11  -6   25.70    2.60
  -1  11   6   34.30    5.10
  -1  11   6   31.10    6.30
   0 -11   6   10.70    3.50
   0 -11   6    5.90    2.90
   0 -11  -6    8.80    2.90
   0  11   6    3.70    2.70
   1 -11   6   59.49    4.90
   1 -11   6   62.99    4.50
  -1 -11  -6   62.49    3.20
  -1 -11  -6   60.19    4.70
  -1 -11  -6   65.39    5.30
   1  11   6   60.39    3.40
   1  11   6   63.89    5.30
  -2 -11  -6   29.10    3.10
   2 -11   6   23.70    3.20
  -2 -11  -6   17.20    3.30
  -2 -11  -6   29.00    3.40
  -2 -11  -6   26.70    1.90
   2  11   6   23.70    4.90
   2  11   6   31.80    3.70
   2  11   6   24.30    2.40
  -3 -11  -6   37.80    2.80
   3 -11   6   37.00    3.00
  -3 -11  -6   40.00    3.40
  -3 -11  -6   33.70    3.70
  -3 -11  -6   41.60    2.10
   3  11   6   35.60    2.70
  -2 -12   6   16.60    2.00
   2 -12  -6   17.10    3.50
  -2  12   6   15.50    3.10
  -1 -12   6  131.09    6.10
  -1 -12   6  125.79    8.60
   1 -12  -6  134.89    6.90
  -1  12   6  110.49    6.30
   0 -12  -6   51.99    4.30
   0 -12   6   55.89    3.70
   0 -12   6   45.60    4.20
   0  12   6   53.69    4.50
   0  12  -6   58.29    5.80
  -1 -12  -6   56.89    4.30
   1 -12   6   60.39    4.20
   1 -12   6   57.39    4.10
   1  12   6   51.39    4.50
  -2 -12  -6    5.30    2.00
   2 -12   6    7.50    1.80
  -2 -12  -6    6.30    2.00
  -2 -12  -6    7.60    1.20
   6   0  -7   35.00    3.80
  -6   0   7   37.60    4.80
  -5   0   7  242.38   12.50
   5   0  -7  241.28   10.70
  -5   0   7  247.38   12.70
   5   0  -7  233.18   14.40
   5   0  -7  243.18   10.00
  -5   0   7  243.48   11.20
   4   0  -7  375.66   17.70
  -4   0   7  437.66   19.10
   4   0  -7  428.76   16.30
  -4   0   7  408.86   18.80
  -4   0   7  413.76   17.70
   4   0  -7  430.26   16.70
   4   0  -7  422.76   18.40
   3   0  -7    3.50    4.30
   3   0  -7   18.90    9.00
   2   0  -7 3862.11  149.79
   2   0  -7 3775.52  150.18
  -2   0   7 3773.92  151.58
   2   0  -7 4053.89  154.18
   2   0  -7 4049.79  149.59
   2   0  -7 3966.20  151.98
   2   0  -7 4000.60  150.68
   2   0  -7 4007.00  150.58
  -1   0   7 1651.93   66.49
   1   0  -7 1690.63   61.69
  -1   0   7 1553.04   60.89
   1   0  -7 1650.83   61.79
   1   0  -7 1611.04   62.79
  -1   0   7 1483.25   61.59
   1   0  -7 1658.43   63.69
  -1   0   7 1553.74   60.89
   1   0  -7 1592.84   61.29
  -1   0   7 1517.65   61.99
  -1   0   7 1589.64   62.69
   1   0  -7 1591.74   60.99
   0   0   7 2703.73  102.79
   0   0  -7 2693.03   98.29
   0   0   7 2606.64   98.79
   0   0  -7 2498.55   98.09
   0   0  -7 2670.63   99.29
   0   0   7 2416.56   97.29
   0   0   7 2475.35   97.39
   0   0  -7 2258.37   97.39
   0   0   7 2559.34   99.09
   0   0   7 2629.74   97.99
   0   0  -7 2512.85   97.69
   0   0  -7 2672.93   98.89
  -1   0  -7  522.35   22.20
  -1   0  -7  549.95   21.50
   1   0   7  524.75   21.50
   1   0   7  595.94   23.00
   1   0   7  498.35   26.80
   2   0   7  211.98    9.40
   2   0   7  211.68    8.50
  -2   0  -7  197.68   11.80
   2   0   7  218.88    8.50
  -2   0  -7  216.88   11.70
  -3   0  -7  107.09    8.70
   3   0   7   97.19    4.60
  -3   0  -7  109.29    7.30
   3   0   7  100.79    4.70
   3   0   7  106.69    6.20
  -3   0  -7  109.19    8.50
  -3   0  -7  100.59    5.90
  -4   0  -7    0.20    3.80
  -4   0  -7   -0.60    2.50
  -4   0  -7    1.20    3.00
   4   0   7    3.00    1.60
   4   0   7   -4.00    3.90
   4   0   7    2.70    1.60
   5   0   7   39.20    3.70
  -5   0  -7   38.10    5.60
  -5   0  -7   34.60    3.90
  -5   0  -7   39.20    4.70
   5   0   7   41.30    4.40
   6  -1  -7   79.09    4.50
  -6  -1   7   77.99    5.60
  -6   1   7   79.69    5.10
   6   1  -7   72.29    5.10
  -6   1   7   86.69    6.10
   5  -1  -7   34.80    4.50
   5  -1  -7   30.50    3.00
  -5  -1   7   29.50    5.50
   5  -1  -7   38.90    6.90
  -5  -1   7   34.10    6.50
  -5  -1   7   30.70    5.90
   5   1  -7   24.60    6.90
   5   1  -7   32.00    3.30
  -5   1   7   27.40    4.20
   5   1  -7   36.00    4.40
  -5   1   7   32.10    6.40
  -5   1   7   39.90    8.30
   4  -1  -7  136.99    5.90
  -4  -1   7  139.29    8.40
  -4  -1   7  129.29    8.70
   4  -1  -7  134.69    6.40
  -4  -1   7  136.09    9.10
   4  -1  -7  133.09    8.90
   4   1  -7  151.48    6.60
   4   1  -7  127.59    8.10
   4   1  -7  143.19    6.20
  -4   1   7  135.29    7.70
  -4   1   7  152.98   10.40
   4   1  -7  149.88    8.80
  -4   1   7  147.09    9.50
  -3  -1   7  771.32   30.90
   3  -1  -7  644.24   27.30
   3  -1  -7  673.53   26.50
   3  -1  -7  702.93   28.10
   3  -1  -7  651.63   34.90
   3  -1  -7  698.93   26.90
   3   1  -7  688.43   26.90
   3   1  -7  697.63   25.80
   3   1  -7  627.94   35.80
   3   1  -7  654.73   26.40
   3   1  -7  672.43   25.60
  -3   1   7  670.03   28.10
   3   1  -7  635.64   27.50
   2  -1  -7 1364.46   57.99
   2  -1  -7 1493.45   60.09
   2  -1  -7 1450.05   56.29
   2  -1  -7 1512.55   55.39
   2  -1  -7 1474.55   55.99
   2  -1  -7 1502.15   56.69
   2  -1  -7 1492.45   55.69
  -2  -1   7 1335.97   57.39
   2   1  -7 1595.54   58.39
   2   1  -7 1615.74   59.29
   2   1  -7 1595.64   58.19
   2   1  -7 1595.44   58.79
   2   1  -7 1383.26   60.39
   2   1  -7 1546.45   62.89
  -2   1   7 1400.66   59.49
   2   1  -7 1611.74   59.29
  -2   1   7 1377.16   60.29
   1  -1  -7 1232.88   49.00
   1  -1  -7 1311.77   50.99
  -1  -1   7 1271.67   50.69
  -1  -1   7 1210.18   48.90
  -1  -1   7 1275.17   48.90
   1  -1  -7 1294.87   49.80
  -1  -1   7 1256.17   54.39
   1  -1  -7 1285.27   49.70
   1  -1  -7 1370.66   51.99
   1  -1  -7 1287.47   49.30
   1   1  -7 1209.48   45.60
   1   1  -7 1215.68   46.40
   1   1  -7 1228.08   47.60
  -1   1   7 1179.98   46.00
  -1   1   7 1175.18   46.00
   1   1  -7 1219.98   46.40
   1   1  -7 1189.48   45.90
  -1   1   7 1135.39   49.40
  -1   1   7 1149.98   46.30
  -1   1   7 1209.58   47.40
  -1   1   7 1197.68   51.19
  -1   1   7 1115.39   46.50
   1   1  -7 1233.18   48.40
   0  -1   7   99.79    5.00
   0  -1   7  117.59    5.60
   0  -1  -7  108.59    6.60
   0  -1  -7  118.19    5.20
   0  -1  -7  108.79    6.90
   0  -1   7  111.19    4.70
   0  -1   7  114.59    6.70
   0  -1   7  109.99    6.70
   0  -1  -7  122.19    6.70
   0  -1   7  114.29   10.50
   0  -1  -7  121.19    5.90
   0   1  -7  119.89    6.60
   0   1  -7  124.59    5.50
   0   1   7  123.39    5.90
   0   1   7  125.09   11.50
   0   1  -7  123.79    7.40
   0   1   7  120.59    7.10
   0   1   7  128.99    5.20
   0   1  -7  121.59    5.50
   0   1  -7  120.99    6.10
   0   1   7  130.89    6.60
   0   1  -7  126.29    7.50
   0   1   7  120.89    7.30
   0   1   7  119.79    8.40
   1  -1   7  725.93   29.00
  -1  -1  -7  690.03   28.80
  -1  -1  -7  719.23   28.30
   1  -1   7  642.74   32.90
   1  -1   7  698.13   26.70
  -1  -1  -7  651.63   28.40
   1  -1   7  711.33   27.50
  -1  -1  -7  701.93   27.40
   1  -1   7  706.93   26.80
   1   1   7  685.73   27.00
   1   1   7  685.83   27.60
   1   1   7  731.13   29.50
   1   1   7  725.83   29.10
  -1   1  -7  720.53   28.40
   1   1   7  692.13   27.00
   1   1   7  699.13   28.90
  -1   1  -7  705.43   27.60
  -1   1  -7  675.53   29.30
   2  -1   7 1100.69   41.50
  -2  -1  -7 1013.50   43.80
   2  -1   7 1098.49   42.30
  -2  -1  -7 1113.49   42.60
   2  -1   7 1082.69   41.40
   2   1   7 1013.80   38.60
   2   1   7 1052.09   39.40
  -2   1  -7 1006.10   39.60
   2   1   7  973.00   42.60
  -2   1  -7  976.90   41.00
   2   1   7 1024.30   38.70
   3  -1   7  775.92   30.20
  -3  -1  -7  736.83   31.50
   3  -1   7  758.22   29.10
   3  -1   7  737.63   29.00
  -3  -1  -7  753.72   29.60
  -3  -1  -7  774.72   30.50
  -3  -1  -7  751.72   30.80
  -3  -1  -7  715.33   29.80
  -3   1  -7  772.52   30.20
   3   1   7  708.83   29.50
   3   1   7  780.22   30.60
   3   1   7  772.42   29.60
  -3   1  -7  787.22   30.90
  -3   1  -7  770.42   31.90
  -4  -1  -7  108.39    7.10
   4  -1   7  108.59    8.30
   4  -1   7   98.59    4.80
  -4  -1  -7   81.59    8.40
  -4  -1  -7   94.89    5.90
   4  -1   7  104.09    5.10
   4   1   7  102.89    5.10
  -4   1  -7  111.59    7.00
   4   1   7  113.99    7.90
  -4   1  -7  103.09    6.00
  -4   1  -7  104.49    8.40
   4   1   7  108.49    5.30
   5  -1   7    0.70    2.50
  -5  -1  -7   -1.70    2.70
  -5  -1  -7    3.80    2.20
  -5  -1  -7    2.90    3.50
   5  -1   7    2.60    2.00
   5   1   7    6.60    2.20
  -5   1  -7    1.40    3.10
  -5   1  -7    3.60    2.60
  -6  -2   7   36.90    5.70
   6  -2  -7   27.80    4.10
  -6  -2   7   30.90    4.00
   6  -2  -7   26.70    3.20
  -6   2   7   29.40    4.90
  -6   2   7   23.50    3.40
   6   2  -7   20.20    3.70
   5  -2  -7  254.27   15.50
  -5  -2   7  253.77   12.60
   5  -2  -7  260.77   10.50
  -5  -2   7  242.28   12.40
   5  -2  -7  269.47   11.20
   5   2  -7  287.07   11.40
  -5   2   7  297.57   12.50
   5   2  -7  252.37   16.00
  -5   2   7  264.37   13.90
  -4  -2   7  247.08   12.60
   4  -2  -7  255.37   10.10
   4  -2  -7  221.98   10.60
  -4  -2   7  262.57   12.60
  -4  -2   7  247.98   12.70
   4  -2  -7  262.87   10.60
   4  -2  -7  241.78   12.80
  -4   2   7  258.67   13.70
   4   2  -7  232.18   12.00
  -4   2   7  254.97   11.70
  -4   2   7  283.77   15.00
   4   2  -7  264.47   10.70
   4   2  -7  261.57   12.70
   4   2  -7  248.78   10.40
   3  -2  -7  126.69    5.80
   3  -2  -7  126.29    7.60
   3  -2  -7  124.79    5.90
  -3  -2   7  121.39    8.90
  -3  -2   7  119.19    8.40
   3  -2  -7  125.89    7.40
   3  -2  -7  133.19    5.30
   3   2  -7  129.49    5.40
  -3   2   7  115.79    9.20
  -3   2   7  126.49    7.10
   3   2  -7  133.09    6.60
   3   2  -7  125.89    5.60
   3   2  -7  133.49    7.10
   3   2  -7  108.19    9.30
   2  -2  -7  823.82   31.70
   2  -2  -7  855.31   33.00
   2  -2  -7  870.41   31.60
   2  -2  -7  850.81   31.90
   2  -2  -7  786.02   32.40
   2  -2  -7  877.71   36.70
   2  -2  -7  851.41   32.20
  -2  -2   7  748.93   33.80
   2  -2  -7  753.32   37.50
   2   2  -7  872.91   33.10
  -2   2   7  799.62   34.20
   2   2  -7  786.12   33.20
   2   2  -7  949.40   34.00
   2   2  -7  867.21   38.10
   2   2  -7  872.81   34.30
   1  -2  -7 1627.64   62.29
   1  -2  -7 1671.73   62.69
   1  -2  -7 1555.74   61.89
  -1  -2   7 1509.75   62.29
   1  -2  -7 1615.14   64.09
   1  -2  -7 1645.14   62.89
   1  -2  -7 1693.83   64.99
  -1  -2   7 1652.23   63.89
  -1   2   7 1429.86   56.09
  -1   2   7 1341.87   54.79
  -1   2   7 1426.86   54.99
   1   2  -7 1368.36   56.09
   1   2  -7 1414.26   53.99
   1   2  -7 1494.45   57.19
  -1   2   7 1367.76   54.89
   1   2  -7 1460.85   54.89
  -1   2   7 1441.56   60.39
   1   2  -7 1439.56   54.89
   1   2  -7 1465.65   54.39
   1   2  -7 1281.77   57.29
   0  -2   7 2031.80   78.69
   0  -2  -7 2118.69   78.79
   0  -2  -7 2051.19   79.09
   0  -2  -7 1957.60   77.09
   0  -2   7 1968.60   77.29
   0  -2   7 1923.41   78.19
   0  -2  -7 2083.39   77.79
   0  -2   7 1953.30   76.69
   0   2   7 2024.40   76.89
   0   2  -7 2094.89   76.99
   0   2   7 1959.00   81.09
   0   2   7 2034.90   76.09
   0   2  -7 1827.72   75.39
   0   2   7 1918.41   75.39
   0   2   7 1947.21   78.59
   0   2  -7 1970.00   77.59
   0   2  -7 1938.01   75.69
   0   2   7 2100.49   77.59
   0   2  -7 2012.00   76.79
   0   2  -7 1920.81   76.29
   0   2   7 1927.11   77.29
   0   2  -7 2006.00   75.29
  -1  -2  -7 2511.85  100.99
   1  -2   7 2726.53  100.69
   1  -2   7 2637.04   98.99
   1  -2   7 2488.65   98.19
   1  -2   7 2436.86   98.19
  -1  -2  -7 2594.44   98.99
  -1  -2  -7 2655.33   99.79
  -1   2  -7 2686.43   97.89
   1   2   7 2561.14   98.79
   1   2   7 2403.36   96.49
  -1   2  -7 2562.84   97.09
   1   2   7 2550.14   98.99
  -1   2  -7 2694.83   99.39
  -1   2  -7 2408.86   99.09
   1   2   7 2434.56   96.59
   1   2   7 2565.64   97.19
   1   2   7 2493.05   99.29
   2  -2   7  138.49    6.30
  -2  -2  -7  141.59    7.30
   2  -2   7  140.29    5.90
   2  -2   7  146.99    7.00
   2  -2   7  141.09    5.80
  -2  -2  -7  126.99    9.80
   2   2   7  130.79    5.30
   2   2   7  134.49    6.20
   2   2   7  122.19    5.20
   2   2   7  126.59   10.80
  -2   2  -7  119.29    6.60
  -2   2  -7  113.79    9.40
  -3  -2  -7   47.20    5.70
  -3  -2  -7   54.99    8.70
  -3  -2  -7   58.29    4.20
  -3  -2  -7   48.60    4.80
   3  -2   7   48.50    2.80
  -3  -2  -7   53.19    6.10
   3  -2   7   55.29    4.90
   3  -2   7   50.19    3.00
  -3   2  -7   45.50    5.10
  -3   2  -7   45.10    4.50
  -3   2  -7   51.09    6.50
   3   2   7   46.60    2.80
   3   2   7   49.99    4.50
   3   2   7   46.10    2.90
  -4  -2  -7   91.69    5.50
  -4  -2  -7   80.59    8.40
   4  -2   7   94.09    4.90
   4  -2   7  105.29    8.60
   4  -2   7   91.09    4.60
  -4  -2  -7   97.19    6.40
  -4  -2  -7   85.29    6.90
  -4   2  -7  102.09    7.00
   4   2   7  120.79    8.20
  -4   2  -7  101.49    6.30
   4   2   7  114.19    5.30
  -4   2  -7  100.39    8.10
   4   2   7  117.79    5.40
  -5  -2  -7  281.27   12.00
   5  -2   7  248.98   10.90
  -5  -2  -7  262.07   11.00
   5  -2   7  288.77   12.80
   5  -2   7  239.38   11.30
  -5   2  -7  241.78   11.90
  -5   2  -7  254.77   10.90
   5   2   7  222.08   10.60
  -5   2  -7  249.38   10.00
   6  -3  -7    3.50    2.20
  -6  -3   7   -0.20    3.00
  -6  -3   7    6.10    2.60
   6  -3  -7    7.40    2.10
  -6   3   7   10.30    2.30
  -6   3   7    5.80    3.90
  -5  -3   7   63.39    7.40
   5  -3  -7   57.79    4.40
  -5  -3   7   58.59    5.80
   5  -3  -7   58.89    3.60
   5  -3  -7   68.29    5.30
   5  -3  -7   55.59    9.30
  -5  -3   7   62.79    6.40
   5   3  -7   52.99   10.70
  -5   3   7   65.59    4.80
   5   3  -7   59.19    4.20
  -5   3   7   62.49    7.30
   5   3  -7   61.89    5.20
  -4  -3   7  321.37   14.70
   4  -3  -7  310.77   12.90
  -4  -3   7  321.47   15.00
  -4  -3   7  282.37   17.20
   4  -3  -7  337.87   13.20
   4  -3  -7  312.77   13.10
   4  -3  -7  319.67   15.90
  -4   3   7  291.27   12.90
   4   3  -7  285.07   13.40
   4   3  -7  284.67   11.70
  -4   3   7  296.77   14.90
  -4   3   7  299.27   16.40
   4   3  -7  291.07   11.90
   4   3  -7  279.37   14.00
   3  -3  -7  372.46   14.90
   3  -3  -7  386.36   14.80
  -3  -3   7  383.96   16.90
  -3  -3   7  364.76   16.30
   3  -3  -7  363.66   16.70
  -3  -3   7  383.36   17.00
   3   3  -7  399.96   16.50
  -3   3   7  407.86   18.00
   3   3  -7  392.16   15.40
   3   3  -7  406.26   16.90
  -3   3   7  368.16   16.50
  -3   3   7  385.46   19.20
   2  -3  -7 2042.20   76.59
   2  -3  -7 1964.00   77.09
   2  -3  -7 2139.59   76.59
   2  -3  -7 1987.10   81.39
   2  -3  -7 2019.00   76.79
   2  -3  -7 1902.01   77.29
   2   3  -7 2050.99   82.69
   2   3  -7 1967.90   77.09
   2   3  -7 2040.30   77.99
   2   3  -7 1973.80   78.39
   2   3  -7 1981.20   77.59
   2   3  -7 2022.90   77.09
   2   3  -7 2089.59   76.89
   1  -3  -7  242.08   12.70
   1  -3  -7  226.58   10.60
  -1  -3   7  218.48   10.80
   1  -3  -7  229.58    9.30
   1  -3  -7  234.78   10.20
   1  -3  -7  234.18    9.60
  -1  -3   7  224.48   11.60
   1  -3  -7  221.18   19.30
   1  -3  -7  222.38   12.30
   1  -3  -7  222.18    9.10
   1   3  -7  225.98    8.60
  -1   3   7  206.38   16.60
   1   3  -7  229.48   12.80
  -1   3   7  209.08   10.40
  -1   3   7  215.98   10.30
   1   3  -7  216.08    9.90
   1   3  -7  203.08    8.70
  -1   3   7  208.48    8.80
   1   3  -7  218.48    9.20
   1   3  -7  219.98    9.80
  -1   3   7  201.18   10.30
   1   3  -7  225.98   12.30
  -1   3   7  212.68   11.70
   1   3  -7  219.08    8.80
   1   3  -7  219.88   10.00
   0  -3   7   20.00    4.00
   0  -3  -7   34.40    5.50
   0  -3  -7   22.40    4.70
   0  -3  -7   26.70    3.50
   0  -3   7   19.60    3.80
   0  -3   7   28.30    2.00
   0  -3  -7   23.80    2.40
   0  -3   7   20.30    3.40
   0   3   7   23.00    3.00
   0   3   7   27.20    2.10
   0   3  -7   24.50    5.00
   0   3  -7   23.30    2.50
   0   3   7   23.60    1.50
   0   3  -7   23.20    4.30
   0   3  -7   22.20    2.10
   0   3  -7   23.40    4.30
   0   3   7   25.90    4.90
   0   3  -7   23.20    3.20
   0   3  -7   22.90    4.50
   0   3  -7   23.80    1.80
   0   3   7   24.60    4.00
   0   3   7   24.70    1.80
   0   3   7   27.00   10.60
   0   3  -7   26.60    5.50
  -1  -3  -7  677.03   28.80
   1  -3   7  692.53   27.00
   1  -3   7  671.93   27.00
   1  -3   7  718.33   26.90
   1  -3   7  700.23   27.90
  -1  -3  -7  734.43   27.90
  -1  -3  -7  693.23   31.20
   1  -3   7  699.03   29.90
   1   3   7  703.43   32.90
  -1   3  -7  724.93   30.40
   1   3   7  704.53   29.90
   1   3   7  697.03   27.10
   1   3   7  709.13   27.20
  -1   3  -7  738.53   27.60
   1   3   7  724.53   28.00
   1   3   7  633.44   29.50
  -1   3  -7  702.93   28.60
  -2  -3  -7  488.95   19.90
  -2  -3  -7  473.75   19.30
   2  -3   7  487.45   19.70
   2  -3   7  476.15   18.60
  -2  -3  -7  459.45   20.20
  -2  -3  -7  452.25   19.30
   2  -3   7  482.05   18.50
   2  -3   7  476.35   18.70
  -2   3  -7  420.46   17.30
  -2   3  -7  410.16   20.00
   2   3   7  415.26   16.40
   2   3   7  437.16   16.50
  -2   3  -7  403.56   18.60
   2   3   7  433.36   17.40
  -2   3  -7  422.96   18.00
  -3  -3  -7  590.34   25.10
  -3  -3  -7  578.64   23.60
   3  -3   7  598.54   23.00
   3  -3   7  584.24   24.40
   3  -3   7  597.74   22.90
  -3  -3  -7  616.24   24.50
  -3  -3  -7  558.54   26.00
   3  -3   7  565.74   23.10
  -3  -3  -7  596.14   23.60
  -3   3  -7  599.74   24.80
  -3   3  -7  630.64   26.80
   3   3   7  664.63   24.70
   3   3   7  651.73   25.80
  -3   3  -7  634.54   25.40
   3   3   7  608.74   24.60
  -3   3  -7  664.83   26.10
   4  -3   7   67.49    3.70
   4  -3   7   67.69    8.60
  -4  -3  -7   61.19    6.30
  -4  -3  -7   65.29    5.10
  -4  -3  -7   62.09    4.60
   4  -3   7   65.69    4.20
  -4  -3  -7   56.99    8.50
  -4   3  -7   50.29    5.20
  -4   3  -7   60.19    6.50
   4   3   7   59.69    3.90
   4   3   7   61.19    3.90
  -4   3  -7   60.69    3.90
   4   3   7   65.39    7.30
  -5  -3  -7    1.50    1.90
   5  -3   7    4.80    2.10
  -5  -3  -7    2.10    2.70
  -5   3  -7    3.00    1.40
  -5   3  -7    2.60    2.80
  -5   3  -7   -0.70    2.20
   6  -4  -7   33.00    3.10
  -6  -4   7   40.30    4.20
   6  -4  -7   27.50    3.30
  -6  -4   7   36.30    3.50
  -6   4   7   41.70    3.30
  -6   4   7   30.70    5.00
   5  -4  -7  177.18    8.90
  -5  -4   7  167.38    9.10
  -5  -4   7  169.88    9.40
  -5  -4   7  168.28    8.90
   5  -4  -7  165.58    7.30
   5  -4  -7  170.38    7.60
  -5   4   7  164.68   10.60
   5   4  -7  179.58    8.50
   5   4  -7  167.88    7.70
  -5   4   7  182.88    8.50
   4  -4  -7  551.74   24.80
   4  -4  -7  556.54   22.00
   4  -4  -7  544.25   21.50
   4  -4  -7  568.24   21.70
  -4  -4   7  551.04   22.80
  -4  -4   7  549.25   23.20
  -4  -4   7  532.75   23.40
  -4   4   7  564.54   22.00
   4   4  -7  527.75   21.00
  -4   4   7  522.95   23.60
   4   4  -7  531.35   22.90
   4   4  -7  519.65   22.40
   4   4  -7  519.85   20.80
  -3  -4   7   40.80    5.80
   3  -4  -7   34.80    2.90
   3  -4  -7   28.10    4.70
  -3  -4   7   30.20    5.70
   3  -4  -7   34.90    2.20
  -3  -4   7   23.00    3.50
   3  -4  -7   33.10    2.70
   3   4  -7   40.00    2.60
  -3   4   7   43.40    4.50
   3   4  -7   45.10    2.90
   3   4  -7   42.50    4.90
   3   4  -7   45.20    4.10
  -3   4   7   47.30    7.60
  -3   4   7   41.80    6.80
   2  -4  -7  126.09    8.10
   2  -4  -7  130.29    5.50
   2  -4  -7  130.09    6.30
   2  -4  -7  115.29   11.80
   2  -4  -7  135.19    5.40
   2  -4  -7  125.69    5.80
   2   4  -7  154.08   15.50
   2   4  -7  126.59    8.60
   2   4  -7  137.19    6.20
   2   4  -7  143.89    6.10
   2   4  -7  144.59    5.90
   2   4  -7  139.69    7.40
   2   4  -7  138.59    6.80
   1  -4  -7 1100.89   40.90
   1  -4  -7 1029.80   41.10
   1  -4  -7 1024.60   42.30
   1  -4  -7 1041.80   41.50
   1  -4  -7 1087.49   44.60
   1  -4  -7 1071.19   40.90
   1  -4  -7 1083.49   45.10
   1  -4  -7 1110.49   42.10
   1   4  -7 1088.39   41.10
  -1   4   7  965.40   42.30
   1   4  -7 1164.58   40.90
  -1   4   7 1111.89   43.40
  -1   4   7 1069.99   40.90
   1   4  -7 1130.59   41.00
  -1   4   7 1081.79   44.40
   1   4  -7 1078.79   42.40
   1   4  -7 1073.99   45.30
  -1   4   7  984.80   44.60
  -1   4   7  960.50   41.00
   1   4  -7 1098.99   42.20
   1   4  -7 1091.19   41.60
   1   4  -7 1045.00   42.40
   0  -4   7 1168.28   47.40
   0  -4   7 1204.78   48.40
   0  -4  -7 1184.58   46.00
   0  -4  -7 1210.48   48.50
   0  -4   7 1146.79   44.30
   0  -4  -7 1090.49   47.30
   0  -4   7 1139.69   44.50
   0  -4  -7 1103.89   46.00
   0  -4   7 1186.18   45.50
   0   4  -7 1217.48   45.10
   0   4  -7 1170.38   47.40
   0   4  -7 1126.69   46.40
   0   4   7 1163.98   45.20
   0   4   7 1169.88   46.20
   0   4  -7 1200.88   47.70
   0   4   7 1168.48   45.10
   0   4  -7 1155.38   46.30
   0   4   7 1174.58   45.20
   0   4   7 1225.08   48.40
   0   4  -7 1199.08   45.60
   0   4  -7 1122.59   48.60
   0   4   7 1212.28   47.60
   1  -4   7  880.21   33.60
  -1  -4  -7  921.11   39.50
   1  -4   7  863.11   33.50
   1  -4   7  865.21   33.60
  -1  -4  -7  861.31   34.50
   1  -4   7  834.02   37.00
   1  -4   7  885.21   34.70
  -1  -4  -7  857.61   35.80
  -1   4  -7  857.61   34.20
  -1   4  -7  843.32   36.30
   1   4   7  861.11   32.60
   1   4   7  802.22   35.70
   1   4   7  849.52   32.50
   1   4   7  833.32   32.70
  -1   4  -7  876.81   33.00
  -2  -4  -7   16.50    2.50
  -2  -4  -7   27.60    3.60
  -2  -4  -7   24.00    5.00
  -2  -4  -7   23.00    3.90
   2  -4   7   27.40    2.60
   2  -4   7   21.30    4.20
   2  -4   7   18.60    1.80
   2  -4   7   27.70    2.40
  -2  -4  -7   20.90    3.90
  -2   4  -7   24.30    4.30
   2   4   7   25.00    1.90
  -2   4  -7   29.10    4.90
   2   4   7   26.70    3.50
   2   4   7   25.60    2.00
  -2   4  -7   20.60    2.60
   3  -4   7   43.00    4.10
  -3  -4  -7   56.49    6.70
  -3  -4  -7   47.90    4.30
   3  -4   7   64.09    6.50
  -3  -4  -7   52.09    4.50
   3  -4   7   54.39    3.50
  -3  -4  -7   47.60    5.70
   3  -4   7   56.09    3.40
  -3  -4  -7   47.90    5.60
  -3   4  -7   53.59    6.10
  -3   4  -7   57.39    5.30
   3   4   7   58.19    5.50
   3   4   7   56.89    3.30
   3   4   7   56.09    3.30
   4  -4   7   90.79    4.90
  -4  -4  -7   73.59   15.10
  -4  -4  -7   98.09    6.70
  -4  -4  -7   86.89    5.30
   4  -4   7   90.49    5.10
  -4  -4  -7   93.49    5.70
   4  -4   7   94.79    4.60
   4  -4   7   68.09   10.60
   4   4   7   69.09    4.30
  -4   4  -7   74.39    5.40
  -4   4  -7   75.09    6.50
  -4   4  -7   68.69    3.90
   4   4   7   82.29    4.40
  -5  -4  -7  202.18    8.90
  -5  -4  -7  219.28    9.40
   5  -4   7  174.68    8.80
   5  -4   7  191.58    8.50
  -5  -4  -7  206.68    8.50
  -5   4  -7  216.58    9.70
  -5   4  -7  215.88   10.50
  -5   4  -7  227.68    8.90
  -6  -5   7    8.90    3.30
   6  -5  -7    5.50    1.80
  -6  -5   7    6.60    2.30
   6  -5  -7    9.30    2.10
  -6   5   7   12.40    2.50
  -6   5   7    5.10    3.70
   5  -5  -7   22.00    3.00
  -5  -5   7   36.40    5.10
  -5  -5   7   27.30    4.30
  -5  -5   7   26.80    4.90
   5  -5  -7   17.80    2.60
   5  -5  -7   27.30    3.00
   5  -5  -7   30.10    4.00
  -5   5   7   23.40    5.60
  -5   5   7   30.00    3.60
   5   5  -7   30.50    4.60
   5   5  -7   18.10    3.10
   4  -5  -7  152.88    6.60
   4  -5  -7  120.69   14.10
   4  -5  -7  144.99    7.50
  -4  -5   7  138.49    8.60
  -4  -5   7  149.79    8.40
  -4  -5   7  149.79    8.20
   4  -5  -7  145.69    7.70
   4  -5  -7  143.29    6.40
  -4   5   7  154.18   10.30
   4   5  -7  152.78    6.60
  -4   5   7  148.49    7.80
   4   5  -7  148.99    7.00
   4   5  -7  144.79   10.50
   4   5  -7  151.98    9.30
   3  -5  -7  333.47   14.00
  -3  -5   7  336.27   14.80
  -3  -5   7  362.96   15.30
   3  -5  -7  319.57   14.10
   3  -5  -7  336.57   13.50
   3  -5  -7  334.47   13.40
  -3  -5   7  337.37   15.20
  -3  -5   7  354.06   15.60
   3  -5  -7  331.87   16.90
  -3   5   7  338.17   15.40
   3   5  -7  329.27   12.80
  -3   5   7  295.47   17.40
  -3   5   7  301.37   13.60
   3   5  -7  326.07   14.60
   3   5  -7  291.27   12.80
   3   5  -7  310.47   12.50
   3   5  -7  318.97   14.00
   2  -5  -7  377.46   15.20
  -2  -5   7  407.66   17.00
  -2  -5   7  362.06   16.20
   2  -5  -7  374.06   15.50
   2  -5  -7  404.86   15.00
   2  -5  -7  390.56   15.40
  -2  -5   7  379.06   16.10
   2  -5  -7  371.06   17.50
  -2  -5   7  373.06   17.10
  -2   5   7  405.56   19.60
   2   5  -7  418.06   17.90
  -2   5   7  406.76   18.40
   2   5  -7  428.56   16.60
   2   5  -7  415.66   17.20
   2   5  -7  413.36   16.40
  -2   5   7  403.26   17.40
   2   5  -7  432.16   16.30
   1  -5  -7  625.94   23.90
   1  -5  -7  604.44   24.10
   1  -5  -7  658.93   25.00
   1  -5  -7  585.44   28.90
   1   5  -7  581.64   25.50
   1   5  -7  619.34   24.30
   1   5  -7  609.14   29.70
  -1   5   7  584.04   27.20
   1   5  -7  628.54   23.70
   1   5  -7  600.84   25.10
   1   5  -7  644.64   23.60
   1   5  -7  607.04   23.80
  -1   5   7  609.54   23.60
   0  -5  -7  183.48   13.60
   0  -5  -7  201.58    8.90
   0   5  -7  189.38   10.10
   0   5   7  202.48    8.10
   0   5   7  198.18    8.00
   0   5  -7  213.68    8.00
   0   5  -7  204.58    8.00
   0   5   7  196.98   10.40
   0   5   7  197.68   12.10
   0   5   7  178.78   12.90
   0   5  -7  198.08    9.10
   0   5  -7  191.88   12.10
   0   5   7  199.38    8.20
   0   5  -7  171.78    8.60
   1  -5   7  164.78    7.10
  -1  -5  -7  165.28    9.10
  -1  -5  -7  164.78    8.10
  -1  -5  -7  172.18    8.50
   1  -5   7  163.28    6.80
   1  -5   7  162.98    7.50
   1  -5   7  155.08    9.00
  -1  -5  -7  158.88    8.10
  -1  -5  -7  141.09   15.70
  -1   5  -7  156.28   10.00
   1   5   7  167.78    7.00
   1   5   7  179.58    8.50
   1   5   7  174.38    6.90
   1   5   7  170.98    7.10
  -1   5  -7  149.79   13.80
  -1   5  -7  154.28    6.90
  -2  -5  -7 1232.58   48.20
   2  -5   7 1260.07   47.90
  -2  -5  -7 1237.68   49.30
   2  -5   7 1282.27   47.70
   2  -5   7 1176.88   48.10
   2  -5   7 1228.98   47.70
  -2  -5  -7 1246.88   49.00
   2  -5   7 1237.88   49.30
  -2  -5  -7 1248.08   48.60
  -2  -5  -7 1254.77   48.20
   2   5   7 1167.58   44.50
   2   5   7 1075.99   44.90
   2   5   7 1180.78   44.60
  -2   5  -7 1163.38   44.50
   2   5   7 1195.98   45.90
  -2   5  -7 1231.18   45.60
  -2   5  -7 1100.29   46.10
  -3  -5  -7  165.28    8.10
  -3  -5  -7  163.38    8.90
   3  -5   7  168.18    7.40
   3  -5   7  167.58   10.80
   3  -5   7  161.08    8.40
   3  -5   7  167.68    7.20
  -3  -5  -7  168.08    7.90
   3  -5   7  163.88    7.10
  -3  -5  -7  148.29    8.30
  -3  -5  -7  152.18   10.10
  -3   5  -7  138.49    7.70
  -3   5  -7  130.29    6.00
   3   5   7  135.39    8.30
   3   5   7  151.58    6.30
  -3   5  -7  131.09    8.50
   3   5   7  135.69    6.10
   4  -5   7  129.89    6.80
   4  -5   7  133.59    6.20
   4  -5   7  126.39    7.40
  -4  -5  -7  139.59    7.80
  -4  -5  -7  132.49    6.60
  -4  -5  -7  137.29    6.80
   4  -5   7  131.79    6.10
   4   5   7  133.39    6.40
   4   5   7  139.39    6.70
  -4   5  -7  138.69    7.40
  -4   5  -7  134.69    6.00
  -4   5  -7  142.49    8.30
  -5  -5  -7   20.00    3.60
   5  -5   7   11.30    2.50
  -5  -5  -7   19.00    2.40
   5  -5   7   17.50    2.90
  -5  -5  -7   15.80    2.50
  -5   5  -7   17.40    2.80
   5  -6  -7   38.40    3.10
   5  -6  -7   34.00    3.80
  -5  -6   7   39.30    4.10
  -5  -6   7   49.90    4.70
  -5  -6   7   43.40    4.40
   5  -6  -7   35.90    3.00
  -5   6   7   31.10    3.50
   5   6  -7   27.20    3.20
  -4  -6   7  184.48    9.50
  -4  -6   7  191.58    9.80
   4  -6  -7  180.38    8.40
  -4  -6   7  192.78    9.40
   4  -6  -7  179.28    7.80
  -4  -6   7  169.48   11.70
   4  -6  -7  155.18   18.70
   4  -6  -7  197.58    9.40
   4  -6  -7  179.48    9.00
   4   6  -7  193.18    8.50
   4   6  -7  178.18   12.60
  -4   6   7  194.88   11.40
  -4   6   7  187.38    9.00
   4   6  -7  188.78   11.10
   4   6  -7  185.68    8.90
   4   6  -7  185.08    8.00
   3  -6  -7  137.29   13.20
  -3  -6   7  130.69    7.80
   3  -6  -7  127.09    6.90
   3  -6  -7  126.89    5.70
  -3  -6   7  122.39    8.00
  -3  -6   7  123.39    7.40
   3  -6  -7  126.29    6.60
  -3   6   7  119.39    6.70
   3   6  -7  111.99    8.70
   3   6  -7  102.69    5.60
   3   6  -7  139.89    9.50
  -3   6   7  129.29    8.70
  -3   6   7  105.99   12.40
   3   6  -7  112.79    5.70
   2  -6  -7   12.10    1.60
  -2  -6   7   15.60    3.80
   2  -6  -7   -3.50    8.40
   2  -6  -7   11.00    1.90
   2  -6  -7    8.40    2.50
   2  -6  -7   12.90    1.90
  -2  -6   7   11.80    2.40
  -2  -6   7   15.40    3.00
   2   6  -7   13.00    3.40
  -2   6   7   23.30    5.80
  -2   6   7   11.50    3.50
  -2   6   7   15.50    2.80
   2   6  -7   17.30    3.50
   2   6  -7   17.40    2.40
   2   6  -7   18.90    1.80
   2   6  -7   18.70    2.10
   1  -6  -7  485.85   18.40
  -1  -6   7  470.65   19.10
   1  -6  -7  480.35   18.50
  -1  -6   7  479.95   20.20
  -1  -6   7  466.35   18.40
   1  -6  -7  468.65   19.40
  -1  -6   7  449.36   19.60
   1   6  -7  461.35   18.70
   1   6  -7  489.45   17.90
   1   6  -7  478.75   17.90
   1   6  -7  458.35   18.40
   1   6  -7  432.36   19.70
  -1   6   7  428.06   19.60
   1   6  -7  458.95   18.20
  -1   6   7  456.05   17.80
  -1   6   7  432.96   23.90
   0  -6   7 1250.67   48.50
   0  -6   7 1266.77   48.10
   0  -6  -7 1228.08   47.90
   0  -6  -7 1299.47   49.20
   0  -6  -7 1245.38   49.30
   0  -6   7 1229.18   47.90
   0   6  -7 1331.87   49.99
   0   6  -7 1193.08   53.99
   0   6   7 1235.48   53.59
   0   6   7 1255.87   49.90
   0   6  -7 1443.46   55.39
   0   6   7 1314.97   49.80
   0   6  -7 1347.47   50.49
   0   6  -7 1240.28   49.90
   0   6   7 1293.17   50.09
   0   6   7 1311.77   51.59
   0   6  -7 1335.57   49.80
  -1  -6  -7 1031.70   40.50
   1  -6   7  986.20   39.40
  -1  -6  -7 1028.00   40.60
  -1  -6  -7  981.50   39.70
   1  -6   7 1006.40   39.10
  -1  -6  -7 1049.99   40.20
   1  -6   7 1053.29   39.10
  -1  -6  -7 1003.70   39.00
  -1  -6  -7 1006.60   39.80
  -1   6  -7  971.90   37.80
   1   6   7  981.30   39.60
   1   6   7 1004.80   38.10
  -1   6  -7  982.30   39.00
   1   6   7  990.60   38.00
  -2  -6  -7  202.18    8.80
   2  -6   7  204.68    9.10
   2  -6   7  197.68   12.10
  -2  -6  -7  204.38   10.90
  -2  -6  -7  213.48   10.00
   2  -6   7  207.48    8.70
   2  -6   7  208.88    8.70
  -2  -6  -7  224.98   10.00
  -2  -6  -7  206.48   11.00
  -2  -6  -7  204.18    9.50
   2  -6   7  200.38    9.20
  -2   6  -7  216.18    9.90
   2   6   7  195.58    8.20
   2   6   7  201.08    8.50
   2   6   7  196.98    8.60
  -2   6  -7  202.18    8.20
  -2   6  -7  174.68   10.50
   2   6   7  208.68   10.50
  -3  -6  -7   77.19    5.50
  -3  -6  -7   84.89    6.30
   3  -6   7   73.19    5.00
  -3  -6  -7   88.59    8.30
   3  -6   7   82.89    4.20
   3  -6   7   77.09    4.20
  -3  -6  -7   69.99    5.40
   3  -6   7   82.29   11.40
  -3  -6  -7   78.39    5.20
  -3  -6  -7   83.79    5.10
   3  -6   7   73.89    5.10
   3   6   7   71.89    5.00
   3   6   7   79.19    4.10
  -3   6  -7   82.39    5.70
   3   6   7   82.69    4.50
  -3   6  -7   81.09    4.00
  -3   6  -7   74.39    6.50
   3   6   7   81.39    7.50
   4  -6   7  208.48    8.90
   4  -6   7  201.68   10.00
  -4  -6  -7  233.18   11.20
  -4  -6  -7  200.98    9.30
   4  -6   7  203.28    8.90
  -4  -6  -7  237.78   11.00
   4  -6   7  199.18    9.40
  -4   6  -7  202.18    9.60
  -4   6  -7  193.68    8.20
   5  -6   7  148.49    6.20
  -5  -6  -7  146.49    6.20
  -5  -6  -7  163.98    7.50
   5  -6   7  127.99    7.10
  -5  -6  -7  127.59    6.30
  -5  -6  -7  137.59    6.40
  -5   6  -7  150.78    7.50
  -5  -7   7    1.50    2.10
  -5  -7   7    0.40    2.20
   5  -7  -7   -1.30    1.60
   5  -7  -7    3.50    1.50
   5  -7  -7    0.30    2.40
  -5  -7   7    4.50    2.40
  -5  -7   7    1.70    1.30
   5   7  -7    0.40    2.30
   5   7  -7    4.10    1.90
  -5   7   7    1.30    1.50
  -5   7   7    0.30    3.40
  -4  -7   7  102.09    6.40
  -4  -7   7  103.29    6.40
   4  -7  -7   95.99    5.00
  -4  -7   7   97.99    7.20
   4  -7  -7   98.29    4.80
   4  -7  -7   87.09    8.90
  -4  -7   7  101.29    6.50
   4  -7  -7  100.79    5.20
  -4   7   7  103.59    8.50
   4   7  -7   98.99    4.90
   4   7  -7  105.49    5.40
   4   7  -7  104.39    5.90
  -4   7   7  102.99    5.90
   3  -7  -7  325.47   12.90
  -3  -7   7  335.17   14.30
  -3  -7   7  310.17   14.80
   3  -7  -7  319.77   13.20
  -3  -7   7  341.37   14.20
   3  -7  -7  298.87   14.30
   3  -7  -7  323.87   13.00
  -3  -7   7  326.57   14.50
   3   7  -7  316.17   14.60
   3   7  -7  325.07   16.10
  -3   7   7  309.47   15.10
   3   7  -7  319.97   13.00
  -3   7   7  302.77   13.60
   3   7  -7  312.07   12.60
   3   7  -7  296.47   12.60
  -2  -7   7  398.56   15.50
   2  -7  -7  395.66   16.00
   2  -7  -7  382.56   15.40
  -2  -7   7  365.86   17.10
  -2  -7   7  400.36   16.50
  -2  -7   7  434.96   17.20
   2  -7  -7  365.06   16.00
  -2  -7   7  394.26   17.40
   2   7  -7  431.66   17.00
   2   7  -7  442.76   17.50
  -2   7   7  453.05   20.30
  -2   7   7  422.56   19.70
  -2   7   7  420.76   18.10
   2   7  -7  448.56   18.40
   2   7  -7  426.16   19.70
   2   7  -7  410.96   17.10
   1  -7  -7  148.19    8.40
  -1  -7   7  151.78    8.30
  -1  -7   7  155.08    6.60
  -1  -7   7  159.78    8.90
   1  -7  -7  160.78    6.80
  -1  -7   7  161.68    7.60
   1  -7  -7  156.88    8.70
   1   7  -7  171.88    7.80
   1   7  -7  175.78    8.50
  -1   7   7  169.28    7.30
   1   7  -7  173.58    7.30
   1   7  -7  171.18    7.20
   1   7  -7  168.28    7.80
  -1   7   7  175.68    9.60
   1   7  -7  156.28   10.80
   0  -7  -7   14.30    3.80
   0  -7  -7    6.10    3.10
   0  -7   7    1.50    1.60
   0  -7   7    3.70    1.80
   0  -7  -7    1.30    1.20
   0  -7  -7   -0.30    2.60
   0   7   7    1.60    1.20
   0   7   7    1.90    1.20
   0   7  -7   -1.40    2.60
   0   7   7    6.70    4.80
   0   7  -7    1.40    1.10
   0   7  -7    3.10    1.50
   0   7   7    0.60    3.60
  -1  -7  -7  212.98   10.90
   1  -7   7  206.78    8.90
   1  -7   7  214.28    9.20
  -1  -7  -7  229.38   10.10
   1  -7   7  218.78    9.80
  -1  -7  -7  223.18   10.80
  -1  -7  -7  213.28    9.90
  -1  -7  -7  219.68    9.00
  -1  -7  -7  218.28   10.40
   1   7   7  197.78    8.50
   1   7   7  185.48   10.90
   1   7   7  197.08    8.20
   1   7   7  191.58    8.00
  -2  -7  -7  465.45   19.10
  -2  -7  -7  479.95   19.30
   2  -7   7  473.05   18.80
  -2  -7  -7  490.75   19.70
  -2  -7  -7  483.55   20.20
   2  -7   7  480.95   18.60
   2  -7   7  426.56   19.10
  -2  -7  -7  450.05   18.40
   2   7   7  465.65   18.70
   2   7   7  461.45   18.90
   2   7   7  478.95   21.00
   2   7   7  480.25   18.60
  -3  -7  -7  213.88   10.40
   3  -7   7  213.88    8.90
  -3  -7  -7  208.88   13.00
  -3  -7  -7  209.58    9.50
  -3  -7  -7  220.18    9.70
   3  -7   7  207.38    9.20
  -3  -7  -7  204.08    8.70
   3  -7   7  205.68   10.20
  -3  -7  -7  210.48   10.00
   3  -7   7  203.78    9.60
   3   7   7  225.48    9.60
   3   7   7  198.78   12.70
   3   7   7  223.98    9.60
   3   7   7  224.78    9.10
  -3   7  -7  215.98   11.10
   4  -7   7   78.79    4.50
  -4  -7  -7   70.19    4.00
  -4  -7  -7   81.59    4.60
  -4  -7  -7   77.59    4.40
   4  -7   7   83.19    4.10
  -4  -7  -7   84.49    5.40
   4  -7   7   76.39    4.40
  -4   7  -7   87.79    5.90
   4   7   7   79.99    4.40
   4   7   7   72.09    5.40
  -5  -8   7   69.99    4.40
   5  -8  -7   79.39    3.90
  -5  -8   7   73.19    4.50
   5  -8  -7   80.09    3.80
  -5  -8   7   75.69    3.50
  -5  -8   7   77.79    4.40
   5   8  -7   71.09    4.30
  -5   8   7   70.59    5.70
  -4  -8   7   34.60    6.50
   4  -8  -7   33.30    4.60
  -4  -8   7   21.60    4.50
   4  -8  -7   28.40    2.60
  -4  -8   7   31.30    2.40
  -4  -8   7   32.90    4.80
  -4   8   7   31.20    3.90
  -4   8   7   33.00    6.50
   4   8  -7   28.80    3.20
   4   8  -7   29.50    2.70
   3  -8  -7   25.40    3.10
  -3  -8   7   27.90    4.40
   3  -8  -7   28.60    3.10
  -3  -8   7   37.40    4.70
  -3  -8   7   32.80    4.50
   3   8  -7   23.60    2.40
   3   8  -7   24.70    4.20
   3   8  -7   28.70    7.70
   3   8  -7   32.40    6.80
   2  -8  -7  119.19    6.60
  -2  -8   7  128.09    6.80
   2  -8  -7  126.89    5.80
  -2  -8   7  130.29    7.30
  -2  -8   7  132.39    7.50
  -2  -8   7  122.89    5.50
  -2  -8   7  120.39    8.00
   2  -8  -7  117.19    7.90
   2   8  -7  103.89    5.90
  -2   8   7  112.19    9.90
   2   8  -7  117.39    5.20
   2   8  -7  109.29    5.90
  -2   8   7  113.19    7.80
   2   8  -7  106.89    7.50
   2   8  -7  107.99   11.20
   2   8  -7  108.89    5.10
   1  -8  -7  375.96   16.80
  -1  -8   7  346.17   15.30
  -1  -8   7  382.96   18.10
  -1  -8   7  398.36   17.90
  -1  -8   7  342.67   14.50
   1   8  -7  332.37   14.90
   1   8  -7  338.27   13.70
   1   8  -7  317.87   14.00
  -1   8   7  344.17   15.30
   1   8  -7  335.47   13.40
   1   8  -7  332.47   13.40
   0  -8  -7  207.18   10.20
   0  -8  -7  203.38    8.30
   0  -8  -7  196.58   10.60
   0   8   7  203.18    8.60
   0   8   7  202.58    9.00
   0   8  -7  188.48    8.40
   0   8  -7  215.88    8.80
   0   8   7  217.08   12.90
  -1  -8  -7  874.61   34.00
  -1  -8  -7  885.01   34.60
  -1  -8  -7  870.61   33.10
  -1  -8  -7  823.92   33.70
   1  -8   7  842.72   33.20
  -1  -8  -7  875.41   34.70
   1  -8   7  841.22   33.80
   1   8   7  873.81   35.30
   1   8   7  864.41   34.30
   1   8   7  859.61   38.00
   1   8   7  885.71   34.00
   1   8   7  887.51   33.90
   2  -8   7    4.70    1.50
  -2  -8  -7    6.50    2.20
  -2  -8  -7   10.80    2.60
  -2  -8  -7    8.90    3.30
   2  -8   7    8.30    2.20
  -2  -8  -7   16.90    5.00
   2  -8   7    5.90    1.50
  -2  -8  -7    5.60    1.40
  -2  -8  -7    4.40    2.40
   2   8   7    4.80    1.60
   2   8   7    8.30    1.40
   2   8   7    8.80    2.10
   2   8   7    5.30    5.70
   3  -8   7    8.80    1.60
   3  -8   7    8.10    1.70
   3  -8   7   10.80    3.20
  -3  -8  -7    9.30    2.30
   3  -8   7    5.40    2.80
  -3  -8  -7    8.90    2.00
  -3  -8  -7   13.20    2.80
  -3  -8  -7   10.90    2.70
  -3  -8  -7    8.00    1.60
   3   8   7   10.30    2.00
   3   8   7   11.60    1.70
  -3   8  -7   10.20    3.90
   3   8   7   12.40    2.50
  -4  -8  -7   77.19    4.10
  -4  -8  -7   75.59    3.90
  -4  -8  -7   68.49    3.50
   4  -8   7   62.89    4.50
   4  -8   7   76.49    3.90
  -4  -8  -7   80.89    4.90
   4   8   7   69.69    4.10
   4   8   7   74.99    4.50
  -4   8  -7   69.99    5.30
   4  -9  -7   34.10    4.90
  -4  -9   7   28.00    3.50
  -4  -9   7   31.60    3.70
  -4  -9   7   30.20    3.90
  -4  -9   7   30.10    3.30
  -4  -9   7   29.40    2.20
   4  -9  -7   35.00    2.50
  -4   9   7   31.70    5.10
   4   9  -7   34.20    2.80
   4   9  -7   37.60    3.70
   4   9  -7   29.70    2.80
   3  -9  -7  214.18    8.80
  -3  -9   7  214.68   10.10
  -3  -9   7  211.68    9.90
  -3  -9   7  215.28    9.90
  -3  -9   7  204.08   10.20
  -3  -9   7  203.08    8.60
   3   9  -7  212.28    8.80
   3   9  -7  205.88    9.40
  -3   9   7  213.08   11.10
   3   9  -7  216.68    8.90
   3   9  -7  211.08    9.90
  -2  -9   7  286.17   13.00
  -2  -9   7  298.27   11.60
  -2  -9   7  295.27   13.20
   2  -9  -7  301.37   11.60
  -2  -9   7  277.67   13.30
   2  -9  -7  276.27   13.30
  -2  -9   7  297.67   12.70
   2   9  -7  258.97   13.20
  -2   9   7  283.57   13.30
  -2   9   7  269.47   14.40
   2   9  -7  278.07   14.00
   2   9  -7  278.07   11.20
   2   9  -7  271.37   11.50
  -1  -9   7  110.29    7.10
  -1  -9   7  110.09    6.90
  -1  -9   7  118.89    9.90
  -1  -9   7  112.19    6.20
   1  -9  -7  111.09    7.20
  -1  -9   7  113.79    5.00
   1   9  -7   97.39    5.00
   1   9  -7   99.79    4.70
  -1   9   7  102.09    7.10
   1   9  -7  106.99    5.20
   0  -9   7   57.89    5.60
   0  -9  -7   65.69    5.70
   0  -9  -7   60.99    3.30
   0  -9   7   58.89    4.40
   0   9  -7   57.89    3.70
   0   9   7   59.49    3.40
   0   9   7   53.29    6.20
   0   9   7   62.59    6.00
  -1  -9  -7  200.18    9.20
  -1  -9  -7  209.88    9.50
  -1  -9  -7  211.28    8.30
  -1  -9  -7  185.28   11.90
  -1  -9  -7  205.58   10.20
   1  -9   7  199.58    9.20
   1  -9   7  192.48    8.20
   1   9   7  178.48    9.90
   1   9   7  187.48    7.80
   1   9   7  175.48    8.90
   1   9   7  187.78    7.90
   2  -9   7  174.18    7.40
  -2  -9  -7  165.78    8.70
  -2  -9  -7  179.38    7.30
  -2  -9  -7  168.48    8.20
  -2  -9  -7  177.78    8.10
   2  -9   7  177.38    8.30
  -2  -9  -7  174.18    9.00
   2   9   7  162.48    8.00
   2   9   7  157.28    7.00
   2   9   7  159.08    7.10
  -3  -9  -7  235.68   10.70
   3  -9   7  232.68    9.70
  -3  -9  -7  238.78   10.00
  -3  -9  -7  228.78    9.40
   3  -9   7  245.08    9.70
  -3  -9  -7  230.88   10.10
   3   9   7  216.48    9.10
   3   9   7  211.78    8.90
   4  -9   7   27.70    2.60
  -4  -9  -7   21.40    3.60
  -4  -9  -7   24.90    2.10
  -4  -9  -7   24.80    2.30
   4   9   7   26.90    2.90
  -4 -10   7   25.50    3.20
  -4 -10   7   21.20    2.70
  -4 -10   7   23.70    2.90
  -4 -10   7   23.20    3.10
  -4 -10   7   23.00    1.70
   4  10  -7   20.00    2.40
  -4  10   7   18.70    3.50
   4  10  -7   18.80    2.80
  -3 -10   7    7.80    2.10
  -3 -10   7   10.10    2.60
  -3 -10   7    6.50    2.20
  -3 -10   7    6.10    2.40
  -3 -10   7    6.40    1.10
   3  10  -7    8.00    1.60
  -3  10   7    4.00    2.60
   3  10  -7    6.10    1.70
   3  10  -7    6.80    1.30
  -2 -10   7   56.49    5.00
  -2 -10   7   63.89    5.20
  -2 -10   7   52.89    6.90
  -2 -10   7   53.69    3.00
   2 -10  -7   58.09    9.90
  -2 -10   7   53.89    4.20
   2  10  -7   51.49    3.00
  -2  10   7   49.20    5.30
   2  10  -7   50.19    3.40
   2  10  -7   57.49    3.60
  -1 -10   7   22.90    3.40
   1 -10  -7   20.10    3.40
  -1 -10   7   28.70    2.20
  -1 -10   7   29.60    4.90
  -1 -10   7   27.20    4.10
   1  10  -7   26.10    2.70
   1  10  -7   28.40    2.50
  -1  10   7   34.50    5.70
  -1  10   7   26.70    3.90
   0 -10   7  437.16   17.10
   0 -10   7  399.36   17.50
   0 -10  -7  424.06   17.80
   0 -10  -7  399.16   16.10
   0  10   7  404.16   15.80
   0  10   7  399.46   17.50
  -1 -10  -7  138.09    7.50
  -1 -10  -7  138.89    7.80
  -1 -10  -7  119.79    7.50
  -1 -10  -7  148.19    5.90
   1 -10   7  140.39    7.50
   1 -10   7  138.79    6.90
   1  10   7  143.39    8.40
   1  10   7  148.29    6.50
   1  10   7  147.99    6.70
  -2 -10  -7   45.40    3.80
  -2 -10  -7   38.10    4.30
  -2 -10  -7   42.40    2.60
  -2 -10  -7   37.80    3.60
   2 -10   7   39.20    4.20
   2 -10   7   42.00    4.00
   2  10   7   47.60    3.00
   2  10   7   45.00    3.30
  -3 -10  -7    6.20    1.70
  -3 -10  -7    3.50    1.90
   3 -10   7    7.60    2.10
  -3 -10  -7    3.80    1.00
  -3 -10  -7    6.30    1.60
   3  10   7    1.90    1.90
   3  10   7    4.30    1.40
  -3 -11   7   70.79    3.10
  -3 -11   7   70.79    4.30
  -3 -11   7   68.89    4.00
  -3 -11   7   62.49    5.50
   3  11  -7   62.39    3.40
  -3  11   7   61.79    4.70
   3  11  -7   68.59    3.40
   2 -11  -7  126.29    7.10
  -2 -11   7  115.59    6.20
  -2 -11   7  109.89    5.70
  -2 -11   7  116.99    5.00
   2  11  -7   94.79    4.50
  -2  11   7   96.79    6.20
   2  11  -7  100.79    4.60
  -1 -11   7   40.70    3.70
   1 -11  -7   41.60    4.90
   1  11  -7   38.50    2.80
  -1  11   7   41.20    4.70
  -1  11   7   31.80    5.60
   0 -11  -7   11.60    2.90
   0 -11   7   13.50    2.80
   0 -11   7   15.40    2.50
   0  11   7   10.40    2.70
   0  11  -7   16.60    4.20
   1 -11   7   58.89    4.20
  -1 -11  -7   55.49    4.90
   1 -11   7   55.99    4.50
  -1 -11  -7   59.19    7.60
  -1 -11  -7   62.69    3.00
   1  11   7   59.59    3.40
   1  11   7   60.79    5.20
  -2 -11  -7   92.09    5.30
  -2 -11  -7   86.49    4.90
  -2 -11  -7   89.39    4.70
  -2 -11  -7   90.59    3.90
   2 -11   7   88.59    5.00
   2  11   7   83.99    4.70
   2 -12  -7   18.70    3.70
  -2 -12   7   19.20    2.30
  -2  12   7   19.10    3.00
  -1 -12   7  107.49    5.20
   1 -12  -7  108.19    6.10
  -1  12   7   91.59    5.40
   0 -12   7   77.59    4.30
   0 -12   7   74.09    5.10
   0 -12  -7   79.69    5.10
   0  12   7   74.59    5.20
   0  12   7   73.89    5.30
   1 -12   7   88.79    5.30
  -1 -12  -7   88.89    5.20
   1 -12   7   99.39    5.10
   1  12   7   78.09    7.90
   6   0  -8   56.29    4.10
  -6   0   8   53.09    5.10
  -5   0   8   99.99    6.40
  -5   0   8  103.79    8.10
   5   0  -8   81.69   11.90
  -5   0   8  117.59    8.40
   5   0  -8  110.79    5.20
  -4   0   8  361.76   16.90
  -4   0   8  346.77   15.20
   4   0  -8  346.87   16.50
   4   0  -8  365.76   13.90
   4   0  -8  323.57   15.60
   4   0  -8  354.76   14.40
  -3   0   8   99.39    7.50
  -3   0   8  102.79    8.60
   3   0  -8  108.69    5.20
   3   0  -8   95.99    5.50
   3   0  -8  112.89    6.90
   3   0  -8  102.49    4.60
   3   0  -8  116.09    5.90
   2   0  -8   44.80    4.80
   2   0  -8   52.39    3.00
   2   0  -8   47.60    3.20
   2   0  -8   57.29    4.60
   2   0  -8   55.19    2.60
   2   0  -8   51.09    8.70
   1   0  -8 3874.71  151.48
  -1   0   8 3973.10  158.08
   1   0  -8 3615.24  151.28
   1   0  -8 4090.69  152.38
   1   0  -8 3874.91  151.88
   1   0  -8 4330.47  154.78
   1   0  -8 4132.49  151.28
  -1   0   8 3738.83  151.48
   1   0  -8 4088.39  153.88
  -1   0   8 3874.21  153.58
   1   0  -8 4200.88  152.48
   0   0  -8  973.30   38.80
   0   0   8  980.50   37.20
   0   0   8  978.90   44.10
   0   0  -8 1010.70   38.30
   0   0   8  961.10   39.30
   0   0   8  967.60   38.70
   0   0  -8  998.10   39.70
   0   0   8  996.00   37.90
   0   0  -8  904.61   38.40
   0   0  -8  984.40   37.60
   0   0   8  899.11   38.90
   1   0   8  807.52   30.10
   1   0   8  770.82   30.00
  -1   0  -8  746.83   31.60
   1   0   8  777.32   30.80
  -1   0  -8  791.12   30.70
   1   0   8  735.93   32.40
   1   0   8  819.42   29.90
  -2   0  -8   18.90    2.80
  -2   0  -8   13.00    4.40
   2   0   8   16.80    1.80
  -2   0  -8   18.20    3.70
   2   0   8   19.30    3.10
  -2   0  -8   22.90    6.30
  -2   0  -8   21.20    4.10
   2   0   8   25.90    3.50
   2   0   8   16.60    1.60
  -3   0  -8  336.37   15.10
  -3   0  -8  316.97   16.30
   3   0   8  355.46   14.90
  -3   0  -8  313.27   14.60
   3   0   8  339.37   13.50
  -3   0  -8  347.87   14.10
   3   0   8  331.37   13.30
  -4   0  -8  362.26   15.10
  -4   0  -8  374.46   16.10
  -4   0  -8  324.07   17.20
   4   0   8  364.76   14.60
   4   0   8  384.36   14.80
   4   0   8  376.26   16.90
  -5   0  -8  110.09    7.40
  -5   0  -8  115.29    5.60
  -5   0  -8  117.49    6.30
   5   0   8  107.19    5.50
  -6  -1   8   79.49    5.50
   6  -1  -8   84.49    5.30
  -6  -1   8   79.09    7.40
   6  -1  -8   77.19    4.50
  -6   1   8   88.69    6.10
   6   1  -8   75.09    4.90
  -5  -1   8   36.60    6.00
  -5  -1   8   24.90    4.60
   5  -1  -8   14.70    7.30
   5  -1  -8   27.60    4.40
  -5  -1   8   20.80    4.00
   5  -1  -8   24.40    3.60
   5  -1  -8   29.00    3.00
  -5   1   8   28.60    4.20
   5   1  -8   30.20    3.20
   5   1  -8   35.30    4.60
  -5   1   8   30.50    5.40
  -5   1   8   37.30    6.40
  -4  -1   8  212.78   17.00
   4  -1  -8  262.17   13.60
   4  -1  -8  280.37   10.60
   4  -1  -8  266.67   11.10
   4  -1  -8  266.87   11.10
  -4  -1   8  260.67   12.40
   4   1  -8  281.47   13.80
   4   1  -8  282.17   11.10
  -4   1   8  266.17   13.80
   4   1  -8  272.97   11.50
  -4   1   8  283.57   14.60
   4   1  -8  260.87   12.90
  -3  -1   8  950.60   37.70
   3  -1  -8  938.91   37.40
  -3  -1   8  926.91   37.70
   3  -1  -8  938.71   35.70
   3  -1  -8  895.91   36.50
   3  -1  -8  891.61   35.80
   3  -1  -8  967.60   36.20
   3   1  -8  957.10   35.10
   3   1  -8  956.50   36.70
  -3   1   8  897.01   37.30
  -3   1   8  877.31   36.10
   3   1  -8  947.11   36.10
   3   1  -8  781.22   37.10
   3   1  -8  965.10   35.40
  -3   1   8  915.91   37.10
   2  -1  -8  432.46   22.90
   2  -1  -8  449.56   17.90
   2  -1  -8  488.05   17.90
   2  -1  -8  467.95   18.10
   2   1  -8  486.95   21.30
   2   1  -8  467.25   24.90
   2   1  -8  517.85   19.90
   2   1  -8  536.15   21.30
   2   1  -8  535.15   20.70
   2   1  -8  563.64   20.20
   2   1  -8  490.35   20.10
   1  -1  -8  760.02   32.60
   1  -1  -8  821.52   30.40
  -1  -1   8  742.83   32.10
   1  -1  -8  763.62   29.80
  -1  -1   8  682.13   30.00
   1  -1  -8  789.42   31.10
   1  -1  -8  767.62   30.00
  -1  -1   8  850.01   30.40
   1  -1  -8  820.72   36.70
   1   1  -8  739.83   27.10
   1   1  -8  744.43   28.40
  -1   1   8  655.43   28.80
  -1   1   8  716.23   29.80
   1   1  -8  739.93   30.60
   1   1  -8  686.53   29.80
  -1   1   8  683.83   34.60
   1   1  -8  689.63   27.20
   1   1  -8  717.83   27.40
   1   1  -8  731.13   27.80
  -1   1   8  685.63   27.90
   1   1  -8  731.13   28.40
  -1   1   8  655.63   27.80
   0  -1  -8   48.40    3.10
   0  -1   8   44.20    5.60
   0  -1   8   49.50    2.60
   0  -1   8   53.39   11.10
   0  -1   8   51.59    5.20
   0  -1  -8   50.89    4.80
   0  -1  -8   51.19    6.00
   0  -1   8   49.00    3.70
   0  -1  -8   47.90    4.10
   0   1   8   52.49    7.60
   0   1  -8   51.49    4.70
   0   1   8   51.49    2.70
   0   1   8   55.79    6.30
   0   1   8   53.79    4.50
   0   1  -8   49.90    4.00
   0   1   8   52.39    2.50
   0   1  -8   57.59    3.10
   0   1   8   48.40    2.80
   0   1   8   56.39    3.90
   0   1  -8   50.59    6.50
   0   1   8   54.49    5.60
   0   1  -8   50.89    6.90
   0   1   8   52.49   11.20
   1  -1   8  395.96   16.20
   1  -1   8  377.96   15.30
  -1  -1  -8  394.86   17.20
   1  -1   8  384.06   18.10
   1  -1   8  388.56   15.20
  -1  -1  -8  379.26   16.20
   1  -1   8  395.46   15.10
   1   1   8  371.76   16.10
   1   1   8  401.36   18.80
   1   1   8  421.06   18.90
  -1   1  -8  411.66   17.70
   1   1   8  404.76   15.90
  -1   1  -8  431.96   16.70
   1   1   8  424.06   16.00
   2  -1   8 1207.58   43.60
   2  -1   8 1122.59   43.60
  -2  -1  -8 1134.69   44.00
  -2  -1  -8 1127.09   44.80
   2  -1   8 1163.78   43.50
   2  -1   8 1190.78   44.60
  -2  -1  -8 1134.39   44.80
  -2  -1  -8  982.20   45.30
   2   1   8 1020.50   38.90
  -2   1  -8 1041.80   39.50
  -2   1  -8  896.31   39.90
   2   1   8 1084.99   39.00
  -2   1  -8 1045.90   40.30
  -2   1  -8  959.90   42.00
  -2   1  -8  991.10   40.80
   2   1   8 1060.39   39.80
  -3  -1  -8 1386.56   52.99
  -3  -1  -8 1237.48   54.29
   3  -1   8 1407.06   52.49
  -3  -1  -8 1337.07   53.09
  -3  -1  -8 1272.07   54.69
  -3  -1  -8 1417.46   53.89
   3  -1   8 1468.85   53.89
   3  -1   8 1419.56   52.59
   3   1   8 1359.26   54.89
  -3   1  -8 1464.75   56.29
  -3   1  -8 1446.36   55.49
   3   1   8 1452.65   56.09
  -3   1  -8 1431.46   57.29
   3   1   8 1460.75   55.09
  -4  -1  -8  183.08    9.70
   4  -1   8  194.38    8.30
   4  -1   8  182.98    7.90
   4  -1   8  195.48   11.50
  -4  -1  -8  183.28    8.60
  -4   1  -8  197.78    9.70
   4   1   8  191.28   11.20
   4   1   8  198.68    8.40
   4   1   8  187.08    8.10
  -4   1  -8  188.18    8.90
  -4   1  -8  189.48   13.10
  -5  -1  -8    1.50    2.50
  -5  -1  -8    2.90    2.00
   5  -1   8    3.00    2.80
   5  -1   8    4.40    2.00
  -5  -1  -8    4.60    3.30
  -5   1  -8    1.70    1.70
  -5   1  -8    0.40    2.70
  -5   1  -8    2.70    2.00
   5   1   8   -0.20    2.10
  -6  -2   8   65.69    4.80
   6  -2  -8   64.09    3.80
   6  -2  -8   57.39    4.20
  -6  -2   8   58.79    5.60
   6   2  -8   52.19    5.00
  -6   2   8   54.49    5.40
  -5  -2   8   88.59    7.50
   5  -2  -8   94.29    5.80
   5  -2  -8   79.79    5.30
   5  -2  -8   90.69   12.60
   5  -2  -8   83.29    4.40
  -5  -2   8   78.29    6.70
  -5   2   8   96.79    6.00
   5   2  -8   90.09    5.00
  -5   2   8   85.09    8.00
  -5   2   8  114.09    9.90
   5   2  -8   93.19    6.00
  -4  -2   8  296.47   14.50
   4  -2  -8  317.27   12.70
   4  -2  -8  299.37   12.30
  -4  -2   8  295.87   14.60
   4  -2  -8  313.27   15.50
   4  -2  -8  291.27   12.80
  -4  -2   8  289.77   14.30
  -4   2   8  353.96   16.60
  -4   2   8  349.67   15.00
   4   2  -8  350.26   16.50
   4   2  -8  341.17   13.70
   4   2  -8  322.97   15.50
   4   2  -8  354.06   14.20
  -3  -2   8  366.26   16.70
  -3  -2   8  355.46   16.40
   3  -2  -8  377.96   15.50
   3  -2  -8  397.36   14.60
   3  -2  -8  374.76   14.70
   3  -2  -8  376.26   16.70
   3  -2  -8  368.66   15.40
  -3  -2   8  344.07   16.80
   3   2  -8  395.66   14.80
   3   2  -8  386.56   15.90
  -3   2   8  364.86   15.90
   3   2  -8  387.96   15.30
  -3   2   8  350.96   17.20
  -3   2   8  363.46   18.10
   3   2  -8  375.16   16.50
   2  -2  -8  197.48    7.90
   2  -2  -8  195.18    8.10
   2  -2  -8  176.68    9.70
   2  -2  -8  203.28    7.70
   2  -2  -8  190.88   13.80
   2  -2  -8  176.48    8.80
   2  -2  -8  195.78    9.30
   2   2  -8  189.48    7.90
   2   2  -8  185.38    9.70
   2   2  -8  189.38    8.50
   2   2  -8  194.68    7.70
   2   2  -8  195.28    9.40
   2   2  -8  185.78   14.40
   2   2  -8  190.78    8.10
  -1  -2   8  305.57   13.40
   1  -2  -8  289.57   15.90
   1  -2  -8  320.77   16.20
   1  -2  -8  319.47   14.10
   1  -2  -8  335.47   13.30
  -1  -2   8  366.16   15.60
   1   2  -8  391.46   17.90
  -1   2   8  312.87   15.10
   1   2  -8  355.46   15.20
  -1   2   8  357.46   16.90
   0  -2   8 1280.37   54.09
   0  -2  -8 1425.86   54.89
   0  -2   8 1367.66   52.09
   0  -2  -8 1311.47   54.69
   0  -2  -8 1411.06   52.79
   0  -2  -8 1410.86   53.49
   0  -2   8 1374.96   52.89
   0  -2   8 1343.27   51.99
   0  -2   8 1378.76   54.69
   0  -2   8 1320.97   52.09
   0   2  -8 1408.16   55.89
   0   2   8 1380.76   56.29
   0   2  -8 1416.86   54.19
   0   2   8 1459.75   55.59
   0   2   8 1457.95   54.79
   0   2   8 1405.26   52.89
   0   2  -8 1332.67   54.09
   0   2   8 1444.16   52.99
   0   2  -8 1258.17   54.69
   0   2  -8 1267.17   52.89
   0   2   8 1341.87   57.09
   0   2   8 1308.07   60.09
   0   2  -8 1416.06   53.39
   0   2   8 1383.96   52.89
   0   2  -8 1426.46   54.49
   0   2   8 1437.36   53.79
  -1  -2  -8 1474.05   58.59
  -1  -2  -8 1481.45   56.29
  -1  -2  -8 1454.45   57.39
   1  -2   8 1429.76   55.39
   1  -2   8 1486.05   58.59
   1  -2   8 1437.26   56.89
   1  -2   8 1427.26   55.49
   1  -2   8 1403.36   55.39
   1   2   8 1537.15   62.59
  -1   2  -8 1622.84   61.49
   1   2   8 1573.94   60.59
   1   2   8 1521.35   59.79
  -1   2  -8 1650.03   60.39
   1   2   8 1583.24   59.79
   1   2   8 1477.25   59.89
   1   2   8 1556.84   62.59
  -2  -2  -8   50.49    4.20
  -2  -2  -8   58.79    5.60
  -2  -2  -8   41.30    8.50
   2  -2   8   49.10    3.10
   2  -2   8   56.29    4.60
  -2  -2  -8   46.80    4.60
  -2  -2  -8   54.99    4.70
   2  -2   8   48.00    3.00
   2  -2   8   53.09    2.70
   2   2   8   59.09    3.30
  -2   2  -8   66.59    6.90
  -2   2  -8   56.29   10.10
  -2   2  -8   63.19    4.80
   2   2   8   61.99    3.10
  -2   2  -8   69.89    5.90
   2   2   8   63.39    4.50
  -3  -2  -8  300.17   16.40
  -3  -2  -8  314.77   15.80
   3  -2   8  345.87   15.00
   3  -2   8  344.57   13.10
   3  -2   8  338.27   13.30
   3  -2   8  320.67   13.40
  -3  -2  -8  332.77   14.10
   3   2   8  361.66   14.40
   3   2   8  345.57   14.30
   3   2   8  363.46   15.70
  -3   2  -8  390.26   15.40
  -3   2  -8  346.17   14.50
   4  -2   8  148.99    7.50
  -4  -2  -8  161.78    7.60
  -4  -2  -8  172.08    8.80
  -4  -2  -8  135.29   10.10
  -4  -2  -8  152.58    8.00
   4  -2   8  163.88    6.80
   4  -2   8  159.38   11.20
  -4   2  -8  163.78    8.50
   4   2   8  148.19   10.30
  -4   2  -8  159.88    7.80
  -4   2  -8  167.78   10.00
   4   2   8  161.18    7.10
  -4   2  -8  157.78    7.10
  -5  -2  -8  152.48    7.30
   5  -2   8  136.29    6.30
  -5  -2  -8  124.09    8.80
   5  -2   8  138.89    6.70
  -5  -2  -8  137.69    6.30
  -5   2  -8  148.19    7.10
  -5   2  -8  146.39    8.20
   5   2   8  127.49    6.40
  -5   2  -8  146.39    6.20
  -6  -3   8   12.80    3.20
   6  -3  -8   13.50    2.20
  -6  -3   8   13.30    2.70
   6  -3  -8   18.00    2.80
  -6   3   8   19.00    2.90
  -6   3   8   14.80    3.90
   5  -3  -8   45.50    3.90
   5  -3  -8   39.80    3.10
  -5  -3   8   52.99    5.90
   5  -3  -8   47.70    5.30
  -5  -3   8   48.90    5.30
  -5  -3   8   47.50    8.00
  -5   3   8   49.90    4.30
   5   3  -8   43.20    3.60
  -5   3   8   49.90    6.70
   5   3  -8   34.80    5.00
   4  -3  -8  273.27   11.20
  -4  -3   8  281.57   13.50
   4  -3  -8  270.47   11.30
  -4  -3   8  277.77   13.10
   4  -3  -8  272.97   11.70
   4  -3  -8  273.67   15.20
  -4  -3   8  276.87   13.30
   4   3  -8  249.08   13.30
   4   3  -8  249.88   12.50
  -4   3   8  252.67   11.50
   4   3  -8  250.57   10.50
   4   3  -8  257.37   10.70
  -4   3   8  255.57   13.50
  -4   3   8  260.87   14.80
   3  -3  -8  303.77   12.40
  -3  -3   8  287.67   13.70
   3  -3  -8  308.17   14.70
   3  -3  -8  309.37   12.00
  -3  -3   8  300.77   14.40
   3  -3  -8  299.27   12.10
  -3  -3   8  306.07   14.30
   3   3  -8  299.07   12.00
  -3   3   8  288.37   12.90
  -3   3   8  283.77   15.80
   3   3  -8  267.77   12.20
   3   3  -8  310.87   13.80
   3   3  -8  295.77   12.90
  -3   3   8  316.77   14.70
   3   3  -8  290.57   11.70
   2  -3  -8  806.52   38.40
   2  -3  -8  883.01   33.10
   2  -3  -8  869.41   34.80
   2  -3  -8  855.11   33.30
   2  -3  -8  884.41   33.00
   2   3  -8  773.92   37.10
   2   3  -8  803.92   31.00
   2   3  -8  807.92   31.70
   2   3  -8  817.02   30.20
   2   3  -8  727.83   32.00
   2   3  -8  762.52   30.30
   2   3  -8  800.72   30.50
   1  -3  -8  846.92   32.50
   1  -3  -8  834.42   31.60
   1  -3  -8  850.51   35.70
   1  -3  -8  803.72   31.60
   1  -3  -8  807.32   31.90
   1  -3  -8  797.02   33.10
   1  -3  -8  891.31   33.30
   1  -3  -8  760.52   35.10
  -1   3   8  844.82   35.80
   1   3  -8  869.81   35.40
   1   3  -8  896.81   35.40
   1   3  -8  909.11   34.70
   1   3  -8  925.11   39.70
  -1   3   8  878.61   34.00
   1   3  -8  939.51   34.00
   1   3  -8  857.01   35.00
   1   3  -8  900.81   34.00
   1   3  -8  867.21   34.20
  -1   3   8  847.92   37.30
   0  -3   8  224.58    9.40
   0  -3  -8  238.18   13.00
   0  -3  -8  236.68   10.00
   0  -3   8  231.68    9.30
   0  -3  -8  221.78   13.50
   0  -3   8  219.08   10.60
   0  -3  -8  234.48   11.20
   0  -3   8  239.08    9.30
   0   3   8  228.28    9.40
   0   3   8  246.78    9.50
   0   3   8  231.08   12.90
   0   3   8  232.48   10.70
   0   3   8  232.58    9.30
   0   3  -8  244.08   11.10
   0   3   8  247.58   12.00
   0   3  -8  241.28    9.40
   0   3  -8  238.78   12.00
   0   3  -8  225.58    9.30
   0   3  -8  220.08   11.60
   0   3  -8  211.48   13.80
   0   3  -8  242.98    9.90
   0   3  -8  224.48   11.60
   1  -3   8  413.96   16.60
  -1  -3  -8  408.36   19.00
  -1  -3  -8  437.76   21.90
   1  -3   8  426.26   16.60
   1  -3   8  410.76   20.80
   1  -3   8  410.86   17.80
   1  -3   8  436.46   16.50
  -1  -3  -8  429.26   17.60
   1   3   8  419.16   16.60
   1   3   8  419.86   17.40
  -1   3  -8  410.26   20.50
   1   3   8  397.56   19.80
   1   3   8  424.66   16.40
  -1   3  -8  438.96   17.00
  -1   3  -8  421.46   18.40
   1   3   8  425.26   16.50
   2  -3   8  545.45   21.20
  -2  -3  -8  535.95   22.60
  -2  -3  -8  505.55   22.60
  -2  -3  -8  518.75   21.60
   2  -3   8  559.74   21.20
   2  -3   8  545.05   22.40
   2  -3   8  561.74   21.00
  -2  -3  -8  549.85   22.50
  -2  -3  -8  517.95   21.60
  -2   3  -8  511.75   21.30
   2   3   8  512.45   19.90
  -2   3  -8  528.85   20.60
  -2   3  -8  486.85   20.00
   2   3   8  533.45   20.00
   2   3   8  496.15   21.00
  -2   3  -8  514.95   28.30
  -2   3  -8  495.55   22.00
   2   3   8  525.25   21.10
  -3  -3  -8  936.51   35.90
  -3  -3  -8  897.11   34.90
  -3  -3  -8  854.11   36.70
   3  -3   8  836.12   35.10
  -3  -3  -8  892.81   35.00
   3  -3   8  931.81   37.10
   3  -3   8  890.21   34.50
   3  -3   8  875.61   34.50
   3   3   8  879.91   35.80
  -3   3  -8  941.01   37.10
   3   3   8  986.50   38.80
  -3   3  -8  924.71   38.00
  -3   3  -8  917.31   36.30
   3   3   8  926.21   35.90
  -4  -3  -8  112.09    7.10
   4  -3   8  116.89   10.90
   4  -3   8  110.79    5.30
  -4  -3  -8  110.09    6.00
  -4  -3  -8  116.39    6.50
   4  -3   8  113.89    5.90
   4  -3   8  113.69    5.80
   4   3   8  106.69    5.30
  -4   3  -8  112.99    6.60
   4   3   8   98.19    9.50
  -4   3  -8  106.09    7.90
   4   3   8  114.29    5.60
  -4   3  -8  111.39    5.10
  -5  -3  -8   17.00    3.40
   5  -3   8   11.90    2.10
   5  -3   8   11.40    2.00
  -5  -3  -8   13.80    1.90
  -5   3  -8   14.50    2.90
  -5   3  -8   11.50    2.30
   5   3   8   11.10    3.20
  -5   3  -8   13.90    1.50
  -6  -4   8   41.20    3.60
   6  -4  -8   43.30    3.20
  -6  -4   8   41.90    4.30
   6  -4  -8   50.29    4.20
  -6   4   8   39.70    4.80
   5  -4  -8  361.76   14.30
   5  -4  -8  340.07   15.20
   5  -4  -8  367.46   15.40
  -5  -4   8  388.06   18.10
   5  -4  -8  338.17   14.10
  -5  -4   8  357.86   15.90
  -5  -4   8  339.07   15.50
  -5   4   8  383.06   15.20
  -5   4   8  344.17   16.70
   5   4  -8  355.26   15.00
   5   4  -8  343.77   14.30
   4  -4  -8  275.87   16.40
  -4  -4   8  277.87   12.80
  -4  -4   8  287.47   13.10
   4  -4  -8  253.77   12.60
   4  -4  -8  266.17   11.10
  -4  -4   8  268.87   13.20
   4  -4  -8  280.67   11.20
   4  -4  -8  273.47   11.80
   4   4  -8  243.08   13.90
  -4   4   8  267.37   13.60
  -4   4   8  266.57   15.50
   4   4  -8  252.17   12.70
  -4   4   8  257.27   11.60
   4   4  -8  261.77   11.00
   4   4  -8  249.18   10.50
   3  -4  -8   81.39    9.00
   3  -4  -8   81.29    4.20
  -3  -4   8   78.49    6.10
   3  -4  -8   82.39    6.10
   3  -4  -8   84.59    4.70
   3  -4  -8   85.89    3.90
  -3  -4   8   77.49    7.10
  -3  -4   8   86.19    7.10
   3   4  -8   90.49    4.60
   3   4  -8   81.59    4.90
   3   4  -8   88.59    5.90
  -3   4   8   74.39   10.70
  -3   4   8  102.39    7.90
  -3   4   8   88.39    5.70
   3   4  -8   90.69    4.20
   3   4  -8   89.59    7.10
   2  -4  -8  197.48    7.80
   2  -4  -8  181.88    8.60
   2  -4  -8  197.68   10.80
   2  -4  -8  184.88    8.10
  -2  -4   8  186.58   11.00
  -2  -4   8  169.88    9.40
   2  -4  -8  192.78    7.70
  -2   4   8  202.28   11.70
   2   4  -8  198.98    9.20
  -2   4   8  203.18    9.80
   2   4  -8  203.88    8.60
   2   4  -8  206.58   19.40
   2   4  -8  206.78    8.50
  -2   4   8  193.58   11.20
   2   4  -8  214.48    8.30
   2   4  -8  205.08   10.20
   1  -4  -8  732.23   28.30
   1  -4  -8  720.43   33.00
   1  -4  -8  715.63   30.00
   1  -4  -8  739.53   28.30
   1  -4  -8  771.92   29.20
   1   4  -8  793.22   30.10
   1   4  -8  805.32   30.10
   1   4  -8  770.02   30.40
   1   4  -8  790.92   31.80
   1   4  -8  768.52   31.90
   1   4  -8  788.32   30.80
  -1   4   8  787.42   30.10
  -1   4   8  753.02   32.90
   1   4  -8  781.82   35.40
   0  -4   8 1086.99   42.10
   0  -4  -8 1143.89   46.90
   0  -4   8 1069.09   42.10
   0  -4  -8 1180.38   43.20
   0  -4  -8 1096.09   44.20
   0  -4   8 1022.10   48.10
   0   4  -8 1038.40   43.20
   0   4   8 1116.49   41.70
   0   4   8 1120.49   41.80
   0   4  -8 1098.29   41.60
   0   4  -8 1048.70   42.50
   0   4  -8  987.90   48.00
   0   4   8 1094.79   41.60
   0   4   8 1079.79   45.70
   0   4   8 1142.49   44.70
   0   4   8 1120.39   43.10
   0   4  -8 1091.09   44.50
  -1  -4  -8  837.62   38.60
   1  -4   8  838.32   31.60
  -1  -4  -8  829.42   32.80
   1  -4   8  800.42   33.00
   1  -4   8  819.42   31.80
  -1  -4  -8  797.62   32.30
   1  -4   8  814.72   31.60
  -1   4  -8  842.72   37.80
   1   4   8  801.62   37.00
   1   4   8  884.81   33.30
  -1   4  -8  852.11   35.30
  -1   4  -8  830.32   33.20
  -1   4  -8  925.91   33.90
   1   4   8  872.61   33.40
   1   4   8  893.31   33.40
  -2  -4  -8   88.19    5.30
   2  -4   8   78.69    6.70
  -2  -4  -8   88.29    6.30
  -2  -4  -8   92.09    6.50
   2  -4   8   76.39    6.30
  -2  -4  -8   77.69    9.90
   2  -4   8   84.19    4.50
   2  -4   8   88.59    4.30
  -2  -4  -8   92.19    5.50
  -2  -4  -8   86.89    6.90
   2  -4   8   92.59    4.10
   2   4   8  102.89    6.30
  -2   4  -8   92.19    4.50
  -2   4  -8   89.69    7.80
   2   4   8   96.19    4.50
  -2   4  -8   90.49    6.60
   2   4   8  101.39    6.70
   2   4   8   94.99    4.30
   3  -4   8  158.48    7.30
  -3  -4  -8  165.08   10.60
  -3  -4  -8  167.98    9.10
  -3  -4  -8  159.98    8.00
   3  -4   8  161.78   10.40
   3  -4   8  167.68    7.50
   3  -4   8  163.98    7.10
  -3  -4  -8  173.38    7.90
  -3   4  -8  147.99    6.70
  -3   4  -8  163.78    8.40
  -3   4  -8  166.68    9.50
   3   4   8  150.98    9.20
   3   4   8  153.38    6.80
   3   4   8  156.98    6.90
  -4  -4  -8  151.98    7.40
   4  -4   8  139.49    6.70
  -4  -4  -8  149.69    8.20
   4  -4   8  150.78    7.30
  -4  -4  -8  140.99    7.00
   4  -4   8  145.39    6.60
   4   4   8  155.78    7.20
  -4   4  -8  160.58    6.60
   4   4   8  145.59    6.80
  -4   4  -8  153.88    9.00
  -4   4  -8  149.69    7.80
   5  -4   8   83.89    4.40
   5  -4   8   76.59    4.40
  -5  -4  -8   84.29    5.10
  -5  -4  -8   80.99    4.10
   5  -4   8   88.29    5.60
  -5   4  -8   94.19    5.90
  -5   4  -8   94.39    4.10
  -5   4  -8   88.49    5.00
   5  -5  -8   34.80    2.90
   5  -5  -8   34.40    3.00
  -5  -5   8   44.20    5.00
   5  -5  -8   37.10    4.60
  -5  -5   8   44.00    6.20
  -5  -5   8   36.60    5.50
   5  -5  -8   25.40    4.20
  -5   5   8   45.40    4.90
  -5   5   8   37.40    6.80
   5   5  -8   34.40    5.20
   5   5  -8   35.30    3.20
  -4  -5   8  191.68   10.10
   4  -5  -8  184.98    8.30
   4  -5  -8  200.78    9.60
  -4  -5   8  194.38   10.40
   4  -5  -8  198.58    8.40
  -4  -5   8  206.68   10.00
   4  -5  -8  184.58   16.90
   4  -5  -8  203.38    9.10
  -4   5   8  205.58   11.80
   4   5  -8  216.28    9.20
   4   5  -8  184.58   11.10
  -4   5   8  219.88   18.30
   4   5  -8  196.48   13.20
   4   5  -8  200.78    9.10
  -4   5   8  209.28    9.70
   4   5  -8  213.48    8.60
   3  -5  -8  327.47   13.70
   3  -5  -8  325.37   13.00
  -3  -5   8  344.87   14.90
  -3  -5   8  330.97   15.70
   3  -5  -8  318.47   13.50
   3  -5  -8  322.07   13.00
  -3  -5   8  315.37   15.00
   3  -5  -8  308.77   17.50
   3   5  -8  308.57   12.40
   3   5  -8  317.67   12.80
   3   5  -8  291.17   12.60
  -3   5   8  265.87   16.50
  -3   5   8  307.17   13.90
  -3   5   8  337.17   17.10
   3   5  -8  328.67   15.20
   3   5  -8  329.47   14.10
   2  -5  -8  343.97   17.50
  -2  -5   8  379.26   17.40
   2  -5  -8  403.06   15.30
   2  -5  -8  412.46   15.30
  -2  -5   8  389.46   16.50
  -2  -5   8  374.86   16.50
  -2  -5   8  404.66   17.20
   2  -5  -8  378.36   15.70
   2  -5  -8  395.76   15.70
   2  -5  -8  393.46   18.60
   2   5  -8  366.36   16.40
   2   5  -8  363.56   15.50
   2   5  -8  363.36   14.70
   2   5  -8  361.16   14.50
  -2   5   8  352.76   16.60
  -2   5   8  378.56   17.30
   2   5  -8  382.06   14.40
  -2   5   8  350.66   15.50
  -1  -5   8  231.18   10.80
   1  -5  -8  249.88    9.90
   1  -5  -8  253.47   10.90
  -1  -5   8  239.08   11.50
   1  -5  -8  247.38   10.10
   1   5  -8  291.07   11.10
   1   5  -8  264.07   13.30
   1   5  -8  270.77   11.40
   1   5  -8  311.27   13.00
   1   5  -8  240.08   20.00
  -1   5   8  276.67   16.50
  -1   5   8  280.37   11.20
   1   5  -8  281.17   12.00
   1   5  -8  287.07   11.20
   0  -5   8   26.80    2.90
   0  -5  -8   35.50    3.60
   0  -5  -8   31.30    8.10
   0  -5  -8   29.80    2.60
   0   5   8   26.40    2.00
   0   5  -8   29.60    3.20
   0   5   8   22.40    3.70
   0   5   8   31.30    6.40
   0   5  -8   27.50    6.70
   0   5  -8   31.20    2.20
   0   5   8   28.00    2.30
   0   5   8   24.10    2.20
   0   5  -8   30.20    5.20
   0   5  -8   24.60    3.00
  -1  -5  -8  229.48   10.50
   1  -5   8  237.48    9.40
   1  -5   8  236.88    9.80
  -1  -5  -8  233.08   11.40
  -1  -5  -8  226.18    9.60
   1  -5   8  227.18    9.90
  -1  -5  -8  232.88   10.90
  -1  -5  -8  235.18   10.90
  -1  -5  -8  231.98   10.40
   1  -5   8  218.88   11.90
   1   5   8  247.88   11.40
   1   5   8  240.38    9.80
  -1   5  -8  241.88   11.60
  -1   5  -8  208.28   14.10
  -1   5  -8  233.68    9.60
   1   5   8  240.58    9.80
   1   5   8  245.78    9.60
  -2  -5  -8  409.56   17.20
   2  -5   8  425.46   16.80
   2  -5   8  411.66   17.10
   2  -5   8  431.66   16.50
  -2  -5  -8  433.96   18.60
  -2  -5  -8  408.66   17.60
   2  -5   8  400.16   18.80
  -2  -5  -8  412.96   17.20
  -2  -5  -8  431.76   18.20
  -2  -5  -8  397.36   16.60
   2  -5   8  418.26   16.60
   2   5   8  447.76   17.50
  -2   5  -8  441.46   17.30
  -2   5  -8  449.66   18.60
   2   5   8  436.66   17.60
   2   5   8  439.46   19.00
  -2   5  -8  423.36   19.40
   2   5   8  443.06   17.30
  -3  -5  -8  262.77   12.60
  -3  -5  -8  267.77   14.40
  -3  -5  -8  287.27   13.00
  -3  -5  -8  275.27   12.10
   3  -5   8  280.17   15.40
  -3  -5  -8  280.17   11.90
   3  -5   8  284.87   11.40
   3  -5   8  256.67   12.00
   3  -5   8  281.57   11.70
   3   5   8  245.28   10.20
   3   5   8  256.87   10.50
  -3   5  -8  246.38   10.10
  -3   5  -8  251.47   11.60
   3   5   8  250.27   12.60
   3   5   8  244.38   10.70
  -4  -5  -8   22.40    4.10
   4  -5   8   21.20    2.50
  -4  -5  -8   20.00    3.50
   4  -5   8   18.70    2.90
  -4  -5  -8   21.50    3.00
   4  -5   8   19.20    2.50
   4  -5   8   25.60    4.30
  -4   5  -8   27.80    2.30
  -4   5  -8   29.40    5.00
   4   5   8   26.70    3.90
   4   5   8   27.10    2.90
  -4   5  -8   19.40    3.60
   5  -5   8   12.60    2.10
  -5  -5  -8   14.70    1.90
  -5  -5  -8   14.20    2.10
  -5  -5  -8   21.00    3.10
  -5   5  -8   17.10    2.70
  -5  -6   8   40.30    4.00
   5  -6  -8   39.30    3.20
   5  -6  -8   37.00    3.60
   5  -6  -8   40.10    2.90
  -5  -6   8   44.20    4.50
  -5  -6   8   47.50    4.40
  -5   6   8   35.10    3.50
   5   6  -8   30.00    4.50
  -5   6   8   28.90    5.90
   5   6  -8   33.50    3.20
  -4  -6   8   75.69    6.10
   4  -6  -8   65.99    4.60
   4  -6  -8   69.09    6.80
  -4  -6   8   68.19    5.50
   4  -6  -8   67.49    4.00
   4  -6  -8   66.49    3.90
  -4  -6   8   70.59    5.70
  -4   6   8   57.09    4.50
   4   6  -8   56.79    7.80
   4   6  -8   54.79    4.20
   4   6  -8   54.19    3.40
   4   6  -8   39.30    8.00
   4   6  -8   58.39    4.70
  -4   6   8   62.79    7.10
  -3  -6   8   27.70    5.20
   3  -6  -8   17.60    3.20
  -3  -6   8   28.60    5.60
  -3  -6   8   24.20    3.80
   3  -6  -8   23.60    2.50
   3  -6  -8   29.80    2.80
   3  -6  -8   29.20    3.50
  -3  -6   8   27.50    4.80
   3  -6  -8   35.90   11.00
  -3   6   8   32.00    4.00
   3   6  -8   22.80    5.30
  -3   6   8   19.00    4.20
   3   6  -8   26.80    5.10
   3   6  -8   26.10    2.70
  -3   6   8   13.50    6.00
   3   6  -8   25.40    2.40
   3   6  -8   23.90    3.10
  -2  -6   8   91.79    5.90
   2  -6  -8   72.39    4.60
  -2  -6   8   92.69    6.60
   2  -6  -8   75.89    4.20
  -2  -6   8   86.89    5.60
   2  -6  -8   74.79    4.00
  -2  -6   8   90.19    7.50
   2   6  -8   74.59    4.20
   2   6  -8   63.89    3.50
   2   6  -8   73.89    7.30
   2   6  -8   70.39    5.30
  -2   6   8   84.59    7.00
   1  -6  -8  765.52   36.10
   1  -6  -8  870.71   34.30
  -1  -6   8  885.41   33.90
  -1  -6   8  865.11   34.50
   1  -6  -8  888.51   33.20
  -1  -6   8  877.31   33.10
  -1  -6   8  871.11   34.30
   1   6  -8  827.42   32.90
   1   6  -8  883.41   32.60
   1   6  -8  823.42   34.80
   1   6  -8  859.21   32.60
   1   6  -8  868.61   33.50
  -1   6   8  796.62   32.70
   1   6  -8  859.01   33.00
  -1   6   8  835.12   34.30
   0  -6   8  637.34   24.80
   0  -6   8  638.94   24.20
   0  -6  -8  598.34   25.00
   0  -6  -8  610.34   25.60
   0  -6   8  609.74   24.00
   0  -6   8  636.84   25.60
   0  -6  -8  625.24   24.10
   0  -6  -8  622.54   25.50
   0   6   8  626.94   27.10
   0   6  -8  656.93   25.60
   0   6   8  648.94   24.80
   0   6   8  623.04   25.20
   0   6  -8  676.23   25.10
   0   6   8  600.84   26.70
   0   6   8  644.24   24.90
   1  -6   8  214.08    9.30
  -1  -6  -8  245.78   10.90
  -1  -6  -8  222.88   10.40
  -1  -6  -8  239.58    9.30
  -1  -6  -8  221.68   11.20
  -1  -6  -8  212.38   10.30
   1  -6   8  227.18    9.30
   1  -6   8  225.88    9.70
  -1  -6  -8  229.78   11.20
   1   6   8  218.28    9.20
  -1   6  -8  209.48    9.00
   1   6   8  221.38   11.40
   1   6   8  227.78    9.00
   2  -6   8  206.68    9.60
  -2  -6  -8  213.98   10.40
  -2  -6  -8  221.98   11.00
   2  -6   8  227.38    9.20
   2  -6   8  213.68    9.70
   2  -6   8  226.78    9.10
   2  -6   8  211.88   13.90
  -2  -6  -8  213.68   10.00
  -2  -6  -8  202.08    9.10
  -2  -6  -8  237.68   12.50
  -2  -6  -8  222.58    9.90
   2   6   8  223.38    9.30
  -2   6  -8  204.58   11.70
   2   6   8  226.28    9.50
   2   6   8  220.58    9.50
  -2   6  -8  231.28    9.20
  -2   6  -8  243.78   10.80
   3  -6   8   68.99    9.70
   3  -6   8   76.79    5.80
   3  -6   8   82.89    4.20
  -3  -6  -8   79.79    4.80
  -3  -6  -8   70.59    4.30
  -3  -6  -8   71.89    6.00
  -3  -6  -8   64.69    9.30
   3  -6   8   82.99    7.00
   3  -6   8   83.49    4.90
  -3  -6  -8   76.79    5.90
  -3  -6  -8   74.69    5.00
  -3   6  -8   95.59    6.00
  -3   6  -8   88.69    7.10
   3   6   8   88.09    5.50
   3   6   8   93.29    4.50
   3   6   8   91.49    5.10
  -3   6  -8   90.19    4.30
   3   6   8   79.89    8.60
  -4  -6  -8   95.29    5.80
  -4  -6  -8   99.99    5.30
  -4  -6  -8   93.59    4.90
   4  -6   8   87.49    4.70
  -4  -6  -8   94.89    4.60
   4  -6   8   97.69    4.70
   4  -6   8   89.19    5.20
   4   6   8   90.59    6.00
   4   6   8   98.09    5.80
   4   6   8  101.39    4.90
  -4   6  -8  102.49    6.70
   5  -7  -8   15.90    2.40
  -5  -7   8   18.30    2.00
   5  -7  -8   20.00    2.60
  -5  -7   8   16.30    3.10
  -5  -7   8   20.30    3.60
  -5  -7   8   18.60    3.00
   5   7  -8   21.40    2.80
   5   7  -8   17.40    2.30
  -5   7   8   17.40    3.80
  -4  -7   8   78.49    8.00
  -4  -7   8   84.29    6.10
   4  -7  -8   86.99    4.80
  -4  -7   8   86.59    5.80
  -4  -7   8   87.19    4.20
   4  -7  -8   89.59    4.40
   4  -7  -8   88.99    4.80
  -4  -7   8   96.69    6.00
  -4   7   8   85.79    7.30
   4   7  -8   87.29    4.70
   4   7  -8   84.39    5.70
  -4   7   8   90.79    5.40
   4   7  -8   84.29    4.40
  -3  -7   8  384.46   16.30
  -3  -7   8  373.16   16.40
  -3  -7   8  371.86   16.20
   3  -7  -8  378.06   14.90
  -3  -7   8  369.56   16.70
   3  -7  -8  383.36   15.20
   3  -7  -8  368.46   15.00
  -3   7   8  289.27   17.50
   3   7  -8  324.07   15.00
  -3   7   8  340.47   15.90
   3   7  -8  342.77   13.60
  -3   7   8  341.27   14.60
   3   7  -8  332.97   18.00
   3   7  -8  345.97   15.60
   3   7  -8  351.76   13.50
   3   7  -8  354.06   14.10
  -2  -7   8  445.16   18.40
  -2  -7   8  426.16   18.10
   2  -7  -8  413.16   16.80
  -2  -7   8  427.16   17.80
  -2  -7   8  424.16   19.40
  -2  -7   8  424.36   16.80
   2  -7  -8  435.86   17.00
   2   7  -8  410.76   18.40
  -2   7   8  443.56   19.80
   2   7  -8  416.66   17.40
   2   7  -8  428.66   17.00
   2   7  -8  415.96   20.30
   2   7  -8  428.56   17.10
   2   7  -8  476.35   19.50
  -2   7   8  418.86   19.10
  -1  -7   8  162.58    6.60
  -1  -7   8  156.58    7.70
  -1  -7   8  159.58    8.40
  -1  -7   8  156.48    8.90
   1  -7  -8  147.09    9.00
   1  -7  -8  162.38    9.10
   1  -7  -8  159.28    6.80
   1   7  -8  177.18    8.00
   1   7  -8  179.78    9.00
   1   7  -8  188.78    7.60
   1   7  -8  181.68    7.50
   1   7  -8  167.18    8.30
  -1   7   8  177.28    9.90
   0  -7   8    0.50    1.70
   0  -7  -8    2.90    3.00
   0  -7  -8    1.40    3.10
   0  -7   8   -2.90    3.50
   0  -7  -8    6.90    3.30
   0  -7  -8    0.40    1.20
   0  -7   8    4.00    2.00
   0   7  -8    1.90    1.50
   0   7   8    1.30    1.20
   0   7   8    1.00    2.10
   0   7   8    1.70    3.80
   0   7   8    0.80    1.10
   0   7  -8    1.30    1.40
  -1  -7  -8  318.07   13.60
  -1  -7  -8  310.67   14.60
  -1  -7  -8  311.77   12.30
  -1  -7  -8  310.87   14.10
   1  -7   8  293.67   12.20
   1  -7   8  299.27   12.50
   1  -7   8  301.97   13.00
   1   7   8  336.97   13.40
   1   7   8  318.17   16.20
   1   7   8  332.97   13.70
   2  -7   8  247.18   10.50
   2  -7   8  261.27   10.90
  -2  -7  -8  263.27   13.40
   2  -7   8  246.38   11.10
  -2  -7  -8  256.97   12.20
  -2  -7  -8  253.87   11.80
  -2  -7  -8  260.67   11.30
  -2  -7  -8  251.57   10.40
  -2  -7  -8  255.97   11.20
   2   7   8  242.98   10.10
   2   7   8  235.18    9.90
  -2   7  -8  212.18   12.90
   2   7   8  241.58   13.20
   2   7   8  240.08    9.70
   3  -7   8  185.88   10.90
   3  -7   8  198.18    8.50
   3  -7   8  204.08    8.70
  -3  -7  -8  193.78    8.20
   3  -7   8  199.18    9.10
  -3  -7  -8  206.88    8.90
  -3  -7  -8  198.68    9.80
  -3  -7  -8  198.98    9.00
   3   7   8  224.58    9.70
  -3   7  -8  215.48   11.10
   3   7   8  224.08    9.20
   3   7   8  215.08    9.50
   4  -7   8   23.40    2.70
  -4  -7  -8   17.40    2.90
  -4  -7  -8   18.10    2.20
  -4  -7  -8   22.80    2.70
   4  -7   8   26.50    3.30
   4  -7   8   21.10    2.40
   4   7   8   20.70    2.80
   4   7   8   20.60    3.40
  -4   7  -8   17.60    3.10
  -5  -8   8  111.39    4.70
   5  -8  -8  113.39    4.90
  -5  -8   8  117.39    5.60
  -5  -8   8  115.69    5.60
   5  -8  -8  100.79    5.70
  -5  -8   8  104.19    5.40
  -5   8   8  113.59    6.50
   5   8  -8  113.59    5.50
   5   8  -8  126.39    8.40
   4  -8  -8   44.50    3.10
  -4  -8   8   51.29    2.80
  -4  -8   8   47.90    4.40
  -4  -8   8   47.00    5.30
  -4  -8   8   51.09    4.40
  -4  -8   8   48.40    4.80
   4  -8  -8   50.29    3.40
  -4   8   8   53.99    5.90
   4   8  -8   46.60    5.50
   4   8  -8   45.70    3.30
   4   8  -8   46.30    3.10
   4   8  -8   43.00    4.70
  -3  -8   8   36.70    5.00
  -3  -8   8   41.90    4.90
  -3  -8   8   38.20    4.50
   3  -8  -8   35.70    3.10
   3  -8  -8   29.60    3.10
  -3  -8   8   41.20    4.40
   3   8  -8   25.30    3.80
   3   8  -8   24.90    2.70
   3   8  -8   28.30    4.20
   3   8  -8   26.10    2.50
   3   8  -8   24.10    5.90
   3   8  -8   33.50   13.90
  -3   8   8   32.60    5.50
  -2  -8   8  135.79    5.90
  -2  -8   8  135.69    7.90
  -2  -8   8  125.59    8.40
   2  -8  -8  143.39    6.20
  -2  -8   8  142.39    7.70
  -2  -8   8  138.39    7.40
   2   8  -8  155.78   15.00
   2   8  -8  149.69    9.20
  -2   8   8  144.69    8.90
  -2   8   8  136.99    9.90
   2   8  -8  149.39    6.50
   2   8  -8  154.58    6.60
   2   8  -8  146.49    7.00
   2   8  -8  143.59    7.50
  -1  -8   8  455.35   18.80
  -1  -8   8  464.15   19.30
   1  -8  -8  434.76   19.40
  -1  -8   8  466.55   19.30
  -1  -8   8  469.35   17.90
   1   8  -8  390.66   17.70
   1   8  -8  390.56   15.60
  -1   8   8  396.86   17.30
   1   8  -8  375.06   15.30
   1   8  -8  374.16   15.30
   0  -8  -8  279.17   13.90
   0  -8  -8  281.37   12.70
   0  -8   8  263.87   11.70
   0  -8  -8  245.48   12.50
   0  -8  -8  274.27   10.80
   0  -8   8  273.67   12.80
   0   8   8  203.08    8.80
   0   8   8  209.28    8.70
   0   8   8  208.48   10.90
   0   8  -8  213.38    8.90
   1  -8   8   63.09    4.70
  -1  -8  -8   66.39    7.40
  -1  -8  -8   65.29    4.90
  -1  -8  -8   68.69    5.20
  -1  -8  -8   61.59    5.90
  -1  -8  -8   68.19    3.60
   1  -8   8   64.99    3.70
   1   8   8   66.19    3.60
   1   8   8   65.69    3.70
   1   8   8   63.89    4.60
   1   8   8   54.79    7.20
  -2  -8  -8   13.30    3.20
   2  -8   8    6.70    2.20
  -2  -8  -8    7.00    1.40
  -2  -8  -8   12.50    2.40
   2  -8   8    6.50    1.60
  -2  -8  -8    9.20    2.50
   2  -8   8    4.40    1.50
   2   8   8    9.00    1.80
   2   8   8    7.50    3.00
   2   8   8    2.30    6.80
   2   8   8    7.70    1.50
   3  -8   8   -1.00    1.40
  -3  -8  -8    0.10    1.90
  -3  -8  -8    0.60    2.30
   3  -8   8    0.30    2.60
  -3  -8  -8    1.80    1.30
  -3  -8  -8    0.50    2.70
   3  -8   8   -0.50    1.80
   3   8   8    2.20    2.40
   3   8   8   -0.20    1.60
   3   8   8    1.20    1.50
  -3   8  -8   -5.30    4.00
  -4  -8  -8   40.60    3.40
   4  -8   8   45.80    2.80
  -4  -8  -8   40.00    2.90
  -4  -8  -8   42.20    2.40
   4  -8   8   42.80    3.00
  -4  -8  -8   44.80    2.80
   4   8   8   42.50    3.40
  -4   8  -8   46.20    5.00
   4  -9  -8   19.70    2.20
  -4  -9   8   15.30    3.10
  -4  -9   8   17.40    1.70
  -4  -9   8   20.90    3.00
  -4  -9   8   18.90    2.60
  -4  -9   8   17.00    3.40
   4   9  -8   18.10    3.10
  -4   9   8   26.30    4.40
   4   9  -8   19.70    2.60
   4   9  -8   16.60    2.30
  -3  -9   8  112.69    5.10
  -3  -9   8  115.79    6.70
  -3  -9   8  120.49    8.50
  -3  -9   8  116.19    7.10
   3  -9  -8  121.29    6.30
   3   9  -8  104.39    5.00
   3   9  -8  106.29    7.40
   3   9  -8  103.59    5.90
  -3   9   8  103.19    7.20
   3   9  -8  109.69    5.00
  -2  -9   8  307.17   12.00
  -2  -9   8  296.07   13.40
  -2  -9   8  299.17   13.30
  -2  -9   8  318.37   13.10
   2  -9  -8  295.57   13.80
  -2  -9   8  284.87   13.60
  -2   9   8  291.27   14.40
  -2   9   8  295.47   14.00
   2   9  -8  292.47   12.00
   2   9  -8  304.17   12.30
   2   9  -8  281.67   13.50
   2   9  -8  304.77   12.00
  -1  -9   8  114.59    5.00
   1  -9  -8  118.09    7.40
  -1  -9   8  113.39    6.20
  -1  -9   8  122.39    7.30
  -1  -9   8  102.49    6.90
   1   9  -8  106.49    5.30
  -1   9   8  114.69    7.40
   1   9  -8  101.39    5.00
   0  -9   8   73.89    4.80
   0  -9  -8   70.29    6.00
   0  -9   8   64.09    6.00
   0  -9  -8   70.39    3.60
   0   9   8   67.89    3.80
   0   9   8   67.29    6.10
   0   9  -8   72.99    3.90
  -1  -9  -8  162.48    6.70
  -1  -9  -8  153.08    7.90
   1  -9   8  160.48    7.70
   1  -9   8  146.69    8.20
  -1  -9  -8  167.68    7.90
  -1  -9  -8  161.38    8.80
   1   9   8  169.48    7.20
   1   9   8  152.18    8.80
   1   9   8  162.48    9.30
   1   9   8  168.18    7.20
  -2  -9  -8  133.59    6.80
  -2  -9  -8  131.89    7.10
   2  -9   8  130.59    8.40
  -2  -9  -8  136.69    7.70
   2  -9   8  135.09    6.00
  -2  -9  -8  142.09    5.80
   2   9   8  138.49    6.10
   2   9   8  137.79    6.20
   2   9   8  131.09    7.60
  -3  -9  -8  235.88    9.40
  -3  -9  -8  235.98    9.80
  -3  -9  -8  229.18   10.50
   3  -9   8  239.58    9.50
  -3  -9  -8  230.98    9.90
   3   9   8  220.28    9.40
   3   9   8  218.68    9.10
  -4 -10   8   61.79    4.90
  -4 -10   8   61.39    2.80
  -4 -10   8   60.29    3.70
  -4 -10   8   53.89    4.20
  -4 -10   8   60.99    3.80
  -4  10   8   62.49    4.50
   4  10  -8   54.79    3.30
   4  10  -8   62.99    4.10
  -3 -10   8    9.10    2.00
  -3 -10   8    7.70    2.20
  -3 -10   8    8.10    1.10
  -3 -10   8    7.20    2.30
  -3 -10   8   10.80    2.70
  -3  10   8    9.10    2.80
   3  10  -8    7.10    1.30
   3  10  -8    9.80    1.90
   3  10  -8    7.10    1.50
  -2 -10   8   28.70    4.70
  -2 -10   8   31.40    4.60
  -2 -10   8   25.40    4.50
   2 -10  -8   32.60    5.90
   2  10  -8   20.60    2.90
  -2  10   8   22.90    4.60
  -2  10   8   30.50    5.70
   2  10  -8   16.50    2.50
   2  10  -8   19.60    2.10
   1 -10  -8   96.59    6.60
  -1 -10   8  100.19    5.40
  -1 -10   8   74.49   10.20
   1  10  -8   89.79    5.00
   1  10  -8  109.49    5.00
  -1  10   8  111.39    7.10
  -1  10   8  112.09    7.50
   0 -10   8  148.99    7.30
   0 -10  -8  155.28    8.20
   0 -10   8  144.89    8.10
   0  10   8  128.59    7.70
  -1 -10  -8   28.70    4.40
  -1 -10  -8   35.20    4.70
   1 -10   8   39.10    5.50
  -1 -10  -8   32.70    2.60
   1 -10   8   51.49    7.00
  -1 -10  -8   35.60    4.50
   1  10   8   42.40    4.10
   1  10   8   35.10    2.70
  -2 -10  -8    6.60    2.20
   2 -10   8    3.10    2.10
  -2 -10  -8    0.80    1.80
  -2 -10  -8    4.20    1.10
  -2 -10  -8    3.40    2.20
   2 -10   8    5.10    2.10
   2  10   8    6.40    2.00
   2  10   8    5.40    1.30
  -3 -10  -8   85.99    4.30
   3 -10   8   82.89    4.60
  -3 -10  -8   84.79    4.80
  -3 -10  -8   88.09    3.70
  -3 -10  -8   88.39    4.40
   3  10   8   81.69    4.10
  -3 -11   8   69.39    3.10
  -3 -11   8   68.69    4.20
  -3 -11   8   64.59    3.80
  -3  11   8   65.19    4.40
   3  11  -8   58.39    3.30
   3  11  -8   60.79    3.10
  -2 -11   8   22.70    3.00
  -2 -11   8   20.30    2.70
  -2 -11   8   25.20    2.00
   2  11  -8   10.70    1.70
  -2  11   8   10.90    2.40
   2  11  -8   15.80    2.00
   1 -11  -8   21.70    3.40
  -1 -11   8   17.40    2.90
  -1  11   8   21.10    4.00
  -1  11   8   25.50    4.80
   0 -11   8   12.50    2.10
   0 -11  -8   18.70    3.10
   0 -11   8   17.90    2.90
   0  11   8   15.60    3.10
  -1 -11  -8   16.90    2.80
  -1 -11  -8   16.60    1.50
   1 -11   8   13.60    2.00
   1 -11   8   19.50    2.50
   1  11   8   25.00    3.40
   1  11   8   19.40    3.50
  -2 -11  -8   98.19    5.20
  -2 -11  -8   85.89    6.10
  -2 -11  -8   98.89    4.00
   2 -11   8   95.39    5.00
   2 -11   8   93.79    5.60
  -2 -11  -8   91.79    5.20
   2  11   8   77.39    3.90
  -2 -12   8   12.90    2.00
  -2  12   8    8.90    2.10
   1 -12  -8   79.79    6.10
  -1 -12   8   76.99    4.10
   1  12  -8   63.59    7.30
  -1  12   8   70.69    4.60
  -1  12   8   54.99    7.50
   0 -12   8   51.99    3.50
   0 -12  -8   48.60    4.20
   0  12   8   44.00    4.20
   0  12   8   45.70    4.10
   1 -12   8   28.90    3.70
  -1 -12  -8   23.50    3.20
   1 -12   8   25.40    2.90
   1  12   8   21.70    2.90
   6   0  -9   48.80    3.90
   6   0  -9   37.10    4.50
  -6   0   9   56.79    4.90
  -5   0   9  181.18   10.20
  -5   0   9  148.89    9.50
   5   0  -9  162.08    8.10
   5   0  -9  148.59    7.00
   5   0  -9  152.68    7.90
  -4   0   9   30.30    6.10
   4   0  -9   23.60    3.60
   4   0  -9   22.70    3.40
   4   0  -9   24.20    4.70
  -4   0   9   20.80    3.40
   4   0  -9   19.30    3.00
  -4   0   9   26.50    5.00
  -3   0   9   40.00    5.70
   3   0  -9   53.99    3.60
   3   0  -9   53.89    4.60
   3   0  -9   60.69    6.10
  -3   0   9   65.49    7.10
  -3   0   9   75.09   11.10
   3   0  -9   52.39    3.00
   3   0  -9   56.39    3.70
  -3   0   9   57.89    7.50
   2   0  -9  296.97   11.90
   2   0  -9  290.27   18.40
   2   0  -9  302.17   13.70
   2   0  -9  298.67   12.60
   2   0  -9  311.47   11.80
   2   0  -9  286.27   13.80
   2   0  -9  296.57   12.10
   1   0  -9 2933.91  115.39
   1   0  -9 2925.11  118.29
   1   0  -9 3032.00  115.19
   1   0  -9 3049.79  115.89
   1   0  -9 3145.19  116.59
  -1   0   9 2954.20  118.09
   1   0  -9 3229.28  119.09
   1   0  -9 3096.49  116.59
   1   0  -9 2879.21  115.19
   0   0  -9  206.48    8.50
   0   0   9  175.78   19.30
   0   0  -9  196.78    9.60
   0   0   9  191.78    9.00
   0   0   9  206.48   11.30
   0   0  -9  189.08   10.00
   0   0   9  188.98    7.90
   0   0   9  183.28   11.30
   0   0  -9  188.68   12.10
   0   0   9  195.98    7.90
   0   0   9  192.98   10.00
   1   0   9 1221.98   46.90
  -1   0  -9 1235.18   49.00
   1   0   9 1242.48   50.29
   1   0   9 1204.48   47.80
   1   0   9 1180.58   46.90
  -1   0  -9 1288.27   47.80
   1   0   9 1182.38   50.19
   1   0   9 1238.98   47.00
  -2   0  -9  118.59    7.20
  -2   0  -9  114.99    8.70
  -2   0  -9  122.39    6.60
  -2   0  -9  131.49    6.40
   2   0   9  133.39    7.20
   2   0   9  134.29    5.70
   2   0   9  133.79    5.80
   2   0   9  130.19    5.50
  -2   0  -9  118.99    7.90
  -2   0  -9  126.59    7.50
  -3   0  -9   16.90    4.60
  -3   0  -9   31.00    3.90
   3   0   9   26.80    2.60
  -4   0  -9  294.47   13.20
   4   0   9  297.37   16.50
  -4   0  -9  276.57   11.90
   4   0   9  310.87   12.20
   4   0   9  295.67   11.80
   4   0   9  288.97   12.30
  -4   0  -9  268.47   14.50
  -4   0  -9  299.97   12.40
  -5   0  -9  129.49    7.50
  -5   0  -9  116.79    5.60
   5   0   9  105.39    6.20
  -5   0  -9  125.59    6.20
  -5   0  -9  128.39    5.40
   5   0   9  112.39    5.60
  -6  -1   9    7.30    2.80
   6  -1  -9    7.00    2.30
  -6  -1   9   -0.10    4.10
   6  -1  -9   11.90    2.50
   6   1  -9    9.20    3.10
  -6   1   9   11.90    3.20
   6   1  -9    7.20    2.50
   5  -1  -9   28.60    3.40
  -5  -1   9   31.70    6.60
   5  -1  -9   26.00    2.90
  -5  -1   9   26.70    4.40
   5  -1  -9   28.40    4.00
   5   1  -9   28.80    3.30
   5   1  -9   28.50    3.30
  -5   1   9   29.00    5.10
  -5   1   9   32.30    6.00
  -5   1   9   23.40    3.90
   5   1  -9   26.20    3.30
   4  -1  -9  380.86   15.60
   4  -1  -9  391.86   15.90
  -4  -1   9  388.26   17.60
   4  -1  -9  396.26   15.40
  -4  -1   9  394.86   17.90
   4  -1  -9  376.36   21.20
   4   1  -9  378.56   15.10
   4   1  -9  386.66   14.80
  -4   1   9  387.56   17.20
   4   1  -9  333.77   20.20
  -4   1   9  368.46   15.80
   4   1  -9  330.07   16.70
  -4   1   9  373.76   17.90
   4   1  -9  391.06   15.20
   3  -1  -9 1105.69   45.70
  -3  -1   9 1148.19   46.80
   3  -1  -9 1256.87   45.30
   3  -1  -9 1224.08   44.90
   3  -1  -9 1161.88   46.80
   3  -1  -9 1183.18   45.30
  -3  -1   9 1169.08   46.70
  -3  -1   9 1115.39   46.30
  -3   1   9 1094.79   44.10
   3   1  -9 1124.99   45.00
   3   1  -9 1154.48   43.50
   3   1  -9 1171.18   43.20
   3   1  -9 1115.99   43.40
   3   1  -9 1127.49   44.20
  -3   1   9 1075.59   45.20
  -3   1   9 1138.59   45.20
   2  -1  -9 1955.40   80.19
   2  -1  -9 1831.22   75.69
   2  -1  -9 1984.90   75.99
   2  -1  -9 1946.01   75.19
   2  -1  -9 2011.10   74.39
   2  -1  -9 2002.50   74.49
   2  -1  -9 1924.91   74.69
   2   1  -9 1956.10   74.09
   2   1  -9 1802.92   75.39
   2   1  -9 2042.10   73.89
   2   1  -9 1972.80   74.69
   2   1  -9 2004.40   73.89
   2   1  -9 1826.02   79.39
   2   1  -9 1942.81   75.39
   1  -1  -9  311.97   13.60
   1  -1  -9  291.37   12.20
   1  -1  -9  293.87   16.40
   1  -1  -9  319.87   12.70
   1  -1  -9  295.77   13.70
   1  -1  -9  309.87   16.10
   1  -1  -9  304.57   11.90
   1  -1  -9  295.27   12.00
   1   1  -9  311.67   13.60
   1   1  -9  305.77   13.60
   1   1  -9  293.47   16.20
   1   1  -9  312.07   11.80
   1   1  -9  311.07   12.60
  -1   1   9  285.37   15.40
   1   1  -9  298.17   12.10
   1   1  -9  302.47   11.90
   1   1  -9  281.67   16.30
   0  -1  -9  136.19    6.20
   0  -1   9  103.89    9.40
   0  -1   9  137.49   18.50
   0  -1   9  127.09    9.20
   0  -1  -9  112.39   10.30
   0  -1   9  136.19    5.60
   0  -1  -9  132.29    7.50
   0  -1   9  125.39    6.80
   0  -1   9  133.09    5.40
   0  -1  -9  130.39    8.30
   0  -1   9  130.89    5.50
   0   1  -9  121.79   10.50
   0   1   9  111.39   17.70
   0   1  -9  135.19    7.50
   0   1   9  134.49   14.90
   0   1   9  141.09    5.80
   0   1  -9  129.29    7.80
   0   1   9  141.39    8.10
   0   1   9  139.79    7.00
   0   1   9  130.49    5.70
   0   1   9  138.79    5.60
   0   1  -9  144.59    6.40
   0   1   9  135.89    9.70
   1  -1   9  468.55   24.20
   1  -1   9  544.25   21.90
   1  -1   9  543.55   20.90
  -1  -1  -9  522.95   23.20
   1  -1   9  534.95   20.90
  -1  -1  -9  572.64   21.80
   1  -1   9  553.24   20.80
   1   1   9  564.84   22.80
   1   1   9  586.44   22.70
   1   1   9  593.44   22.80
  -1   1  -9  569.54   24.90
  -1   1  -9  633.54   23.60
   1   1   9  595.54   23.80
   1   1   9  566.14   26.20
  -2  -1  -9  738.23   32.40
   2  -1   9  800.12   30.40
  -2  -1  -9  793.22   30.80
   2  -1   9  809.82   30.30
  -2  -1  -9  767.82   31.50
  -2  -1  -9  775.62   31.80
  -2  -1  -9  762.72   30.90
   2  -1   9  818.32   31.60
   2   1   9  793.82   30.40
   2   1   9  808.42   31.60
  -2   1  -9  798.22   31.70
   2   1   9  816.52   30.60
  -2   1  -9  750.62   31.80
  -2   1  -9  786.82   32.50
  -2   1  -9  742.13   30.50
  -2   1  -9  835.62   31.00
   2   1   9  766.12   30.60
   4  -1   9  130.99    6.40
   4  -1   9  138.29    6.30
   4  -1   9  128.99    5.80
  -4  -1  -9  107.09    8.90
  -4  -1  -9  122.19    6.40
  -4  -1  -9  133.39    7.50
  -4   1  -9  140.79    9.30
  -4   1  -9  138.89    7.70
  -4   1  -9  137.89    7.00
  -4   1  -9  141.99    6.40
   4   1   9  140.29    6.30
   4   1   9  149.59    6.80
  -5  -1  -9    1.40    3.10
   5  -1   9    2.40    1.90
  -5  -1  -9   -1.40    1.70
   5  -1   9    0.20    2.10
  -5  -1  -9   -1.00    1.60
  -5  -1  -9   -1.10    1.90
  -5   1  -9    1.80    1.30
  -5   1  -9    2.90    2.10
   5   1   9    5.30    2.00
  -5   1  -9    0.30    2.70
  -6  -2   9  102.89    5.80
   6  -2  -9   93.59    5.10
  -6  -2   9  114.39    6.80
   6  -2  -9  106.89    5.30
  -6   2   9  104.69    6.50
   5  -2  -9   65.59    4.50
  -5  -2   9   80.59    7.10
  -5  -2   9   55.39    6.10
   5  -2  -9   82.29    5.80
   5  -2  -9   67.69    3.90
   5   2  -9   66.59    4.20
   5   2  -9   67.99    7.10
  -5   2   9   68.29    8.50
   5   2  -9   74.59    5.70
  -5   2   9   70.49    5.10
  -5   2   9   67.99    7.00
   4  -2  -9  418.86   16.40
   4  -2  -9  418.26   16.30
  -4  -2   9  389.46   18.50
  -4  -2   9  413.06   18.40
  -4  -2   9  393.96   18.30
   4  -2  -9  417.96   19.90
   4  -2  -9  426.76   16.90
   4   2  -9  459.95   17.60
  -4   2   9  467.25   20.10
   4   2  -9  432.96   17.90
   4   2  -9  445.86   20.40
   4   2  -9  423.26   19.50
   4   2  -9  453.65   18.00
  -4   2   9  422.26   20.60
  -4   2   9  449.06   18.60
  -3  -2   9   54.19    6.90
   3  -2  -9   43.40    6.80
  -3  -2   9   51.29    6.50
  -3  -2   9   62.79    7.10
   3  -2  -9   48.50    3.60
   3  -2  -9   51.29    2.80
   3  -2  -9   48.90    3.30
   3  -2  -9   45.40    4.50
   3   2  -9   50.49    3.50
   3   2  -9   53.89    6.20
  -3   2   9   56.19    7.20
   3   2  -9   50.89    3.00
   3   2  -9   60.99    4.70
  -3   2   9   64.49    8.20
  -3   2   9   46.40    4.70
   2  -2  -9  302.67   14.50
   2  -2  -9  329.57   12.50
   2  -2  -9  323.87   12.60
   2  -2  -9  315.57   13.30
   2  -2  -9  312.57   14.70
   2  -2  -9  317.27   12.80
   2  -2  -9  305.67   19.50
   2   2  -9  281.97   19.60
   2   2  -9  301.97   12.60
   2   2  -9  293.77   11.80
   2   2  -9  292.27   12.00
   2   2  -9  277.47   14.10
   2   2  -9  310.57   11.70
   2   2  -9  295.37   13.50
   1  -2  -9  995.80   37.50
   1  -2  -9  960.30   41.70
   1  -2  -9 1017.30   38.20
   1  -2  -9  978.40   41.50
   1  -2  -9  925.71   37.70
   1  -2  -9  974.10   37.50
   1  -2  -9  963.40   39.00
   1  -2  -9 1007.60   39.10
   1   2  -9 1044.60   40.40
   1   2  -9 1036.10   41.70
   1   2  -9 1077.89   40.90
  -1   2   9 1015.70   43.70
   1   2  -9 1019.00   41.70
   1   2  -9 1082.49   40.10
   1   2  -9 1053.99   40.20
   1   2  -9 1054.39   44.20
  -1   2   9 1042.00   40.10
   0  -2  -9 2049.99   80.49
   0  -2   9 2026.00   77.89
   0  -2   9 2035.50   76.99
   0  -2   9 1926.01   76.99
   0  -2   9 2023.60   80.19
   0  -2  -9 2041.50   77.69
   0  -2   9 2016.50   76.89
   0   2   9 1998.60   75.99
   0   2  -9 1972.60   74.39
   0   2  -9 1759.12   77.19
   0   2  -9 1851.61   75.19
   0   2  -9 1996.40   73.79
   0   2   9 1937.01   76.99
   0   2   9 1949.01   73.79
   0   2   9 1962.20   74.79
   0   2   9 1928.51   73.79
   0   2   9 1966.10   73.69
   1  -2   9  452.65   17.30
  -1  -2  -9  412.16   20.10
   1  -2   9  435.36   17.40
   1  -2   9  451.45   17.40
   1  -2   9  450.35   18.70
  -1  -2  -9  455.55   18.40
   1   2   9  474.05   18.10
   1   2   9  453.45   21.80
  -1   2  -9  464.45   18.70
   1   2   9  459.75   18.00
  -1   2  -9  442.66   20.30
   1   2   9  458.85   19.00
   1   2   9  467.75   17.90
  -2  -2  -9   60.99    6.50
  -2  -2  -9   66.89    8.10
  -2  -2  -9   79.39    5.00
   2  -2   9   79.89    4.00
   2  -2   9   84.19    6.10
  -2  -2  -9   80.59    7.20
   2  -2   9   79.49    3.60
  -2  -2  -9   75.49    5.90
  -2  -2  -9   67.49    5.00
   2  -2   9   79.09    3.90
   2   2   9   78.59    5.30
   2   2   9   80.79    3.90
   2   2   9   84.69    5.60
  -2   2  -9   81.99    7.50
  -2   2  -9   78.79    6.30
  -2   2  -9   81.29    4.30
   2   2   9   76.79    3.80
  -2   2  -9   81.89    5.20
  -3  -2  -9   86.19    6.30
   3  -2   9   85.39    4.10
   3  -2   9   87.99    7.80
  -3  -2  -9   64.79    8.30
   3  -2   9   79.79    4.40
  -3  -2  -9   76.09    4.90
   3  -2   9   77.09    4.40
  -3  -2  -9   83.49    5.40
   3   2   9   94.09    7.10
  -3   2  -9   89.19    5.40
   3   2   9   88.89    4.50
  -3   2  -9   90.29    6.30
  -3   2  -9   76.19    4.50
   3   2   9   89.29    4.40
  -3   2  -9   85.39    7.60
  -4  -2  -9  110.79    6.80
   4  -2   9  112.59    5.10
   4  -2   9  109.29    5.80
   4  -2   9  104.49    5.50
  -4  -2  -9  109.89    6.40
  -4  -2  -9   94.09    8.40
  -4  -2  -9  104.29    5.70
  -4   2  -9   96.99    4.70
  -4   2  -9   91.59    5.40
  -4   2  -9   96.49    7.60
   4   2   9  101.39    4.90
  -4   2  -9   93.59    6.20
   4   2   9  104.09    5.40
   5  -2   9   31.90    3.20
   5  -2   9   40.00    3.40
  -5  -2  -9   39.00    3.60
  -5  -2  -9   32.80    2.80
  -5   2  -9   38.90    3.40
  -5   2  -9   42.90    4.90
  -5   2  -9   43.50    2.60
  -6  -3   9   46.10    4.70
   6  -3  -9   36.50    4.60
  -6  -3   9   35.10    3.70
   6  -3  -9   39.20    3.30
  -6   3   9   37.00    4.70
   5  -3  -9   51.49    3.50
  -5  -3   9   54.89    8.10
  -5  -3   9   57.19    5.40
  -5  -3   9   54.09    6.10
   5  -3  -9   64.09    6.10
   5  -3  -9   53.89    4.00
   5   3  -9   47.60    3.80
  -5   3   9   58.69    9.60
  -5   3   9   55.49    6.60
   5   3  -9   53.49    5.30
   5   3  -9   51.69    5.40
  -5   3   9   58.69    4.60
  -4  -3   9   84.89    7.20
   4  -3  -9   95.69    4.90
   4  -3  -9   83.79   11.70
  -4  -3   9   92.89    7.50
  -4  -3   9   91.39    7.50
   4  -3  -9   92.39    4.60
   4  -3  -9  105.59    5.70
   4   3  -9  112.89    5.90
   4   3  -9  102.09    8.20
  -4   3   9  111.49    6.40
  -4   3   9  112.39    8.70
  -4   3   9  109.39   10.60
   4   3  -9  108.59    6.10
   4   3  -9  105.39    5.20
   4   3  -9   98.79   10.20
   3  -3  -9  567.94   23.60
   3  -3  -9  594.04   25.60
   3  -3  -9  589.04   22.90
  -3  -3   9  616.34   24.80
  -3  -3   9  601.84   25.10
   3  -3  -9  589.24   23.30
   3  -3  -9  582.84   23.00
  -3  -3   9  574.04   24.30
   3   3  -9  572.14   22.00
   3   3  -9  568.14   21.70
  -3   3   9  589.54   24.10
   3   3  -9  536.15   21.80
  -3   3   9  550.34   22.60
   3   3  -9  551.64   22.90
   3   3  -9  564.74   23.90
  -3   3   9  510.25   24.30
  -2  -3   9  293.47   14.80
   2  -3  -9  316.17   13.20
   2  -3  -9  325.27   12.40
   2  -3  -9  306.17   12.70
   2  -3  -9  310.37   14.80
  -2  -3   9  293.17   13.90
   2  -3  -9  328.87   12.40
   2   3  -9  297.47   22.10
  -2   3   9  308.07   15.10
   2   3  -9  325.97   13.50
  -2   3   9  307.17   13.70
   2   3  -9  327.47   14.60
   2   3  -9  312.77   12.70
  -2   3   9  321.17   16.10
   2   3  -9  316.37   12.90
   2   3  -9  330.07   12.60
   1  -3  -9  257.97   15.60
   1  -3  -9  267.87   12.80
   1  -3  -9  274.27   11.40
   1  -3  -9  269.27   10.50
   1  -3  -9  245.48   11.10
   1  -3  -9  268.27   10.60
  -1   3   9  264.07   13.70
   1   3  -9  270.57   10.60
   1   3  -9  266.17   10.90
   1   3  -9  265.97   16.60
   1   3  -9  242.58   12.70
  -1   3   9  264.67   10.70
   1   3  -9  277.47   11.40
   1   3  -9  265.67   12.70
   1   3  -9  273.67   10.60
   0  -3  -9  132.59   10.50
   0  -3   9  123.59   11.00
   0  -3   9  137.49    5.50
   0  -3  -9  127.49    6.40
   0  -3  -9  125.99    8.40
   0  -3   9  121.99    5.70
   0  -3   9  125.99    5.90
   0   3  -9  122.39   14.50
   0   3  -9  134.19    8.20
   0   3   9  136.59    9.60
   0   3   9  136.59    7.60
   0   3   9  139.09   11.30
   0   3  -9  133.59    6.40
   0   3   9  135.19    5.80
   0   3   9  136.79    5.90
   0   3   9  133.59    5.60
   0   3  -9  127.69    5.70
   1  -3   9  472.25   20.40
   1  -3   9  482.95   19.00
  -1  -3  -9  470.35   19.70
   1  -3   9  509.05   19.00
   1  -3   9  479.95   19.10
  -1  -3  -9  503.35   20.30
  -1   3  -9  536.45   20.80
   1   3   9  482.75   24.30
   1   3   9  519.45   21.20
  -1   3  -9  527.45   20.60
   1   3   9  521.85   20.00
  -1   3  -9  504.85   19.90
   1   3   9  509.35   20.10
   1   3   9  527.05   20.10
  -1   3  -9  506.05   23.80
  -1   3  -9  487.45   22.60
   2  -3   9  435.16   18.70
   2  -3   9  434.66   16.90
   2  -3   9  424.86   17.90
  -2  -3  -9  439.66   18.40
  -2  -3  -9  405.96   16.90
  -2  -3  -9  384.86   19.50
  -2  -3  -9  417.96   17.50
  -2  -3  -9  432.06   17.40
  -2  -3  -9  431.76   18.60
   2  -3   9  437.36   16.80
   2  -3   9  426.36   17.00
   2   3   9  437.86   17.40
   2   3   9  442.86   17.30
   2   3   9  425.26   17.50
  -2   3  -9  415.56   17.20
  -2   3  -9  451.75   18.80
  -2   3  -9  455.95   17.90
   2   3   9  448.56   18.70
  -2   3  -9  443.36   19.70
   3  -3   9  300.37   12.30
  -3  -3  -9  293.27   12.90
  -3  -3  -9  280.67   15.40
  -3  -3  -9  304.57   13.80
   3  -3   9  300.27   12.40
   3  -3   9  309.67   12.10
  -3  -3  -9  313.77   12.80
  -3  -3  -9  262.67   15.30
   3  -3   9  317.57   15.00
   3   3   9  238.28    9.90
   3   3   9  209.68   11.00
  -3   3  -9  235.78    9.90
  -3   3  -9  246.18   10.70
   3   3   9  256.37   10.10
   3   3   9  262.27   12.30
  -3   3  -9  232.78   12.50
  -3   3  -9  258.27   11.60
  -4  -3  -9  259.67   11.00
   4  -3   9  258.17   11.10
   4  -3   9  259.37   10.70
  -4  -3  -9  257.37   11.80
   4  -3   9  251.27   10.50
  -4  -3  -9  252.57   11.20
   4   3   9  272.67   11.00
  -4   3  -9  260.87   10.50
  -4   3  -9  250.77   11.70
   4   3   9  253.27   10.70
  -4   3  -9  261.37   13.00
   5  -3   9    4.40    2.60
   5  -3   9    8.60    1.70
  -5  -3  -9    8.90    2.20
   5  -3   9   10.50    2.80
  -5  -3  -9    6.60    1.70
  -5  -3  -9    7.10    1.80
  -5   3  -9    7.30    2.40
  -5   3  -9    6.60    1.10
  -5   3  -9    3.00    1.90
   6  -4  -9   36.30    2.80
   6  -4  -9   29.60    3.50
  -6  -4   9   29.10    3.20
  -6  -4   9   39.30    5.90
  -6   4   9   29.30    4.20
   5  -4  -9  382.16   16.50
  -5  -4   9  361.26   17.00
   5  -4  -9  364.96   15.10
  -5  -4   9  417.26   17.80
   5  -4  -9  358.76   15.80
   5  -4  -9  382.46   15.20
  -5  -4   9  405.66   16.70
   5   4  -9  356.56   16.20
   5   4  -9  351.26   15.50
  -5   4   9  441.26   17.00
  -5   4   9  420.46   18.50
   5   4  -9  374.86   15.80
   4  -4  -9   97.89   14.10
   4  -4  -9   98.69    6.20
   4  -4  -9   94.99    6.40
   4  -4  -9  100.19    4.90
  -4  -4   9  104.49    7.50
   4  -4  -9   96.99    4.70
  -4  -4   9   97.29    7.20
  -4  -4   9   95.29    6.90
  -4   4   9  103.39    8.40
   4   4  -9   99.19    8.00
  -4   4   9  103.69   10.60
  -4   4   9   98.69    6.10
   4   4  -9   96.09   10.70
   4   4  -9  115.49    5.80
   4   4  -9  104.29    5.00
   4   4  -9   86.09    5.60
  -3  -4   9   85.69    6.90
  -3  -4   9   84.59    6.30
   3  -4  -9   84.29    4.10
   3  -4  -9   86.39    5.60
   3  -4  -9   84.49    5.10
  -3  -4   9   79.79    7.30
   3  -4  -9   87.79   10.50
   3  -4  -9   81.19    4.20
  -3   4   9   84.19    7.70
   3   4  -9   77.39    8.10
  -3   4   9   82.99    5.50
  -3   4   9   76.29    9.10
   3   4  -9   85.29    5.80
   3   4  -9   84.19    4.00
   3   4  -9   76.99    4.50
   3   4  -9   77.39    4.50
   2  -4  -9  154.98    7.20
  -2  -4   9  152.58    9.70
  -2  -4   9  133.79    8.30
   2  -4  -9  148.89   10.70
   2  -4  -9  159.68    6.40
   2  -4  -9  149.79    7.50
   2  -4  -9  157.98    7.10
  -2  -4   9  146.69    9.50
   2  -4  -9  160.48    6.50
  -2  -4   9  141.09    9.20
  -2   4   9  156.98    9.70
  -2   4   9  140.49    9.60
   2   4  -9  154.78    9.40
   2   4  -9  162.88    6.50
   2   4  -9  160.28    7.30
   2   4  -9  158.58    6.70
   2   4  -9  150.68    7.70
   1  -4  -9  519.15   19.90
   1  -4  -9  448.26   24.50
   1  -4  -9  492.75   21.70
   1  -4  -9  477.45   19.10
  -1  -4   9  477.85   20.20
   1  -4  -9  496.85   18.90
   1   4  -9  549.95   28.80
   1   4  -9  544.35   24.10
   1   4  -9  549.25   22.30
  -1   4   9  580.54   22.00
   1   4  -9  584.94   22.00
   1   4  -9  583.14   22.90
   1   4  -9  576.34   22.00
   0  -4  -9 1235.18   45.00
   0  -4  -9 1139.99   43.80
   0  -4   9 1166.28   43.80
   0  -4  -9 1059.09   48.90
   0  -4   9 1112.29   44.00
   0  -4  -9 1141.19   46.40
   0   4   9 1143.09   47.60
   0   4   9 1175.28   45.80
   0   4  -9 1164.48   46.90
   0   4  -9 1168.18   44.90
   0   4  -9 1140.19   44.30
   0   4  -9 1062.39   47.50
   0   4   9 1184.78   44.30
   0   4   9 1173.08   44.20
   0   4  -9 1157.48   44.10
   1  -4   9  681.33   27.90
  -1  -4  -9  690.53   27.50
   1  -4   9  696.83   26.10
   1  -4   9  695.83   26.10
   1  -4   9  655.93   28.60
  -1  -4  -9  655.73   26.70
  -1  -4  -9  680.23   28.20
   1  -4   9  667.33   26.30
   1  -4   9  645.64   26.50
  -1  -4  -9  649.34   26.70
  -1  -4  -9  684.43   27.60
  -1  -4  -9  666.93   26.10
   1   4   9  664.33   25.00
  -1   4  -9  649.93   26.30
  -1   4  -9  587.74   26.80
  -1   4  -9  647.24   25.70
  -1   4  -9  635.14   24.90
   1   4   9  660.43   25.10
   1   4   9  662.43   25.30
   2  -4   9  254.27   13.30
   2  -4   9  252.47   11.50
  -2  -4  -9  256.77   11.40
  -2  -4  -9  257.37   10.80
  -2  -4  -9  266.57   12.90
  -2  -4  -9  268.67   11.40
   2  -4   9  265.47   10.80
  -2  -4  -9  226.18   14.20
  -2  -4  -9  287.97   12.60
   2  -4   9  275.97   10.70
   2  -4   9  266.27   11.00
  -2   4  -9  251.27   10.40
  -2   4  -9  271.67   12.10
   2   4   9  251.27   10.40
   2   4   9  246.18   10.70
   2   4   9  257.67   12.30
   2   4   9  262.37   10.60
  -2   4  -9  263.37   13.00
  -3  -4  -9  144.39    7.00
  -3  -4  -9  113.79   10.60
   3  -4   9  132.39   11.30
  -3  -4  -9  144.49    8.10
  -3  -4  -9  135.09   10.30
   3  -4   9  149.69    6.20
  -3  -4  -9  133.49    6.60
  -3  -4  -9  142.19    7.20
   3  -4   9  129.59    7.50
   3  -4   9  139.69    6.70
   3  -4   9  139.59    6.30
  -3   4  -9  130.29    5.70
   3   4   9  128.49    5.80
   3   4   9  111.49    6.50
   3   4   9  134.69    6.10
  -3   4  -9  142.39    7.50
   4  -4   9  265.17   11.00
  -4  -4  -9  287.57   12.30
  -4  -4  -9  284.07   11.40
   4  -4   9  259.37   11.60
  -4  -4  -9  262.57   10.90
   4  -4   9  254.47   11.70
  -4  -4  -9  266.47   12.90
  -4   4  -9  304.47   11.90
   4   4   9  277.67   12.00
   4   4   9  273.67   11.60
   4   4   9  271.67   13.00
  -4   4  -9  302.87   13.70
  -4   4  -9  283.67   12.60
   5  -4   9   81.49    4.60
   5  -4   9   68.19    3.90
  -5  -4  -9   72.89    4.30
  -5  -4  -9   71.79    3.90
  -5  -4  -9   72.79    3.70
  -5   4  -9   87.79    5.20
  -5   4  -9   72.99    4.40
  -5   4  -9   86.19    3.60
  -5  -5   9    3.50    2.60
  -5  -5   9    2.60    2.70
   5  -5  -9    2.70    2.10
   5  -5  -9    5.20    1.60
  -5  -5   9    4.80    3.20
   5  -5  -9    3.90    2.00
  -5   5   9    5.40    2.00
   5   5  -9    7.10    1.90
  -5   5   9   10.10    3.70
   5   5  -9    2.80    2.40
   4  -5  -9   44.60    5.60
  -4  -5   9   46.50    5.70
   4  -5  -9   36.50   11.80
  -4  -5   9   40.30    5.60
  -4  -5   9   48.40    5.20
   4  -5  -9   30.60    4.10
   4  -5  -9   37.00    3.00
  -4   5   9   51.49    4.40
  -4   5   9   34.70    6.90
   4   5  -9   48.00    7.10
   4   5  -9   54.39    3.20
   4   5  -9   35.00    7.60
   4   5  -9   45.00    4.30
   4   5  -9   53.79    4.30
  -4   5   9   47.80    6.90
   3  -5  -9  558.84   27.30
  -3  -5   9  504.25   25.80
   3  -5  -9  570.74   22.60
  -3  -5   9  582.74   23.70
  -3  -5   9  563.04   24.00
   3  -5  -9  594.24   22.50
   3  -5  -9  577.74   22.20
  -3  -5   9  560.74   23.50
   3  -5  -9  579.04   22.80
   3   5  -9  624.94   22.70
   3   5  -9  573.14   23.00
  -3   5   9  586.44   23.60
  -3   5   9  577.24   24.90
   3   5  -9  568.44   28.60
  -3   5   9  541.85   25.80
   3   5  -9  574.54   22.70
   2  -5  -9  390.56   15.70
   2  -5  -9  362.36   16.90
  -2  -5   9  408.56   17.10
   2  -5  -9  398.06   15.70
  -2  -5   9  399.26   17.00
  -2  -5   9  408.66   18.00
   2  -5  -9  390.36   16.00
  -2  -5   9  434.16   17.60
  -2   5   9  422.66   18.20
  -2   5   9  448.76   18.40
   2   5  -9  416.56   17.20
   2   5  -9  366.06   16.70
   2   5  -9  408.46   18.50
   2   5  -9  421.26   16.40
   2   5  -9  395.56   15.90
   2   5  -9  360.96   15.90
   1  -5  -9  172.48    8.20
  -1  -5   9  166.48    8.10
   1  -5  -9  151.88    8.70
  -1  -5   9  160.98    6.70
   1  -5  -9  157.48    7.00
  -1  -5   9  154.78    8.70
   1   5  -9  177.68    8.30
   1   5  -9  174.68    7.20
   1   5  -9  177.68   10.80
  -1   5   9  168.08    7.20
   1   5  -9  177.88    7.20
  -1   5   9  165.78   10.30
   1   5  -9  163.78    7.70
   1   5  -9  171.48    7.80
   0  -5  -9  197.78    9.60
   0  -5  -9  181.58   10.80
   0  -5  -9  204.58   11.00
   0  -5  -9  213.58    9.70
   0  -5   9  202.48    8.50
   0  -5   9  197.88   10.40
   0  -5  -9  207.18    8.20
   0   5   9  207.58    8.40
   0   5   9  209.38   11.20
   0   5   9  214.18    8.50
   0   5  -9  209.58    8.70
   0   5  -9  206.88    9.40
   0   5   9  195.08    8.80
   0   5  -9  200.08    8.40
  -1  -5  -9  246.18   13.20
  -1  -5  -9  264.17   10.40
  -1  -5  -9  254.37   11.40
   1  -5   9  260.07   10.40
  -1  -5  -9  257.67   12.20
  -1  -5  -9  254.87   11.40
   1  -5   9  264.07   10.50
   1  -5   9  255.47   10.90
  -1  -5  -9  268.47   12.50
   1  -5   9  243.18   10.90
   1   5   9  249.38   10.10
  -1   5  -9  250.87   11.80
   1   5   9  239.38   10.10
   1   5   9  249.48    9.90
  -1   5  -9  246.18    9.90
  -1   5  -9  233.88   13.30
   1   5   9  235.18   12.00
   2  -5   9  588.64   23.10
   2  -5   9  588.14   23.20
  -2  -5  -9  551.44   27.00
  -2  -5  -9  512.45   23.30
  -2  -5  -9  600.44   23.30
   2  -5   9  592.64   22.80
   2  -5   9  585.84   25.80
  -2  -5  -9  623.44   24.40
  -2  -5  -9  587.34   23.40
  -2   5  -9  642.74   24.60
   2   5   9  626.04   25.10
   2   5   9  614.94   24.90
   2   5   9  673.83   27.60
  -2   5  -9  661.53   26.00
  -2   5  -9  608.24   26.70
   2   5   9  625.94   24.90
  -3  -5  -9  269.57   11.60
  -3  -5  -9  245.88   14.70
   3  -5   9  267.17   11.50
   3  -5   9  269.77   11.50
  -3  -5  -9  277.07   12.50
  -3  -5  -9  260.07   10.90
   3  -5   9  252.07   16.80
  -3  -5  -9  275.57   11.50
   3   5   9  241.98   11.50
  -3   5  -9  243.18   12.50
   3   5   9  270.47   10.80
   3   5   9  252.47   10.40
  -3   5  -9  260.07   11.70
   3   5   9  251.07   13.30
  -3   5  -9  257.07   10.30
   4  -5   9   44.60    3.20
  -4  -5  -9   41.30    3.10
  -4  -5  -9   49.30    3.80
   4  -5   9   48.20    7.20
  -4  -5  -9   47.00    4.50
   4  -5   9   39.60    4.00
   4  -5   9   43.30    3.10
  -4  -5  -9   48.30    3.50
  -4   5  -9   48.90    4.30
  -4   5  -9   51.79    2.80
   4   5   9   49.00    3.40
   4   5   9   59.99    4.70
   4   5   9   41.50    4.40
  -4   5  -9   48.70    5.40
   5  -6  -9   92.99    5.10
  -5  -6   9  109.29    6.10
   5  -6  -9  100.29    5.00
   5  -6  -9  101.59    4.60
  -5  -6   9   91.39    5.50
  -5  -6   9   96.89    5.90
   5   6  -9  109.39    6.40
  -5   6   9  106.19    7.20
   5   6  -9  104.79    5.20
  -4  -6   9   63.49    5.80
   4  -6  -9   60.79    4.20
   4  -6  -9   58.99    3.60
   4  -6  -9   56.59    3.80
   4  -6  -9   46.90    8.30
  -4  -6   9   69.09    5.60
  -4  -6   9   60.69    5.20
  -4   6   9   37.00    6.20
  -4   6   9   53.29    4.40
   4   6  -9   52.59    4.70
   4   6  -9   53.89    3.30
   4   6  -9   53.59    3.70
   3  -6  -9   28.40    2.60
  -3  -6   9   24.10    4.00
   3  -6  -9   19.50    3.30
  -3  -6   9   23.70    4.00
  -3  -6   9   35.30    4.80
  -3  -6   9   27.60    5.20
   3  -6  -9   22.10    3.00
   3   6  -9   30.10    5.40
   3   6  -9   24.60    2.40
  -3   6   9   24.00    5.70
  -3   6   9   25.40    4.30
   3   6  -9   27.50    2.70
  -3   6   9   28.70    4.00
   3   6  -9   32.00    3.60
   3   6  -9   52.79   10.10
  -2  -6   9   81.99    7.50
   2  -6  -9   72.89    5.40
  -2  -6   9   81.09    5.60
   2  -6  -9   68.29    3.90
  -2  -6   9   82.39    6.50
   2   6  -9   84.59    9.00
  -2   6   9   88.79    7.60
   2   6  -9   75.19    3.90
   2   6  -9   77.89    5.10
  -2   6   9   88.29    7.10
   2   6  -9   79.39    4.70
   2   6  -9   70.29    4.00
   2   6  -9   79.79    6.00
  -1  -6   9  509.45   19.80
  -1  -6   9  510.75   20.70
   1  -6  -9  522.85   19.90
  -1  -6   9  496.05   21.20
   1  -6  -9  505.65   21.30
   1   6  -9  540.05   22.00
  -1   6   9  500.15   20.80
  -1   6   9  521.75   22.80
   1   6  -9  537.25   21.60
   1   6  -9  547.35   21.20
   1   6  -9  540.85   20.80
   1   6  -9  549.74   20.90
   0  -6  -9 1146.69   45.70
   0  -6   9 1149.69   46.20
   0  -6  -9 1143.29   46.50
   0  -6   9 1181.08   45.60
   0  -6  -9 1171.48   44.90
   0  -6   9 1177.68   45.00
   0  -6  -9 1267.87   47.30
   0  -6  -9 1150.38   46.30
   0   6  -9 1175.08   44.90
   0   6   9 1134.29   44.00
   0   6   9 1087.99   44.40
   0   6   9 1120.39   44.00
   0   6  -9 1205.28   44.10
   1  -6   9  149.39    6.90
   1  -6   9  147.89    7.20
  -1  -6  -9  160.78    6.80
  -1  -6  -9  157.88    7.90
  -1  -6  -9  156.98    9.00
   1  -6   9  156.88    6.80
  -1  -6  -9  170.48    8.00
  -1  -6  -9  158.88    9.20
   1   6   9  136.29    6.20
   1   6   9  133.49    6.00
   1   6   9  142.79    9.40
   1   6   9  134.49    6.40
  -2  -6  -9  105.79    5.90
  -2  -6  -9   95.59    4.90
   2  -6   9  102.69    5.50
   2  -6   9  108.19    5.00
  -2  -6  -9  110.59    7.20
   2  -6   9  103.69    5.00
   2  -6   9  101.59    6.40
  -2  -6  -9   99.79    5.80
  -2  -6  -9   95.99    8.20
   2   6   9  117.89    5.40
  -2   6  -9  125.69    5.30
   2   6   9  111.29    9.00
  -2   6  -9  112.49    8.20
   2   6   9  113.79    5.60
  -2   6  -9  114.69    6.90
  -3  -6  -9    4.80    1.50
   3  -6   9    5.90    1.70
  -3  -6  -9    5.80    2.00
  -3  -6  -9    5.00    2.70
   3  -6   9    5.10    1.90
   3  -6   9    5.00    1.50
  -3  -6  -9    7.00    2.20
   3  -6   9    3.50    3.60
  -3   6  -9    1.60    1.30
   3   6   9    7.70    1.90
  -3   6  -9    3.30    2.40
  -3   6  -9    3.80    3.10
   3   6   9    5.40    1.50
   4  -6   9  121.79    5.80
   4  -6   9  105.89    6.30
  -4  -6  -9  125.99    5.20
   4  -6   9  118.79    5.40
   4  -6   9  114.69    5.70
  -4  -6  -9  120.29    6.40
  -4  -6  -9  123.99    5.70
  -4  -6  -9  122.39    5.90
   4   6   9  111.19    5.40
  -4   6  -9  121.79    7.00
   4   6   9  112.99    6.30
   5  -7  -9   22.40    2.50
   5  -7  -9   22.70    2.50
  -5  -7   9   27.70    2.00
  -5  -7   9   27.10    3.60
  -5  -7   9   21.30    3.30
  -5  -7   9   25.80    2.90
   5   7  -9   24.90    3.00
  -5   7   9   29.30    4.50
   5   7  -9   24.50    3.10
  -4  -7   9   45.90    4.70
   4  -7  -9   50.59    4.60
  -4  -7   9   39.20    4.60
   4  -7  -9   43.70    3.40
   4  -7  -9   45.10    3.10
  -4  -7   9   47.20    5.10
   4   7  -9   40.20    2.90
   4   7  -9   43.10    3.20
   4   7  -9   38.40    5.40
  -4   7   9   36.80    5.90
   4   7  -9   33.20    5.10
  -3  -7   9  317.77   14.70
   3  -7  -9  344.37   13.70
   3  -7  -9  325.67   14.30
  -3  -7   9  344.47   15.00
  -3  -7   9  330.67   13.40
  -3  -7   9  337.57   15.30
   3  -7  -9  353.66   14.10
  -3  -7   9  344.87   15.00
   3   7  -9  314.07   19.60
   3   7  -9  319.27   15.50
   3   7  -9  343.07   13.20
   3   7  -9  333.57   13.70
  -3   7   9  325.87   15.50
  -3   7   9  305.57   16.50
   3   7  -9  350.26   14.00
   3   7  -9  333.77   13.90
  -2  -7   9  353.86   15.40
   2  -7  -9  332.97   13.90
  -2  -7   9  348.57   15.80
   2  -7  -9  348.87   13.90
  -2  -7   9  343.07   14.90
  -2  -7   9  350.36   13.70
  -2  -7   9  352.26   15.30
   2   7  -9  311.97   12.50
   2   7  -9  315.87   14.30
   2   7  -9  304.47   13.00
   2   7  -9  295.17   18.00
  -2   7   9  316.37   14.80
  -2   7   9  326.77   15.20
   2   7  -9  312.97   12.60
   2   7  -9  305.47   13.20
   1  -7  -9  175.08   10.20
   1  -7  -9  170.98   11.00
  -1  -7   9  203.18   10.10
  -1  -7   9  199.58    7.80
  -1  -7   9  201.48   10.20
  -1  -7   9  192.78    8.90
   1   7  -9  209.48   10.40
  -1   7   9  229.88   13.40
   1   7  -9  207.98    9.00
   1   7  -9  201.88    8.70
   1   7  -9  200.58    8.60
   0  -7   9  208.58   10.60
   0  -7  -9  212.98   11.10
   0  -7  -9  212.28    8.70
   0  -7  -9  210.78   11.70
   0  -7   9  218.78    9.60
   0   7   9  202.38    8.50
   0   7   9  199.78    8.70
   0   7  -9  209.28    8.60
   0   7   9  197.28   11.50
  -1  -7  -9   94.29    6.10
  -1  -7  -9  106.99    8.00
   1  -7   9  100.09    5.00
  -1  -7  -9  102.19    7.20
  -1  -7  -9  102.29    4.70
   1  -7   9  107.59    5.90
  -1  -7  -9   99.69    6.00
   1  -7   9   95.59    4.80
   1   7   9  107.39    4.90
   1   7   9   95.39   10.30
   1   7   9  105.59    5.60
   1   7   9  105.19    5.10
  -2  -7  -9  228.98    9.40
  -2  -7  -9  224.58   12.70
   2  -7   9  237.18    9.80
  -2  -7  -9  229.18   11.20
   2  -7   9  219.18    9.70
  -2  -7  -9  229.58   10.30
  -2  -7  -9  228.28   10.10
  -2   7  -9  201.48   11.80
   2   7   9  200.88   13.50
   2   7   9  221.18    9.00
   2   7   9  221.68    9.50
   2   7   9  223.08    9.30
   3  -7   9  186.58   10.40
   3  -7   9  223.98    9.30
  -3  -7  -9  228.48    9.50
   3  -7   9  216.88    9.80
  -3  -7  -9  224.08    9.70
   3   7   9  214.18    9.20
   3   7   9  213.78    9.60
   3   7   9  217.78    9.00
  -3   7  -9  210.48   11.00
   4  -7   9   20.20    2.30
   4  -7   9   18.80    2.40
  -4  -7  -9   19.30    2.50
  -4  -7  -9   16.30    2.90
  -4  -7  -9   21.80    1.90
  -4  -7  -9   18.70    2.30
   4   7   9   16.00    2.70
   4   7   9   19.70    3.00
  -4   7  -9   20.70    4.10
  -4  -8   9   60.69    3.10
   4  -8  -9   61.39    3.80
  -4  -8   9   64.09    5.90
  -4  -8   9   64.99    4.70
  -4  -8   9   60.59    4.50
  -4  -8   9   61.99    4.90
   4  -8  -9   57.89    3.50
  -4   8   9   69.29    5.90
   4   8  -9   74.09    3.90
   4   8  -9   71.59    4.00
   4   8  -9   68.79    4.70
  -3  -8   9   71.49    3.60
   3  -8  -9   75.99    4.00
  -3  -8   9   73.59    6.10
  -3  -8   9   77.69    5.60
  -3  -8   9   72.99    5.70
   3  -8  -9   59.89    4.50
  -3  -8   9   78.59    5.40
   3   8  -9   71.49    4.00
   3   8  -9   75.49    6.00
   3   8  -9   71.79    4.60
   3   8  -9   70.09    3.90
  -3   8   9   71.09    6.30
  -3   8   9   77.99    9.30
  -2  -8   9   73.89    5.90
  -2  -8   9   80.19    4.00
  -2  -8   9   93.29    6.20
  -2  -8   9   84.69    7.20
  -2  -8   9   84.59    5.60
   2  -8  -9   88.19    4.20
   2   8  -9   91.99    8.20
  -2   8   9   90.99    7.80
   2   8  -9   99.59    5.10
   2   8  -9   88.29    6.50
   2   8  -9   99.69    4.70
  -2   8   9   82.09    7.10
   2   8  -9   99.49    4.70
  -1  -8   9  116.89    7.90
  -1  -8   9  130.19    6.60
  -1  -8   9  121.69    5.30
   1  -8  -9  127.29    8.10
  -1  -8   9  119.49    7.40
   1   8  -9   99.69    8.80
   1   8  -9  116.29    5.20
  -1   8   9  113.59    7.80
   1   8  -9  121.19    5.60
   0  -8   9  516.05   21.10
   0  -8  -9  492.85   22.30
   0  -8  -9  492.55   21.10
   0  -8   9  529.95   20.40
   0  -8  -9  503.95   19.50
   0  -8  -9  467.55   20.40
   0   8   9  488.85   19.50
   0   8   9  484.35   21.30
   0   8  -9  505.25   19.40
   0   8   9  502.75   19.50
  -1  -8  -9  207.08    9.80
   1  -8   9  213.88    8.90
   1  -8   9  216.78    9.70
  -1  -8  -9  220.48    8.80
  -1  -8  -9  224.08   10.90
  -1  -8  -9  194.88   12.30
  -1  -8  -9  223.48    9.90
   1   8   9  206.38    8.60
   1   8   9  205.08    9.60
   1   8   9  200.18    8.60
  -2  -8  -9   13.90    3.00
  -2  -8  -9   16.60    2.40
  -2  -8  -9   16.50    2.60
   2  -8   9   15.90    2.60
   2  -8   9   22.10    2.50
   2  -8   9   15.50    2.40
  -2  -8  -9   19.30    2.20
   2   8   9   20.60    2.40
   2   8   9   22.30    2.60
   2   8   9   17.30    2.80
   3  -8   9    9.20    2.50
   3  -8   9   11.70    1.60
  -3  -8  -9   14.30    2.70
  -3  -8  -9   13.00    1.40
  -3  -8  -9   13.80    2.20
  -3  -8  -9   12.30    2.00
   3  -8   9   10.60    1.60
   3   8   9   15.60    2.40
   3   8   9   13.10    1.80
   4  -9  -9   33.40    2.30
  -4  -9   9   33.30    3.30
  -4  -9   9   30.50    3.70
  -4  -9   9   33.50    3.20
  -4  -9   9   40.20    4.70
  -4  -9   9   36.20    2.10
   4   9  -9   32.10    2.50
   4   9  -9   26.70    2.90
  -4   9   9   27.80    4.10
   4   9  -9   26.40    2.80
  -3  -9   9   78.99    3.70
   3  -9  -9   82.89    3.80
  -3  -9   9   75.59    5.40
  -3  -9   9   75.79    5.50
  -3  -9   9   78.49    5.90
  -3  -9   9   77.79    5.20
   3   9  -9   61.99    3.40
   3   9  -9   66.79    4.00
  -3   9   9   59.59    5.80
   3   9  -9   60.69    3.60
  -2  -9   9  291.37   12.60
  -2  -9   9  235.68   13.70
  -2  -9   9  293.37   12.70
  -2  -9   9  289.57   11.20
  -2  -9   9  298.37   12.40
   2   9  -9  280.27   11.40
  -2   9   9  276.27   13.20
   2   9  -9  293.97   11.60
  -2   9   9  281.27   13.60
   2   9  -9  270.87   11.40
  -1  -9   9   85.19    6.60
  -1  -9   9   99.59    4.30
  -1  -9   9  101.69    5.60
   1  -9  -9   95.39    7.00
   1   9  -9   82.59    4.20
   1   9  -9   88.69    4.50
  -1   9   9   85.49    7.00
  -1   9   9   92.39    6.70
   0  -9  -9  173.68    9.20
   0  -9  -9  165.88    7.10
   0  -9   9  175.18    8.10
   0  -9   9  168.18    9.10
   0   9   9  163.28    7.00
   0   9   9  164.68    9.20
   1  -9   9  110.59    6.00
  -1  -9  -9  106.59    6.30
  -1  -9  -9  120.99    7.20
  -1  -9  -9  118.19    5.00
   1  -9   9  112.19    6.70
  -1  -9  -9  115.29    6.30
   1   9   9  112.59    5.30
   1   9   9  103.99    5.10
  -2  -9  -9  153.18    7.30
   2  -9   9  163.48    7.50
  -2  -9  -9  159.78    7.50
  -2  -9  -9  159.18    8.30
   2  -9   9  157.38    6.60
  -2  -9  -9  151.88    6.60
   2   9   9  140.89    6.20
   2   9   9  150.78   11.20
   2   9   9  134.89    6.50
  -3  -9  -9  107.89    5.10
  -3  -9  -9  101.19    5.60
  -3  -9  -9  103.29    5.00
  -3  -9  -9  105.29    4.50
   3  -9   9  106.09    4.60
   3   9   9  102.69    5.20
   3   9   9  119.19    5.40
  -3 -10   9   10.50    2.10
  -3 -10   9   12.40    2.90
  -3 -10   9   15.00    1.50
  -3 -10   9   12.70    2.60
  -3 -10   9   10.20    2.20
   3  10  -9   14.60    2.20
  -3  10   9   19.90    3.70
   3  10  -9   13.90    2.00
  -2 -10   9   23.60    4.10
  -2 -10   9   20.40    3.20
  -2 -10   9   24.00    2.00
  -2  10   9   10.90    2.70
  -2  10   9   19.20    3.90
   2  10  -9   17.00    2.40
   2  10  -9   14.60    2.10
   1 -10  -9  150.58    8.40
  -1 -10   9  143.59    7.00
  -1 -10   9  138.29    8.30
  -1  10   9  127.89   10.80
   1  10  -9  159.38    6.60
   0 -10   9   90.19    6.10
   0 -10  -9   83.19    9.70
   0 -10   9   95.09    5.30
   0  10   9   97.99    7.00
  -1 -10  -9  126.49    5.40
   1 -10   9  134.49    6.30
   1 -10   9  121.79    6.70
  -1 -10  -9  122.79    6.50
  -1 -10  -9  129.09    7.10
   1  10   9  115.39    5.20
   2 -10   9   26.30    3.20
  -2 -10  -9   21.50    3.00
   2 -10   9   19.20    3.10
  -2 -10  -9   24.10    3.40
  -2 -10  -9   22.40    1.80
  -2 -10  -9   23.20    3.00
   2  10   9   22.10    3.60
   2  10   9   21.70    2.30
  -2 -11   9   57.99    4.30
  -2 -11   9   43.90    3.30
   2  11  -9   46.50    2.60
  -2  11   9   46.90    4.20
   1 -11  -9   19.20    3.50
  -1 -11   9   19.10    2.70
  -1  11   9   20.10    3.30
  -1  11   9   15.10    3.00
   0 -11   9   31.00    3.00
   0 -11  -9   29.40    4.10
   0  11   9   28.60    3.90
   0  11   9   25.00    4.30
   1 -11   9   11.00    2.40
  -1 -11  -9   10.40    2.50
   1 -11   9    9.30    1.80
   2 -11   9   81.09    5.50
   2 -11   9   79.89    4.70
  -2 -11  -9   87.09    4.70
  -2 -11  -9   87.79    3.60
  -1 -12   9   44.80    2.90
   1 -12  -9   52.59    4.80
  -1  12   9   42.60    5.30
  -1  12   9   31.70    5.40
   0 -12   9   84.79    4.30
   0 -12  -9   85.69    5.70
   0  12   9   66.59    5.80
   0  12   9   70.39    5.10
  -6   0  10   12.70    5.00
  -6   0  10   11.50    2.80
   6   0 -10    7.20    3.80
   6   0 -10   10.50    2.40
   5   0 -10  258.87   11.50
   5   0 -10  276.67   11.30
  -5   0  10  282.07   13.20
   5   0 -10  290.07   12.40
  -5   0  10  267.87   13.90
  -3   0  10   79.29    7.60
   3   0 -10   78.09    3.80
   3   0 -10   77.69    4.50
   3   0 -10   76.39    5.60
  -3   0  10   63.99    7.70
  -3   0  10   74.99    9.70
   3   0 -10   74.79    4.20
   3   0 -10   74.89    7.80
   2   0 -10   22.30    2.60
   2   0 -10   29.10    3.20
   2   0 -10   30.20    2.20
   2   0 -10   36.70    5.60
   2   0 -10   22.60    2.80
  -2   0  10   30.20    5.10
   2   0 -10   40.20    6.10
   2   0 -10   30.10    9.50
   1   0 -10  439.16   19.20
   1   0 -10  421.66   19.00
   1   0 -10  417.66   17.40
   1   0 -10  445.16   17.80
   1   0 -10  461.15   22.30
   1   0 -10  433.26   17.00
   1   0 -10  446.26   17.10
   0   0 -10  317.37   14.90
   0   0  10  329.27   12.80
   0   0  10  332.37   12.70
   0   0  10  314.27   17.30
   0   0  10  317.87   14.20
   0   0  10  324.77   12.70
   0   0  10  290.77   16.50
   0   0 -10  337.67   13.50
   1   0  10  701.73   26.70
   1   0  10  684.93   27.90
  -1   0 -10  719.73   27.70
   1   0  10  683.63   26.70
   1   0  10  652.83   31.00
  -1   0 -10  699.03   27.20
  -1   0 -10  667.63   26.60
  -1   0 -10  680.63   28.20
   1   0  10  708.63   26.80
  -2   0 -10   64.49    4.90
   2   0  10   75.39    3.90
  -2   0 -10   62.49    6.50
   2   0  10   71.99    3.60
   2   0  10   74.09    3.90
  -2   0 -10   75.79    4.20
  -2   0 -10   73.99    7.30
  -2   0 -10   73.99    6.20
   2   0  10   77.89    6.10
   3   0  10   67.99    7.60
  -3   0 -10   58.99    4.00
  -3   0 -10   66.89    5.70
  -3   0 -10   63.69    7.60
  -3   0 -10   63.99    4.60
   3   0  10   65.79    4.00
   3   0  10   65.29    3.60
   3   0  10   55.09    4.00
   4   0  10  192.18    8.30
   4   0  10  178.08    7.70
  -4   0 -10  186.68   10.50
  -4   0 -10  178.68    9.00
  -4   0 -10  185.28    8.20
   4   0  10  174.58    8.10
   5   0  10  142.99    6.90
  -5   0 -10  176.48    8.20
  -5   0 -10  151.58    7.10
  -5   0 -10  155.48    6.40
  -6  -1  10   12.90    7.40
   6  -1 -10    3.90    2.20
   6  -1 -10   -1.50    3.50
  -6  -1  10    3.40    2.70
  -6   1  10    0.30    2.70
   6   1 -10    4.50    2.50
  -5  -1  10    3.40    3.30
   5  -1 -10   -2.00    2.20
   5  -1 -10    1.40    1.80
  -5  -1  10   -0.40    3.60
   5  -1 -10   -1.20    2.90
  -5   1  10    5.00    4.40
  -5   1  10    2.80    3.50
   5   1 -10   -1.20    1.90
   5   1 -10   -2.00    2.60
   5   1 -10    3.90    2.90
  -4  -1  10  239.88   13.60
   4  -1 -10  225.08   10.00
  -4  -1  10  209.78   11.70
   4  -1 -10  222.08   14.20
   4  -1 -10  215.88    9.20
  -4  -1  10  226.88   12.40
   4  -1 -10  217.78    9.40
   4   1 -10  214.78    9.30
  -4   1  10  208.68   11.30
   4   1 -10  209.08   13.40
   4   1 -10  183.98   11.00
  -4   1  10  205.98    9.90
  -4   1  10  199.38   12.30
   4   1 -10  210.88    8.70
   4   1 -10  206.38    9.10
  -3  -1  10  499.95   21.70
   3  -1 -10  492.95   19.40
  -3  -1  10  520.65   21.50
   3  -1 -10  501.45   19.30
   3  -1 -10  494.45   19.80
   3  -1 -10  451.35   20.40
   3  -1 -10  484.05   21.90
  -3  -1  10  507.65   21.40
   3   1 -10  427.16   17.20
  -3   1  10  449.46   19.40
   3   1 -10  432.46   19.60
   3   1 -10  431.16   17.00
   3   1 -10  416.86   18.20
   3   1 -10  436.56   17.50
  -3   1  10  435.66   19.70
  -2  -1  10 1193.78   48.70
   2  -1 -10 1247.68   47.80
   2  -1 -10 1100.19   48.80
   2  -1 -10 1284.67   47.00
   2  -1 -10 1238.78   48.80
   2  -1 -10 1295.07   47.00
   2  -1 -10 1281.77   47.30
  -2  -1  10 1149.78   48.10
   2   1 -10 1224.48   46.00
   2   1 -10 1231.58   46.90
   2   1 -10 1093.49   52.59
  -2   1  10 1209.38   47.80
   2   1 -10 1091.29   48.10
   2   1 -10 1232.98   46.30
   2   1 -10 1251.47   46.00
   2   1 -10 1242.98   47.90
   1  -1 -10  213.78    9.20
   1  -1 -10  209.48    8.40
   1  -1 -10  191.08    8.80
   1  -1 -10  209.88   11.50
   1  -1 -10  211.38   14.20
   1  -1 -10  203.68    8.30
   1  -1 -10  205.98   10.80
   1   1 -10  199.78   13.90
  -1   1  10  180.28    8.40
   1   1 -10  200.48    8.00
   1   1 -10  191.88   10.40
   1   1 -10  200.98    8.00
   1   1 -10  193.08   10.80
   1   1 -10  199.28    8.50
   1   1 -10  207.68    8.80
   0  -1 -10  474.75   18.50
   0  -1  10  462.65   17.70
   0  -1  10  470.75   22.80
   0  -1  10  454.85   17.80
   0  -1  10  459.55   19.20
   0  -1 -10  442.26   20.80
   0  -1  10  393.06   21.40
   0  -1  10  466.35   17.70
   0  -1 -10  450.15   20.00
   0   1  10  466.05   17.70
   0   1  10  462.45   19.10
   0   1  10  434.86   20.20
   0   1 -10  445.86   19.80
   0   1  10  471.15   17.80
   0   1 -10  460.35   18.50
   0   1  10  452.35   17.90
   0   1  10  440.26   22.50
   1  -1  10  706.73   27.10
   1  -1  10  704.63   27.20
   1  -1  10  710.23   27.20
  -1  -1 -10  694.63   27.70
  -1  -1 -10  682.13   27.10
  -1  -1 -10  734.93   28.20
  -1  -1 -10  681.03   27.80
   1  -1  10  673.03   28.30
  -1  -1 -10  715.63   28.70
   1   1  10  687.23   26.60
  -1   1 -10  695.13   27.10
   1   1  10  692.23   27.80
  -1   1 -10  686.43   28.20
  -1   1 -10  675.83   26.50
   1   1  10  708.43   26.70
  -1   1 -10  707.93   27.50
   1   1  10  620.14   30.80
   1   1  10  702.93   26.60
   2  -1  10 1083.09   44.10
   2  -1  10 1099.29   42.80
  -2  -1 -10 1101.69   43.90
   2  -1  10 1124.09   42.70
  -2  -1 -10 1111.09   44.40
  -2  -1 -10 1073.19   42.70
  -2  -1 -10 1112.99   43.30
  -2  -1 -10 1173.18   43.20
   2  -1  10 1063.29   42.80
  -2  -1 -10 1162.28   44.90
  -2   1 -10 1103.09   43.20
   2   1  10 1129.79   43.30
  -2   1 -10 1153.88   43.80
  -2   1 -10 1129.79   44.50
  -2   1 -10 1181.58   45.40
   2   1  10 1133.19   43.40
   2   1  10 1070.59   43.40
   2   1  10 1108.59   44.60
  -2   1 -10 1120.59   44.80
  -3  -1 -10  976.00   40.20
  -3  -1 -10  965.70   37.60
   3  -1  10  991.30   37.70
  -3  -1 -10 1048.10   39.10
   3  -1  10  952.10   37.80
  -3  -1 -10  839.02   40.60
  -3  -1 -10  960.20   38.30
   3  -1  10 1010.90   37.90
  -3  -1 -10 1017.00   38.20
   3  -1  10 1004.80   39.70
  -3   1 -10 1041.30   40.00
  -3   1 -10 1020.20   40.70
   3   1  10 1034.70   39.50
   3   1  10 1035.60   39.70
   3   1  10  973.40   39.70
  -3   1 -10 1073.19   42.10
  -3   1 -10  976.20   39.40
   3   1  10 1049.89   41.30
  -4  -1 -10   52.49    4.00
  -4  -1 -10   66.49    3.90
   4  -1  10   60.09    3.50
   4  -1  10   49.99    3.70
  -4  -1 -10   49.50    5.00
  -4  -1 -10   50.29    6.90
   4  -1  10   53.29    4.50
   4   1  10   64.19    3.70
  -4   1 -10   56.49    4.80
  -4   1 -10   66.89    6.60
   4   1  10   67.39    4.50
  -4   1 -10   61.99    4.20
   4   1  10   61.29    4.40
   5  -1  10   17.10    2.90
  -5  -1 -10   10.90    1.60
  -5  -1 -10   10.40    3.30
  -5  -1 -10   11.30    1.80
  -5  -1 -10   13.20    2.40
   5   1  10   11.20    2.20
  -5   1 -10    9.40    2.00
  -5   1 -10   12.80    1.30
  -5   1 -10   12.20    2.60
  -6  -2  10   78.29    7.20
   6  -2 -10   79.19    5.40
  -6  -2  10   78.79    4.70
   6  -2 -10   88.19    4.50
   6   2 -10   79.79    4.90
  -6   2  10   80.89    5.20
  -5  -2  10  116.19    7.40
   5  -2 -10  129.29    6.00
  -5  -2  10  120.69    8.10
   5  -2 -10  121.89    7.50
   5  -2 -10  113.79    5.60
   5   2 -10  128.29    7.40
   5   2 -10  134.79    6.60
  -5   2  10  126.79    8.30
   5   2 -10  131.19    6.10
   4  -2 -10  532.95   20.40
  -4  -2  10  509.65   22.20
  -4  -2  10  497.55   22.20
   4  -2 -10  514.55   24.70
  -4  -2  10  507.05   22.60
   4  -2 -10  531.15   20.50
   4  -2 -10  535.95   21.00
   4   2 -10  504.15   20.20
   4   2 -10  520.85   20.10
   4   2 -10  530.45   20.60
  -4   2  10  485.75   23.00
  -4   2  10  507.05   22.30
   4   2 -10  485.45   21.90
   4   2 -10  508.35   23.60
  -4   2  10  528.85   21.10
   3  -2 -10    6.40    3.10
  -3  -2  10    9.80    4.00
   3  -2 -10    7.60    1.50
   3  -2 -10    5.10    3.00
   3  -2 -10   14.80    5.30
  -3  -2  10   17.10    4.10
  -3  -2  10   11.40    4.20
   3  -2 -10    8.80    2.10
   3  -2 -10    9.40    1.50
   3   2 -10   15.20    4.50
  -3   2  10   16.80    4.50
   3   2 -10   17.40    2.90
  -3   2  10   14.00    2.60
   3   2 -10   16.10    3.20
   3   2 -10   13.80    2.10
  -3   2  10   18.70    4.90
   3   2 -10   10.50    2.00
  -2  -2  10  123.59    8.00
   2  -2 -10  143.79    5.90
  -2  -2  10  135.09    9.00
   2  -2 -10  133.89    9.30
   2  -2 -10  134.39    6.90
   2  -2 -10  119.89    6.90
   2  -2 -10  134.79    6.30
   2  -2 -10  136.39    5.80
  -2   2  10  135.89    9.10
   2   2 -10  135.99    6.90
  -2   2  10  133.49   10.10
   2   2 -10  140.89    6.40
   2   2 -10  142.29    5.90
   2   2 -10  127.49    8.70
   1  -2 -10  549.85   24.00
   1  -2 -10  551.34   26.80
   1  -2 -10  582.74   21.80
   1  -2 -10  565.34   22.70
   1   2 -10  620.74   24.70
   1   2 -10  671.33   24.40
  -1   2  10  625.34   24.40
   1   2 -10  648.14   25.30
   1   2 -10  625.14   29.70
   1   2 -10  621.14   26.50
   1   2 -10  578.34   26.50
   1   2 -10  654.93   24.40
   0  -2  10 1310.77   49.20
   0  -2 -10 1320.47   50.09
   0  -2  10 1253.47   49.30
   0  -2  10 1286.27   49.20
   0  -2 -10 1263.07   52.89
   0  -2 -10 1270.27   51.49
   0   2 -10 1216.48   52.29
   0   2 -10 1336.67   51.19
   0   2  10 1226.58   54.79
   0   2  10 1348.86   53.19
   0   2  10 1371.86   50.69
   0   2  10 1361.26   50.49
   0   2  10 1365.96   50.49
   1  -2  10  343.37   13.50
  -1  -2 -10  314.17   15.20
  -1  -2 -10  341.97   14.10
   1  -2  10  331.27   14.20
   1  -2  10  355.36   13.40
  -1  -2 -10  346.67   14.60
   1  -2  10  324.67   14.90
  -1  -2 -10  344.57   14.10
  -1  -2 -10  326.47   13.40
   1  -2  10  347.07   13.40
  -1  -2 -10  313.77   15.40
  -1   2 -10  321.77   13.50
  -1   2 -10  344.17   14.20
   1   2  10  343.87   13.70
   1   2  10  358.56   13.60
   1   2  10  354.96   15.10
  -1   2 -10  325.57   15.70
  -1   2 -10  346.17   14.50
   2  -2  10  169.08    6.90
   2  -2  10  165.08    7.20
  -2  -2 -10  158.78    9.10
   2  -2  10  158.88    7.10
  -2  -2 -10  158.78    7.30
  -2  -2 -10  159.48    9.30
  -2  -2 -10  172.28   10.20
  -2  -2 -10  161.68    8.00
  -2  -2 -10  171.38    7.80
   2  -2  10  161.28    9.70
   2  -2  10  158.78    8.90
  -2   2 -10  180.78   10.10
  -2   2 -10  179.68    8.10
   2   2  10  159.38    7.40
   2   2  10  178.18    7.30
   2   2  10  163.88    9.30
  -2   2 -10  165.68    7.20
  -2   2 -10  172.28    9.20
   2   2  10  165.98    7.20
  -3  -2 -10   46.50    7.40
   3  -2  10   51.39    8.30
  -3  -2 -10   48.90    4.10
   3  -2  10   48.00    3.00
   3  -2  10   48.50    3.40
   3  -2  10   44.50    3.60
  -3  -2 -10   50.99    3.80
  -3  -2 -10   47.20    4.60
  -3  -2 -10   40.20    7.30
  -3  -2 -10   52.79    5.50
  -3   2 -10   57.59    6.80
   3   2  10   57.29    7.40
   3   2  10   54.19    3.20
  -3   2 -10   63.09    5.50
  -3   2 -10   51.39    3.30
  -3   2 -10   58.59    4.40
   3   2  10   52.89    3.60
   3   2  10   49.00    4.10
  -4  -2 -10  235.18   11.00
   4  -2  10  226.88    9.90
  -4  -2 -10  233.08   13.20
   4  -2  10  239.58   10.30
  -4  -2 -10  233.18    9.70
   4  -2  10  244.58    9.80
  -4  -2 -10  238.98   10.20
  -4   2 -10  232.18   10.60
   4   2  10  230.88   10.00
  -4   2 -10  238.78   12.00
   4   2  10  230.28    9.60
   4   2  10  224.88   10.00
   5  -2  10   73.99    4.10
  -5  -2 -10   80.39    3.60
   5  -2  10   78.19    5.50
  -5  -2 -10   69.59    3.70
  -5  -2 -10   72.29    4.20
  -5   2 -10   79.49    4.40
  -5   2 -10   90.49    5.60
  -5   2 -10   85.59    3.70
  -6  -3  10   31.90    5.30
   6  -3 -10   31.70    3.70
  -6  -3  10   28.80    3.20
   6  -3 -10   31.80    3.00
  -6   3  10   33.60    4.10
   5  -3 -10   46.20    3.50
  -5  -3  10   48.90    8.00
   5  -3 -10   41.80    6.40
   5  -3 -10   40.50    4.90
  -5  -3  10   49.70    7.60
   5  -3 -10   42.00    3.20
  -5  -3  10   46.10    5.00
  -5   3  10   46.40    5.10
   5   3 -10   53.39    5.50
   5   3 -10   55.79    4.40
  -5   3  10   41.00    6.00
   5   3 -10   48.20    3.50
   4  -3 -10   30.60    4.60
   4  -3 -10   34.40    5.10
  -4  -3  10   26.20    5.40
   4  -3 -10   36.40    3.00
  -4  -3  10   38.40    5.10
  -4  -3  10   34.30    5.80
   4  -3 -10   22.90    2.60
   4  -3 -10   26.60    8.90
   4   3 -10   32.90    3.80
   4   3 -10   43.20    7.20
  -4   3  10   47.30    4.40
   4   3 -10   39.90    3.10
   4   3 -10   42.80    4.40
  -4   3  10   35.50    6.20
   4   3 -10   44.80    7.50
  -4   3  10   36.50    6.40
  -3  -3  10  437.66   19.00
   3  -3 -10  448.86   17.40
   3  -3 -10  433.66   21.10
  -3  -3  10  430.16   19.50
  -3  -3  10  473.65   19.40
   3  -3 -10  434.96   17.90
   3  -3 -10  430.66   18.00
   3  -3 -10  450.65   17.50
   3   3 -10  444.76   18.80
  -3   3  10  427.26   18.40
   3   3 -10  450.25   17.40
   3   3 -10  461.05   20.30
   3   3 -10  412.36   17.40
  -3   3  10  427.06   20.20
  -3   3  10  456.25   19.70
   3   3 -10  442.46   17.80
   2  -3 -10  306.47   13.00
  -2  -3  10  302.47   14.00
   2  -3 -10  322.57   12.60
   2  -3 -10  315.47   16.00
   2  -3 -10  328.67   12.60
  -2  -3  10  313.97   15.00
   2  -3 -10  310.97   13.00
   2  -3 -10  320.57   13.60
  -2  -3  10  308.77   16.00
  -2   3  10  318.27   15.50
   2   3 -10  327.37   13.80
   2   3 -10  330.47   12.70
   2   3 -10  319.67   15.30
  -2   3  10  323.37   15.00
   2   3 -10  305.67   13.60
   2   3 -10  300.57   13.90
   2   3 -10  318.37   12.70
   1  -3 -10  347.37   13.20
   1  -3 -10  348.27   13.50
   1  -3 -10  306.17   19.50
   1  -3 -10  305.97   16.30
  -1  -3  10  320.37   14.50
   1  -3 -10  373.06   14.30
  -1   3  10  342.07   13.50
   1   3 -10  333.37   13.90
  -1   3  10  350.06   15.50
   1   3 -10  322.67   13.90
   1   3 -10  341.07   13.50
   1   3 -10  358.36   14.50
   1   3 -10  343.37   13.50
   0  -3 -10  379.86   16.20
   0  -3  10  399.66   15.40
   0  -3 -10  392.66   15.30
   0  -3 -10  388.76   21.00
   0  -3  10  403.26   15.40
   0  -3 -10  395.76   16.90
   0  -3 -10  406.76   16.50
   0  -3  10  384.96   15.70
   0  -3  10  364.96   16.70
   0   3 -10  422.96   16.70
   0   3  10  406.96   16.20
   0   3  10  412.76   16.00
   0   3  10  417.36   15.90
   0   3  10  400.26   20.10
   0   3 -10  393.66   16.10
   0   3  10  387.46   17.70
   1  -3  10  245.08   10.90
  -1  -3 -10  245.98   10.20
   1  -3  10  245.38   12.10
   1  -3  10  257.17   10.50
   1  -3  10  254.87   10.20
  -1  -3 -10  249.08   11.10
  -1  -3 -10  258.87   12.50
   1  -3  10  244.98   12.40
   1  -3  10  260.77   10.20
  -1  -3 -10  240.78   12.30
  -1  -3 -10  265.67   11.80
  -1  -3 -10  255.37   11.20
   1   3  10  247.38    9.90
   1   3  10  243.28   11.60
  -1   3 -10  250.07   10.80
  -1   3 -10  218.98   12.10
  -1   3 -10  227.58   12.30
  -1   3 -10  232.88    9.70
   1   3  10  245.78    9.90
   1   3  10  255.77    9.80
  -2  -3 -10  629.14   26.20
   2  -3  10  638.64   24.20
   2  -3  10  612.34   24.80
  -2  -3 -10  618.74   26.50
  -2  -3 -10  623.24   25.70
   2  -3  10  638.94   26.40
  -2  -3 -10  608.24   24.10
  -2  -3 -10  552.64   24.90
   2  -3  10  631.04   24.50
  -2  -3 -10  636.74   25.40
   2  -3  10  634.94   24.30
  -2   3 -10  610.74   26.60
   2   3  10  628.24   26.10
   2   3  10  617.24   24.50
  -2   3 -10  683.23   25.70
   2   3  10  606.94   24.50
  -2   3 -10  644.64   25.70
  -2   3 -10  604.84   24.30
   2   3  10  615.54   24.40
   3  -3  10  295.37   13.60
   3  -3  10  323.07   13.10
  -3  -3 -10  312.07   13.40
  -3  -3 -10  297.47   12.70
  -3  -3 -10  326.37   13.30
   3  -3  10  324.57   12.80
  -3  -3 -10  298.87   15.60
   3  -3  10  297.97   16.60
   3  -3  10  327.77   12.70
  -3  -3 -10  328.57   14.30
  -3  -3 -10  311.77   16.90
  -3   3 -10  338.17   14.50
   3   3  10  309.67   15.60
  -3   3 -10  317.07   12.90
   3   3  10  323.57   13.40
   3   3  10  340.17   13.30
  -3   3 -10  316.27   15.50
   3   3  10  329.47   13.10
   4  -3  10   67.09    5.40
  -4  -3 -10   62.79    7.20
   4  -3  10   68.79    3.90
   4  -3  10   69.59    5.10
  -4  -3 -10   65.19    3.80
  -4  -3 -10   67.99    4.60
  -4  -3 -10   57.19    7.20
  -4  -3 -10   78.19    6.70
   4  -3  10   62.69    3.70
  -4   3 -10   63.19    3.30
   4   3  10   67.89    4.50
   4   3  10   63.79    4.50
  -4   3 -10   49.40    9.30
  -4   3 -10   46.70    7.20
   5  -3  10    3.40    1.60
  -5  -4  10  156.28    8.30
   5  -4 -10  151.98    7.40
   5  -4 -10  166.98    9.90
  -5  -4  10  160.38    8.90
   5  -4 -10  140.79    6.90
  -5  -4  10  161.88    8.70
   5  -4 -10  158.58    6.90
   5   4 -10  151.78    8.40
   5   4 -10  145.69    7.10
   5   4 -10  156.68    6.80
  -5   4  10  161.78    9.20
   4  -4 -10   80.49    5.60
   4  -4 -10   84.99    4.50
   4  -4 -10   92.69    6.60
  -4  -4  10   91.09    7.10
  -4  -4  10   85.79    6.50
   4  -4 -10   96.49    4.80
  -4  -4  10   93.79    7.30
   4   4 -10   84.69    4.40
   4   4 -10   88.79   12.30
   4   4 -10   76.39    8.20
   4   4 -10   97.09    5.70
  -4   4  10   81.89    5.50
  -4   4  10   87.59    7.60
  -4   4  10   84.59    9.70
   3  -4 -10   22.50    2.50
  -3  -4  10   34.10    5.50
   3  -4 -10   26.60    7.80
   3  -4 -10   25.90    3.90
  -3  -4  10   27.40    4.40
   3  -4 -10   20.90    3.00
  -3  -4  10   36.60    5.40
  -3   4  10   30.60    5.60
   3   4 -10   22.50    5.50
   3   4 -10   25.60    2.80
  -3   4  10   26.80    4.90
   3   4 -10   22.80    2.80
   3   4 -10   33.50    5.70
  -3   4  10   24.70    3.90
   3   4 -10   18.80    3.30
  -2  -4  10  120.79    8.20
   2  -4 -10  108.29    6.60
   2  -4 -10  118.99    5.40
   2  -4 -10  112.09    6.80
   2  -4 -10  123.49    5.40
  -2  -4  10  127.79    9.10
  -2  -4  10  116.49    7.40
   2  -4 -10  127.59    6.00
   2   4 -10  104.99    6.80
   2   4 -10  112.79    6.60
   2   4 -10  117.39    9.20
  -2   4  10  124.79    8.30
   2   4 -10  118.39    5.20
  -2   4  10  128.69    9.00
   2   4 -10  113.49    5.30
   2   4 -10  115.59    5.80
   1  -4 -10  540.25   20.70
  -1  -4  10  509.15   21.40
   1  -4 -10  520.55   20.50
   1  -4 -10  551.74   21.70
  -1  -4  10  519.25   21.80
  -1   4  10  545.25   22.70
   1   4 -10  550.64   21.90
  -1   4  10  493.05   24.70
   1   4 -10  562.34   20.90
   1   4 -10  525.75   21.30
   1   4 -10  541.15   20.80
  -1   4  10  545.85   20.80
   1   4 -10  518.15   21.20
   0  -4  10  556.74   21.90
   0  -4 -10  585.84   23.10
   0  -4 -10  568.14   21.60
   0  -4 -10  540.25   22.40
   0  -4  10  576.54   21.70
   0  -4  10  537.65   22.80
   0  -4 -10  538.95   23.10
   0   4 -10  574.34   23.30
   0   4  10  608.74   25.40
   0   4 -10  624.44   24.20
   0   4 -10  605.94   23.40
   0   4  10  630.84   23.40
   0   4 -10  564.14   26.30
   0   4  10  547.75   33.80
   0   4  10  627.14   23.30
   1  -4  10  940.01   34.60
   1  -4  10  891.61   34.90
  -1  -4 -10  911.61   36.20
  -1  -4 -10  912.61   36.30
  -1  -4 -10  903.61   34.50
  -1  -4 -10  873.61   35.90
   1  -4  10  832.62   35.60
  -1  -4 -10  918.21   35.30
   1  -4  10  901.81   34.60
  -1  -4 -10  877.91   35.10
  -1   4 -10  878.31   34.90
   1   4  10  871.91   33.90
   1   4  10  884.81   33.70
   1   4  10  880.61   35.50
  -1   4 -10  833.22   35.50
  -1   4 -10  887.61   33.60
   1   4  10  882.11   33.90
  -2  -4 -10  107.99   10.80
   2  -4  10  112.69    5.20
   2  -4  10  112.69    6.00
  -2  -4 -10  102.69    5.20
  -2  -4 -10  112.69    7.30
  -2  -4 -10  106.69    6.10
  -2  -4 -10  105.69    6.10
   2  -4  10  103.89    9.80
   2  -4  10  113.69    5.10
   2  -4  10  108.79    5.70
  -2   4 -10  110.79    7.00
   2   4  10  108.69    5.40
   2   4  10  107.59    5.20
  -2   4 -10  103.39    8.00
   2   4  10  110.29    5.00
  -2   4 -10  108.59    4.90
  -3  -4 -10   63.59    4.40
  -3  -4 -10   56.29    3.70
   3  -4  10   60.59    5.20
   3  -4  10   65.19    4.70
   3  -4  10   66.59    5.00
  -3  -4 -10   58.29    8.40
  -3  -4 -10   56.89    9.70
   3  -4  10   48.10    8.00
  -3  -4 -10   65.49    5.50
  -3  -4 -10   64.09    4.80
   3  -4  10   66.49    3.60
   3   4  10   55.59    4.10
  -3   4 -10   54.19    3.10
  -3   4 -10   56.89    6.20
  -3   4 -10   62.89    5.10
   3   4  10   56.59    3.30
   3   4  10   50.69    4.40
  -4  -4 -10  248.08   10.40
  -4  -4 -10  271.57   11.00
   4  -4  10  242.38   11.00
  -4  -4 -10  253.47   11.50
  -4  -4 -10  272.77   10.90
   4  -4  10  259.67   10.60
  -4   4 -10  286.17   11.10
   4   4  10  276.47   12.70
   4   4  10  259.47   11.60
  -4   4 -10  301.07   13.10
   4   4  10  275.57   11.30
  -4   4 -10  277.17   12.10
   5  -5 -10   13.50    2.40
   5  -5 -10    7.10    1.70
   5  -5 -10   10.60    2.00
  -5  -5  10    6.60    2.70
  -5  -5  10    9.10    2.70
  -5  -5  10    9.20    3.40
  -5   5  10   12.40    3.50
   5   5 -10    8.00    2.10
   5   5 -10   11.90    2.00
  -4  -5  10   36.10    5.00
  -4  -5  10   28.70    5.00
   4  -5 -10   31.40    3.60
  -4  -5  10   37.10    5.50
   4  -5 -10   23.80    3.00
   4  -5 -10   39.40    7.00
   4  -5 -10   34.80    2.90
   4   5 -10   36.60    3.50
   4   5 -10   43.30    8.50
   4   5 -10   39.50    2.90
  -4   5  10   39.00    4.00
   4   5 -10   31.60    4.60
   4   5 -10   18.10    9.70
  -4   5  10   33.00    5.90
  -3  -5  10  312.07   13.90
   3  -5 -10  305.77   12.60
  -3  -5  10  291.57   14.40
   3  -5 -10  313.27   12.30
   3  -5 -10  307.37   13.50
  -3  -5  10  284.07   13.80
   3  -5 -10  312.47   12.30
   3   5 -10  322.87   12.80
   3   5 -10  308.37   13.20
  -3   5  10  321.67   15.20
   3   5 -10  313.27   13.70
  -3   5  10  299.07   16.10
   3   5 -10  300.87   17.10
   3   5 -10  339.27   12.70
   3   5 -10  304.47   14.60
   2  -5 -10  424.56   16.30
   2  -5 -10  378.46   17.50
  -2  -5  10  409.26   17.40
   2  -5 -10  407.26   16.10
   2  -5 -10  413.36   16.00
  -2  -5  10  408.36   17.60
  -2  -5  10  398.36   17.40
  -2  -5  10  408.06   18.20
   2   5 -10  398.86   19.70
   2   5 -10  420.06   16.40
   2   5 -10  421.96   16.50
   2   5 -10  408.66   16.90
  -2   5  10  431.86   18.60
  -2   5  10  409.36   18.70
   2   5 -10  418.06   17.70
   2   5 -10  416.06   16.90
  -1  -5  10  131.99    7.80
   1  -5 -10  123.59    5.90
  -1  -5  10  138.09    7.10
   1  -5 -10  130.79    7.50
  -1  -5  10  130.69    5.60
  -1   5  10  113.79    9.10
  -1   5  10  113.29    5.60
   1   5 -10  113.39    5.70
   1   5 -10  110.29    6.50
   1   5 -10  114.69    5.20
   1   5 -10  112.59    5.10
   1   5 -10  124.99    6.60
  -1   5  10  119.59    7.90
   0  -5  10  363.06   14.70
   0  -5 -10  360.06   16.30
   0  -5 -10  360.16   15.50
   0  -5  10  364.86   16.20
   0  -5 -10  365.26   16.80
   0  -5 -10  383.76   14.50
   0  -5 -10  384.96   16.20
   0   5 -10  367.06   14.70
   0   5  10  379.56   14.70
   0   5  10  366.06   14.60
   0   5 -10  364.96   15.60
  -1  -5 -10  116.29    8.90
   1  -5  10  129.59    5.60
  -1  -5 -10  115.19    6.70
  -1  -5 -10  126.99    8.10
  -1  -5 -10  121.89    5.50
   1  -5  10  123.39    6.00
  -1  -5 -10  128.69    7.90
  -1  -5 -10  130.59    6.70
   1  -5  10  122.39    5.60
   1   5  10  112.39    5.40
   1   5  10  114.49    5.00
  -1   5 -10  109.99    4.90
   1   5  10  105.89    8.20
   1   5  10  110.29    5.10
  -1   5 -10   88.19    8.90
  -1   5 -10  104.99    7.30
   2  -5  10  167.98   14.00
   2  -5  10  179.28    8.40
   2  -5  10  184.68    7.70
  -2  -5 -10  170.98    8.40
  -2  -5 -10  187.28   10.90
  -2  -5 -10  175.28    7.60
  -2  -5 -10  184.58    8.60
  -2  -5 -10  180.48    9.50
   2  -5  10  179.68    8.20
   2   5  10  194.78    8.50
  -2   5 -10  201.88    9.80
  -2   5 -10  198.28    8.10
   2   5  10  198.68    8.60
  -2   5 -10  196.28   10.80
   2   5  10  195.08   11.30
   2   5  10  195.58    8.30
   3  -5  10  276.17   11.30
  -3  -5 -10  288.77   12.00
  -3  -5 -10  275.87   11.10
  -3  -5 -10  266.67   12.60
  -3  -5 -10  278.47   11.70
   3  -5  10  274.87   11.20
   3  -5  10  273.77   11.70
   3  -5  10  259.27   12.00
   3   5  10  302.77   12.50
   3   5  10  328.97   13.00
  -3   5 -10  304.17   13.60
  -3   5 -10  312.07   12.30
   3   5  10  306.17   12.80
   4  -5  10    8.90    1.90
  -4  -5 -10   10.90    2.10
   4  -5  10    8.10    2.00
   4  -5  10   11.10    1.60
  -4  -5 -10    9.10    2.40
  -4  -5 -10    8.90    1.80
   4  -5  10    7.80    2.20
  -4  -5 -10    7.60    1.30
  -4   5 -10   11.70    1.30
  -4   5 -10    6.70    2.00
   4   5  10   10.10    1.80
  -4   5 -10    9.80    2.80
   5  -6 -10   63.49    3.50
  -5  -6  10   69.49    5.00
   5  -6 -10   57.89    3.70
  -5  -6  10   67.09    4.60
  -5  -6  10   61.39    4.20
  -5  -6  10   61.89    3.10
   5   6 -10   61.79    3.70
   5   6 -10   65.89    3.90
  -5   6  10   60.79    5.40
   4  -6 -10  156.88    7.10
  -4  -6  10  156.28    8.30
   4  -6 -10  154.68    6.80
  -4  -6  10  152.58    8.60
  -4  -6  10  162.38    8.30
   4  -6 -10  152.78    7.10
  -4   6  10  115.69   14.80
   4   6 -10  163.78    6.80
   4   6 -10  155.88    8.20
   4   6 -10  158.68    8.40
  -4   6  10  153.48    9.20
   4   6 -10  156.78    6.90
  -3  -6  10   28.40    4.80
  -3  -6  10   18.90    3.40
   3  -6 -10   19.20    2.60
   3  -6 -10   23.40    3.00
  -3  -6  10   14.70    3.60
  -3  -6  10   17.60    4.00
   3  -6 -10   21.50    2.70
   3   6 -10   26.60    4.30
   3   6 -10   27.70    2.40
   3   6 -10   23.70    2.70
   3   6 -10   21.70    4.80
   3   6 -10   24.60    3.90
   3   6 -10   34.60    8.40
  -3   6  10   15.30    4.90
  -3   6  10   23.10    4.50
  -2  -6  10  104.89    4.70
  -2  -6  10  118.69    7.40
  -2  -6  10  113.89    8.30
  -2  -6  10  101.79    6.60
   2  -6 -10   94.89    5.00
  -2  -6  10  109.29    6.70
   2  -6 -10   99.69    5.20
  -2   6  10  104.19    7.60
   2   6 -10   92.29    5.20
   2   6 -10   89.99    5.50
   2   6 -10   97.79    7.00
   2   6 -10   94.69   12.20
  -2   6  10  103.29    7.80
   2   6 -10   90.49    4.60
   2   6 -10   94.29    4.60
  -1  -6  10  326.57   12.80
  -1  -6  10  325.27   14.40
   1  -6 -10  323.07   14.90
  -1  -6  10  323.57   13.90
   1   6 -10  372.86   14.40
   1   6 -10  360.26   14.40
   1   6 -10  358.06   15.10
  -1   6  10  372.16   19.60
  -1   6  10  348.27   16.60
   1   6 -10  361.56   15.80
   0  -6 -10  648.34   25.60
   0  -6 -10  656.23   26.40
   0  -6 -10  655.93   27.20
   0  -6 -10  658.23   27.10
   0  -6  10  658.33   27.00
   0  -6  10  668.23   25.60
   0  -6 -10  672.33   27.50
   0   6 -10  661.53   25.30
   0   6  10  653.93   25.40
   0   6 -10  644.34   26.40
   0   6  10  644.74   25.30
  -1  -6 -10  120.19    6.50
  -1  -6 -10  120.19    8.40
  -1  -6 -10  117.19    5.30
  -1  -6 -10  111.59    7.60
   1  -6  10  114.69    5.40
   1  -6  10  123.99    5.70
  -1  -6 -10  116.19    6.60
   1   6  10  103.99    5.60
   1   6  10  117.69    5.10
   1   6  10   99.19   12.30
   1   6  10  109.89    5.20
  -2  -6 -10    3.10    2.10
   2  -6  10    3.50    1.60
  -2  -6 -10    1.30    2.10
   2  -6  10    2.20    1.50
  -2  -6 -10    3.00    2.90
  -2  -6 -10    4.90    1.40
  -2  -6 -10    3.60    4.60
   2  -6  10    1.70    1.60
   2   6  10    0.70    1.40
   2   6  10    4.10    1.30
  -2   6 -10   -1.10    2.60
  -2   6 -10   -1.10    3.40
  -2   6 -10    0.70    1.40
   2   6  10   -7.80    5.30
  -3  -6 -10   67.79    4.60
   3  -6  10   71.99    4.30
  -3  -6 -10   64.49    3.70
   3  -6  10   69.39    3.90
  -3  -6 -10   74.39    4.50
  -3  -6 -10   72.99    5.40
   3  -6  10   74.99    4.10
   3  -6  10   61.69    4.60
  -3   6 -10   71.89    5.10
  -3   6 -10   70.29    3.50
   3   6  10   68.59    3.80
   3   6  10   66.09    4.20
  -3   6 -10   76.59    7.10
   4  -6  10   73.39    4.00
  -4  -6 -10   73.39    3.90
  -4  -6 -10   77.89    3.50
  -4  -6 -10   80.59    4.20
   4  -6  10   73.29    5.70
  -4  -6 -10   73.09    4.50
   4   6  10   68.29    4.00
  -4   6 -10   69.19    5.20
   4   6  10   60.49    3.80
  -5  -7  10    4.00    1.00
  -5  -7  10    4.90    2.00
   5  -7 -10    4.10    1.30
  -5  -7  10    7.70    2.50
  -5  -7  10    0.90    1.90
   5  -7 -10    7.70    2.00
   5   7 -10    6.30    1.70
   5   7 -10    5.80    2.20
  -5   7  10    4.00    2.70
   4  -7 -10   51.09    3.30
  -4  -7  10   57.99    3.00
  -4  -7  10   53.79    4.70
  -4  -7  10   58.89    5.20
   4  -7 -10   52.59    3.60
  -4  -7  10   55.89    4.90
   4   7 -10   59.09    6.40
  -4   7  10   52.69    5.90
   4   7 -10   54.19    4.50
   4   7 -10   56.39    3.80
   4   7 -10   53.79    3.50
  -3  -7  10  289.47   12.80
  -3  -7  10  282.07   13.10
   3  -7 -10  275.57   11.40
  -3  -7  10  277.77   12.70
  -3  -7  10  259.57   12.60
  -3  -7  10  279.87   11.10
   3  -7 -10  280.17   11.30
   3   7 -10  310.57   12.10
   3   7 -10  288.87   12.40
   3   7 -10  286.17   14.90
  -3   7  10  296.67   15.00
   3   7 -10  296.47   28.50
   3   7 -10  292.67   13.00
   3   7 -10  304.57   12.00
  -3   7  10  286.57   14.10
  -2  -7  10  409.96   15.70
  -2  -7  10  378.06   17.80
  -2  -7  10  394.16   16.80
   2  -7 -10  413.56   15.90
  -2  -7  10  406.56   17.20
  -2  -7  10  398.06   17.10
   2   7 -10  388.46   15.60
   2   7 -10  363.36   16.20
  -2   7  10  376.56   17.30
   2   7 -10  390.46   15.30
   2   7 -10  397.86   15.30
   2   7 -10  386.36   17.30
  -1  -7  10  124.59    6.70
  -1  -7  10  130.29    5.40
   1  -7 -10  118.59    8.00
  -1  -7  10  130.29    7.30
   1   7 -10  132.19    6.20
   1   7 -10  135.89    8.50
  -1   7  10  137.89    8.60
   1   7 -10  124.49    5.80
  -1   7  10  129.49    8.70
   1   7 -10  131.49    7.20
   0  -7 -10  187.68    7.60
   0  -7  10  194.48    8.60
   0  -7 -10  179.98   10.60
   0  -7 -10  176.48   10.00
   0  -7  10  175.48    9.40
   0  -7 -10  179.68    8.90
   0   7  10  193.58    7.80
   0   7  10  153.58   13.10
   0   7  10  189.98    8.00
   0   7 -10  189.18    7.80
  -1  -7 -10  126.39    5.40
  -1  -7 -10  112.59    6.70
  -1  -7 -10  122.49    6.70
  -1  -7 -10  117.29    9.20
   1  -7  10  124.49    5.70
   1  -7  10  130.59    6.50
  -1  -7 -10  117.49    7.70
   1   7  10  127.29    5.70
   1   7  10  116.69    6.40
   1   7  10  105.49   13.00
   1   7  10  124.29    5.60
  -2  -7 -10  257.17   11.20
  -2  -7 -10  263.47   12.20
  -2  -7 -10  265.17   11.40
   2  -7  10  267.77   10.90
   2  -7  10  250.67   11.30
  -2  -7 -10  261.47   10.50
  -2  -7 -10  265.87   16.70
   2   7  10  267.37   11.30
   2   7  10  260.87   10.80
  -2   7 -10  249.88   13.90
   2   7  10  262.97   10.70
  -3  -7 -10  100.39    5.20
  -3  -7 -10   98.19    6.00
   3  -7  10   96.59    5.40
  -3  -7 -10   99.99    5.40
   3  -7  10  103.99    4.70
  -3  -7 -10  102.39    4.50
   3  -7  10  108.39    5.00
   3   7  10  110.59    5.20
   3   7  10  110.99    5.00
   3   7  10   94.89    6.60
  -3   7 -10  106.09    7.30
  -4  -7 -10   13.40    2.00
   4  -7  10   14.80    2.00
  -4  -7 -10   10.40    1.50
   4  -7  10   15.20    2.40
  -4  -7 -10   14.90    2.20
  -4  -7 -10   15.40    2.20
   4   7  10   16.90    1.90
  -4   7 -10   16.60    2.70
  -4  -8  10   51.09    4.10
  -4  -8  10   44.80    3.90
   4  -8 -10   46.90    2.90
  -4  -8  10   44.50    2.50
  -4  -8  10   44.90    4.20
   4   8 -10   49.50    3.10
  -4   8  10   48.90    4.80
   4   8 -10   49.00    3.70
   4   8 -10   52.39    3.40
  -3  -8  10   17.20    1.90
   3  -8 -10   13.90    2.50
  -3  -8  10   20.30    4.90
  -3  -8  10   20.20    4.90
  -3  -8  10   14.60    3.20
  -3  -8  10   15.70    2.90
   3   8 -10   11.30    2.30
   3   8 -10   17.50    2.40
   3   8 -10   13.80    2.20
   3   8 -10   16.30    4.10
  -3   8  10   11.80    3.30
  -3   8  10    9.00    5.00
  -2  -8  10   27.90    4.90
  -2  -8  10   30.60    4.30
  -2  -8  10   34.30    2.40
  -2  -8  10   33.20    4.50
  -2  -8  10   36.80    4.80
   2   8 -10   24.00    2.70
   2   8 -10   22.10    2.90
   2   8 -10   25.80    2.50
   2   8 -10   29.70    6.00
  -2   8  10   32.00    5.90
  -2   8  10   31.70    5.10
   1  -8 -10   50.99    6.60
  -1  -8  10   55.09    4.40
  -1  -8  10   59.69    5.50
  -1  -8  10   51.89    3.00
   1   8 -10   33.20    3.00
  -1   8  10   39.40    5.90
  -1   8  10   47.10    5.70
   1   8 -10   31.00    2.60
   0  -8 -10  328.57   14.70
   0  -8 -10  312.47   16.60
   0  -8  10  315.67   16.90
   0  -8 -10  324.57   12.80
   0  -8  10  355.46   13.90
   0  -8 -10  313.47   13.90
   0   8  10  327.37   15.40
   0   8  10  340.47   13.40
  -1  -8 -10  190.58    7.30
  -1  -8 -10  172.28    8.40
   1  -8  10  174.88    8.30
   1  -8  10  173.68    7.30
  -1  -8 -10  179.08    9.40
  -1  -8 -10  175.68    8.40
  -1  -8 -10  160.08   12.60
   1   8  10  175.58    7.50
   1   8  10  167.38    9.10
   1   8  10  170.68    7.40
   2  -8  10   23.50    2.50
  -2  -8 -10   26.40    2.20
  -2  -8 -10   26.10    4.30
  -2  -8 -10   29.10    4.20
  -2  -8 -10   29.20    3.50
   2  -8  10   28.90    4.00
   2   8  10   22.90    2.50
   2   8  10   16.10    3.30
   2   8  10   23.90    2.50
  -3  -8 -10   24.20    2.60
  -3  -8 -10   20.00    2.70
   3  -8  10   27.70    2.30
  -3  -8 -10   22.00    3.20
  -3  -8 -10   23.70    1.90
   3  -8  10   28.20    3.30
   3   8  10   23.40    2.50
   3   8  10   23.90    2.80
  -4  -9  10   44.70    3.60
  -4  -9  10   53.69    2.50
  -4  -9  10   51.19    3.60
  -4  -9  10   48.00    4.00
   4   9 -10   50.09    3.10
   4   9 -10   50.09    3.00
  -4   9  10   49.99    4.40
  -3  -9  10   59.99    5.30
  -3  -9  10   60.59    4.50
  -3  -9  10   61.39    3.10
  -3  -9  10   68.29    4.70
  -3  -9  10   64.69    4.90
   3   9 -10   40.70    3.40
   3   9 -10   47.60    3.20
  -3   9  10   28.30    7.90
   3   9 -10   47.80    2.80
  -3   9  10   48.40    4.90
  -2  -9  10  139.89    7.60
  -2  -9  10  144.79    5.90
  -2  -9  10  138.19    7.10
  -2  -9  10  133.29    8.30
  -2   9  10  130.29    7.90
   2   9 -10  130.29    5.90
   2   9 -10  138.39    6.10
  -1  -9  10   30.40    3.40
  -1  -9  10   25.90    3.80
   1  -9 -10   23.70    4.30
   1   9 -10   16.40    2.40
  -1   9  10   25.20    4.80
  -1   9  10   16.80    3.30
   0  -9 -10   76.79    6.30
   0  -9 -10   72.59    4.90
   0  -9  10   78.19    4.80
   0   9  10   72.09    6.50
   0   9  10   69.89    4.00
  -1  -9 -10   70.79    6.40
  -1  -9 -10   65.69    5.50
  -1  -9 -10   74.09    3.60
   1  -9  10   73.29    5.40
   1  -9  10   75.69    4.70
   1   9  10   76.19    3.90
   1   9  10   75.69    5.60
  -2  -9 -10  181.58    8.10
  -2  -9 -10  186.68    8.20
   2  -9  10  187.88    8.30
  -2  -9 -10  180.38    8.80
  -2  -9 -10  188.18    7.50
   2   9  10  170.98    7.50
   2   9  10  185.58    7.80
   3  -9  10   98.69    5.20
  -3  -9 -10  105.29    4.30
  -3  -9 -10  101.89    5.40
  -3  -9 -10  108.49    4.90
  -3  -9 -10  104.99    4.90
   3   9  10   98.79    4.60
  -3 -10  10    2.80    2.00
  -3 -10  10    7.20    2.50
  -3 -10  10    7.60    3.40
  -3 -10  10    7.10    1.90
   3  10 -10    2.90    1.30
   3  10 -10    4.60    1.20
  -3  10  10    6.70    2.60
  -2 -10  10   23.60    3.90
  -2 -10  10   19.30    2.90
  -2 -10  10   19.50    2.00
  -2  10  10   30.10    5.10
  -2  10  10   22.20    3.90
   2  10 -10   27.20    2.30
   2  10 -10   18.60    2.70
   1 -10 -10  163.58    8.80
  -1 -10  10  162.38    7.60
  -1 -10  10  160.98    8.60
   1  10 -10  152.88    6.30
  -1  10  10  144.79    7.90
  -1  10  10  154.58    8.30
   0 -10  10   85.99    4.90
   0 -10 -10   84.49    6.00
   0  10  10   88.29    6.60
   0  10  10   88.89    5.90
  -1 -10 -10   32.30    2.30
   1 -10  10   30.10    3.10
  -1 -10 -10   31.90    4.10
   1 -10  10   31.90    3.90
   1  10  10   28.50    2.70
  -2 -10 -10   -1.10    2.00
  -2 -10 -10    2.20    0.90
  -2 -10 -10   -0.30    2.20
  -2 -10 -10    3.20    1.90
   2 -10  10    3.70    1.90
   2 -10  10    7.60    1.90
   2  10  10    4.60    1.40
  -2 -11  10   52.39    3.30
  -2 -11  10   46.00    4.20
  -2  11  10   50.69    4.00
  -1 -11  10    7.60    1.70
  -1  11  10    8.40    2.50
  -1  11  10    6.20    2.60
   0 -11  10   -0.20    1.50
   0 -11 -10    1.90    2.70
   0  11  10    1.20    2.00
   0  11  10    2.40    3.70
   1 -11  10   49.00    4.80
  -1 -11 -10   57.19    4.10
   1 -11  10   65.59    3.70
   1  11  10   55.59    4.00
   6   0 -11   16.40    3.40
  -6   0  11   21.40    4.60
   6   0 -11   19.20    3.00
  -6   0  11   19.60    3.30
  -5   0  11  189.48   13.10
   5   0 -11  188.98    8.10
  -5   0  11  180.48    9.90
   5   0 -11  182.48    7.90
   5   0 -11  177.08    9.40
   4   0 -11    3.20    2.00
  -4   0  11    6.10    3.40
   4   0 -11    3.20    8.70
  -4   0  11    4.90    4.10
   4   0 -11    9.00    2.60
   4   0 -11    5.00    1.70
   4   0 -11   15.00    7.10
   3   0 -11  885.91   36.00
   3   0 -11  838.42   34.40
   3   0 -11  857.81   33.60
   3   0 -11  894.41   33.20
  -3   0  11  769.72   35.10
  -3   0  11  887.41   35.10
   3   0 -11  881.01   33.20
   3   0 -11  854.91   33.80
  -3   0  11  844.92   35.30
  -2   0  11  387.56   18.30
   2   0 -11  420.06   16.10
   2   0 -11  422.36   17.20
  -2   0  11  401.26   19.10
   2   0 -11  415.46   16.70
   2   0 -11  407.66   18.90
   2   0 -11  434.46   16.10
  -2   0  11  375.96   17.90
   2   0 -11  407.36   16.60
   1   0 -11  125.09   14.10
   1   0 -11  102.59    5.00
  -1   0  11  135.79    5.70
   1   0 -11  105.89    5.50
   1   0 -11  111.19    5.00
   1   0 -11  118.99    6.00
   1   0 -11  103.89    7.30
  -1   0  11  116.69    9.10
   0   0  11  898.81   33.80
   0   0  11  893.11   33.70
   0   0  11  864.31   33.90
   0   0 -11  910.71   34.70
   0   0 -11  867.11   34.90
   0   0  11  843.62   34.00
   0   0 -11  855.01   33.60
   1   0  11  334.47   13.40
  -1   0 -11  336.87   14.00
   1   0  11  341.47   13.50
  -1   0 -11  307.07   15.70
  -1   0 -11  357.96   14.60
   1   0  11  346.17   13.30
   1   0  11  331.87   15.10
  -1   0 -11  330.27   15.10
  -1   0 -11  322.57   13.20
  -2   0 -11   14.50    3.50
  -2   0 -11   16.80    4.60
   2   0  11   13.20    2.30
   2   0  11   17.50    2.50
   2   0  11   30.10    5.90
   2   0  11   19.80    2.00
  -2   0 -11   19.40    4.40
  -2   0 -11   20.60    6.20
  -2   0 -11   13.70    1.80
  -3   0 -11   38.70    3.00
   3   0  11   35.10    5.80
  -3   0 -11   40.20    3.80
  -3   0 -11   46.50    4.90
   3   0  11   37.30    2.70
   3   0  11   45.90    3.60
   3   0  11   35.70    3.20
  -3   0 -11   42.00    6.70
   4   0  11  117.29    5.60
  -4   0 -11  127.49    8.00
  -4   0 -11  113.89    5.20
   4   0  11  113.29    5.60
  -4   0 -11  119.99    5.80
   4   0  11  121.59    6.40
  -4   0 -11  113.49    6.60
   6  -1 -11   10.40    2.60
  -6  -1  11    3.10    3.60
  -6  -1  11   15.70    3.10
   6  -1 -11   10.30    1.90
  -6   1  11    6.50    2.50
   6   1 -11   10.50    2.10
   5  -1 -11   18.70    2.40
   5  -1 -11   16.60    3.50
  -5  -1  11   16.40    6.10
   5  -1 -11   12.50    3.60
   5  -1 -11   18.40    2.80
  -5  -1  11   21.60    3.80
   5   1 -11   16.50    3.50
  -5   1  11   18.70    5.90
  -5   1  11   20.90    4.30
   5   1 -11   18.90    2.50
   5   1 -11   20.70    2.90
  -4  -1  11  292.27   14.00
   4  -1 -11  299.07   12.00
  -4  -1  11  273.37   14.50
   4  -1 -11  290.17   11.90
   4  -1 -11  299.27   13.10
  -4  -1  11  270.77   14.90
   4  -1 -11  307.07   12.70
   4  -1 -11  284.87   18.00
   4   1 -11  288.17   16.70
  -4   1  11  262.17   14.10
   4   1 -11  282.67   11.90
  -4   1  11  271.67   13.50
   4   1 -11  224.88   13.70
   4   1 -11  279.17   11.20
   4   1 -11  287.07   11.40
   3  -1 -11  856.31   35.70
   3  -1 -11  857.61   33.30
   3  -1 -11  854.01   32.80
   3  -1 -11  855.21   32.90
  -3  -1  11  805.22   34.50
  -3  -1  11  874.81   35.00
   3  -1 -11  840.62   33.40
   3  -1 -11  785.82   33.90
  -3  -1  11  911.71   34.70
   3   1 -11  789.52   34.30
  -3   1  11  903.91   35.60
   3   1 -11  868.91   33.70
   3   1 -11  863.91   34.90
   3   1 -11  892.41   33.70
  -3   1  11  896.91   35.90
   3   1 -11  875.01   36.40
   3   1 -11  869.81   34.10
   2  -1 -11  426.16   18.00
   2  -1 -11  451.35   18.60
  -2  -1  11  446.86   19.80
   2  -1 -11  469.35   17.60
  -2  -1  11  438.06   19.10
   2  -1 -11  464.55   17.60
   2  -1 -11  445.06   18.00
   2  -1 -11  437.46   20.50
  -2  -1  11  440.36   20.40
   2   1 -11  419.16   16.60
  -2   1  11  407.46   18.80
   2   1 -11  418.36   17.60
  -2   1  11  412.06   19.30
   2   1 -11  433.86   19.40
   2   1 -11  394.06   17.10
  -2   1  11  437.36   18.90
   2   1 -11  441.46   16.60
   1  -1 -11  515.55   19.80
  -1  -1  11  476.15   19.00
   1  -1 -11  500.95   18.80
  -1  -1  11  492.95   20.10
   1  -1 -11  451.45   18.80
   1  -1 -11  458.35   24.90
   1  -1 -11  482.55   19.00
  -1   1  11  446.16   20.30
  -1   1  11  477.95   18.60
   1   1 -11  470.75   18.60
   1   1 -11  488.35   18.40
   1   1 -11  459.45   19.90
   1   1 -11  481.65   19.40
   1   1 -11  475.85   18.40
   0  -1  11   21.00    3.00
   0  -1 -11   25.00    2.40
   0  -1  11   29.60    3.10
   0  -1  11   32.30    2.20
   0  -1 -11   29.10    3.70
   0  -1  11   24.40    2.20
   0  -1 -11   24.20    3.30
   0   1  11   30.30    4.90
   0   1 -11   27.10    3.10
   0   1 -11   27.10    4.00
   0   1 -11   26.40    2.50
   0   1  11   24.90    2.10
   0   1 -11   34.30    3.80
   0   1 -11   29.80    3.80
   0   1  11   23.20    2.60
   1  -1  11  287.37   11.20
  -1  -1 -11  276.37   13.50
  -1  -1 -11  291.47   12.70
  -1  -1 -11  271.87   13.00
   1  -1  11  267.77   12.00
  -1  -1 -11  274.97   12.00
   1  -1  11  282.77   11.30
   1  -1  11  288.27   11.50
   1  -1  11  270.97   13.20
  -1  -1 -11  280.97   11.20
   1   1  11  252.97   10.70
  -1   1 -11  262.97   11.80
  -1   1 -11  263.57   11.30
   1   1  11  264.27   10.70
  -1   1 -11  252.47   12.90
   1   1  11  253.07   12.50
  -1   1 -11  264.37   12.60
  -1   1 -11  268.37   10.50
   1   1  11  270.67   10.60
   2  -1  11  327.57   14.50
  -2  -1 -11  322.37   13.50
   2  -1  11  321.77   13.60
  -2  -1 -11  310.57   14.40
  -2  -1 -11  377.76   17.10
   2  -1  11  345.47   13.60
   2  -1  11  343.97   15.90
  -2  -1 -11  342.17   15.70
   2  -1  11  351.06   13.80
  -2   1 -11  331.77   15.90
   2   1  11  328.27   13.50
   2   1  11  333.57   13.60
   2   1  11  338.97   13.60
  -2   1 -11  320.97   14.00
  -2   1 -11  351.76   16.10
   2   1  11  345.57   15.70
   3  -1  11  178.98    7.70
  -3  -1 -11  187.38    8.40
  -3  -1 -11  177.28    9.40
   3  -1  11  189.78    8.00
   3  -1  11  175.78   12.10
  -3  -1 -11  175.68    7.70
  -3  -1 -11  177.58   10.80
   3  -1  11  184.48    8.20
   3   1  11  169.78    7.40
  -3   1 -11  165.38    7.70
   3   1  11  162.28    7.40
   3   1  11  157.48   11.20
  -3   1 -11  171.58   10.10
  -3   1 -11  156.38    8.50
   3   1  11  165.78    7.00
  -3   1 -11  153.58    6.90
   4  -1  11   11.40    2.60
  -4  -1 -11    6.10    2.50
   4  -1  11   12.40    1.90
  -4  -1 -11    6.90    1.90
   4  -1  11   10.30    2.00
  -4  -1 -11   12.80    3.50
  -4  -1 -11   11.40    1.50
   4   1  11    9.50    1.90
   4   1  11    7.80    2.40
  -4   1 -11   10.30    2.00
   4   1  11   10.20    1.70
  -4   1 -11    8.30    2.70
  -4   1 -11    9.30    1.30
  -4   1 -11    6.80    3.10
  -6  -2  11   38.30    4.80
   6  -2 -11   43.30    3.10
  -6  -2  11   39.50    3.40
   6  -2 -11   32.30    3.70
  -6   2  11   45.70    3.80
   6   2 -11   45.80    3.60
  -5  -2  11  131.59   11.20
   5  -2 -11  153.38    7.90
  -5  -2  11  162.38   11.20
   5  -2 -11  167.28    9.10
   5  -2 -11  158.08    7.00
   5  -2 -11  155.08    6.90
  -5   2  11  143.29   10.20
   5   2 -11  180.68    7.60
   5   2 -11  162.88    7.40
   5   2 -11  178.08    8.80
   4  -2 -11  321.07   14.20
  -4  -2  11  333.87   15.70
  -4  -2  11  324.57   15.90
   4  -2 -11  329.87   20.30
   4  -2 -11  349.37   13.60
   4  -2 -11  345.17   14.30
   4  -2 -11  333.97   13.50
  -4  -2  11  336.97   15.30
   4   2 -11  304.57   15.20
   4   2 -11  314.47   12.80
   4   2 -11  328.07   13.40
   4   2 -11  318.67   12.60
   4   2 -11  302.27   18.20
  -4   2  11  306.47   14.90
  -4   2  11  299.67   15.90
   3  -2 -11   21.90    6.40
   3   2 -11   14.60    5.80
   3   2 -11   16.60    3.60
   2  -2 -11  108.39    4.70
   2  -2 -11   85.69    5.80
   2  -2 -11  100.89    5.60
  -2  -2  11  107.79    8.10
   2  -2 -11   96.49    5.50
  -2  -2  11   93.19    7.00
   2  -2 -11  103.89   10.60
  -2  -2  11   77.79    9.30
   2  -2 -11  102.09    4.70
   2   2 -11   88.09    8.30
   2   2 -11  112.19    5.60
  -2   2  11   90.49   10.30
  -2   2  11  103.69    8.00
   2   2 -11   86.49    9.10
   2   2 -11  108.29    6.10
   2   2 -11  102.39    6.10
   2   2 -11  115.29    4.90
  -2   2  11   99.89    9.10
   2   2 -11  108.99    4.70
   1  -2 -11  599.44   31.20
   1  -2 -11  652.83   26.00
   1  -2 -11  642.04   25.10
   1  -2 -11  645.24   24.90
  -1  -2  11  724.33   28.50
  -1  -2  11  616.34   26.10
   1   2 -11  679.23   24.70
   1   2 -11  607.44   26.20
   1   2 -11  651.63   24.90
  -1   2  11  617.24   24.80
   1   2 -11  659.43   25.70
  -1   2  11  595.54   26.20
   1   2 -11  642.44   24.60
   0  -2  11 1279.17   50.49
   0  -2 -11 1299.37   50.19
   0  -2  11 1278.37   51.19
   0  -2 -11 1386.86   51.49
   0  -2 -11 1316.57   51.39
   0  -2  11 1317.27   50.29
   0   2  11 1389.06   53.59
   0   2 -11 1344.27   53.29
   0   2 -11 1377.16   54.59
   0   2  11 1434.86   53.39
   0   2 -11 1429.26   54.19
   0   2 -11 1372.36   53.19
   0   2  11 1455.85   53.39
   0   2  11 1342.17   54.69
  -1  -2 -11  182.58    7.80
   1  -2  11  196.38    7.80
   1  -2  11  183.58   10.40
   1  -2  11  202.88    7.90
   1  -2  11  194.68    8.20
  -1  -2 -11  183.48    8.80
  -1  -2 -11  171.08   10.50
  -1  -2 -11  198.48    9.50
  -1  -2 -11  167.78    8.70
   1  -2  11  209.98    8.70
  -1  -2 -11  163.78    9.50
  -1   2 -11  204.58   11.30
  -1   2 -11  202.28   11.40
  -1   2 -11  208.18    8.80
   1   2  11  220.98    9.10
   1   2  11  211.68   11.10
  -1   2 -11  213.58    9.70
   1   2  11  237.48    9.00
   1   2  11  235.58    9.10
  -1   2 -11  223.38   10.20
   1   2  11  211.28   12.20
  -2  -2 -11   21.70    2.70
   2  -2  11   24.80    4.80
  -2  -2 -11   27.30    4.80
   2  -2  11   23.60    3.00
  -2  -2 -11   25.30    3.80
  -2  -2 -11   24.20    3.70
   2  -2  11   22.30    2.40
  -2  -2 -11   19.90    3.70
   2  -2  11   25.90    2.40
  -2  -2 -11   26.40    4.50
   2   2  11   21.80    2.60
  -2   2 -11   29.30    5.20
   2   2  11   21.40    2.50
  -2   2 -11   18.90    2.30
   2   2  11   23.90    2.40
   2   2  11   15.30    4.20
  -2   2 -11   23.10    4.00
  -2   2 -11   22.90    3.60
  -3  -2 -11    9.60    2.50
   3  -2  11   23.10    6.40
  -3  -2 -11   13.90    4.10
   3  -2  11   19.60    3.30
   3  -2  11   15.90    2.90
  -3  -2 -11   12.00    2.30
  -3  -2 -11   15.40    3.30
   3  -2  11   15.90    2.10
  -3  -2 -11   20.70    7.30
  -3  -2 -11   10.70    1.70
   3   2  11   15.00    2.60
  -3   2 -11   13.50    2.40
  -3   2 -11   14.60    4.00
   3   2  11   12.70    2.00
  -3   2 -11   13.60    3.20
   3   2  11   12.50    5.20
  -3   2 -11   10.80    1.50
   4  -2  11   57.09    3.50
  -4  -2 -11   61.59    3.70
  -4  -2 -11   60.59    3.30
   4  -2  11   52.79    5.00
  -4  -2 -11   52.89    4.50
  -4  -2 -11   69.49    6.20
   4  -2  11   56.89    3.60
   4  -2  11   58.39    6.20
   4   2  11   58.29    3.50
  -4   2 -11   57.59    3.10
  -4   2 -11   56.89    4.30
   4   2  11   56.59    3.90
  -4   2 -11   61.79    5.70
   4   2  11   53.79    4.90
   5  -3 -11   26.50    3.00
   5  -3 -11   35.20    2.90
  -5  -3  11   35.40    8.00
   5  -3 -11   27.90    4.10
  -5  -3  11   34.60    5.20
  -5  -3  11   34.20    4.70
   5  -3 -11   34.80    5.70
   5   3 -11   32.10    2.90
  -5   3  11   35.40    5.30
   5   3 -11   45.70    5.90
   5   3 -11   27.50    3.50
  -5   3  11   26.60    5.00
   4  -3 -11   44.20    3.20
  -4  -3  11   39.60    5.40
  -4  -3  11   50.59    6.10
   4  -3 -11   24.40   11.20
  -4  -3  11   43.00    6.50
   4  -3 -11   49.40    4.60
   4  -3 -11   50.09    5.60
   4   3 -11   37.00    6.40
   4   3 -11   51.59    3.20
   4   3 -11   44.80    8.80
  -4   3  11   35.30    5.90
  -4   3  11   39.00    6.30
   4   3 -11   51.39    4.90
   4   3 -11   35.60    7.70
  -3  -3  11  340.47   14.90
  -3  -3  11  318.27   14.60
  -3  -3  11  329.87   15.20
   3  -3 -11  321.17   12.80
   3  -3 -11  307.87   19.00
   3  -3 -11  313.17   13.20
   3  -3 -11  301.27   13.50
   3  -3 -11  298.67   12.80
   3   3 -11  304.97   17.20
   3   3 -11  366.76   18.90
  -3   3  11  357.56   16.20
  -3   3  11  361.16   16.70
   3   3 -11  337.87   14.30
   3   3 -11  354.26   13.80
   3   3 -11  326.67   13.80
   2  -3 -11  615.04   26.00
  -2  -3  11  639.94   26.70
  -2  -3  11  610.44   26.90
   2  -3 -11  656.13   25.00
   2  -3 -11  659.53   24.90
  -2  -3  11  632.44   26.20
   2  -3 -11  674.93   25.20
   2   3 -11  611.64   27.30
   2   3 -11  652.83   24.80
   2   3 -11  641.74   24.40
   2   3 -11  627.04   25.60
   2   3 -11  614.14   24.90
   2   3 -11  645.54   24.40
  -2   3  11  611.04   26.70
  -2   3  11  612.04   26.30
   1  -3 -11  218.98    9.00
   1  -3 -11  242.08   10.30
   1  -3 -11  221.58    9.10
  -1  -3  11  215.98   10.50
  -1  -3  11  194.58   12.80
   1   3 -11  226.98    9.30
   1   3 -11  230.28    9.70
  -1   3  11  223.28   11.40
   1   3 -11  237.88    9.30
   1   3 -11  208.98   12.50
   1   3 -11  244.08   10.50
   0  -3  11   74.49    4.30
   0  -3 -11   76.39    3.90
   0  -3 -11   82.79    5.40
   0  -3 -11   76.99    6.10
   0  -3  11   79.89    3.90
   0  -3  11   86.79    6.20
   0   3  11   75.29    4.50
   0   3  11   79.59    3.80
   0   3  11   77.99    7.00
   0   3 -11   75.29    4.30
   0   3 -11   78.39    7.60
   0   3  11   71.29    7.20
   0   3 -11   80.39    5.10
   0   3  11   86.19    3.90
   0   3 -11   79.09    4.30
   1  -3  11  195.88    8.20
  -1  -3 -11  199.78    8.10
   1  -3  11  192.38    8.70
   1  -3  11  189.08    8.60
  -1  -3 -11  188.78    9.00
  -1  -3 -11  200.38   10.20
   1  -3  11  178.98   11.50
  -1  -3 -11  208.38    9.20
  -1  -3 -11  190.68   10.60
  -1  -3 -11  206.28   10.20
   1  -3  11  192.68    9.90
   1  -3  11  206.28    8.20
   1   3  11  168.48    7.40
  -1   3 -11  174.18    7.10
   1   3  11  166.08    7.30
  -1   3 -11  160.58    8.60
  -1   3 -11  176.08   10.00
   1   3  11  171.38    7.20
  -1   3 -11  174.08    9.70
   2  -3  11  450.45   17.60
  -2  -3 -11  434.96   18.10
  -2  -3 -11  448.26   18.30
   2  -3  11  446.36   18.10
  -2  -3 -11  458.25   19.90
  -2  -3 -11  431.26   17.50
  -2  -3 -11  444.46   19.70
   2  -3  11  441.76   17.90
  -2  -3 -11  434.76   19.00
   2  -3  11  454.45   17.60
   2   3  11  437.86   17.50
  -2   3 -11  416.76   18.50
  -2   3 -11  430.96   19.60
   2   3  11  444.86   19.60
   2   3  11  451.45   17.50
  -2   3 -11  426.26   17.20
   2   3  11  459.55   17.40
   3  -3  11  222.88    9.10
  -3  -3 -11  214.68    9.00
  -3  -3 -11  224.28    9.70
   3  -3  11  197.28   14.90
  -3  -3 -11  226.88   15.50
   3  -3  11  219.38    9.90
   3  -3  11  222.88    9.20
  -3  -3 -11  220.58   10.60
  -3  -3 -11  220.28    9.90
  -3  -3 -11  211.78   11.80
   3  -3  11  213.88    9.70
   3   3  11  229.18    9.40
  -3   3 -11  206.18   10.30
  -3   3 -11  215.88    9.00
  -3   3 -11  222.58   11.60
   3   3  11  227.68    9.60
   3   3  11  208.88   13.70
   3   3  11  226.28    9.20
  -4  -3 -11   29.10    6.10
   4  -3  11   31.40    2.70
  -4  -3 -11   29.50    2.80
   4  -3  11   21.60    3.60
  -4  -3 -11   26.90    2.40
   4  -3  11   28.00    2.80
  -4  -3 -11   29.40    3.60
   4   3  11   33.70    2.90
   4   3  11   28.40    3.40
  -4   3 -11   34.60    4.90
  -4   3 -11   35.40    2.20
  -4   3 -11   34.70    3.40
   5  -4 -11   78.49    4.80
   5  -4 -11   84.69    4.50
  -5  -4  11   75.59    6.60
   5  -4 -11   78.69    4.10
  -5  -4  11   75.79    5.20
  -5  -4  11   75.89    5.70
  -5   4  11   76.39    8.70
   5   4 -11   89.19    4.40
  -5   4  11   84.19    6.50
   5   4 -11   87.39    4.70
   4  -4 -11   75.39    4.30
  -4  -4  11   76.09    6.70
  -4  -4  11   66.99    5.80
   4  -4 -11   83.49    7.50
  -4  -4  11   76.09    6.50
   4  -4 -11   77.59    4.30
   4  -4 -11   78.29    4.80
   4   4 -11   75.89    4.00
  -4   4  11   66.79    6.70
  -4   4  11   64.09    8.90
   4   4 -11   76.69    5.80
   4   4 -11  104.99   14.90
   4   4 -11   76.99    9.20
   4   4 -11   77.39    4.40
  -3  -4  11   74.69    7.00
  -3  -4  11   83.29    6.60
   3  -4 -11   70.49    6.40
   3  -4 -11   78.39    4.10
  -3  -4  11   83.99    6.50
   3  -4 -11   73.19    4.20
   3  -4 -11   69.19    4.60
  -3   4  11   79.79    7.50
   3   4 -11   74.99   11.90
   3   4 -11   78.39    4.10
   3   4 -11   72.29    5.90
   3   4 -11   81.69    4.30
  -3   4  11   76.69    8.30
   3   4 -11   83.79    5.30
   3   4 -11   87.79    6.80
   2  -4 -11  106.19    7.10
  -2  -4  11  122.89    8.90
   2  -4 -11  111.89    5.60
   2  -4 -11  117.79    5.30
   2  -4 -11  109.99    5.70
  -2  -4  11   96.39    8.50
  -2  -4  11  127.89    7.40
  -2  -4  11  119.79    8.40
   2   4 -11  113.79    5.30
   2   4 -11  114.69    6.20
  -2   4  11  118.39    8.10
  -2   4  11  136.69    9.10
   2   4 -11  116.19    6.30
   2   4 -11  119.99    7.00
   2   4 -11  103.89   11.10
   2   4 -11  112.59    5.30
   1  -4 -11  943.11   35.90
  -1  -4  11  935.61   37.10
  -1  -4  11  926.61   36.70
   1  -4 -11  935.81   37.20
  -1  -4  11  929.21   35.80
   1   4 -11  932.71   36.80
   1   4 -11  903.81   35.70
  -1   4  11  930.51   37.30
   1   4 -11  936.61   35.70
   1   4 -11  931.01   35.90
   0  -4  11  542.75   22.80
   0  -4 -11  546.95   22.50
   0  -4 -11  562.94   21.60
   0  -4  11  560.84   21.90
   0  -4  11  547.55   21.60
   0  -4 -11  554.84   23.00
   0  -4 -11  584.14   23.30
   0   4  11  611.54   23.00
   0   4  11  597.54   23.00
   0   4 -11  592.14   23.90
   0   4 -11  582.84   22.90
   0   4 -11  567.14   25.10
   1  -4  11  769.52   31.60
   1  -4  11  757.02   32.10
  -1  -4 -11  765.12   32.50
   1  -4  11  818.42   31.20
  -1  -4 -11  820.42   31.10
  -1  -4 -11  799.22   32.70
  -1  -4 -11  879.81   32.40
  -1  -4 -11  823.72   33.00
  -1  -4 -11  823.12   31.80
  -1   4 -11  762.62   31.40
   1   4  11  742.03   31.60
  -1   4 -11  755.02   30.60
   1   4  11  746.23   29.80
   1   4  11  763.92   29.60
   1   4  11  781.02   29.60
  -1   4 -11  784.52   29.40
   2  -4  11   67.29    3.70
   2  -4  11   51.79    8.10
  -2  -4 -11   66.29    4.70
  -2  -4 -11   57.89    7.20
   2  -4  11   66.19    3.50
   2  -4  11   67.79    4.40
  -2  -4 -11   60.69    3.60
  -2  -4 -11   63.89    4.60
  -2  -4 -11   65.99    6.00
   2  -4  11   65.49    4.70
  -2  -4 -11   56.09    7.30
   2   4  11   67.69    7.90
  -2   4 -11   65.39    6.80
   2   4  11   69.29    4.30
  -2   4 -11   72.99    3.70
   2   4  11   77.89    4.10
   2   4  11   75.09    3.80
  -2   4 -11   70.89    5.80
   3  -4  11   19.40    3.00
   3  -4  11   21.90    3.30
   3  -4  11   15.60    2.60
  -3  -4 -11   18.10    3.30
  -3  -4 -11   18.20    2.40
  -3  -4 -11   25.30    3.60
   3  -4  11   24.80    2.40
  -3  -4 -11   23.40    3.10
  -3  -4 -11   18.20    4.70
  -3   4 -11   23.90    2.10
   3   4  11   24.70    3.00
  -3   4 -11   21.30    3.70
   3   4  11   22.20    2.40
   3   4  11   24.50    3.60
  -3   4 -11   25.00    5.10
  -4  -4 -11   69.69    3.40
   4  -4  11   62.69    4.20
  -4  -4 -11   70.29    4.60
  -4  -4 -11   73.49    3.90
   4  -4  11   70.09    3.60
   4  -4  11   70.69    4.00
  -4   4 -11   70.59    3.20
  -4   4 -11   68.79    5.40
   4   4  11   72.59    5.80
   4   4  11   68.49    3.90
  -4   4 -11   63.79    4.20
   5  -5 -11   -0.10    1.70
  -5  -5  11    5.00    2.30
  -5  -5  11    0.70    2.30
  -5  -5  11    2.90    3.20
   5  -5 -11    0.60    1.60
   5  -5 -11   -3.20    2.70
   5   5 -11    5.20    1.90
   5   5 -11   -1.90    2.60
  -5   5  11   -1.50    2.80
   4  -5 -11  124.59    5.90
   4  -5 -11  121.19    6.00
   4  -5 -11  103.39   11.10
  -4  -5  11  120.79    7.30
  -4  -5  11  132.99    7.70
  -4  -5  11  119.39    7.60
   4  -5 -11  117.49    5.60
  -4   5  11  130.49   10.40
   4   5 -11  138.79    6.30
   4   5 -11  134.29    6.10
   4   5 -11  126.89    7.70
  -4   5  11  134.29    8.50
   4   5 -11  145.39    8.20
   3  -5 -11  175.58    7.90
  -3  -5  11  182.08    9.50
   3  -5 -11  180.48    7.80
  -3  -5  11  166.68    9.40
   3  -5 -11  175.98    7.60
  -3  -5  11  172.88    9.80
   3   5 -11  190.78    8.20
   3   5 -11  189.78    9.10
  -3   5  11  202.18   11.60
   3   5 -11  192.38    8.20
   3   5 -11  200.48   10.80
  -3   5  11  191.58   10.80
   3   5 -11  192.58    9.00
   3   5 -11  187.08   16.30
  -2  -5  11  418.96   19.00
  -2  -5  11  429.26   18.20
  -2  -5  11  427.86   19.50
   2  -5 -11  408.36   16.70
   2  -5 -11  436.76   16.90
  -2   5  11  449.16   20.00
   2   5 -11  425.96   18.30
  -2   5  11  458.95   19.70
   2   5 -11  450.55   18.00
   2   5 -11  465.25   17.70
   2   5 -11  435.56   22.60
   2   5 -11  445.46   17.90
  -1  -5  11  155.78    6.60
  -1  -5  11  164.28    8.70
   1  -5 -11  159.88    6.80
  -1  -5  11  158.58    8.00
   1  -5 -11  157.18    8.90
  -1   5  11  133.19   10.40
   1   5 -11  153.18    7.90
   1   5 -11  146.69    6.20
   1   5 -11  135.49    6.40
  -1   5  11  143.69    8.80
   1   5 -11  151.08    6.60
   0  -5 -11   20.10    2.90
   0  -5  11   26.50    4.10
   0  -5 -11   19.50    2.20
   0  -5 -11   21.90    4.70
   0  -5 -11   17.30    3.50
   0  -5 -11   23.10    4.80
   0  -5  11   16.60    2.60
   0   5 -11   20.50    3.40
   0   5  11   18.20    2.30
   0   5 -11   15.80    1.80
   0   5  11   14.80    2.10
  -1  -5 -11  302.07   14.30
   1  -5  11  308.27   12.60
   1  -5  11  287.77   14.10
  -1  -5 -11  307.77   14.60
   1  -5  11  314.17   12.30
   1  -5  11  277.77   12.40
  -1  -5 -11  308.27   12.20
  -1  -5 -11  312.97   13.10
  -1  -5 -11  308.87   13.10
  -1  -5 -11  317.47   14.10
   1   5  11  332.57   13.10
   1   5  11  294.67   17.00
   1   5  11  327.57   13.20
  -1   5 -11  349.96   12.90
  -1   5 -11  333.97   14.50
  -1   5 -11  307.67   15.50
   2  -5  11  198.58    8.70
  -2  -5 -11  195.58   11.80
  -2  -5 -11  193.18    8.10
   2  -5  11  202.28    8.40
  -2  -5 -11  201.88    9.10
  -2  -5 -11  199.18   10.10
   2  -5  11  201.28    8.30
  -2  -5 -11  187.98   11.50
  -2  -5 -11  193.58    8.90
   2  -5  11  184.68    9.60
   2   5  11  176.58    7.70
   2   5  11  180.68   12.00
   2   5  11  178.88    8.10
  -2   5 -11  172.58   10.10
   2   5  11  174.38    7.50
  -2   5 -11  180.88    7.40
  -2   5 -11  173.38    9.00
  -3  -5 -11  187.48    7.80
   3  -5  11  184.88    8.00
  -3  -5 -11  191.08    8.40
   3  -5  11  173.68    9.70
  -3  -5 -11  198.88    8.60
   3  -5  11  188.48    7.90
  -3  -5 -11  183.68    9.20
   3  -5  11  190.68    8.40
  -3   5 -11  186.28    8.90
   3   5  11  195.08    8.00
  -3   5 -11  184.98   10.10
  -3   5 -11  185.98    7.70
   3   5  11  195.28    8.20
   3   5  11  180.38    8.70
  -4  -5 -11   29.90    2.10
  -4  -5 -11   29.80    3.10
  -4  -5 -11   29.80    2.50
   4  -5  11   31.50    2.90
   4  -5  11   26.30    3.00
   4  -5  11   28.30    3.10
   4   5  11   31.60    2.90
  -4   5 -11   27.30    4.10
   4   5  11   26.80    3.00
  -4   5 -11   28.00    1.90
  -5  -6  11   45.60    4.40
  -5  -6  11   40.50    3.50
  -5  -6  11   46.60    2.40
   5  -6 -11   43.00    3.00
   5  -6 -11   50.19    3.10
  -5  -6  11   46.70    3.90
   5   6 -11   37.40    4.10
  -5   6  11   41.40    4.10
   5   6 -11   40.40    4.30
   5   6 -11   45.80    3.20
  -4  -6  11  157.28    9.90
   4  -6 -11  140.19    7.50
   4  -6 -11  149.79    6.50
  -4  -6  11  148.99   10.00
   4   6 -11  137.49    7.10
  -4   6  11  133.89   10.00
   4   6 -11  148.39    8.50
   4   6 -11  146.19    6.30
   4   6 -11  145.59    6.40
   3  -6 -11   28.80    3.10
  -3  -6  11   33.50    4.70
  -3  -6  11   31.80    5.00
  -3  -6  11   41.10    5.50
   3  -6 -11   27.30    3.10
  -3  -6  11   33.20    4.90
   3   6 -11   35.10    2.80
  -3   6  11   40.30    7.10
   3   6 -11   30.90    3.70
   3   6 -11   34.70    3.10
   3   6 -11   24.00   10.60
   3   6 -11   32.60    7.10
  -3   6  11   41.20    5.90
  -2  -6  11   73.99    7.50
  -2  -6  11   87.09    6.00
  -2  -6  11   77.79    6.70
  -2  -6  11   84.69    6.00
   2  -6 -11   79.69    4.30
  -2  -6  11   83.29    4.00
   2   6 -11   74.99    4.00
  -2   6  11   77.79    6.80
   2   6 -11   73.49    6.60
   2   6 -11   74.69    4.50
   2   6 -11   72.79    5.80
   2   6 -11   77.29    4.00
  -2   6  11   80.19    7.20
  -1  -6  11  278.87   11.30
  -1  -6  11  281.77   13.00
   1  -6 -11  289.57   13.00
  -1  -6  11  294.67   12.60
   1   6 -11  341.27   15.10
   1   6 -11  306.37   12.30
  -1   6  11  275.17   14.50
  -1   6  11  286.57   14.00
   1   6 -11  294.67   12.00
   0  -6  11  135.39    8.30
   0  -6 -11  139.99    5.90
   0  -6 -11  142.09    8.90
   0  -6  11  137.29    7.00
   0  -6 -11  127.29    8.30
   0  -6 -11  141.29    9.00
   0  -6 -11  130.89    7.20
   0   6 -11  104.09    5.10
   0   6  11  109.09    5.00
   0   6 -11  101.79   10.30
   0   6  11  107.19    5.50
  -1  -6 -11  409.16   23.00
  -1  -6 -11  454.75   18.40
   1  -6  11  461.15   17.80
  -1  -6 -11  463.35   20.30
   1  -6  11  437.86   18.20
  -1  -6 -11  443.36   19.10
  -1  -6 -11  452.65   17.50
  -1  -6 -11  442.16   18.30
   1   6  11  436.46   22.50
   1   6  11  478.15   18.20
   1   6  11  439.76   18.50
   1   6  11  476.65   18.20
   2  -6  11   76.89    4.60
  -2  -6 -11   71.59    4.80
  -2  -6 -11   67.69    3.70
  -2  -6 -11   66.49    8.80
  -2  -6 -11   77.29    5.90
   2  -6  11   74.19    4.20
  -2  -6 -11   65.29    4.70
   2  -6  11   72.39    4.00
   2   6  11   60.29    4.40
  -2   6 -11   64.39    3.40
   2   6  11   56.09    3.60
   2   6  11   63.19    3.50
  -2   6 -11   63.09    6.70
   2   6  11   62.69   11.70
  -3  -6 -11   26.40    3.90
   3  -6  11   25.90    2.80
   3  -6  11   24.20    3.10
  -3  -6 -11   29.80    3.30
   3  -6  11   26.20    2.60
  -3  -6 -11   25.90    2.90
   3  -6  11   23.60    2.80
  -3  -6 -11   23.30    2.10
   3   6  11   21.70    4.20
   3   6  11   20.50    2.80
   3   6  11   24.90    2.70
  -3   6 -11   23.70    3.80
  -4  -6 -11   74.99    3.30
   4  -6  11   77.89    3.70
   4  -6  11   73.99    3.70
  -4  -6 -11   73.39    3.50
   4  -6  11   57.39    4.40
  -4  -6 -11   70.69    4.10
  -4   6 -11   79.89    6.40
   4   6  11   70.39    4.00
  -4  -7  11   88.99    4.00
   4  -7 -11   83.19    4.40
  -4  -7  11   85.89    5.50
  -4  -7  11   87.79    5.70
  -4  -7  11   87.19    5.40
   4  -7 -11   91.09    4.50
   4   7 -11   93.49    4.60
   4   7 -11   97.79    4.50
  -4   7  11   78.49   13.20
  -4   7  11   85.89    6.30
   4   7 -11   92.49    5.00
  -3  -7  11  110.09    7.50
   3  -7 -11  109.79    5.30
  -3  -7  11  115.29    6.90
  -3  -7  11  114.29    4.90
  -3  -7  11  112.59    6.80
  -3  -7  11  111.79    7.10
  -3   7  11  105.69    7.40
   3   7 -11  113.49    5.20
  -3   7  11  117.59    8.60
   3   7 -11  106.89    5.10
   3   7 -11  109.59    5.60
   3   7 -11  104.89    7.90
  -2  -7  11  198.18   11.10
  -2  -7  11  212.58   10.40
  -2  -7  11  203.18    9.90
  -2  -7  11  211.88    8.50
  -2  -7  11  213.28   10.30
   2  -7 -11  213.88    8.60
  -2   7  11  223.98   11.50
   2   7 -11  217.58    9.20
   2   7 -11  231.58    9.50
   2   7 -11  213.38    9.60
   2   7 -11  225.78   12.00
  -2   7  11  221.28   11.60
  -1  -7  11  365.96   14.70
   1  -7 -11  390.86   16.40
  -1  -7  11  356.86   16.20
  -1  -7  11  394.36   15.80
  -1   7  11  376.26   16.70
   1   7 -11  380.06   17.40
   1   7 -11  395.36   15.00
   1   7 -11  365.76   14.70
  -1   7  11  349.17   16.90
   0  -7  11   12.90    3.40
   0  -7 -11    9.70    1.40
   0  -7 -11   12.50    3.70
   0  -7 -11    5.20    2.80
   0  -7  11    7.70    2.30
   0  -7 -11   -0.50    5.00
   0   7  11    5.30    1.40
  -1  -7 -11  113.99    6.80
  -1  -7 -11  123.09    5.30
  -1  -7 -11  125.29    9.90
   1  -7  11  120.59    5.50
  -1  -7 -11  119.79    7.60
  -1  -7 -11  122.19    6.60
   1  -7  11  120.79    6.30
   1   7  11  101.09    6.20
   1   7  11  108.59    5.10
  -2  -7 -11  279.67   12.00
  -2  -7 -11  290.87   12.70
   2  -7  11  278.27   11.20
   2  -7  11  273.97   11.90
  -2  -7 -11  273.97   11.80
  -2  -7 -11  279.87   11.20
   2  -7  11  281.17   11.40
   2   7  11  264.67   11.80
   2   7  11  260.47   10.80
   2   7  11  267.47   10.80
   3  -7  11  161.58    7.10
  -3  -7 -11  158.68    6.60
  -3  -7 -11  160.38    7.10
   3  -7  11  155.28    7.20
   3  -7  11  168.48    6.90
  -3  -7 -11  163.98    7.30
  -3  -7 -11  159.08    7.80
  -3   7 -11  163.88    8.50
   3   7  11  154.78    6.90
   3   7  11  155.28    7.00
  -4  -8  11   46.50    2.50
  -4  -8  11   45.40    3.80
  -4  -8  11   52.89    4.00
  -4  -8  11   50.79    4.20
   4  -8 -11   47.20    2.70
   4   8 -11   45.40    3.20
   4   8 -11   45.10    3.30
  -4   8  11   41.70    4.20
  -3  -8  11   17.00    3.00
   3  -8 -11   17.20    2.20
  -3  -8  11   16.90    2.00
  -3  -8  11   15.20    3.10
  -3  -8  11   16.30    3.40
   3   8 -11   14.00    2.10
  -3   8  11    7.10    3.20
  -3   8  11    9.00    3.90
   3   8 -11   11.90    1.80
   3   8 -11   15.60    2.60
  -2  -8  11   77.09    5.40
  -2  -8  11   78.89    6.10
  -2  -8  11   80.49    3.70
   2  -8 -11   80.09    6.50
  -2  -8  11   81.89    5.80
  -2   8  11   77.29    6.50
   2   8 -11   77.69    3.90
  -2   8  11   77.89    6.50
   2   8 -11   79.99    4.20
   2   8 -11   72.99    4.60
  -1  -8  11   48.40    5.20
  -1  -8  11   46.80    4.10
   1   8 -11   45.10    3.20
  -1   8  11   52.29    5.40
  -1   8  11   51.99    6.10
   0  -8  11  160.88    9.20
   0  -8 -11  151.18    6.50
   0  -8 -11  147.59    8.70
   0  -8  11  166.08    7.60
   0   8  11  155.08    6.70
  -1  -8 -11  156.38    7.50
  -1  -8 -11  157.18    6.40
  -1  -8 -11  149.39    8.50
   1  -8  11  150.58    7.40
   1   8  11  149.39    7.00
   1   8  11  159.48    6.70
   2  -8  11   16.40    2.30
  -2  -8 -11   16.60    1.80
   2  -8  11   18.20    2.10
  -2  -8 -11   17.70    3.00
  -2  -8 -11   12.80    2.70
  -2  -8 -11   19.40    2.50
   2   8  11   16.20    2.70
   2   8  11   13.70    2.10
   3  -8  11   32.40    3.10
  -3  -8 -11   31.40    1.90
  -3  -8 -11   29.40    2.50
   3  -8  11   29.70    2.10
  -3  -8 -11   26.80    3.20
  -3  -8 -11   25.70    2.50
   3   8  11   23.40    4.40
   3   8  11   27.60    2.50
   3  -9 -11  138.69    8.20
  -3  -9  11  158.98    7.20
  -3  -9  11  153.98    6.20
  -3  -9  11  146.69    7.80
  -3  -9  11  155.18    7.50
  -3  -9  11  150.78    7.30
  -3   9  11  140.59    8.70
   3   9 -11  142.29    6.00
  -3   9  11  132.09    7.30
   3   9 -11  129.09    5.80
  -2  -9  11   81.99    3.70
  -2  -9  11   76.89    6.20
  -2  -9  11   77.19    5.40
  -2  -9  11   82.09    5.00
  -2   9  11   74.69    6.10
  -2   9  11   77.89    5.90
   2   9 -11   76.09    4.00
   2   9 -11   73.89    3.80
  -1  -9  11   64.69    6.00
  -1  -9  11   71.99    4.70
  -1   9  11   62.79    5.40
  -1   9  11   56.19    6.10
   0  -9  11   44.20    3.80
   0  -9 -11   50.59    5.60
   0   9  11   52.19    5.10
  -1  -9 -11   17.20    3.10
  -1  -9 -11   16.50    2.60
   1  -9  11   15.70    2.80
   1  -9  11   20.30    3.00
  -1  -9 -11   17.60    1.90
   1   9  11   14.20    2.20
  -2  -9 -11   58.69    4.20
  -2  -9 -11   59.99    3.80
   2  -9  11   55.79    3.70
  -2  -9 -11   53.29    3.80
   2  -9  11   60.39    4.10
  -2  -9 -11   59.69    2.80
   2   9  11   58.69    3.20
  -3 -10  11   20.10    1.80
  -3 -10  11   26.90    3.10
  -3 -10  11   23.50    3.00
  -3  10  11   27.10    3.50
   3  10 -11   24.10    2.00
  -2 -10  11   35.40    4.00
  -2 -10  11   38.10    3.20
  -2  10  11   37.20    4.80
  -2  10  11   37.50    4.20
   2  10 -11   38.70    2.40
  -1 -10  11   31.40    5.20
  -1 -10  11   27.60    2.80
  -1  10  11   23.60    4.50
  -1  10  11   27.00    4.00
   0 -10 -11  136.19    7.50
   0 -10  11  141.69    6.50
   0  10  11  115.39    6.40
   1 -10  11  114.09    5.40
  -1 -10 -11  114.49    6.30
   1  10  11  116.19    6.10
   2 -10  11   21.90    3.50
  -2 -10 -11   26.00    1.80
   2 -10  11   25.40    2.80
  -2 -10 -11   24.80    3.20
   2  10  11   17.70    3.00
  -1 -11  11   65.09    3.70
  -1  11  11   55.69    4.90
  -1  11  11   54.49    4.30
   0 -11 -11    0.40    2.90
   0 -11  11    0.60    1.20
   0  11  11   -1.80    1.70
   5   0 -12   79.59    6.90
   5   0 -12   75.69    4.20
   5   0 -12   70.69    4.30
  -5   0  12   63.59    6.50
   5   0 -12   76.69    5.50
  -5   0  12   74.89    5.90
   4   0 -12  170.08    7.80
  -4   0  12  173.08   10.10
   4   0 -12  196.78    9.20
  -4   0  12  191.28   11.00
   4   0 -12  174.98    9.00
   4   0 -12  192.58   16.90
  -3   0  12  182.48   10.60
   3   0 -12  183.88    8.70
   3   0 -12  173.18    8.70
   3   0 -12  207.18   14.10
  -3   0  12  175.48   10.80
  -3   0  12  183.18   12.00
   3   0 -12  179.48    7.90
   3   0 -12  180.38    7.90
   2   0 -12  241.28    9.40
  -2   0  12  214.08   14.90
   2   0 -12  225.18   10.10
   2   0 -12  212.68   14.60
   2   0 -12  225.38   10.70
  -2   0  12  222.58   11.40
   2   0 -12  238.38    9.30
   2   0 -12  226.48    9.80
  -2   0  12  216.88   11.90
  -1   0  12  303.87   12.40
   1   0 -12  308.47   12.10
   1   0 -12  312.27   13.80
   1   0 -12  302.87   12.30
  -1   0  12  294.77   14.60
  -1   0  12  297.97   13.60
   1   0 -12  312.97   13.30
   0   0 -12  804.92   32.00
   0   0 -12  784.62   30.60
   0   0 -12  785.32   31.30
   0   0 -12  815.22   31.90
   0   0  12  800.12   31.10
   0   0  12  789.12   30.80
   0   0  12  799.52   30.80
  -1   0 -12  132.59    5.90
   1   0  12  144.69    9.50
   1   0  12  148.09    6.10
  -1   0 -12  136.09    6.80
  -1   0 -12  124.89    8.00
  -1   0 -12  137.59    7.80
   1   0  12  134.59    6.30
   1   0  12  140.99    6.80
   1   0  12  139.59    5.90
  -1   0 -12  119.19    8.90
  -2   0 -12  311.27   12.50
  -2   0 -12  307.27   14.10
   2   0  12  289.37   13.40
   2   0  12  314.57   12.70
  -2   0 -12  333.77   15.00
   2   0  12  320.77   13.00
  -2   0 -12  319.67   13.20
   2   0  12  313.07   12.60
  -2   0 -12  320.57   15.70
   2   0  12  303.27   15.80
   3   0  12    4.50    2.80
  -3   0 -12    1.50    2.00
  -3   0 -12   -0.80    1.30
  -3   0 -12    1.90    3.20
   3   0  12   -1.50    1.90
   3   0  12   -0.30    1.30
   3   0  12   -0.70    1.50
   4   0  12   58.89    3.60
   4   0  12   52.89    3.50
   4   0  12   59.69    4.90
  -4   0 -12   54.99    4.10
  -4   0 -12   53.79    3.40
  -4   0 -12   57.19    3.00
  -4   0 -12   65.69    5.40
   5  -1 -12   15.00    4.90
   5  -1 -12   16.70    2.80
   5  -1 -12   20.20    3.00
  -5  -1  12   21.20    4.30
  -5  -1  12   18.30    3.60
   5  -1 -12   20.90    2.90
   5   1 -12   19.20    2.80
   5   1 -12   20.10    3.10
  -5   1  12   18.40    3.60
  -5   1  12   14.80    4.20
   5   1 -12   18.30    3.20
   5   1 -12   19.60    4.30
   4  -1 -12  164.28    8.70
   4  -1 -12  164.78    8.50
  -4  -1  12  180.78   10.30
   4  -1 -12  194.88    9.60
   4  -1 -12  194.38   17.90
  -4  -1  12  162.98    9.70
   4  -1 -12  169.98    7.60
   4   1 -12  144.99    6.60
  -4   1  12  145.59    9.00
   4   1 -12  133.69   15.70
  -4   1  12  150.38   10.40
   4   1 -12  148.19    7.80
   4   1 -12  142.39    8.00
   4   1 -12  157.28    8.10
  -3  -1  12  753.82   30.70
   3  -1 -12  768.52   33.90
   3  -1 -12  790.22   29.00
   3  -1 -12  753.62   29.00
  -3  -1  12  647.84   30.40
  -3  -1  12  721.83   31.00
   3  -1 -12  772.52   29.60
   3  -1 -12  752.92   29.30
   3   1 -12  820.42   30.90
   3   1 -12  777.92   31.40
  -3   1  12  811.02   36.60
  -3   1  12  760.12   32.90
   3   1 -12  851.21   33.10
  -3   1  12  790.22   32.70
   3   1 -12  806.92   31.30
   3   1 -12  729.83   38.80
   3   1 -12  803.52   30.90
   2  -1 -12  230.18   10.40
   2  -1 -12  224.58   11.30
   2  -1 -12  221.08   10.80
  -2  -1  12  271.87   12.70
  -2  -1  12  280.07   11.90
  -2   1  12  297.97   14.60
   2   1 -12  272.77   12.50
   2   1 -12  254.57   12.70
   2   1 -12  255.77   11.80
   2   1 -12  269.27   11.10
   2   1 -12  261.97   11.60
   2   1 -12  267.97   11.10
  -2   1  12  306.67   13.70
  -2   1  12  309.27   13.80
   2   1 -12  266.77   15.90
  -1  -1  12  292.47   13.10
   1  -1 -12  295.97   11.80
   1  -1 -12  294.37   13.10
   1  -1 -12  296.97   12.80
   1  -1 -12  287.57   11.70
  -1  -1  12  276.87   11.80
  -1  -1  12  287.67   14.40
  -1   1  12  302.67   14.50
   1   1 -12  309.07   12.60
  -1   1  12  308.27   12.60
   1   1 -12  326.27   13.50
   1   1 -12  304.17   14.00
   1   1 -12  310.57   12.30
   0  -1  12   69.29    3.40
   0  -1  12   65.99    4.00
   0  -1  12   65.29    3.70
   0  -1 -12   58.59    3.50
   0  -1 -12   61.39    5.40
   0  -1 -12   64.69    4.90
   0  -1 -12   75.59    5.80
   0   1  12   59.89    6.80
   0   1  12   68.29    3.50
   0   1 -12   72.79    6.10
   0   1 -12   65.29    4.70
   0   1 -12   66.89    3.60
   0   1  12   66.29    3.50
   1  -1  12  237.68   13.50
   1  -1  12  262.97   10.40
  -1  -1 -12  255.37   13.00
   1  -1  12  244.58   10.60
  -1  -1 -12  269.17   12.30
  -1  -1 -12  249.38   10.20
  -1  -1 -12  266.47   12.10
   1  -1  12  251.87   10.40
   1  -1  12  244.58   10.90
  -1  -1 -12  259.77   11.10
   1   1  12  237.48   10.20
   1   1  12  241.98    9.90
  -1   1 -12  249.68   11.50
   1   1  12  242.98   10.00
  -1   1 -12  247.88   12.10
  -1   1 -12  253.17    9.80
  -1   1 -12  224.38   12.30
   1   1  12  235.68   12.90
  -1   1 -12  256.17   10.70
  -2  -1 -12 1114.59   42.70
   2  -1  12 1057.99   44.50
  -2  -1 -12 1075.59   43.40
   2  -1  12 1056.79   42.70
   2  -1  12 1096.69   42.50
   2  -1  12 1097.19   42.30
  -2  -1 -12 1121.59   44.40
  -2  -1 -12 1085.79   42.10
   2  -1  12 1099.29   42.40
  -2  -1 -12 1169.88   44.40
  -2   1 -12 1123.59   42.80
  -2   1 -12 1084.29   42.20
   2   1  12 1093.69   42.50
   2   1  12 1080.29   42.60
  -2   1 -12 1098.59   44.60
  -2   1 -12 1140.69   44.40
   2   1  12 1086.59   44.50
  -2   1 -12 1078.59   43.40
   2   1  12 1114.49   42.40
  -3  -1 -12  346.47   14.50
  -3  -1 -12  357.26   13.90
   3  -1  12  348.67   14.10
   3  -1  12  358.76   14.50
  -3  -1 -12  375.06   16.50
  -3  -1 -12  341.17   15.30
   3  -1  12  330.77   14.80
   3  -1  12  358.86   14.20
  -3   1 -12  338.57   14.30
   3   1  12  314.67   14.80
   3   1  12  353.66   14.20
  -3   1 -12  340.67   15.00
   3   1  12  357.66   13.90
  -3   1 -12  344.57   13.70
  -3   1 -12  368.56   16.20
   3   1  12  344.27   14.00
  -4  -1 -12  107.79    5.20
  -4  -1 -12  104.69    5.80
   4  -1  12  105.59    6.00
   4  -1  12  110.39    5.20
  -4  -1 -12  116.89    4.80
  -4  -1 -12  111.29    6.90
   4  -1  12  111.79    5.20
   4   1  12  102.59    4.90
   4   1  12  102.49    5.10
  -4   1 -12  106.99    4.50
  -4   1 -12  115.19    6.80
   4   1  12   98.69    6.30
  -4   1 -12   97.09    5.50
   5  -2 -12  126.39    5.80
  -5  -2  12  119.69    7.70
   5  -2 -12  121.99    6.40
  -5  -2  12  124.19    7.00
   5  -2 -12  131.79    6.00
  -5   2  12  125.79    8.60
  -5   2  12  126.69    7.50
   5   2 -12  131.49    5.90
   5   2 -12  127.09    7.20
   5   2 -12  132.09    6.00
  -4  -2  12  116.69    8.10
   4  -2 -12  104.49    6.20
   4  -2 -12   78.59   13.60
  -4  -2  12  102.79    8.50
   4  -2 -12  111.89    8.90
   4  -2 -12  108.89    5.50
  -4  -2  12  122.19    7.60
   4  -2 -12  111.19    5.30
   4   2 -12  113.29    5.20
   4   2 -12  100.69    6.60
   4   2 -12   96.69    9.70
  -4   2  12  107.39    9.20
   4   2 -12   99.49   16.30
   4   2 -12  106.59    9.10
   4   2 -12  112.09    5.60
  -4   2  12  112.69    8.00
   3  -2 -12  212.28    9.00
  -3  -2  12  199.58   11.10
   3  -2 -12  214.78    9.50
   3  -2 -12  215.08    9.00
  -3  -2  12  212.08   11.50
   3  -2 -12  209.98   10.00
   3  -2 -12  219.28   12.90
  -3  -2  12  210.88   11.30
  -3   2  12  201.68   11.20
   3   2 -12  197.48   10.60
  -3   2  12  204.08   11.70
   3   2 -12  212.98    9.50
   3   2 -12  197.38    9.50
   3   2 -12  190.18   11.00
   3   2 -12  207.78    8.70
   3   2 -12  244.28   15.70
   3   2 -12  210.08    8.70
   2  -2 -12   52.89    3.40
   2  -2 -12   49.30    3.90
  -2  -2  12   57.89    6.90
   2  -2 -12   53.79    3.30
   2  -2 -12   53.19    5.00
  -2  -2  12   47.10    5.80
  -2   2  12   66.29   11.10
  -2   2  12   69.69    6.60
   2   2 -12   65.49    5.20
   2   2 -12   58.99    3.40
   2   2 -12   57.59    3.40
   2   2 -12   56.29    4.40
   2   2 -12   58.99    4.70
   2   2 -12   62.59   11.20
   2   2 -12   66.99    7.30
  -2   2  12   78.09    8.70
  -1  -2  12  700.63   30.60
   1  -2 -12  753.62   28.60
   1  -2 -12  746.13   29.70
   1  -2 -12  770.02   29.80
  -1  -2  12  719.03   29.70
   1   2 -12  695.63   28.00
  -1   2  12  698.73   27.50
   1   2 -12  727.13   28.50
   1   2 -12  710.63   28.80
   1   2 -12  723.13   27.30
   1   2 -12  725.23   27.60
  -1   2  12  672.93   29.00
   0  -2 -12  638.84   25.20
   0  -2 -12  599.64   23.70
   0  -2  12  609.74   24.90
   0  -2  12  614.54   23.80
   0  -2  12  614.44   24.10
   0  -2 -12  606.14   25.10
   0   2 -12  608.54   25.30
   0   2 -12  623.74   24.80
   0   2  12  580.04   25.20
   0   2 -12  601.54   23.60
   0   2  12  626.14   23.70
   0   2  12  618.04   23.70
  -1  -2 -12  521.55   21.10
   1  -2  12  476.15   20.40
  -1  -2 -12  506.45   19.90
  -1  -2 -12  500.85   19.20
   1  -2  12  440.26   22.20
  -1  -2 -12  477.05   20.90
   1  -2  12  503.75   19.40
   1  -2  12  494.25   19.80
   1  -2  12  469.05   19.60
   1  -2  12  509.35   19.40
  -1  -2 -12  512.45   21.00
  -1   2 -12  528.05   21.90
  -1   2 -12  530.45   20.40
  -1   2 -12  492.45   21.40
   1   2  12  490.35   22.20
   1   2  12  489.75   20.00
   1   2  12  508.85   19.90
  -1   2 -12  508.25   19.70
   1   2  12  507.95   19.80
  -1   2 -12  490.15   21.10
  -2  -2 -12  258.57   10.60
   2  -2  12  242.18   12.10
   2  -2  12  274.77   10.90
   2  -2  12  266.07   10.80
  -2  -2 -12  265.57   12.50
  -2  -2 -12  266.77   13.10
   2  -2  12  259.27   11.20
   2  -2  12  263.77   15.50
  -2  -2 -12  274.87   13.80
  -2  -2 -12  265.47   11.40
   2  -2  12  257.77   11.50
  -2   2 -12  254.87   11.90
   2   2  12  257.77   10.40
  -2   2 -12  258.37   12.80
  -2   2 -12  256.87   11.00
  -2   2 -12  256.47   10.30
   2   2  12  237.68   14.00
   2   2  12  256.07   10.60
   2   2  12  253.07   10.80
  -3  -2 -12   74.49    4.60
   3  -2  12   73.39    5.00
   3  -2  12   72.69    5.10
  -3  -2 -12   79.69    3.90
  -3  -2 -12   71.89    5.60
  -3  -2 -12   77.69    7.10
   3  -2  12   77.49    4.00
   3  -2  12   75.59    4.10
  -3   2 -12   76.59    5.60
   3   2  12   76.09    4.00
  -3   2 -12   76.39    6.50
   3   2  12   78.59    4.80
  -3   2 -12   72.59    3.70
   3   2  12   77.39    4.30
  -4  -2 -12   49.80    5.30
  -4  -2 -12   57.39    4.00
   4  -2  12   56.59    4.00
   4  -2  12   54.69    3.20
  -4  -2 -12   51.89    3.30
  -4  -2 -12   52.99    2.90
   4  -2  12   50.79    3.50
   4   2  12   56.79    6.40
   4   2  12   57.29    4.30
   4   2  12   60.59    3.50
  -4   2 -12   58.99    5.10
  -4   2 -12   59.19    2.90
  -4   2 -12   51.39    3.80
   5  -3 -12   -3.00    1.60
  -5  -3  12   -0.80    2.70
   5  -3 -12   -1.10    2.30
  -5  -3  12    5.00    2.60
   5  -3 -12   -2.30    2.00
  -5   3  12    3.20    2.80
   5   3 -12    2.60    2.70
   5   3 -12    1.00    1.80
   5   3 -12   -2.90    1.90
  -5   3  12    1.50    4.10
  -4  -3  12  101.89    8.00
  -4  -3  12  110.79    7.70
  -4  -3  12  101.69    7.10
   4  -3 -12  111.29    8.20
   4  -3 -12  103.09    5.30
   4  -3 -12  108.29    5.30
   4  -3 -12  110.09    5.90
   4   3 -12   90.89    6.10
   4   3 -12   80.09    6.40
  -4   3  12   97.39    7.30
  -4   3  12   85.99    8.40
   4   3 -12   92.39    4.50
   4   3 -12   88.09    4.70
  -3  -3  12  174.98    9.90
   3  -3 -12  187.68    7.90
   3  -3 -12  188.28    9.50
   3  -3 -12  180.58    8.00
   3  -3 -12  182.78    8.30
  -3  -3  12  183.98   10.10
  -3  -3  12  184.38   10.60
   3   3 -12  206.68    8.60
   3   3 -12  202.98    8.50
  -3   3  12  204.38   11.30
   3   3 -12  208.28    9.50
   3   3 -12  194.38   10.70
   3   3 -12  173.68   16.10
  -3   3  12  220.28   11.70
   3   3 -12  194.78    9.30
   2  -3 -12  753.22   29.20
   2  -3 -12  749.23   30.40
   2  -3 -12  776.72   29.10
  -2  -3  12  728.13   31.00
   2   3 -12  786.12   28.90
   2   3 -12  750.62   30.20
   2   3 -12  706.83   29.40
  -2   3  12  736.63   30.80
   2   3 -12  785.12   28.90
  -2   3  12  751.52   31.00
   2   3 -12  734.93   29.20
   2   3 -12  710.23   33.00
  -1  -3  12  125.39    5.50
  -1  -3  12  126.29    7.30
   1  -3 -12  129.99    5.70
   1  -3 -12  126.99    7.20
   1  -3 -12  127.19    7.40
  -1  -3  12  132.29    7.50
  -1  -3  12  123.29    9.90
   1   3 -12  167.48    7.30
  -1   3  12  162.08    7.20
   1   3 -12  174.38   10.20
  -1   3  12  163.58    9.20
   1   3 -12  164.48    6.90
   1   3 -12  159.98    8.40
   0  -3  12   22.70    3.70
   0  -3 -12   13.20    1.50
   0  -3 -12   16.80    3.30
   0  -3  12   12.90    1.60
   0  -3  12    9.40    1.70
   0  -3 -12   15.00    3.10
   0   3 -12   12.70    2.10
   0   3 -12   11.80    2.80
   0   3  12   17.70    3.80
   0   3  12   10.00    1.60
   0   3  12    9.80    1.40
   0   3 -12   16.60    4.00
   1  -3  12  357.06   14.30
   1  -3  12  346.57   14.20
  -1  -3 -12  352.96   16.30
   1  -3  12  344.57   14.60
  -1  -3 -12  354.16   15.90
  -1  -3 -12  359.36   15.00
  -1  -3 -12  386.46   18.40
  -1  -3 -12  356.06   14.10
  -1   3 -12  283.37   13.60
  -1   3 -12  301.87   11.70
   1   3  12  289.97   12.20
  -1   3 -12  295.37   13.60
  -1   3 -12  301.87   14.10
   1   3  12  279.17   15.60
   1   3  12  296.77   11.90
  -2  -3 -12  207.18   10.40
  -2  -3 -12  210.08    9.60
   2  -3  12  200.88    9.40
   2  -3  12  212.48    8.80
   2  -3  12  217.78    9.40
  -2  -3 -12  208.28   11.10
  -2  -3 -12  210.18    8.60
   2  -3  12  213.98    8.80
   2  -3  12  197.98   10.40
   2  -3  12  187.38   15.20
  -2  -3 -12  210.08    9.40
  -2  -3 -12  218.28   11.80
  -2   3 -12  214.48   11.60
   2   3  12  218.18    9.50
   2   3  12  224.38    9.10
   2   3  12  221.88    9.30
  -2   3 -12  216.88   10.60
  -2   3 -12  222.18    9.00
   3  -3  12  336.67   14.40
   3  -3  12  336.47   13.80
  -3  -3 -12  350.96   15.10
   3  -3  12  337.37   14.20
   3  -3  12  346.87   13.80
  -3  -3 -12  346.17   14.20
  -3  -3 -12  338.87   15.90
  -3  -3 -12  353.06   13.60
  -3   3 -12  369.96   16.10
  -3   3 -12  331.77   14.90
   3   3  12  345.27   14.50
   3   3  12  353.96   14.10
  -3   3 -12  350.76   13.80
   3   3  12  358.06   14.20
  -4  -3 -12   34.60    3.30
   4  -3  12   33.20    2.60
   4  -3  12   38.50    3.20
  -4  -3 -12   36.90    2.30
  -4  -3 -12   30.60    2.60
  -4   3 -12   39.10    2.10
  -4   3 -12   40.90    4.40
   4   3  12   27.90    4.30
   4   3  12   42.90    3.10
   4   3  12   34.50    2.90
  -4   3 -12   35.10    3.20
   5  -4 -12  108.19    5.10
   5  -4 -12   95.99    5.60
  -5  -4  12  104.59    5.70
  -5  -4  12  114.29    6.30
   5  -4 -12  100.09    4.80
  -5  -4  12   87.09    7.20
   5   4 -12  111.69    6.10
  -5   4  12  100.29    8.40
  -5   4  12  114.19    6.70
   5   4 -12  112.19    5.40
   5   4 -12  119.89    5.40
   4  -4 -12   50.19    3.90
   4  -4 -12   52.49    9.20
   4  -4 -12   55.49    3.50
  -4  -4  12   54.59    6.20
   4  -4 -12   53.19    4.00
  -4  -4  12   51.09    5.40
  -4  -4  12   58.99    6.00
  -4   4  12   59.99    6.30
   4   4 -12   58.19    3.50
   4   4 -12   57.99    3.80
   4   4 -12   62.39    6.20
  -4   4  12   65.19    8.10
   4   4 -12   58.59    5.10
  -3  -4  12   30.70    5.20
  -3  -4  12   35.30    5.40
   3  -4 -12   27.50    2.90
  -3  -4  12   34.40    5.70
   3  -4 -12   23.10    3.30
   3  -4 -12   21.90    3.30
  -3   4  12   17.80    4.20
   3   4 -12   14.10    2.90
   3   4 -12   17.30    2.60
   3   4 -12   18.10    4.30
   3   4 -12   31.30    9.80
  -3   4  12   16.30    3.90
   3   4 -12   24.20    2.70
   3   4 -12   19.80    2.40
   2  -4 -12  215.68    8.80
   2  -4 -12  179.98   10.70
  -2  -4  12  223.88   10.70
   2  -4 -12  225.78    9.10
  -2  -4  12  217.78   11.80
   2   4 -12  231.78   11.50
   2   4 -12  215.08    8.80
  -2   4  12  214.98   11.20
  -2   4  12  201.98   11.80
   2   4 -12  209.08    8.90
   2   4 -12  207.18   17.00
   2   4 -12  210.68    9.20
   2   4 -12  200.98    9.90
  -1  -4  12  635.24   25.90
   1  -4 -12  687.63   27.40
  -1  -4  12  640.84   24.90
  -1  -4  12  653.03   28.10
   1  -4 -12  611.74   24.90
   1  -4 -12  657.73   26.70
   1   4 -12  650.63   25.60
   1   4 -12  681.83   27.00
   1   4 -12  632.64   26.50
  -1   4  12  678.63   30.10
   0  -4 -12 1053.29   42.20
   0   4 -12  954.20   39.60
   0   4 -12  976.30   39.00
   0   4  12 1002.10   38.00
   0   4  12 1004.90   38.00
   1  -4  12  219.58   11.10
   1  -4  12  244.38    9.70
  -1  -4 -12  235.38   10.50
  -1  -4 -12  232.48   12.10
  -1  -4 -12  246.98    9.60
  -1  -4 -12  240.18   10.60
   1  -4  12  239.68   10.00
  -1  -4 -12  223.98   11.70
  -1  -4 -12  237.58   11.60
  -1   4 -12  220.88    8.80
   1   4  12  217.18    9.10
   1   4  12  216.88    9.50
  -1   4 -12  212.98   11.40
   1   4  12  221.88    9.00
  -1   4 -12  210.48   11.00
  -2  -4 -12  119.19    7.50
  -2  -4 -12  123.49    6.30
   2  -4  12  125.49    5.60
  -2  -4 -12  124.29    6.40
  -2  -4 -12  116.59    9.70
  -2  -4 -12  118.09    5.40
   2  -4  12  126.39    6.10
   2  -4  12  127.99    5.80
  -2  -4 -12  116.69    8.30
   2  -4  12  118.79    7.10
   2   4  12  132.59    6.20
   2   4  12  141.79   11.40
   2   4  12  139.39    6.70
   2   4  12  125.19    9.00
   2   4  12  134.29    6.00
  -2   4 -12  133.39    7.50
  -2   4 -12  133.19    8.60
  -2   4 -12  140.29    5.80
   3  -4  12   74.19    6.90
  -3  -4 -12   86.79    7.30
  -3  -4 -12   88.49    5.10
  -3  -4 -12   91.59    5.70
   3  -4  12   90.79    6.60
  -3  -4 -12   88.19    6.70
   3  -4  12   82.99    4.20
  -3   4 -12   75.19    7.30
   3   4  12   83.19    5.60
  -3   4 -12  107.89    9.20
   3   4  12   87.29    4.70
  -3   4 -12   93.09    4.10
   3   4  12   94.39    4.50
   4  -4  12   69.79    3.60
  -4  -4 -12   67.29    4.20
  -4  -4 -12   71.29    3.30
  -4  -4 -12   72.49    3.60
   4  -4  12   71.89    4.00
  -4   4 -12   72.29    5.10
   4   4  12   69.69    4.00
  -4   4 -12   73.79    3.20
   4   4  12   78.79    5.00
  -4   4 -12   64.89    4.00
  -5  -5  12    7.20    3.30
  -5  -5  12   -1.10    2.20
   5  -5 -12   -0.30    1.60
   5  -5 -12    0.80    1.50
  -5  -5  12    5.80    2.10
   5   5 -12    0.50    1.60
   5   5 -12   -0.50    2.10
   5   5 -12    2.80    2.00
  -5   5  12   -3.00    2.70
   4  -5 -12  102.89    4.80
   4  -5 -12   89.79    5.90
  -4  -5  12   95.19    6.90
   4  -5 -12  104.99    5.20
  -4  -5  12   79.89    9.50
   4   5 -12   81.49    7.40
   4   5 -12   98.79    5.60
  -4   5  12   89.69    8.80
   4   5 -12   99.89    4.70
   4   5 -12   97.09    4.60
  -4   5  12   90.09    9.10
  -3  -5  12  143.59    8.40
   3  -5 -12  140.09    8.70
   3  -5 -12  146.49    6.60
   3  -5 -12  136.69    7.30
  -3  -5  12  146.59    8.20
  -3  -5  12  146.69    8.80
   3   5 -12  164.78    6.90
   3   5 -12  148.19   19.40
   3   5 -12  158.28    9.80
  -3   5  12  164.18    9.40
  -3   5  12  154.68    9.80
   3   5 -12  148.69    9.80
   3   5 -12  159.78    7.40
  -2  -5  12  257.37   11.90
   2  -5 -12  266.27   10.40
  -2  -5  12  262.67   10.10
  -2  -5  12  261.97   11.90
  -2  -5  12  216.28   14.20
   2  -5 -12  251.27   10.80
  -2  -5  12  236.58   12.60
   2   5 -12  260.27   12.30
   2   5 -12  266.57   12.90
   2   5 -12  278.37   11.00
  -2   5  12  275.37   13.70
  -2   5  12  264.17   13.10
   2   5 -12  272.07   11.00
   2   5 -12  266.17   11.30
  -1  -5  12   88.79    5.50
  -1  -5  12   85.69    6.20
   1  -5 -12   76.59    6.00
  -1  -5  12   85.39    3.90
   1  -5 -12   69.29    7.80
   1   5 -12   73.99    6.80
  -1   5  12   87.89    6.50
   1   5 -12   70.89    4.10
   1   5 -12   69.89    3.80
   0  -5 -12   87.99    7.10
   0  -5  12   88.79    5.30
   0  -5  12   86.49    6.40
   0  -5 -12   80.09    6.20
   0  -5 -12   88.89    4.10
   0  -5  12   81.19    4.30
   0   5  12   83.19    6.70
   0   5  12   77.39    4.90
   0   5  12   81.19    4.10
  -1  -5 -12  357.86   13.70
   1  -5  12  347.77   14.00
  -1  -5 -12  347.97   16.40
   1  -5  12  329.47   15.30
   1  -5  12  347.37   13.70
  -1  -5 -12  341.77   14.40
  -1  -5 -12  327.47   15.50
  -1  -5 -12  354.46   14.60
  -1  -5 -12  346.77   15.50
   1   5  12  375.96   15.00
   1   5  12  365.66   20.10
  -1   5 -12  381.76   16.30
  -1   5 -12  392.16   14.80
  -1   5 -12  362.36   17.10
   1   5  12  379.66   15.10
  -2  -5 -12  269.27   12.50
  -2  -5 -12  276.67   11.50
   2  -5  12  273.97   10.90
  -2  -5 -12  255.67   14.70
  -2  -5 -12  270.17   10.80
  -2  -5 -12  253.07   13.20
   2  -5  12  276.07   11.30
  -2  -5 -12  277.37   11.70
   2  -5  12  264.47   11.10
   2   5  12  216.88   20.30
  -2   5 -12  284.67   12.30
   2   5  12  279.17   11.30
   2   5  12  277.67   11.20
  -2   5 -12  278.87   13.40
   2   5  12  283.47   11.90
  -2   5 -12  283.47   11.00
  -3  -5 -12   94.99    5.10
   3  -5  12  101.59    4.60
   3  -5  12   98.69    4.90
  -3  -5 -12   97.19    4.40
  -3  -5 -12   96.99    5.00
   3  -5  12   94.49    5.10
  -3  -5 -12   93.89    5.80
  -3   5 -12  104.59    7.00
   3   5  12   98.99    4.90
   3   5  12   97.89    4.70
  -3   5 -12   96.09    5.60
  -3   5 -12   98.39    4.40
  -4  -5 -12   34.60    2.00
   4  -5  12   35.70    2.50
  -4  -5 -12   30.80    2.30
  -4  -5 -12   33.00    2.90
   4  -5  12   30.80    2.90
   4   5  12   38.00    3.80
  -4   5 -12   27.80    3.90
   4   5  12   36.10    2.90
   5  -6 -12   53.39    3.00
  -5  -6  12   64.49    4.50
  -5  -6  12   55.49    3.70
  -5  -6  12   58.99    3.90
  -5  -6  12   58.29    2.70
   5   6 -12   58.89    3.30
   5   6 -12   57.29    3.70
  -5   6  12   48.20    4.20
  -4  -6  12   26.10    4.50
  -4  -6  12   34.00    4.20
   4  -6 -12   29.80    2.70
  -4  -6  12   32.40    2.10
  -4  -6  12   28.80    4.20
   4  -6 -12   29.00    2.80
  -4   6  12   31.40    4.80
   4   6 -12   34.40    3.30
   4   6 -12   33.40    2.90
  -4   6  12   28.50    4.80
   4   6 -12   29.80    2.60
  -3  -6  12   48.80    5.30
   3  -6 -12   51.29    3.40
  -3  -6  12   45.50    5.10
  -3  -6  12   47.00    5.50
   3  -6 -12   47.10    3.40
  -3  -6  12   50.79    2.80
  -3   6  12   43.70    5.70
   3   6 -12   51.29    3.20
   3   6 -12   51.59    3.30
   3   6 -12   55.39    3.70
   3   6 -12   41.20    6.60
  -3   6  12   42.10    6.50
  -2  -6  12   13.40    2.90
  -2  -6  12   20.40    3.40
  -2  -6  12   14.00    4.10
  -2  -6  12   14.70    1.50
  -2  -6  12   22.30    5.00
   2  -6 -12   12.70    1.70
  -2   6  12   18.40    4.10
   2   6 -12   15.60    2.30
   2   6 -12   10.10    4.20
  -2   6  12   19.00    3.80
   2   6 -12   10.40    1.80
   2   6 -12   15.60    2.60
   1  -6 -12  403.76   19.40
  -1  -6  12  422.46   18.10
   1  -6 -12  435.86   18.00
  -1  -6  12  452.85   17.70
  -1  -6  12  407.66   16.50
   1   6 -12  419.66   18.10
   1   6 -12  379.96   15.80
  -1   6  12  410.16   17.70
   1   6 -12  410.26   16.10
  -1   6  12  396.26   18.90
   0  -6  12  188.38    8.80
   0  -6 -12  185.68    7.70
   0  -6 -12  182.68    9.80
   0  -6 -12  191.88   10.50
   0  -6  12  192.08    9.80
   0  -6 -12  183.48   11.10
   0   6  12  182.08    7.80
   0   6  12  190.78   10.10
  -1  -6 -12   98.79    5.90
  -1  -6 -12   96.99    5.80
   1  -6  12   94.19    4.90
  -1  -6 -12   86.59    6.60
  -1  -6 -12  100.39    7.90
  -1  -6 -12   96.89    9.00
   1  -6  12   93.49    5.40
  -1  -6 -12  104.39    4.50
   1   6  12  118.39    5.50
   2  -6  12   96.99    5.30
  -2  -6 -12  101.59    6.50
  -2  -6 -12  102.39    5.60
   2  -6  12  100.89    5.00
  -2  -6 -12  103.19    4.50
  -2  -6 -12   94.29    5.30
   2   6  12   97.19    4.70
   2   6  12   92.99    4.70
   2   6  12   93.49    5.90
  -2   6 -12  108.29   10.80
  -3  -6 -12   63.49    4.60
   3  -6  12   68.89    3.70
  -3  -6 -12   71.39    3.30
   3  -6  12   67.79    4.00
  -3  -6 -12   73.69    4.10
  -3  -6 -12   74.89    4.00
  -3   6 -12   72.69    5.80
   3   6  12   64.39    3.60
   3   6  12   60.09    3.70
  -4  -7  12   85.79    5.50
  -4  -7  12   81.89    5.10
   4  -7 -12   89.69    4.10
  -4  -7  12   89.89    5.30
  -4  -7  12   86.89    3.80
   4   7 -12   97.79    4.40
   4   7 -12   87.89    4.70
  -4   7  12   93.29    5.90
   4   7 -12   96.99    4.70
  -4   7  12   72.79    7.90
  -3  -7  12  184.38    9.80
  -3  -7  12  197.78    9.30
  -3  -7  12  181.98    9.10
  -3  -7  12  189.58    9.40
  -3  -7  12  186.18    7.60
  -3   7  12  180.48   10.80
   3   7 -12  165.58    7.00
   3   7 -12  148.29    7.20
   3   7 -12  163.18   13.50
   2  -7 -12  116.69    7.30
  -2  -7  12  130.89    5.40
  -2  -7  12  122.89    9.00
  -2  -7  12  134.49    7.50
  -2  -7  12  127.79   10.60
  -2  -7  12  124.79    6.90
  -2   7  12  151.68    8.70
  -2   7  12  139.69    8.30
   2   7 -12  125.69    6.40
   2   7 -12  133.99    6.00
   2   7 -12  137.29    6.30
   1  -7 -12   40.80    5.20
  -1  -7  12   47.60    4.20
  -1  -7  12   41.60    4.80
  -1   7  12   30.10    4.70
   1   7 -12   30.50    2.80
   1   7 -12   33.00    7.10
  -1   7  12   33.80    4.70
   0  -7 -12   12.40    4.00
   0  -7 -12    5.50    6.40
   0  -7 -12   16.00    1.60
   0  -7 -12   12.90    3.90
   0  -7  12   16.80    2.60
   0  -7  12   16.10    3.60
   0   7  12   16.40    2.60
   0   7  12   18.80    3.50
   1  -7  12  154.78    7.30
  -1  -7 -12  154.38    6.40
  -1  -7 -12  153.98    7.60
  -1  -7 -12  153.18    7.40
   1  -7  12  153.48    6.50
  -1  -7 -12  150.48    8.40
   1   7  12  140.59    6.20
   1   7  12  142.39    6.50
  -2  -7 -12  158.38    6.60
   2  -7  12  166.38    7.40
   2  -7  12  161.48    6.80
  -2  -7 -12  152.68    7.30
  -2  -7 -12  153.08    8.20
  -2  -7 -12  163.58    7.50
   2   7  12  160.08    6.90
   2   7  12  158.08    6.80
  -3  -7 -12   57.09    4.00
   3  -7  12   52.09    3.50
  -3  -7 -12   56.89    2.70
   3  -7  12   56.89    3.00
  -3  -7 -12   52.59    3.30
  -3   7 -12   58.59    5.80
   3   7  12   63.19    3.30
   3   7  12   52.39    4.00
  -4  -8  12   59.19    3.70
  -4  -8  12   53.99    2.50
  -4  -8  12   45.30    4.00
  -4  -8  12   45.60    3.60
   4   8 -12   53.89    2.90
  -4   8  12   46.30    4.10
   4   8 -12   47.40    3.00
  -3  -8  12   28.20    3.90
   3  -8 -12   32.20    4.30
  -3  -8  12   22.60    3.50
  -3  -8  12   26.90    3.60
  -3  -8  12   26.30    1.90
  -3  -8  12   32.90    4.40
   3   8 -12   26.90    2.40
   3   8 -12   23.90    3.80
  -3   8  12   31.90    5.30
   3   8 -12   26.00    2.60
  -3   8  12   27.40    4.40
  -2  -8  12   42.60    5.50
  -2  -8  12   36.00    3.20
   2  -8 -12   26.70    5.10
  -2  -8  12   34.90    4.90
   2   8 -12   27.70    2.70
  -2   8  12   31.60    4.90
   2   8 -12   29.20    2.50
  -2   8  12   27.50    5.40
  -1  -8  12  256.27   11.00
   1  -8 -12  244.98   13.40
  -1  -8  12  253.17   11.60
   1   8 -12  259.47    9.90
  -1   8  12  241.98   11.50
  -1   8  12  223.48   14.30
   0  -8  12  209.68   11.30
   0  -8  12  198.48    9.10
   0   8  12  201.88   10.10
  -1  -8 -12  122.19    7.10
   1  -8  12  109.69    7.80
  -1  -8 -12  122.49    5.20
   1  -8  12  116.49    6.80
   1   8  12  128.99    5.70
  -2  -8 -12    9.00    1.10
   2  -8  12   10.10    2.00
  -2  -8 -12   10.90    2.20
  -2  -8 -12    9.20    2.50
  -2  -8 -12    8.80    1.90
   2   8  12   14.70    2.70
   2   8  12    9.80    2.50
   2   8  12   11.50    1.50
  -3  -9  12  103.29    7.00
  -3  -9  12  106.69    6.50
   3  -9 -12  103.89    7.40
  -3  -9  12  115.49    4.60
  -3  -9  12  118.99    5.80
   3   9 -12  107.89    5.00
  -3   9  12  112.09    6.30
  -3   9  12  104.79    9.40
   3   9 -12  119.89    5.00
  -2  -9  12   96.59    5.70
  -2  -9  12   95.59    5.20
  -2   9  12   93.79    6.00
   2   9 -12   88.59    4.20
  -2   9  12   86.29    6.20
  -1  -9  12   27.00    4.70
  -1  -9  12   25.40    3.10
  -1   9  12   25.30    3.90
  -1   9  12   19.20    3.60
   0  -9  12   19.00    2.80
   0  -9 -12   12.60    3.40
   0   9  12   21.30    3.70
  -1  -9 -12   83.89    5.40
  -1  -9 -12   77.89    3.60
   1  -9  12   76.99    4.30
   1   9  12   82.09    5.20
   1   9  12   77.59    4.70
  -2  -9 -12  117.29    4.50
  -2  -9 -12  105.89    5.70
   2  -9  12  100.79    5.60
   2  -9  12  109.09    5.10
   2   9  12   96.99    4.60
   2   9  12  103.49    5.50
  -2 -10  12   19.20    2.60
  -2 -10  12   19.10    3.10
  -2  10  12   23.70    3.90
  -2  10  12   19.40    3.80
  -1 -10  12   52.19    3.50
  -1  10  12   50.89    6.30
  -1  10  12   49.60    4.20
   0 -10 -12   77.39    9.30
   0 -10  12   78.59    4.10
   0  10  12   63.59    4.40
  -1 -10 -12   39.90    5.10
   1 -10  12   52.19    3.10
   1  10  12   46.70    3.60
  -5   0  13   69.69    5.30
   5   0 -13   69.29    4.00
   5   0 -13   85.39    6.30
   5   0 -13   75.09    4.70
   5   0 -13   69.39    4.20
  -5   0  13   73.49    6.10
   4   0 -13  425.16   17.10
  -4   0  13  415.36   19.20
   4   0 -13  436.46   18.20
   4   0 -13  431.56   17.10
   4   0 -13  433.16   17.40
  -4   0  13  432.66   18.70
  -3   0  13   69.29    7.50
   3   0 -13   78.79    7.10
  -3   0  13   73.59    7.30
   3   0 -13   83.99    5.00
   3   0 -13   79.89    4.20
   3   0 -13  112.49   16.50
   3   0 -13   80.79    4.30
  -3   0  13   64.59    8.10
   3   0 -13   74.89    6.30
   2   0 -13   35.70    4.90
   2   0 -13   26.30    2.80
  -2   0  13   36.60    7.50
   2   0 -13   30.10    4.20
   2   0 -13   43.60    7.10
   2   0 -13   23.50    2.60
   1   0 -13  465.55   17.80
   1   0 -13  448.36   19.00
  -1   0  13  455.75   19.00
   1   0 -13  465.75   19.10
  -1   0  13  443.06   19.80
  -1   0  13  433.06   17.80
   0   0 -13  789.12   31.10
   0   0  13  789.42   29.80
   0   0 -13  770.82   30.30
   0   0 -13  774.62   31.20
   0   0  13  778.42   30.10
   0   0  13  723.23   30.30
   0   0 -13  766.92   29.60
   1   0  13  181.98    8.70
   1   0  13  193.58    8.80
   1   0  13  193.08   13.70
  -1   0 -13  198.98   10.30
   1   0  13  195.38    8.20
   1   0  13  192.68    8.20
  -1   0 -13  203.98    8.10
  -1   0 -13  200.48    9.00
  -2   0 -13  116.19    7.70
   2   0  13  114.09    6.10
   2   0  13  130.09   12.70
   2   0  13  120.79    6.30
   2   0  13  115.39    5.40
  -2   0 -13   89.49   10.40
  -2   0 -13  112.69    7.30
  -2   0 -13  117.09    5.20
   2   0  13  117.79    5.40
  -2   0 -13  120.59    6.10
   3   0  13   -1.20    1.30
  -3   0 -13   -1.70    1.70
  -3   0 -13   -0.90    1.20
   3   0  13   -2.80    2.40
  -3   0 -13    3.10    2.80
   3   0  13    1.90    2.40
  -3   0 -13    0.90    2.60
   4   0  13  185.18    8.00
  -4   0 -13  195.48    7.60
   4   0  13  187.18    8.30
   4   0  13  187.58    7.90
  -4   0 -13  205.18    9.20
  -4   0 -13  176.78    8.30
  -5  -1  13    2.80    3.00
  -5  -1  13    6.60    2.90
   5  -1 -13    4.30    1.70
   5  -1 -13    4.30    2.00
   5  -1 -13    2.30    2.30
   5   1 -13    2.40    2.10
  -5   1  13    7.20    2.90
   5   1 -13    6.60    2.30
  -5   1  13    5.20    3.40
   5   1 -13    4.90    1.70
   4  -1 -13   87.29    7.50
   4  -1 -13   84.09    4.40
  -4  -1  13   63.59    9.10
  -4  -1  13   83.99    7.00
   4  -1 -13   77.49    4.40
   4  -1 -13   76.59    5.10
  -4  -1  13   79.39    6.60
   4   1 -13   74.09    5.20
   4   1 -13   78.69    6.80
  -4   1  13   83.69    7.70
   4   1 -13   81.29    4.40
   4   1 -13   78.99    4.30
   4   1 -13   75.09    6.90
  -4   1  13   80.59    6.80
   3  -1 -13  291.97   24.80
  -3  -1  13  332.47   15.40
  -3  -1  13  364.96   15.80
   3  -1 -13  329.87   13.60
   3  -1 -13  336.27   13.20
   3  -1 -13  323.87   14.40
   3  -1 -13  328.97   13.30
   3  -1 -13  285.07   15.10
  -3  -1  13  346.27   15.40
   3   1 -13  327.27   13.80
  -3   1  13  351.66   15.90
   3   1 -13  304.97   15.30
   3   1 -13  315.27   21.50
   3   1 -13  315.07   14.80
   3   1 -13  337.27   13.40
   3   1 -13  327.27   14.40
   3   1 -13  327.47   13.40
  -3   1  13  361.66   15.60
  -3   1  13  350.36   16.40
   2  -1 -13  467.85   17.90
   2  -1 -13  454.35   17.60
   2  -1 -13  440.86   17.60
  -2  -1  13  440.66   19.60
  -2  -1  13  433.86   21.00
   2  -1 -13  444.36   19.10
   2   1 -13  495.65   20.90
  -2   1  13  472.45   21.60
   2   1 -13  499.65   19.80
   2   1 -13  516.15   19.60
   2   1 -13  497.15   19.50
   1  -1 -13   65.19    5.60
  -1  -1  13   59.69    7.60
   1  -1 -13   65.79    3.80
   1  -1 -13   72.59    5.20
  -1  -1  13   74.69    6.00
  -1   1  13   70.39    6.10
  -1   1  13   77.19    6.80
  -1   1  13   69.59    3.90
   1   1 -13   62.39    3.70
   1   1 -13   61.89    3.80
   1   1 -13   67.79    5.30
   1   1 -13   69.29    5.90
   0  -1  13   39.90    2.80
   0  -1 -13   40.20    4.80
   0  -1 -13   48.60    5.20
   0  -1 -13   40.10    5.10
   0  -1 -13   47.10    2.90
   0  -1  13   40.90    3.30
   0  -1  13   57.09    5.10
   0   1 -13   42.70    5.50
   0   1  13   45.50    3.30
   0   1  13   42.90    3.40
   0   1 -13   46.30    4.60
   0   1  13   35.10    6.80
   0   1  13   41.30    2.80
   0   1 -13   45.90    3.00
  -1  -1 -13  218.58    9.00
   1  -1  13  218.78    9.10
   1  -1  13  213.58    9.60
  -1  -1 -13  233.98    9.90
  -1  -1 -13  240.68   11.80
  -1  -1 -13  223.98   11.10
  -1  -1 -13  205.08   12.20
   1  -1  13  203.98    9.70
   1  -1  13  223.78    9.20
  -1   1 -13  219.38    9.10
   1   1  13  220.88    9.30
  -1   1 -13  238.38   10.00
   1   1  13  207.48    9.70
   1   1  13  223.68    9.30
  -1   1 -13  229.58   11.40
   1   1  13  231.78   14.20
   2  -1  13  351.06   19.50
   2  -1  13  359.36   14.20
  -2  -1 -13  328.57   15.40
   2  -1  13  357.46   14.60
  -2  -1 -13  339.27   17.50
  -2  -1 -13  366.16   16.20
  -2  -1 -13  355.76   14.00
  -2  -1 -13  355.66   14.60
   2  -1  13  354.56   14.60
   2  -1  13  355.16   14.10
  -2   1 -13  301.77   12.50
   2   1  13  295.77   12.50
   2   1  13  276.67   17.30
   2   1  13  295.77   12.00
   2   1  13  278.47   12.60
  -2   1 -13  312.77   14.30
  -2   1 -13  310.27   11.80
  -2   1 -13  294.37   13.40
   2   1  13  298.67   12.10
   3  -1  13  208.98    8.60
  -3  -1 -13  211.48    8.30
   3  -1  13  188.98    9.30
   3  -1  13  194.28    9.90
   3  -1  13  207.58    8.60
  -3  -1 -13  196.98    8.90
  -3  -1 -13  221.08   10.80
   3  -1  13  194.78    9.40
  -3  -1 -13  205.48    9.90
   3   1  13  227.68    9.40
   3   1  13  228.08    9.50
   3   1  13  219.58   10.10
   3   1  13  217.58   10.30
  -3   1 -13  235.88   11.50
  -3   1 -13  233.08    9.20
  -3   1 -13  256.47   11.80
  -3   1 -13  211.08    9.70
   4  -1  13   38.80    3.50
   4  -1  13   48.90    2.90
  -4  -1 -13   48.00    2.40
   4  -1  13   49.20    3.60
  -4  -1 -13   41.30    3.40
  -4  -1 -13   49.90    4.60
  -4  -1 -13   47.90    2.80
  -4   1 -13   44.70    3.40
   4   1  13   48.90    3.30
  -4   1 -13   48.00    2.40
   4   1  13   47.80    3.10
  -4   1 -13   50.39    4.40
   4   1  13   51.39    4.80
  -5  -2  13  121.49    7.20
  -5  -2  13  121.99    6.60
   5  -2 -13  135.29    6.00
   5  -2 -13  117.49    6.00
   5  -2 -13  130.59    5.60
  -5   2  13  117.19    6.90
  -5   2  13  119.09    7.70
   5   2 -13  123.69    6.30
   5   2 -13  124.79    5.80
   5   2 -13  139.39    5.80
   4  -2 -13   68.49    4.60
  -4  -2  13   63.59    6.30
   4  -2 -13   71.49    8.10
  -4  -2  13   75.79    6.10
  -4  -2  13   64.89    7.40
   4  -2 -13   66.19    4.00
   4  -2 -13   65.79    4.10
   4   2 -13   87.49    4.50
  -4   2  13   78.89    6.60
  -4   2  13   93.89    8.00
   4   2 -13   93.19    7.10
   4   2 -13   79.19    4.40
   4   2 -13   79.49    5.40
   3  -2 -13   23.00    4.10
  -3  -2  13   28.70    5.90
  -3  -2  13   27.20    4.50
   3  -2 -13   27.20    5.40
  -3  -2  13   32.90    6.00
   3  -2 -13   26.20    3.40
   3  -2 -13   29.10    2.80
   3  -2 -13   34.20    3.10
   3   2 -13   27.10    5.00
   3   2 -13   18.60   10.70
   3   2 -13   23.90    4.90
   3   2 -13   33.70    6.60
   3   2 -13   26.80    2.70
  -3   2  13   24.20    4.30
   3   2 -13   26.10    2.70
  -3   2  13   42.00    6.50
   3   2 -13   29.50    3.80
  -2  -2  13   19.10    3.60
   2  -2 -13   26.60    6.50
  -2  -2  13   20.10    4.00
   2  -2 -13   23.20    2.50
   2  -2 -13   18.70    2.90
   2  -2 -13   19.80    3.00
   2   2 -13   32.60    4.90
  -2   2  13   35.10    5.50
  -2   2  13   31.20    5.90
   2   2 -13   29.40    2.70
   2   2 -13   47.30    8.00
   2   2 -13   30.70    4.20
   2   2 -13   22.30    3.50
   2   2 -13   31.20    3.40
   1  -2 -13  276.37   13.30
   1  -2 -13  263.37   12.20
  -1  -2  13  256.67   10.50
   1  -2 -13  255.07   10.60
  -1  -2  13  256.47   13.80
  -1  -2  13  264.77   13.60
   1   2 -13  271.47   11.40
  -1   2  13  295.67   13.60
   1   2 -13  280.27   13.30
   1   2 -13  299.47   13.00
   1   2 -13  276.87   11.70
  -1   2  13  288.07   11.60
   0  -2  13  274.27   11.30
   0  -2 -13  297.57   13.20
   0  -2 -13  280.47   11.30
   0   2  13  275.67   13.60
   0   2  13  297.07   11.70
   0   2  13  279.77   11.80
   0   2 -13  270.47   11.60
   0   2 -13  333.77   14.90
   0   2 -13  290.77   13.10
   1  -2  13  563.94   21.80
   1  -2  13  564.84   22.10
  -1  -2 -13  554.74   21.60
  -1  -2 -13  565.44   22.30
  -1  -2 -13  557.64   23.30
   1  -2  13  562.44   21.80
   1  -2  13  543.85   22.80
  -1  -2 -13  536.05   23.30
  -1  -2 -13  556.64   23.70
   1   2  13  546.65   22.70
   1   2  13  597.14   22.40
  -1   2 -13  576.44   22.10
   1   2  13  579.24   22.40
  -1   2 -13  573.64   24.10
  -1   2 -13  553.54   24.00
   2  -2  13  179.08    7.50
   2  -2  13  174.08    8.40
  -2  -2 -13  172.68    8.00
   2  -2  13  169.78    8.90
   2  -2  13  176.68    8.00
   2  -2  13  133.69   17.30
   2  -2  13  179.08    7.50
  -2  -2 -13  155.68   11.50
  -2  -2 -13  182.88    9.70
  -2  -2 -13  175.78    7.30
  -2  -2 -13  175.18    9.30
   2   2  13  167.48    7.20
  -2   2 -13  159.78    8.80
   2   2  13  165.28    7.90
  -2   2 -13  172.68    9.60
  -2   2 -13  169.88    7.00
   2   2  13  158.68   14.20
   2   2  13  167.38    7.80
  -3  -2 -13   56.99    7.60
  -3  -2 -13   69.89    6.80
  -3  -2 -13   84.69    5.60
   3  -2  13   67.39    4.70
   3  -2  13   73.49    3.80
   3  -2  13   56.89    5.80
   3  -2  13   68.49    3.70
   3   2  13   65.39    3.90
   3   2  13   66.09    5.20
  -3   2 -13   84.69    7.50
  -3   2 -13   72.39    6.10
  -3   2 -13   68.49    3.60
   3   2  13   67.69    3.70
   3   2  13   66.09    5.20
  -4  -2 -13   66.79    2.90
   4  -2  13   64.29    3.80
  -4  -2 -13   54.29    3.80
   4  -2  13   60.59    3.30
  -4  -2 -13   60.39    3.30
  -4  -2 -13   66.89    6.40
  -4   2 -13   59.79    3.90
   4   2  13   62.39    4.40
  -4   2 -13   70.59    3.00
   4   2  13   66.79    3.60
  -4   2 -13   63.89    4.80
   5  -3 -13    6.50    1.60
  -5  -3  13    1.90    2.60
  -5  -3  13    6.50    2.40
   5  -3 -13   12.70    2.80
   5  -3 -13    6.20    1.80
   5   3 -13    8.30    2.20
  -5   3  13    3.50    3.60
   5   3 -13    9.70    2.20
  -5   3  13    7.30    2.70
   5   3 -13    7.50    1.70
   4  -3 -13   64.39    4.30
  -4  -3  13   69.59    7.00
  -4  -3  13   71.99    5.80
   4  -3 -13   62.89    4.20
  -4  -3  13   74.99    6.30
   4  -3 -13   69.79    9.70
   4  -3 -13   61.59    3.70
   4   3 -13   65.99    3.90
   4   3 -13   69.39    4.00
   4   3 -13   85.69    7.20
   4   3 -13   72.79    5.10
  -4   3  13   61.99    6.50
  -4   3  13   70.19    7.50
   3  -3 -13  280.07   11.60
  -3  -3  13  274.77   13.50
  -3  -3  13  272.07   13.00
   3  -3 -13  279.77   11.40
   3  -3 -13  278.87   11.30
  -3  -3  13  276.07   13.20
  -3   3  13  259.57   13.00
   3   3 -13  226.58   12.50
   3   3 -13  265.37   10.40
   3   3 -13  251.37   10.30
   3   3 -13  242.48   22.20
   3   3 -13  245.68   11.60
   3   3 -13  256.17   10.80
  -3   3  13  255.67   12.70
   2  -3 -13  848.62   32.10
   2  -3 -13  799.52   33.80
  -2  -3  13  814.22   34.10
   2  -3 -13  869.21   32.40
  -2  -3  13  837.82   33.60
  -2   3  13  838.62   35.20
   2   3 -13  886.81   35.30
   2   3 -13  898.01   34.10
   2   3 -13  899.71   33.80
   2   3 -13  888.91   33.80
  -2   3  13  875.11   35.70
  -2   3  13  838.32   35.80
   1  -3 -13  171.48    9.40
  -1  -3  13  178.48    8.90
   1  -3 -13  181.08    9.00
  -1  -3  13  153.08    7.00
  -1  -3  13  167.98   10.50
   1   3 -13  200.68    9.70
   1   3 -13  172.28    7.60
   1   3 -13  180.38    7.80
  -1   3  13  176.88    7.90
  -1   3  13  193.28   10.00
   0  -3  13   40.70    4.70
   0  -3 -13   39.80    2.80
   0  -3 -13   46.10    4.90
   0  -3  13   43.40    3.20
   0   3  13   42.10    2.80
   0   3 -13   39.40    6.20
   0   3  13   42.30    5.30
   0   3  13   38.70    3.30
   0   3 -13   40.30    5.20
  -1  -3 -13   99.29    7.60
   1  -3  13  102.59    5.30
   1  -3  13  109.09    5.20
  -1  -3 -13   89.49    6.80
   1  -3  13  101.99    6.60
  -1  -3 -13   96.49    5.80
  -1  -3 -13   99.29    4.60
  -1  -3 -13   92.29    7.50
   1  -3  13  102.29    4.70
   1   3  13  100.89    4.50
   1   3  13   99.09    4.50
   1   3  13   87.59    7.00
  -1   3 -13   88.99    7.10
   1   3  13   86.99    5.40
  -1   3 -13   76.39    8.20
  -1   3 -13   85.29    4.30
   2  -3  13  108.89    5.20
   2  -3  13  107.39    7.10
  -2  -3 -13  107.49    7.10
   2  -3  13  114.29    7.00
  -2  -3 -13  108.29    7.60
  -2  -3 -13   96.79    9.90
   2  -3  13  117.69    5.40
  -2  -3 -13  112.79    5.00
   2  -3  13  111.19    5.70
  -2  -3 -13  117.09    5.90
  -2   3 -13  109.99    6.70
   2   3  13  106.19   12.30
   2   3  13  113.99    5.50
   2   3  13  115.69    6.70
   2   3  13  116.89    5.40
  -2   3 -13  118.29    7.90
  -2   3 -13  120.49    5.10
   3  -3  13  158.98    7.20
  -3  -3 -13  158.18    8.10
   3  -3  13  161.48    6.80
  -3  -3 -13  150.28    8.60
  -3  -3 -13  160.28    7.20
  -3  -3 -13  159.48    6.60
   3  -3  13  158.08    7.00
   3   3  13  154.48    7.90
  -3   3 -13  156.48    8.70
  -3   3 -13  142.69    7.50
   3   3  13  156.58    6.80
  -3   3 -13  159.78    6.40
  -4  -3 -13   39.20    2.50
   4  -3  13   39.60    2.90
   4  -3  13   39.90    2.60
  -4  -3 -13   37.00    2.10
  -4  -3 -13   32.30    3.00
  -4   3 -13   31.90    2.80
  -4   3 -13   38.50    3.80
  -4   3 -13   37.80    1.90
   4   3  13   30.70    3.70
   4   3  13   39.50    2.80
   5  -4 -13   68.59    3.70
  -5  -4  13   79.89    6.70
  -5  -4  13   73.49    4.90
  -5  -4  13   67.89    4.40
   5  -4 -13   70.99    3.80
   5   4 -13   87.09    4.10
  -5   4  13   77.69    5.20
   5   4 -13   76.69    4.50
  -5   4  13   79.69    9.40
   4  -4 -13   88.19    4.60
  -4  -4  13  110.29    8.10
  -4  -4  13   99.89    7.80
   4  -4 -13   85.29    5.40
  -4  -4  13   89.39    6.80
  -4   4  13   93.49   10.20
  -4   4  13  112.49    9.90
   4   4 -13   93.19    4.80
   4   4 -13   94.39    5.60
   4   4 -13  110.39    8.20
   4   4 -13   95.79    4.80
  -3  -4  13   15.10    3.70
   3  -4 -13    7.50    1.80
   3  -4 -13    8.70    3.90
  -3  -4  13   15.40    3.70
   3  -4 -13    7.60    1.90
   3   4 -13   13.90    5.00
  -3   4  13    9.00    3.80
   3   4 -13   10.20    1.80
   3   4 -13   15.80    4.70
   3   4 -13   10.50    1.90
   3   4 -13    9.60    2.10
  -3   4  13   13.80    3.90
   3   4 -13   29.40   16.10
   2  -4 -13  205.98    8.40
   2  -4 -13  183.58   11.10
  -2  -4  13  198.18   10.10
  -2  -4  13  204.78   11.10
   2   4 -13  225.68    9.30
   2   4 -13  207.48    8.90
   2   4 -13  205.08   11.10
  -2   4  13  202.58   11.70
   2   4 -13  225.28    8.90
  -2   4  13  211.68   11.20
   1  -4 -13  106.69    7.00
   1  -4 -13  113.99    7.80
  -1  -4  13  123.19    6.00
  -1  -4  13  115.39    7.10
  -1  -4  13  116.69    6.80
   1   4 -13  142.59    6.40
   1   4 -13  146.59    8.60
  -1   4  13  152.48    6.60
  -1   4  13  160.68    8.80
   1   4 -13  147.89    6.60
   0  -4  13  868.91   34.90
   0  -4 -13  845.42   35.00
   0  -4 -13  861.51   33.70
   0  -4 -13  926.21   35.90
   0  -4  13  882.91   33.80
   0   4  13  823.82   33.60
   0   4 -13  849.32   33.60
   0   4  13  802.12   32.60
   0   4 -13  817.12   33.80
   0   4  13  862.81   32.10
   1  -4  13  104.09    7.20
   1  -4  13  121.79    5.40
  -1  -4 -13  118.19    7.40
  -1  -4 -13  116.49    6.40
   1  -4  13  120.69    5.70
  -1  -4 -13  118.99    5.20
  -1  -4 -13  107.79    7.80
  -1  -4 -13  129.79    8.70
   1   4  13  120.19    5.40
  -1   4 -13  111.49    5.10
   1   4  13  114.99    5.30
   1   4  13  110.39    7.60
  -1   4 -13  113.09    8.00
   2  -4  13    2.40    1.30
  -2  -4 -13    2.40    2.10
  -2  -4 -13    3.40    1.20
  -2  -4 -13    4.30    2.80
   2  -4  13    2.00    1.50
  -2  -4 -13    3.20    3.20
  -2   4 -13   -3.00    2.90
  -2   4 -13    0.00    3.20
   2   4  13    2.10    1.40
  -2   4 -13    2.30    1.20
   2   4  13    2.70    2.50
   2   4  13    1.10    1.40
   3  -4  13   62.09    3.80
   3  -4  13   61.99    3.40
  -3  -4 -13   71.79    6.50
  -3  -4 -13   62.29    3.80
  -3  -4 -13   62.99    3.10
   3  -4  13   64.89    4.20
  -3  -4 -13   59.09    4.70
  -3   4 -13   56.79    4.30
   3   4  13   62.79    3.60
   3   4  13   61.69    3.60
  -3   4 -13   59.99    5.50
  -3   4 -13   64.29    3.00
   5  -5 -13   -3.50    1.80
  -5  -5  13   -2.20    3.30
   5  -5 -13    0.10    1.20
  -5  -5  13    1.00    0.80
  -5  -5  13    1.10    2.00
  -5  -5  13   -1.50    2.00
   5   5 -13   -1.60    1.60
   5   5 -13   -1.90    1.40
  -5   5  13   -1.70    2.10
   4  -5 -13   23.60    2.70
  -4  -5  13   29.80    4.70
  -4  -5  13   23.30    4.00
  -4  -5  13   33.00    4.90
   4  -5 -13   26.60    2.70
  -4   5  13   18.90    4.20
  -4   5  13   32.80    5.00
   4   5 -13   24.90    3.20
   4   5 -13   22.30    2.50
   4   5 -13   25.00    2.90
   3  -5 -13  246.68   10.10
  -3  -5  13  242.08   11.80
  -3  -5  13  238.18   11.40
  -3  -5  13  244.88   11.60
   3  -5 -13  244.18    9.90
  -3   5  13  242.98   12.40
   3   5 -13  252.17   10.20
   3   5 -13  250.07   10.50
   3   5 -13  236.58   12.70
   3   5 -13  249.88   10.20
  -3   5  13  253.37   12.40
  -2  -5  13  141.29    6.00
  -2  -5  13  141.69    7.90
   2  -5 -13  136.19    6.20
  -2  -5  13  146.99    8.10
  -2  -5  13  136.49    9.20
   2   5 -13  115.59    8.70
  -2   5  13  128.99    8.90
   2   5 -13  128.79    6.00
   2   5 -13  128.39    5.70
  -2   5  13  128.39    8.00
   2   5 -13  123.29    5.90
   1  -5 -13  154.78   10.20
   1  -5 -13  161.98    8.70
  -1  -5  13  167.68    8.20
  -1  -5  13  180.68    9.00
   1   5 -13  158.58    9.50
  -1   5  13  157.98    6.80
   1   5 -13  157.28    6.90
  -1   5  13  159.38    8.90
   0  -5 -13   -0.10    4.30
   0  -5 -13    5.00    2.80
   0  -5 -13   -1.00    1.30
   0  -5  13    2.10    2.20
   0  -5  13    2.40    3.00
   0   5 -13   11.50    5.00
   0   5  13    0.90    1.40
   0   5  13    2.20    3.00
   1  -5  13   71.69    6.10
   1  -5  13   77.09    3.90
  -1  -5 -13   62.99    3.40
  -1  -5 -13   63.99    8.00
  -1  -5 -13   66.69    5.00
  -1  -5 -13   58.49    6.00
  -1  -5 -13   68.29    6.40
   1   5  13   90.39    4.50
  -1   5 -13   71.89    7.50
   1   5  13   92.39    6.70
  -2  -5 -13  239.38    9.60
  -2  -5 -13  233.68   11.20
   2  -5  13  251.07    9.80
  -2  -5 -13  241.28   10.30
  -2  -5 -13  222.28   12.10
   2  -5  13  241.98   10.00
  -2   5 -13  271.07   10.10
  -2   5 -13  244.18   13.00
   2   5  13  255.67   10.30
   2   5  13  245.48   12.40
   2   5  13  260.47   10.40
  -2   5 -13  228.78   12.90
  -3  -5 -13  118.49    6.20
   3  -5  13  112.89    5.50
  -3  -5 -13  119.09    5.00
  -3  -5 -13  111.89    5.40
   3  -5  13  123.49    5.30
   3  -5  13  117.49    5.30
   3   5  13  111.49    5.20
   3   5  13  113.99    5.30
  -3   5 -13  112.19    6.90
   4  -6 -13   47.40    3.00
  -4  -6  13   51.19    2.60
  -4  -6  13   47.30    4.60
  -4  -6  13   48.80    4.10
  -4  -6  13   48.50    4.30
  -4   6  13   59.99    5.10
   4   6 -13   50.49    3.70
  -4   6  13   55.59    6.20
   4   6 -13   50.39    3.60
   4   6 -13   53.89    3.10
  -3  -6  13   31.50    2.20
  -3  -6  13   32.70    5.10
   3  -6 -13   29.90    2.70
  -3  -6  13   34.00    4.60
  -3   6  13   41.80    7.00
   3   6 -13   35.00    3.10
   3   6 -13   30.90    2.70
   3   6 -13   36.20    3.30
  -3   6  13   43.60    5.70
  -2  -6  13    1.50    3.80
  -2  -6  13    5.30    2.70
   2  -6 -13    4.80    2.70
  -2  -6  13    3.70    1.10
  -2  -6  13    7.70    2.70
   2   6 -13    3.10    1.30
   2   6 -13   -1.70    6.70
  -2   6  13    3.60    3.70
   2   6 -13    1.70    1.40
  -2   6  13    6.00    3.00
   1  -6 -13  145.39   11.80
  -1  -6  13  169.68    8.00
  -1  -6  13  174.18    8.80
   1  -6 -13  169.78    8.70
   1   6 -13  145.09   10.30
   1   6 -13  136.99    6.30
  -1   6  13  146.99    8.30
   0  -6 -13  297.57   11.50
   0  -6  13  305.27   12.50
   0  -6 -13  278.27   13.20
   0  -6 -13  285.07   15.10
   0  -6  13  293.17   13.20
   0   6  13  310.17   12.50
   0   6  13  313.97   14.20
   1  -6  13   90.99    4.40
  -1  -6 -13   88.59    6.50
   1  -6  13  100.69    5.10
  -1  -6 -13   77.99    5.60
  -1  -6 -13   89.49    4.10
   1   6  13   96.19    4.80
   1   6  13   87.19    6.40
   1   6  13   92.99    4.50
  -2  -6 -13   91.49    5.10
   2  -6  13   97.29    5.20
  -2  -6 -13   95.99    6.10
  -2  -6 -13  104.19    4.40
   2  -6  13   87.09    5.70
   2  -6  13  103.79    4.80
   2   6  13  101.69    4.90
   2   6  13   99.39    4.70
  -2   6 -13  104.89    7.60
   2   6  13   90.59    6.60
   3  -6  13   14.80    2.00
   3  -6  13   14.50    3.40
  -3  -6 -13   13.20    2.40
   3  -6  13   15.40    1.90
  -3  -6 -13   14.00    1.50
  -3  -6 -13   17.60    2.30
   3   6  13   11.70    2.90
   3   6  13   12.60    1.60
  -3   6 -13   17.80    3.10
  -4  -7  13   29.20    3.60
  -4  -7  13   32.20    1.90
  -4  -7  13   29.50    3.30
  -4  -7  13   33.50    3.90
  -4   7  13   35.70    4.10
   4   7 -13   30.70    2.40
  -4   7  13   24.80    4.60
   4   7 -13   31.90    2.70
  -3  -7  13  206.68    8.20
   3  -7 -13  210.18    9.50
  -3  -7  13  211.38    9.70
  -3  -7  13  193.38    9.50
  -3  -7  13  199.48    9.90
   3   7 -13  195.78    7.90
  -3   7  13  183.58    9.50
   3   7 -13  165.98    8.20
  -3   7  13  182.28    9.50
   3   7 -13  184.48    7.60
  -2  -7  13  137.79    6.00
  -2  -7  13  145.09    7.70
   2  -7 -13  136.89    7.90
   2   7 -13  136.89    6.10
  -2   7  13  145.19    8.20
  -2   7  13  142.39   12.20
   2   7 -13  143.29    6.30
   1  -7 -13   25.50    5.00
  -1  -7  13   30.80    3.70
  -1  -7  13   30.40    4.60
   1   7 -13   35.10    2.80
  -1   7  13   40.50    4.70
   0  -7 -13   12.80    6.00
   0  -7  13   10.20    2.20
   0  -7  13   12.30    3.40
   0   7  13   10.50    2.60
  -1  -7 -13  105.29    7.00
   1  -7  13  129.69    6.10
   1   7  13  111.99    4.80
   1   7  13  107.29    8.20
   1   7  13   79.99    8.40
  -2  -7 -13  155.48    7.20
  -2  -7 -13  161.88    6.60
   2  -7  13  168.98    6.70
  -2  -7 -13  158.88    7.90
   2  -7  13  164.58    7.20
   2   7  13  155.48    7.90
   2   7  13  152.98    7.10
   2   7  13  158.28    6.60
  -3  -8  13   15.70    1.70
  -3  -8  13   14.30    2.40
  -3  -8  13   14.40    3.70
  -3  -8  13   10.80    3.50
   3  -8 -13   18.70    2.80
   3   8 -13   12.30    2.00
   3   8 -13    8.80    2.00
  -3   8  13   10.90    3.00
  -3   8  13   10.30    3.10
  -2  -8  13   17.00    2.50
   2  -8 -13   16.20    3.00
  -2  -8  13   13.50    3.00
  -2   8  13   11.50    3.50
  -2   8  13   14.60    3.00
   2   8 -13   16.00    2.10
   1  -8 -13   89.69    7.20
  -1  -8  13   92.49    5.30
  -1  -8  13   90.99    6.10
  -1   8  13   78.29    8.90
   0  -8  13  107.19    5.70
   0   8  13   94.29    6.20
  -1  -8 -13   62.39    3.10
  -1  -8 -13   59.09    5.10
   1  -8  13   64.29    3.80
   1   8  13   59.39    3.40
   1   8  13   60.39    4.60
   2  -8  13   22.30    2.40
  -2  -8 -13   15.60    2.60
  -2  -8 -13   19.50    2.40
   2  -8  13   21.90    3.90
  -2  -8 -13   23.70    1.70
   2   8  13   24.20    3.60
   2   8  13   26.00    2.40
  -3  -9  13   56.49    3.80
  -3   9  13   65.59    5.90
   3   9 -13   61.69    3.00
  -3   9  13   60.49    6.00
  -2  -9  13   97.89    5.00
  -2  -9  13   94.99    5.50
  -2   9  13   89.99    5.70
  -2   9  13   90.79    6.10
   2   9 -13   99.09    4.10
  -1  -9  13   48.60    4.90
  -1  -9  13   56.69    3.60
  -1   9  13   54.29    4.40
   0  -9  13   10.70    1.90
   0   9  13    7.80    2.10
   1  -9  13   36.10    2.70
  -1  -9 -13   34.70    4.20
   1   9  13   34.00    3.40
  -1 -10  13   50.89    3.10
  -1  10  13   40.70    3.70
   0 -10  13   74.19    3.90
   0  10  13   56.49    3.90
   5   0 -14   43.40    3.70
   5   0 -14   48.40    2.90
   5   0 -14   36.20    3.40
   5   0 -14   33.60    6.70
  -5   0  14   44.00    4.20
  -5   0  14   40.20    4.50
  -4   0  14  175.38    9.70
   4   0 -14  180.58    7.90
   4   0 -14  172.98    7.60
   4   0 -14  179.98   11.10
  -4   0  14  167.88    9.70
   4   0 -14  172.28    7.50
   3   0 -14   -4.30    4.20
   3   0 -14    4.70    3.00
  -3   0  14   -0.50    4.20
   3   0 -14   -0.60    1.50
   3   0 -14   -0.60    1.80
   3   0 -14   -0.70    1.90
  -3   0  14   -4.20    4.00
   3   0 -14    1.60    4.80
  -3   0  14   -0.70    3.50
  -2   0  14   84.99    7.10
   2   0 -14   69.59    4.20
   2   0 -14   67.59    3.90
   2   0 -14   71.39    6.30
   2   0 -14   67.19    6.00
   1   0 -14  159.78    8.50
  -1   0  14  158.98    9.70
   1   0 -14  156.48    8.70
   1   0 -14  150.08    6.70
  -1   0  14  162.48    8.50
   0   0 -14  524.15   21.50
   0   0 -14  486.25   19.70
   0   0  14  494.35   19.80
   0   0 -14  517.45   21.60
   0   0  14  519.55   20.10
  -1   0 -14  595.74   23.80
   1   0  14  587.24   23.60
  -1   0 -14  590.34   25.30
  -1   0 -14  603.04   25.00
   1   0  14  594.34   23.30
  -1   0 -14  605.34   23.10
   1   0  14  600.74   23.30
  -2   0 -14  395.66   17.10
  -2   0 -14  408.26   16.40
  -2   0 -14  404.86   15.80
   2   0  14  401.76   16.00
  -2   0 -14  414.16   17.80
   2   0  14  395.26   16.80
   2   0  14  406.56   16.00
   2   0  14  397.86   16.40
  -3   0 -14   16.00    2.40
   3   0  14   14.70    2.50
  -3   0 -14   13.30    2.70
   3   0  14   19.90    3.20
  -3   0 -14   14.20    3.10
   3   0  14   10.00    3.00
   3   0  14   16.70    2.20
  -3   0 -14   16.00    1.80
   5  -1 -14   -1.40    1.80
  -5  -1  14    0.30    2.10
   5  -1 -14    1.00    2.90
   5  -1 -14    2.70    1.70
  -5  -1  14    2.70    2.80
   5  -1 -14    4.10    2.60
   5   1 -14    5.30    2.20
   5   1 -14    0.70    1.70
  -5   1  14   -0.10    2.40
  -5   1  14   -0.30    2.90
   5   1 -14    2.60    1.70
   4  -1 -14  165.88    7.00
  -4  -1  14  159.68   10.50
   4  -1 -14  157.28    7.20
  -4  -1  14  159.18   10.30
  -4  -1  14  165.38    9.30
   4  -1 -14  161.98   11.10
   4  -1 -14  164.78    7.40
  -4   1  14  177.28    9.90
   4   1 -14  169.58    9.70
   4   1 -14  184.58    8.20
  -4   1  14  183.88   10.30
   4   1 -14  175.48    7.60
   4   1 -14  183.58    7.60
   4   1 -14  157.88   10.80
   3  -1 -14   57.99    8.10
   3  -1 -14   67.79    4.30
  -3  -1  14   69.79    7.20
  -3  -1  14   79.89    6.80
   3  -1 -14   68.99    4.30
   3  -1 -14   67.09    4.20
  -3  -1  14   79.09    7.00
   3   1 -14   75.39    4.10
   3   1 -14   70.79    4.10
  -3   1  14   76.29    7.20
   3   1 -14   74.39    7.90
   3   1 -14   74.39    4.50
  -3   1  14   65.79    8.50
  -3   1  14   58.29    7.10
   3   1 -14   68.59    6.50
   3   1 -14   68.09    7.70
  -2  -1  14  519.55   22.60
   2  -1 -14  519.95   20.40
   2  -1 -14  524.85   20.70
   2  -1 -14  534.05   21.80
  -2  -1  14  545.95   22.00
   2  -1 -14  503.05   22.20
  -2   1  14  548.15   22.50
   2   1 -14  552.34   21.10
   2   1 -14  529.55   22.40
   2   1 -14  555.94   21.30
   2   1 -14  483.25   21.20
   2   1 -14  556.34   22.90
  -2   1  14  559.24   23.20
  -1  -1  14   64.89    5.50
   1  -1 -14   57.99    5.50
  -1  -1  14   70.39    7.30
   1  -1 -14   52.09    3.40
   1  -1 -14   54.79    5.60
  -1   1  14   62.59    6.40
  -1   1  14   53.89    5.50
   1   1 -14   53.89    5.40
   1   1 -14   44.50    3.20
   1   1 -14   51.99    5.60
   0  -1  14   32.10    2.80
   0  -1 -14   29.70    2.60
   0  -1 -14   29.10    5.00
   0  -1 -14   32.00    5.40
   0  -1  14   34.90    4.90
   0  -1  14   31.40    2.90
   0   1 -14   23.50    3.40
   0   1 -14   33.50    5.10
   0   1  14   29.30    2.50
   0   1  14   33.80    6.70
   0   1  14   27.20    2.90
   0   1 -14   27.70    5.00
   1  -1  14  317.97   14.20
  -1  -1 -14  325.17   15.70
   1  -1  14  325.67   13.30
   1  -1  14  323.87   13.20
  -1  -1 -14  337.27   13.00
  -1  -1 -14  333.67   15.00
  -1  -1 -14  338.47   13.80
   1  -1  14  326.87   13.60
  -1   1 -14  320.47   15.60
   1   1  14  333.97   13.20
  -1   1 -14  335.07   13.00
   1   1  14  338.77   13.20
   1   1  14  302.97   14.00
  -1   1 -14  339.27   15.10
   1   1  14  323.37   13.60
   2  -1  14  227.78   10.70
  -2  -1 -14  248.18   10.20
   2  -1  14  232.58   10.10
  -2  -1 -14  240.18    9.50
   2  -1  14  235.48    9.70
  -2  -1 -14  217.88   10.90
  -2  -1 -14  243.38   11.60
   2  -1  14  242.38    9.80
   2  -1  14  227.28   11.00
   2   1  14  201.98    9.10
   2   1  14  204.68    9.60
  -2   1 -14  201.88    8.90
  -2   1 -14  203.28   10.50
  -2   1 -14  197.78    9.80
  -2   1 -14  211.98    8.30
   2   1  14  201.68    8.60
   2   1  14  201.48    8.60
  -3  -1 -14  142.59    7.50
   3  -1  14  154.98    6.90
  -3  -1 -14  141.09    6.70
   3  -1  14  145.99    6.60
  -3  -1 -14  153.68    6.20
  -3  -1 -14  158.58    8.30
   3  -1  14  153.18    6.50
   3   1  14  174.98    7.30
   3   1  14  166.48    7.20
  -3   1 -14  172.98    8.90
  -3   1 -14  160.78    8.10
  -3   1 -14  172.08    6.90
   3   1  14  168.68    7.70
  -5  -2  14   93.29    5.80
   5  -2 -14   93.79    4.50
   5  -2 -14   96.39    5.60
  -5  -2  14   85.59    5.20
   5  -2 -14   93.39    4.30
  -5   2  14   84.29    6.00
   5   2 -14   91.79    4.20
  -5   2  14   84.39    5.30
   5   2 -14   86.79    4.50
   5   2 -14   69.49    4.80
   4  -2 -14   51.79    5.90
  -4  -2  14   64.29    6.00
   4  -2 -14   45.00    3.10
  -4  -2  14   48.60    5.80
   4   2 -14   51.39    4.40
   4   2 -14   52.39    3.40
  -4   2  14   56.29    7.70
   4   2 -14   55.59    3.60
   4   2 -14   59.79    8.40
  -4   2  14   68.19    7.10
  -3  -2  14   46.60    6.20
   3  -2 -14   52.99    4.10
   3  -2 -14   53.39    3.70
  -3  -2  14   47.90    6.30
  -3  -2  14   50.09    6.30
   3  -2 -14   57.29    3.70
   3   2 -14   58.39    4.00
   3   2 -14   43.70    6.80
  -3   2  14   54.39    6.90
   3   2 -14   54.39    4.00
  -3   2  14   50.39    6.50
   3   2 -14   54.69    3.60
   3   2 -14   51.89    7.30
   2  -2 -14  151.78    8.10
  -2  -2  14  143.69    9.10
   2  -2 -14  133.19    6.40
  -2  -2  14  162.68    8.40
   2  -2 -14  144.89    6.60
   2  -2 -14  142.19    9.10
   2   2 -14  143.29    8.60
   2   2 -14  133.49    6.60
  -2   2  14  154.88    9.20
   2   2 -14  139.49    8.60
   2   2 -14  147.39    6.70
   2   2 -14  145.29    6.30
  -2   2  14  147.69    8.70
   1  -2 -14  423.86   18.60
  -1  -2  14  424.76   17.70
  -1  -2  14  435.76   18.00
   1  -2 -14  441.46   18.20
  -1  -2  14  398.46   19.10
   1   2 -14  388.76   15.80
  -1   2  14  391.16   15.70
   1   2 -14  398.36   17.50
  -1   2  14  410.26   17.00
  -1   2  14  409.96   17.80
   1   2 -14  404.76   17.50
   0  -2  14  216.68   10.50
   0  -2 -14  226.98   11.40
   0  -2 -14  222.38   10.90
   0  -2  14  223.78    9.30
   0  -2 -14  222.78    9.00
   0   2  14  221.98    9.10
   0   2  14  206.88    8.70
   0   2 -14  206.58   10.70
   0   2  14  203.78   11.00
   0   2 -14  211.18   10.70
   1  -2  14  573.44   23.90
  -1  -2 -14  591.34   23.40
   1  -2  14  596.24   23.00
  -1  -2 -14  563.44   25.10
  -1  -2 -14  597.84   24.60
   1  -2  14  588.14   23.10
   1  -2  14  600.04   23.30
  -1  -2 -14  597.34   22.80
  -1   2 -14  605.94   24.60
   1   2  14  582.64   23.10
   1   2  14  591.04   22.80
   1   2  14  587.54   22.80
  -1   2 -14  591.04   22.50
   1   2  14  544.45   23.30
  -1   2 -14  568.24   25.00
   2  -2  14   21.80    3.00
  -2  -2 -14   18.40    3.40
  -2  -2 -14   14.50    3.20
  -2  -2 -14   21.90    3.00
  -2  -2 -14   19.30    2.10
   2  -2  14   20.70    2.90
   2  -2  14   17.70    2.30
   2  -2  14   27.40    4.40
  -2   2 -14   17.20    3.40
  -2   2 -14   20.20    2.00
   2   2  14   19.90    2.40
   2   2  14   23.80    3.30
   2   2  14   13.90    3.10
   2   2  14   25.90    2.40
  -2   2 -14   19.80    3.70
   3  -2  14   72.39    4.10
   3  -2  14   71.89    4.30
  -3  -2 -14   75.69    5.70
   3  -2  14   68.79    3.60
  -3  -2 -14   67.19    3.90
  -3  -2 -14   67.19    4.80
  -3  -2 -14   74.29    3.40
   3   2  14   83.29    4.80
  -3   2 -14   82.19    5.10
  -3   2 -14   84.99    3.80
   3   2  14   81.39    4.30
   3   2  14   82.19    4.10
   5  -3 -14   18.70    2.30
  -5  -3  14   20.50    3.50
  -5  -3  14   14.50    3.00
   5  -3 -14   14.90    2.30
  -5   3  14   11.40    3.30
  -5   3  14   14.80    3.00
   5   3 -14   17.50    2.70
   5   3 -14   18.90    2.30
   4  -3 -14   94.89    4.60
  -4  -3  14  103.29    6.40
  -4  -3  14   97.89    7.00
   4  -3 -14   89.79    5.60
   4  -3 -14   98.59    5.00
  -4  -3  14   97.59    7.10
   4   3 -14   97.79   14.90
   4   3 -14  117.49    5.70
  -4   3  14  109.29    7.30
   4   3 -14  116.69    5.30
  -4   3  14  118.89    8.10
   4   3 -14  115.99    5.80
  -3  -3  14  259.27   12.70
  -3  -3  14  250.57   12.00
  -3  -3  14  258.67   12.10
   3  -3 -14  251.97   10.30
   3  -3 -14  252.27   10.50
   3   3 -14  252.27   12.60
  -3   3  14  245.48   12.30
   3   3 -14  220.38   13.00
  -3   3  14  229.28   12.10
   3   3 -14  245.18   10.00
   3   3 -14  245.88   10.30
   3   3 -14  249.18    9.90
   2  -3 -14  324.37   16.50
   2  -3 -14  375.46   14.20
   2  -3 -14  376.86   15.60
  -2  -3  14  344.37   16.40
  -2  -3  14  357.66   15.70
   2   3 -14  387.16   17.30
   2   3 -14  410.06   15.30
   2   3 -14  346.17   15.50
   2   3 -14  408.16   15.60
  -2   3  14  398.76   17.50
   2   3 -14  376.26   17.60
  -2   3  14  382.26   17.00
   1  -3 -14  304.97   13.20
   1  -3 -14  284.67   13.90
  -1  -3  14  273.97   12.60
  -1  -3  14  294.07   13.10
  -1   3  14  268.57   11.30
   1   3 -14  292.87   13.60
  -1   3  14  280.07   13.50
   1   3 -14  283.47   11.40
   1   3 -14  295.37   13.50
   0  -3 -14   71.99    5.80
   0  -3 -14   75.39    7.10
   0  -3 -14   72.79    3.70
   0  -3  14   68.49    5.50
   0  -3  14   69.49    3.90
   0   3  14   68.59    6.20
   0   3  14   69.49    3.70
   0   3 -14   70.59    6.80
   0   3  14   70.59    4.10
   0   3 -14   72.69    6.90
  -1  -3 -14   71.39    4.90
   1  -3  14   62.49    4.70
  -1  -3 -14   73.39    7.10
   1  -3  14   71.89    4.00
  -1  -3 -14   74.29    7.60
  -1  -3 -14   67.19    5.90
   1  -3  14   71.49    5.60
  -1  -3 -14   71.29    3.50
  -1   3 -14   76.69    3.80
   1   3  14   69.19    7.20
  -1   3 -14   81.49    6.60
   1   3  14   79.89    7.00
   1   3  14   83.39    4.20
   1   3  14   78.29    4.30
  -2  -3 -14  180.18    9.40
   2  -3  14  217.48   12.60
   2  -3  14  191.98    8.30
   2  -3  14  187.58    7.90
  -2  -3 -14  190.48    8.40
  -2  -3 -14  185.58    7.70
  -2  -3 -14  185.48    9.80
  -2   3 -14  166.58   10.80
  -2   3 -14  182.98    9.80
   2   3  14  180.38    7.70
   2   3  14  183.08    9.20
   2   3  14  180.78    7.70
  -2   3 -14  185.38    7.40
   3  -3  14  191.18    8.10
  -3  -3 -14  196.48    7.60
   3  -3  14  189.08    7.80
  -3  -3 -14  183.58    8.70
   3  -3  14  175.98    8.30
  -3  -3 -14  195.68    9.40
  -3  -3 -14  194.38    8.10
   3   3  14  192.58    8.50
   3   3  14  197.98    8.00
   3   3  14  189.78    8.20
  -3   3 -14  196.78    9.50
  -3   3 -14  196.98    7.70
  -3   3 -14  183.08    8.60
  -5  -4  14   31.50    3.50
  -5  -4  14   32.20    1.80
   5  -4 -14   34.40    3.40
   5  -4 -14   31.50    2.30
   5  -4 -14   24.10    3.10
  -5  -4  14   24.10    3.50
   5   4 -14   26.40    3.70
   5   4 -14   27.10    2.40
  -5   4  14   30.20    5.30
  -5   4  14   22.20    3.30
   4  -4 -14   77.79    4.30
  -4  -4  14   89.89    6.10
  -4  -4  14   78.79    5.60
  -4  -4  14   94.69    6.10
   4  -4 -14   85.79    4.20
  -4   4  14   93.19    6.70
   4   4 -14   80.49    4.00
  -4   4  14   77.39    6.00
   4   4 -14   73.29    4.40
   4   4 -14   74.99    4.40
  -3  -4  14   12.50    4.00
   3  -4 -14   16.70    2.60
   3  -4 -14   18.00    2.50
  -3  -4  14   27.80    5.00
  -3  -4  14   29.00    5.00
   3   4 -14   18.70    3.00
  -3   4  14   19.70    4.30
  -3   4  14   31.90    5.30
   3   4 -14   21.10    3.00
   3   4 -14   23.80    2.60
  -2  -4  14  150.28    9.30
   2  -4 -14  153.48    8.00
   2  -4 -14  119.19   10.70
  -2  -4  14  149.79    8.20
   2  -4 -14  150.18    6.40
  -2  -4  14  148.89    6.20
   2   4 -14  142.79    9.40
   2   4 -14  152.18    6.70
  -2   4  14  151.78   10.00
  -2   4  14  148.19    8.80
  -1  -4  14   88.09    6.20
   1  -4 -14   95.49    6.40
  -1  -4  14   89.59    5.90
   1  -4 -14   83.99    8.10
  -1   4  14  110.29    7.30
   1   4 -14   98.19    8.10
   1   4 -14  102.69    4.90
   0  -4 -14  239.78   12.70
   0  -4 -14  246.88    9.70
   0  -4  14  244.98   11.40
   0  -4  14  242.58    9.80
   0  -4 -14  235.38   11.50
   0   4  14  230.68   11.10
   0   4 -14  220.38   11.70
   0   4  14  232.78    9.20
   0   4 -14  208.78   12.20
  -1  -4 -14  113.59    9.60
   1  -4  14  140.29    6.00
  -1  -4 -14  122.09    8.20
  -1  -4 -14  136.29    5.60
   1  -4  14  138.19    5.90
  -1  -4 -14  133.49    7.70
   1  -4  14  126.09    7.50
  -1  -4 -14  125.79    6.70
  -1   4 -14  162.48    9.20
  -1   4 -14  158.88    6.70
   1   4  14  162.48    6.90
   1   4  14  162.58    7.00
   1   4  14  146.29    8.70
  -2  -4 -14   41.10    4.90
  -2  -4 -14   37.10    2.40
  -2  -4 -14   35.60    5.40
   2  -4  14   34.60    2.90
  -2  -4 -14   45.60    4.30
   2  -4  14   37.60    2.70
  -2   4 -14   21.90    7.00
  -2   4 -14   37.40    4.50
   2   4  14   34.50    2.90
   2   4  14   31.40    2.60
  -3  -4 -14   38.60    2.10
  -3  -4 -14   40.00    4.10
   3  -4  14   38.40    2.70
  -3  -4 -14   33.00    5.30
  -3  -4 -14   33.40    2.70
  -3   4 -14   36.00    2.20
   3   4  14   34.90    2.60
  -3   4 -14   40.20    4.40
  -3   4 -14   32.90    3.50
   3   4  14   33.80    3.30
   3   4  14   42.30    3.10
  -4  -5  14   19.10    1.70
   4  -5 -14   19.30    2.20
  -4  -5  14   18.70    3.20
  -4  -5  14   24.70    3.80
  -4  -5  14   25.00    3.80
  -4   5  14   21.00    4.30
   4   5 -14   16.40    2.50
   4   5 -14   24.90    2.60
  -4   5  14   19.20    3.60
   4   5 -14   23.50    2.30
   3  -5 -14  217.58    9.10
  -3  -5  14  225.78    8.90
  -3  -5  14  220.08   10.80
  -3  -5  14  228.38   10.70
   3   5 -14  219.78    8.90
   3   5 -14  215.68    9.10
   3   5 -14  196.88   10.10
  -3   5  14  223.58   14.20
  -3   5  14  220.28   11.00
  -2  -5  14  156.38    8.40
  -2  -5  14  164.88    8.50
   2  -5 -14  169.28    8.40
  -2  -5  14  145.79    9.70
  -2  -5  14  162.48    6.60
  -2   5  14  135.09    9.40
   2   5 -14  128.79    5.90
   2   5 -14  138.09    6.20
   2   5 -14  149.09   13.50
  -2   5  14  134.19    8.20
  -1  -5  14  299.67   13.00
   1  -5 -14  282.87   15.40
  -1  -5  14  307.67   13.70
   1  -5 -14  318.97   13.60
   1   5 -14  283.07   14.50
  -1   5  14  279.87   13.30
   1   5 -14  290.17   11.40
   0  -5 -14   61.19    3.40
   0  -5  14   68.59    4.60
   0  -5 -14   66.29    8.30
   0  -5 -14   56.69    5.30
   0  -5  14   59.59    5.50
   0   5  14   66.39    5.70
   0   5  14   65.29    3.70
   1  -5  14   34.60    5.40
  -1  -5 -14   37.90    2.40
   1  -5  14   39.50    2.80
  -1  -5 -14   31.70    5.00
  -1  -5 -14   32.00    5.90
   1  -5  14   38.50    3.40
  -1  -5 -14   31.20    4.90
   1   5  14   30.60    2.50
  -1   5 -14   27.90    4.60
   1   5  14   25.80    3.40
   1   5  14   26.10    4.70
  -2  -5 -14  292.37   11.10
   2  -5  14  298.57   11.40
  -2  -5 -14  274.17   13.00
  -2  -5 -14  273.37   11.60
  -2  -5 -14  268.67   12.30
   2   5  14  286.17   11.50
  -2   5 -14  292.27   13.20
   2   5  14  281.77   11.70
   3  -5  14   65.39    3.20
  -3  -5 -14   59.49    4.10
   3  -5  14   59.29    3.40
  -3  -5 -14   56.69    3.30
  -3  -5 -14   61.99    2.80
   3   5  14   68.59    3.90
  -3   5 -14   66.69    5.20
   3   5  14   63.69    3.50
   4  -6 -14   73.39    3.30
  -4  -6  14   64.09    4.60
  -4  -6  14   74.39    4.60
  -4  -6  14   73.99    3.20
  -4  -6  14   67.69    4.90
   4  -6 -14   72.29    4.60
  -4   6  14   77.29    5.70
   4   6 -14   75.89    3.90
  -4   6  14   76.19    5.30
   4   6 -14   78.59    3.80
   3  -6 -14    8.40    2.60
  -3  -6  14    7.30    1.10
  -3  -6  14    6.70    2.70
  -3  -6  14   15.80    3.90
   3  -6 -14    5.30    1.20
  -3  -6  14    7.40    3.30
   3   6 -14    3.60    4.70
  -3   6  14   11.80    3.60
  -3   6  14    5.30    3.00
   3   6 -14    7.50    1.60
   3   6 -14    8.50    1.40
   2  -6 -14   27.60    4.60
  -2  -6  14   35.10    5.20
  -2  -6  14   35.70    4.40
   2   6 -14   24.80    2.70
  -2   6  14   31.50    5.50
   2   6 -14   26.30    2.60
  -2   6  14   32.70    4.80
  -1  -6  14  365.46   15.30
  -1  -6  14  363.06   15.80
   1  -6 -14  380.06   15.90
  -1   6  14  346.47   15.40
   1   6 -14  348.17   13.60
   0  -6  14  246.98   10.40
   0  -6 -14  228.18   11.20
   0  -6  14  240.88   11.10
   0   6  14  236.68   11.30
   1  -6  14  161.38    7.10
  -1  -6 -14  135.59    8.30
  -1  -6 -14  120.09    7.80
   1   6  14  147.89    8.20
   1   6  14  147.19    6.40
   2  -6  14   67.29    3.30
  -2  -6 -14   65.89    4.80
   2  -6  14   65.79    3.70
  -2  -6 -14   60.79    3.90
  -2  -6 -14   65.39    3.00
   2   6  14   80.09    6.00
  -2   6 -14   72.79    6.60
   2   6  14   76.19    3.70
   2   6  14   58.39    4.50
  -4  -7  14   16.50    2.60
  -4  -7  14   13.10    1.90
  -4  -7  14    9.30    2.40
  -4  -7  14   11.50    2.80
   4   7 -14   14.70    1.80
   4   7 -14   14.20    2.30
  -4   7  14    9.40    3.60
  -4   7  14    7.10    3.90
   3  -7 -14   80.99    5.10
  -3  -7  14   78.89    5.00
  -3  -7  14   77.59    3.50
  -3  -7  14   65.99    5.80
  -3   7  14   66.19    5.70
   3   7 -14   69.99    3.60
   3   7 -14   72.49    5.00
  -3   7  14   69.99    5.30
  -2  -7  14  104.29    6.20
  -2  -7  14   99.39    5.50
   2  -7 -14   86.39    6.00
  -2   7  14   93.99    6.40
  -2   7  14   84.49    7.20
   2   7 -14   85.49    4.20
  -1  -7  14   71.99    5.20
  -1  -7  14   66.79    5.70
   1  -7 -14   65.79    5.50
  -1   7  14   83.89    7.30
   0  -7 -14   16.60    3.80
   0  -7  14   22.70    3.50
   0   7  14   20.10    3.90
   1  -7  14   50.29    3.50
  -1  -7 -14   50.09    5.00
  -1  -7 -14   55.29    2.80
   1   7  14   48.50    3.10
   1   7  14   49.30    4.40
  -2  -7 -14  119.79    6.40
  -2  -7 -14  124.79    6.50
  -2  -7 -14  139.39    5.30
   2  -7  14  137.99    5.90
   2   7  14  143.19    5.90
   2   7  14  126.99    8.50
   3  -8 -14   26.10    4.60
  -3  -8  14   32.80    3.10
  -3   8  14   35.10    4.10
  -3   8  14   25.20    4.60
   3   8 -14   27.90    2.10
   2  -8 -14   45.40    4.80
  -2  -8  14   35.40    3.80
  -2  -8  14   32.70    3.60
  -2   8  14   34.50    5.90
   2   8 -14   33.60    2.20
  -2   8  14   33.20    4.00
  -1  -8  14   75.89    4.50
  -1  -8  14   85.39    5.50
  -1   8  14   79.49    5.30
   0  -8  14  217.98    9.30
   0   8  14  188.58    9.00
  -1  -8 -14   60.99    6.50
   1  -8  14   64.29    3.50
   1   8  14   66.99    4.60
  -2  -9  14   85.29    4.70
  -2  -9  14   70.29    5.20
  -2   9  14   73.79    4.70
  -1  -9  14   33.60    2.90
  -1  -9  14   44.00    5.50
  -1   9  14   42.90    3.90
   0  -9  14   16.10    2.10
   0   9  14   13.70    2.80
   1   9  14   54.69    3.90
   5   0 -15   66.69    3.50
  -5   0  15   62.69    4.70
   5   0 -15   64.39    3.30
  -5   0  15   57.69    4.20
   4   0 -15   61.99    5.70
   4   0 -15   69.59    4.50
   4   0 -15   74.19    4.10
  -4   0  15   70.29    5.90
   4   0 -15   80.39    3.80
  -4   0  15   70.39    6.00
   3   0 -15    3.30    2.60
   3   0 -15    0.30    1.50
  -3   0  15    2.60    4.30
   3   0 -15    1.00    2.90
   3   0 -15    0.30    1.60
  -3   0  15    0.40    3.90
  -2   0  15  115.49    7.20
   2   0 -15  106.19    5.20
   2   0 -15  116.69    5.30
   2   0 -15   99.49    8.10
   2   0 -15  111.99    7.00
  -2   0  15  105.39    7.90
   1   0 -15  325.57   14.70
  -1   0  15  348.27   14.50
   1   0 -15  314.47   15.10
  -1   0  15  325.07   15.30
   0   0 -15  270.77   13.50
   0   0 -15  274.17   13.00
   0   0  15  296.07   12.60
   0   0  15  282.17   11.50
   1   0  15   41.50    4.10
  -1   0 -15   56.89    8.70
  -1   0 -15   39.50    2.60
  -1   0 -15   37.20    5.10
  -2   0 -15  204.68   10.10
   2   0  15  214.28    8.80
   2   0  15  209.08    9.20
   2   0  15  214.68    9.20
  -2   0 -15  217.18    8.60
  -2   0 -15  217.18   10.50
  -3   0 -15   54.39    4.00
   3   0  15   56.99    4.70
   3   0  15   55.29    3.10
  -3   0 -15   58.59    2.70
   3   0  15   53.99    3.60
   3   0  15   52.79    3.90
  -3   0 -15   58.29    4.70
  -5  -1  15   -1.10    2.30
  -5  -1  15    1.50    2.30
   5  -1 -15   -1.50    1.30
   5  -1 -15   -0.50    1.50
   5  -1 -15    3.00    2.80
   5   1 -15    3.70    1.50
  -5   1  15    2.70    2.40
  -5   1  15    3.20    2.30
   4  -1 -15   41.40    2.80
   4  -1 -15   38.90    4.30
   4  -1 -15   40.00    3.10
  -4  -1  15   32.70    4.90
  -4  -1  15   36.70    6.60
  -4  -1  15   39.70    5.20
   4  -1 -15   40.40    4.60
  -4   1  15   38.90    4.90
   4   1 -15   47.50    3.30
   4   1 -15   35.60    3.70
  -4   1  15   34.80    5.10
   4   1 -15   43.80    5.90
   4   1 -15   42.50    2.90
  -3  -1  15  151.58    8.40
   3  -1 -15  140.49    7.70
   3  -1 -15  140.29    6.50
   3  -1 -15  140.89    6.30
  -3  -1  15  137.49    9.10
  -3  -1  15  153.18    8.80
  -3   1  15  155.48    9.60
   3   1 -15  144.59    8.50
   3   1 -15  147.69    7.20
   3   1 -15  158.98    7.00
  -3   1  15  173.98    9.80
  -3   1  15  158.88    9.20
   3   1 -15  157.28    6.80
   2  -1 -15  144.79    8.00
   2  -1 -15  116.09    9.10
   2  -1 -15  140.29    6.30
  -2  -1  15  144.39    8.00
  -2  -1  15  149.59    8.90
   2   1 -15  125.59    7.70
   2   1 -15  122.39    8.60
   2   1 -15  117.99    6.00
  -2   1  15  138.09    7.60
  -2   1  15  148.19    8.60
   2   1 -15  129.29    6.00
   1  -1 -15  187.58    9.60
   1  -1 -15  191.38   10.50
  -1  -1  15  200.48    9.50
  -1  -1  15  180.18   10.60
   1   1 -15  206.48   10.80
  -1   1  15  200.78   10.90
  -1   1  15  216.88   10.00
   1   1 -15  200.78   10.40
   0  -1 -15   18.00    4.50
   0  -1  15   15.60    2.50
   0  -1 -15   22.50    4.40
   0  -1  15   16.90    3.20
   0   1  15   19.00    2.40
   0   1 -15   20.10    3.50
   0   1 -15   12.70    4.50
   0   1  15   15.10    1.90
   0   1  15   13.70    4.50
   1  -1  15  397.66   15.40
  -1  -1 -15  353.26   18.30
  -1  -1 -15  395.56   15.20
  -1  -1 -15  387.36   15.90
   1  -1  15  397.66   16.40
   1  -1  15  388.96   15.70
  -1  -1 -15  401.86   17.10
   1   1  15  384.56   15.50
  -1   1 -15  402.06   15.00
  -1   1 -15  408.86   17.00
   1   1  15  376.56   15.40
   1   1  15  395.26   15.20
  -1   1 -15  320.17   18.40
  -2  -1 -15  268.37   11.30
  -2  -1 -15  215.98   11.00
   2  -1  15  245.48    9.90
   2  -1  15  258.17   10.30
   2  -1  15  230.38   10.90
   2  -1  15  241.48   11.10
  -2  -1 -15  241.38   11.80
  -2  -1 -15  245.08    9.70
   2   1  15  240.28   11.10
   2   1  15  244.48   10.10
  -2   1 -15  231.58   11.20
  -2   1 -15  259.17   11.90
   2   1  15  247.48   10.40
  -2   1 -15  258.27    9.90
  -3  -1 -15   82.19    3.60
  -3  -1 -15   87.59    5.50
  -3  -1 -15   80.99    4.80
   3  -1  15   85.29    4.30
   3  -1  15   79.59    4.00
   3   1  15  104.89    5.00
   3   1  15   98.89    4.50
  -3   1 -15   92.89    5.20
   3   1  15   94.79    5.00
  -3   1 -15  101.89    6.00
   3   1  15   94.39    5.30
  -3   1 -15  101.49    4.20
  -5  -2  15   78.89    5.90
   5  -2 -15   83.49    4.10
   5  -2 -15   87.19    5.40
   5  -2 -15   91.39    4.00
  -5  -2  15   85.59    4.90
   5   2 -15   93.29    4.10
  -5   2  15   79.99    5.50
  -5   2  15   74.59    5.10
   5   2 -15   93.59    4.20
  -4  -2  15   52.89    5.30
   4  -2 -15   58.49    3.50
   4  -2 -15   64.89    4.90
  -4  -2  15   52.99    5.10
   4  -2 -15   63.59    3.30
  -4  -2  15   59.79    6.00
   4   2 -15   56.29    4.00
  -4   2  15   60.89    5.70
  -4   2  15   53.59    5.50
   4   2 -15   53.19    3.70
   4   2 -15   55.79    3.30
   3  -2 -15  121.99    5.60
  -3  -2  15  121.09    7.50
   3  -2 -15  119.99    6.90
  -3  -2  15  117.39    8.00
   3  -2 -15  119.79    5.40
   3   2 -15  124.39    5.70
  -3   2  15  113.39    8.50
   3   2 -15  117.49    5.40
   3   2 -15  115.29    6.00
  -3   2  15  123.29    8.00
   3   2 -15  124.09    8.90
   2  -2 -15   89.49    4.50
  -2  -2  15   92.89    4.20
   2  -2 -15   91.99    6.30
  -2  -2  15   98.49    6.40
  -2  -2  15   88.59    7.30
   2  -2 -15   78.69    8.20
   2   2 -15   86.09    7.50
  -2   2  15   94.29    7.00
  -2   2  15   90.99    6.70
   2   2 -15   92.79    4.70
   2   2 -15   94.89    7.20
   2   2 -15   99.79    5.90
  -1  -2  15  339.37   16.40
   1  -2 -15  331.07   16.00
   1  -2 -15  346.47   15.10
  -1  -2  15  357.96   15.00
  -1   2  15  344.87   15.60
   1   2 -15  309.87   13.20
   1   2 -15  335.77   15.10
   1   2 -15  332.67   15.50
  -1   2  15  364.46   14.80
   0  -2 -15  248.38   11.70
   0  -2  15  249.48   10.10
   0  -2  15  247.18   11.40
   0  -2 -15  240.98   12.70
   0   2 -15  240.58   12.80
   0   2  15  256.57   10.30
   0   2 -15  256.47   12.10
   0   2  15  253.57   12.40
   0   2  15  228.48   10.30
  -1  -2 -15  240.18    9.40
   1  -2  15  234.68   10.70
  -1  -2 -15  237.08   10.20
   1  -2  15  241.08    9.90
  -1  -2 -15  217.58   13.90
   1  -2  15  234.58    9.60
   1   2  15  197.88    8.30
   1   2  15  190.28    8.60
  -1   2 -15  194.08    8.00
  -1   2 -15  205.18   10.20
   1   2  15  200.78    8.60
  -2  -2 -15    7.40    3.10
   2  -2  15    6.90    3.30
   2  -2  15   13.20    2.10
  -2  -2 -15    8.20    2.20
  -2  -2 -15    4.90    3.00
   2  -2  15   12.20    3.10
  -2   2 -15    6.00    3.10
  -2   2 -15   12.10    1.80
   2   2  15   12.50    2.10
   2   2  15   15.00    2.40
  -2   2 -15   13.30    4.80
   2   2  15   15.10    2.10
  -3  -2 -15   39.20    2.80
  -3  -2 -15   40.60    3.70
   3  -2  15   48.30    3.00
   3  -2  15   40.60    2.80
  -3  -2 -15   49.00    4.50
  -3  -2 -15   46.60    2.30
   3   2  15   44.20    3.80
   3   2  15   52.39    3.40
  -3   2 -15   57.69    4.50
   3   2  15   45.20    3.80
  -3   2 -15   47.80    3.80
  -3   2 -15   52.89    2.50
  -4  -3  15   16.40    3.20
   4  -3 -15   25.40    2.40
  -4  -3  15   22.00    4.00
   4  -3 -15   20.20    2.40
   4  -3 -15   19.10    2.90
  -4  -3  15   25.00    4.50
   4   3 -15   20.00    2.30
   4   3 -15   22.20    3.70
   4   3 -15   23.30    2.70
  -4   3  15   26.40    4.50
  -4   3  15   25.80    4.60
   3  -3 -15  345.47   14.40
  -3  -3  15  381.36   16.00
   3  -3 -15  371.26   15.60
  -3  -3  15  365.26   16.30
   3  -3 -15  371.76   14.60
  -3   3  15  414.06   18.50
  -3   3  15  379.66   16.90
   3   3 -15  388.46   15.00
   3   3 -15  324.37   15.40
   3   3 -15  396.56   15.20
   2  -3 -15   97.89    4.70
  -2  -3  15  106.19    7.90
  -2  -3  15  101.49    4.50
  -2  -3  15  105.89    6.80
   2  -3 -15  104.59    6.60
  -2   3  15  125.69    7.40
   2   3 -15  100.59    8.30
   2   3 -15  116.99    5.30
   2   3 -15  104.29    8.80
  -2   3  15  108.39    7.40
   1  -3 -15  121.29    7.10
  -1  -3  15  120.39    7.00
   1  -3 -15  106.69    8.90
  -1  -3  15  118.49    6.80
   1   3 -15  121.99    8.50
  -1   3  15  119.29    7.30
   1   3 -15  131.89    8.40
  -1   3  15  121.59    8.00
   0  -3 -15    2.70    4.60
   0  -3  15    2.40    1.30
   0  -3 -15   -0.70    2.60
   0  -3  15    0.40    2.50
   0   3  15    2.90    3.20
   0   3 -15    2.00    3.30
   0   3  15    1.80    1.50
   0   3 -15    6.00    5.20
   0   3  15    4.60    2.20
  -1  -3 -15  147.59    6.00
  -1  -3 -15  138.69    7.90
   1  -3  15  144.99    7.40
   1  -3  15  142.09    6.40
   1  -3  15  141.69    6.40
  -1  -3 -15  140.69    7.10
  -1   3 -15  170.88    8.90
  -1   3 -15  136.79    7.30
   1   3  15  156.78    6.70
   1   3  15  155.48    7.20
   1   3  15  153.18    7.00
   2  -3  15  246.68    9.80
  -2  -3 -15  238.28   11.10
   2  -3  15  231.48   10.80
  -2  -3 -15  234.88    9.90
   2  -3  15  237.98    9.50
  -2  -3 -15  238.68    9.30
  -2  -3 -15  209.98   10.50
   2   3  15  254.87   10.30
   2   3  15  250.17   10.00
  -2   3 -15  245.08    9.70
  -2   3 -15  227.78   10.90
  -2   3 -15  255.07   11.70
   2   3  15  234.98   10.10
  -3  -3 -15   79.59    4.10
   3  -3  15   89.29    4.20
   3  -3  15   89.09    4.10
  -3  -3 -15   83.79    4.90
  -3  -3 -15   86.69    3.70
   3   3  15   81.79    3.90
  -3   3 -15   78.09    3.50
   3   3  15   80.99    4.20
  -3   3 -15   80.89    5.30
  -3   3 -15   71.49    5.10
  -4  -4  15   49.60    4.60
  -4  -4  15   33.10    4.30
   4  -4 -15   49.50    4.00
   4  -4 -15   42.70    2.70
  -4  -4  15   39.70    4.30
  -4  -4  15   43.50    2.30
  -4   4  15   40.30    4.80
   4   4 -15   40.30    2.90
   4   4 -15   33.70    2.60
  -4   4  15   42.10    4.70
  -3  -4  15   19.00    3.90
  -3  -4  15   22.30    5.10
   3  -4 -15   27.50    4.70
   3   4 -15   27.20    2.50
   3   4 -15   26.90    3.80
  -3   4  15   29.20    5.00
  -3   4  15   34.20    6.10
  -2  -4  15   12.10    4.00
  -2  -4  15    8.90    2.90
   2  -4 -15   10.80    2.80
  -2  -4  15    5.70    1.30
  -2   4  15   10.50    2.90
   2   4 -15   10.30    1.70
  -2   4  15   15.30    4.40
  -1  -4  15  166.68    8.20
  -1  -4  15  167.68    8.70
   1  -4 -15  179.68    8.80
  -1   4  15  174.18    9.30
  -1   4  15  162.28    8.70
   1   4 -15  181.78   11.60
   0  -4  15   94.69    5.30
   0  -4 -15   91.29    6.20
   0  -4  15   95.09    6.20
   0   4  15   94.19    4.70
   0   4 -15  101.29    7.50
   0   4  15   89.69    6.70
   1  -4  15   52.59    3.20
  -1  -4 -15   54.89    4.90
  -1  -4 -15   50.29    5.30
  -1  -4 -15   50.49    2.80
   1   4  15   63.99    3.50
   1   4  15   71.59    3.90
  -1   4 -15   64.19    7.80
   1   4  15   56.59    7.00
  -2  -4 -15   14.90    3.00
   2  -4  15   15.90    2.20
  -2  -4 -15   14.00    2.20
  -2  -4 -15   11.70    1.60
  -2  -4 -15   24.50    4.40
  -2   4 -15   16.80    3.30
   2   4  15   16.40    2.50
   2   4  15   15.50    2.10
   2   4  15   13.40    2.50
  -3  -4 -15   10.60    1.20
   3  -4  15    6.40    1.40
  -3  -4 -15    7.60    1.40
  -3  -4 -15    7.40    1.90
   3   4  15   11.30    1.60
   3   4  15    9.20    1.40
  -3   4 -15    8.20    2.50
   4  -5 -15   50.19    3.90
   4  -5 -15   48.50    2.60
  -4  -5  15   51.59    4.10
  -4  -5  15   45.90    4.20
  -4  -5  15   48.70    2.40
   4   5 -15   42.30    2.80
  -4   5  15   39.50    4.30
   4   5 -15   53.69    3.00
  -4   5  15   47.60    4.50
  -3  -5  15  103.59    6.30
   3  -5 -15   96.49    4.50
  -3  -5  15  100.99    6.60
   3  -5 -15  112.09    6.10
  -3  -5  15  107.39    4.50
  -3   5  15  113.19    6.90
   3   5 -15  107.59    4.90
   3   5 -15  113.59    5.10
  -3   5  15  100.29    7.30
   2  -5 -15  227.98   10.50
  -2  -5  15  217.28   10.40
   2   5 -15  200.08    8.10
  -2   5  15  185.38    9.80
  -1  -5  15   70.79    4.90
   1  -5 -15   69.79    5.40
  -1  -5  15   67.09    5.40
  -1   5  15   64.89    5.70
  -1   5  15   68.39    5.70
   0  -5 -15    0.80    2.50
   0  -5  15    3.10    3.00
   0  -5  15    5.10    2.10
   0   5  15    3.20    2.50
   0   5  15    1.40    1.40
  -1  -5 -15  126.79    7.50
   1  -5  15  136.39    6.80
  -1  -5 -15  135.09    5.60
   1  -5  15  128.29    7.50
   1   5  15  121.29    5.40
  -1   5 -15  128.39    8.50
   1   5  15  118.49    7.30
  -2  -5 -15   80.49    4.30
  -2  -5 -15   80.09    6.60
   2  -5  15   88.39    3.90
   2  -5  15   84.69    4.20
  -2  -5 -15   82.99    3.60
  -2  -5 -15   76.29    5.30
  -2   5 -15   78.69    6.20
   2   5  15   81.89    4.10
   2   5  15   78.09    3.80
  -4  -6  15   49.20    3.70
  -4  -6  15   61.19    3.10
   4  -6 -15   48.70    3.70
  -4  -6  15   49.60    4.30
   4   6 -15   48.60    2.60
  -4   6  15   45.80    4.30
  -4   6  15   39.00    3.90
   4   6 -15   40.40    2.90
  -3  -6  15   11.10    3.20
   3  -6 -15   11.70    2.50
  -3  -6  15   12.60    2.60
  -3  -6  15   13.70    1.70
  -3   6  15   12.80    3.50
  -3   6  15    8.00    2.60
   3   6 -15    2.10    1.80
   3   6 -15    6.80    1.30
  -2  -6  15   34.60    4.30
   2  -6 -15   36.30    4.20
  -2  -6  15   33.10    4.70
   2   6 -15   28.70    2.40
  -2   6  15   37.50    4.70
  -1  -6  15  319.37   14.10
   1  -6 -15  290.57   13.30
  -1  -6  15  288.47   12.50
  -1   6  15  268.27   12.20
  -1   6  15  291.57   13.90
   0  -6  15  112.19    5.60
   0  -6 -15  102.29    6.50
   0  -6  15   96.49    6.40
   0   6  15  101.09    6.70
   0   6  15  109.49    4.90
   1  -6  15  186.38    8.10
  -1  -6 -15  181.68    9.60
  -1  -6 -15  182.68    7.40
   1   6  15  172.78    7.00
   1   6  15  160.18    8.20
   1   6  15  157.88    6.90
  -2  -6 -15   13.50    1.50
   2  -6  15   18.40    2.00
  -2  -6 -15    6.20    4.10
  -2  -6 -15   14.20    2.30
   2   6  15   16.00    2.30
   2   6  15   21.50    2.20
  -3  -7  15   39.80    3.70
   3  -7 -15   42.20    3.80
  -3   7  15   40.70    5.70
   3   7 -15   48.20    2.60
  -3   7  15   49.90    4.30
   2  -7 -15   89.09    5.60
  -2  -7  15   81.59    5.40
  -2  -7  15  101.19    5.50
  -2   7  15   79.59    5.30
  -1  -7  15   10.40    2.80
   1  -7 -15    2.00    2.60
  -1  -7  15    5.90    1.90
  -1   7  15    6.70    2.60
   0  -7 -15    2.60    3.40
   0  -7  15   -1.80    1.40
   0  -7  15    1.90    3.10
   0   7  15   -1.50    2.00
   1  -7  15   49.50    3.20
   1   7  15   55.09    3.00
   1   7  15   48.10    4.40
  -2  -8  15   35.80    3.40
   2  -8 -15   40.00    5.40
  -2  -8  15   43.50    3.80
  -2   8  15   32.10    3.60
  -1  -8  15   11.20    2.80
  -1  -8  15   16.80    2.60
  -1   8  15    9.00    2.20
   0  -8  15  146.09    6.40
   0   8  15  139.19    6.60
   0   8  15  108.09    8.70
   1  -8  15   79.99    3.90
   1   8  15   93.39    6.80
   4   0 -16   51.49    3.10
   4   0 -16   55.99    3.10
  -4   0  16   51.39    4.80
   4   0 -16   54.09    5.20
  -4   0  16   42.20    5.00
   3   0 -16   13.20    1.80
   3   0 -16   16.60    6.10
  -3   0  16   12.50    3.40
   3   0 -16   11.80    1.70
  -3   0  16   19.30    4.10
   2   0 -16   29.30    4.70
   1   0 -16  468.95   21.70
   1   0 -16  565.04   21.30
  -1   0  16  501.05   20.70
  -1   0  16  470.05   21.30
   0   0 -16  438.76   21.70
   0   0 -16  441.66   18.90
   0   0  16  446.96   18.30
   0   0  16  432.66   17.30
   1   0  16  235.48    9.50
   1   0  16  225.48    9.20
   1   0  16  232.18   10.30
  -1   0 -16  232.98   11.00
  -1   0 -16  208.38    9.80
   2   0  16   82.89    4.90
  -2   0 -16   77.89    3.50
   2   0  16   78.69    4.10
   2   0  16   78.19    3.90
  -2   0 -16   73.29    5.70
   3   0  16   54.79    3.10
  -3   0 -16   55.69    2.50
  -3   0 -16   43.90    3.80
   3   0  16   50.89    3.10
  -3   0 -16   54.49    4.20
   4  -1 -16  101.39    5.80
  -4  -1  16   96.69    6.20
  -4  -1  16   93.99    6.00
   4  -1 -16  100.29    4.70
  -4  -1  16  101.89    7.20
   4  -1 -16  114.89    6.20
  -4   1  16   84.39    5.90
  -4   1  16   89.49    6.10
   4   1 -16   97.39    4.50
   4   1 -16   95.49    4.30
   3  -1 -16  141.69    6.20
   3  -1 -16  126.89    6.20
  -3  -1  16  155.38   10.00
  -3  -1  16  147.69    8.70
  -3   1  16  151.88    8.90
  -3   1  16  174.68    9.00
   3   1 -16  146.09    6.60
   3   1 -16  161.98    8.70
   3   1 -16  150.98    6.80
  -2  -1  16   99.59    6.40
  -2  -1  16   89.29    7.00
   2  -1 -16   91.69    4.40
   2  -1 -16   92.19    6.10
   2   1 -16   87.09    6.40
  -2   1  16   91.59    6.10
  -2   1  16   92.49    6.70
   2   1 -16   81.19    4.30
   1  -1 -16   74.39    8.00
   1  -1 -16   70.79    5.90
  -1  -1  16   89.89    5.60
  -1  -1  16   90.39    7.70
   1   1 -16   75.19    6.10
  -1   1  16   87.69    6.90
  -1   1  16   95.09    5.90
   1   1 -16   64.89    7.70
   0  -1 -16   23.00    4.20
   0  -1 -16    5.50    7.70
   0  -1  16   22.00    2.30
   0  -1  16   18.60    2.90
   0   1  16   22.00    2.60
   0   1  16   26.90    4.20
   0   1 -16   21.30    3.50
   1  -1  16   75.29    5.10
  -1  -1 -16   70.39    5.70
   1  -1  16   68.19    3.90
   1  -1  16   75.49    3.90
  -1  -1 -16   67.89    3.80
  -1   1 -16   48.10    3.70
  -1   1 -16   45.80    4.90
   1   1  16   49.10    3.40
   1   1  16   55.79    3.20
   1   1  16   57.89    4.60
  -2  -1 -16  203.18    9.50
   2  -1  16  196.58    8.10
   2  -1  16  194.88    7.90
  -2  -1 -16  196.38    7.70
  -2  -1 -16  162.08   10.40
   2  -1  16  192.28    8.80
   2   1  16  228.28    9.70
   2   1  16  214.08    8.90
  -2   1 -16  221.18    8.70
   2   1  16  214.48    9.10
  -2   1 -16  216.08   10.50
   3  -1  16   33.60    2.40
   3  -1  16   35.40    2.60
  -3  -1 -16   28.40    3.60
  -3  -1 -16   27.30    3.40
  -3  -1 -16   31.90    1.80
   3   1  16   30.00    3.80
   3   1  16   37.40    2.60
  -3   1 -16   30.90    3.70
   3   1  16   39.00    2.60
  -3   1 -16   36.40    3.70
   4  -2 -16   66.49    3.40
  -4  -2  16   73.99    5.70
  -4  -2  16   55.49    5.80
   4  -2 -16   77.39    4.90
  -4  -2  16   61.99    4.80
   4   2 -16   66.69    3.40
  -4   2  16   58.79    5.30
   4   2 -16   60.09    3.80
  -4   2  16   65.89    4.90
  -3  -2  16   12.10    3.80
  -3  -2  16   14.40    1.90
  -3  -2  16   13.40    3.60
   3  -2 -16   15.00    4.10
   3   2 -16    9.30    4.30
  -3   2  16   13.00    4.80
   3   2 -16    9.60    1.60
   2  -2 -16   88.69    5.80
  -2  -2  16   84.79    5.90
  -2  -2  16   78.99    7.00
  -2   2  16   85.39    6.00
  -2   2  16   68.99    6.10
   2   2 -16   69.39    6.60
   2   2 -16   81.29    3.90
   1  -2 -16  141.39   12.70
   1  -2 -16  179.98    8.80
  -1  -2  16  170.78    8.50
  -1   2  16  187.08    8.80
  -1   2  16  166.18    9.60
   1   2 -16  175.58    9.40
   0  -2  16  361.26   15.20
   0  -2 -16  352.36   15.60
   0   2  16  377.66   15.40
   0   2  16  339.37   16.20
   0   2 -16  365.26   16.10
   0   2  16  369.96   14.40
   1  -2  16   81.59    4.10
  -1  -2 -16   79.99    5.90
   1  -2  16   81.89    6.20
  -1  -2 -16   77.99    4.90
   1   2  16   75.39    3.80
  -1   2 -16   71.69    6.00
   1   2  16   76.09    4.10
   2  -2  16    3.30    2.80
  -2  -2 -16    3.10    1.00
  -2  -2 -16    2.90    1.70
   2  -2  16    3.20    1.90
   2  -2  16    2.80    1.20
  -2  -2 -16    3.50    2.40
  -2  -2 -16    5.00    3.20
   2   2  16    2.20    1.20
  -2   2 -16    1.40    2.40
  -2   2 -16    0.10    1.10
   2   2  16    0.50    1.30
  -4  -3  16   14.50    2.80
  -4  -3  16    8.20    4.30
  -4  -3  16   13.30    1.60
   4  -3 -16   14.50    2.50
   4  -3 -16   15.80    1.90
  -4  -3  16   16.30    3.20
  -4   3  16   15.90    3.30
   4   3 -16   19.90    2.10
  -4   3  16   15.40    2.90
   4   3 -16   14.60    2.20
  -3  -3  16  205.18    8.30
  -3  -3  16  216.48    9.90
   3  -3 -16  205.48    8.40
   3  -3 -16  214.58    9.70
  -3  -3  16  196.98   10.20
   3   3 -16  202.08    8.60
   3   3 -16  216.38    8.70
  -3   3  16  211.08   10.50
   2  -3 -16  207.18    9.80
  -2  -3  16  206.98   10.00
  -2   3  16  165.38   12.70
   2   3 -16  217.78   11.80
  -2   3  16  208.78   10.40
   2   3 -16  209.98    8.40
   1  -3 -16   27.60    4.30
  -1  -3  16   28.30    3.70
  -1  -3  16   23.70    4.20
   1   3 -16   21.30    4.10
  -1   3  16   33.30    4.20
  -1   3  16   28.10    5.10
   0  -3 -16    4.00    2.40
   0  -3  16    4.10    2.00
   0  -3  16   -0.20    2.40
   0   3 -16    2.80    3.30
   0   3  16    2.90    1.40
   0   3  16    7.60    3.50
   1  -3  16   39.60    4.50
  -1  -3 -16   45.60    2.60
   1  -3  16   46.60    2.90
  -1  -3 -16   47.10    5.30
   1   3  16   35.60    2.80
  -1   3 -16   36.50    5.40
  -2  -3 -16  272.67   10.30
  -2  -3 -16  257.57   10.70
  -2  -3 -16  267.77   11.80
   2  -3  16  283.77   10.60
  -2  -3 -16  229.08   11.70
   2   3  16  294.17   11.70
  -2   3 -16  294.07   12.90
   2   3  16  280.77   11.50
   4  -4 -16   29.70    3.40
  -4  -4  16   33.40    3.70
   4  -4 -16   24.50    1.90
  -4  -4  16   25.90    3.70
  -4  -4  16   27.60    1.80
  -4   4  16   25.40    4.40
   4   4 -16   25.60    2.70
  -4   4  16   31.00    3.80
   4   4 -16   28.90    2.20
  -3  -4  16    8.10    3.20
  -3  -4  16    7.70    2.60
   3  -4 -16    5.00    2.30
  -3  -4  16    3.70    1.10
   3   4 -16    3.30    1.30
   3   4 -16    5.50    1.90
  -3   4  16    4.00    2.60
  -2  -4  16    8.90    3.50
   2  -4 -16    9.20    3.20
  -2  -4  16   10.80    4.40
  -2   4  16    6.80    3.90
  -1  -4  16  114.99    6.80
  -1  -4  16  107.79    6.50
   1  -4 -16  125.79    7.00
  -1   4  16  110.89    7.20
  -1   4  16  119.49    8.00
   0  -4  16  265.47   13.90
   0  -4 -16  341.67   14.90
   0   4  16  270.37   13.00
   0   4 -16  255.67   12.70
   1  -4  16   45.00    4.40
  -1  -4 -16   38.20    2.40
  -1  -4 -16   34.10    4.70
   1  -4  16   37.60    3.20
   1   4  16   33.50    2.70
  -1   4 -16   38.50    5.50
   1   4  16   33.80    2.90
  -2  -4 -16   18.00    1.60
  -2  -4 -16   22.80    4.30
   2  -4  16   21.60    2.20
  -2  -4 -16   19.10    2.60
   2   4  16   19.30    2.20
  -2   4 -16   21.20    4.30
   2   4  16   19.60    2.20
  -3  -5  16   82.39    5.80
  -3  -5  16   81.69    5.10
   3  -5 -16   87.39    5.20
  -3   5  16   78.29    5.40
   3   5 -16   80.89    3.80
  -2  -5  16  242.18   11.00
   2  -5 -16  251.17   11.10
  -2   5  16  233.98   11.00
   2   5 -16  227.08    9.20
   1  -5 -16   44.70    4.90
  -1  -5  16   46.80    4.50
  -1  -5  16   44.30    3.90
  -1   5  16   49.50    4.70
  -1   5  16   52.49    5.40
   0  -5  16   26.30    3.40
   0  -5  16   21.50    3.10
   0  -5 -16   27.70    4.40
   0   5  16   29.20    4.50
   0   5  16   24.00    2.30
  -1  -5 -16  131.39    7.40
   1  -5  16  124.29    7.20
   1  -5  16  142.09    6.20
   1   5  16  135.29    5.70
   1   5  16  116.49    7.40
  -1   5 -16  133.49    7.90
  -2  -5 -16   58.39    3.30
   2  -5  16   56.79    3.20
   2   5  16   55.09    3.00
  -2   5 -16   61.19    5.40
   2   5  16   46.00    3.20
  -3  -6  16    9.00    2.20
   3  -6 -16    7.20    2.00
   3   6 -16    4.90    1.00
  -3   6  16    7.80    2.40
  -2  -6  16  102.29    5.60
   2  -6 -16   95.49    5.70
  -2   6  16   86.49    5.60
  -1  -6  16  118.59    6.40
   1  -6 -16  113.89    6.50
  -1  -6  16  118.79    5.80
  -1   6  16  112.49    6.70
  -1   6  16  122.29    6.80
   0  -6 -16   67.89    5.40
   0  -6  16   67.29    4.00
   0  -6  16   74.69    5.10
   0   6  16   65.79    4.40
   0   6  16   66.69    5.10
  -1  -6 -16   88.49    7.70
   1  -6  16   99.79    4.70
   1   6  16   92.49    6.10
   1   6  16  105.19    4.50
   2  -7 -16  123.39    6.40
  -2  -7  16  118.69    6.10
  -2   7  16  118.19    6.20
  -1  -7  16   91.99    5.40
  -1  -7  16   80.79    4.60
   1  -7 -16   98.79    6.10
  -1   7  16   83.09    5.20
   0  -7  16   13.10    3.60
   0  -7  16    8.80    1.70
   0   7  16   11.20    2.90
   0   7  16    7.90    2.40
   1  -7  16   52.79    3.00
   1   7  16   48.00    4.40
  -1  -8  16   56.79    3.50
  -1  -8  16   57.69    4.40
  -1   8  16   45.40    3.70
   4   0 -17   24.60    5.00
   4   0 -17   25.20    2.10
  -4   0  17   25.10    3.60
  -3   0  17   20.40    4.30
   3   0 -17   26.00    2.30
  -3   0  17   32.80    4.70
   3   0 -17   29.20    4.60
  -2   0  17    7.90    5.10
  -1   0  17  216.98   13.20
   1   0 -17  262.97   11.60
  -1   0  17  248.38   11.00
   0   0 -17  176.98    9.10
   0   0  17  177.38    8.50
  -1   0 -17  196.28    9.50
   1   0  17  197.18    8.10
   1   0  17  198.18    9.00
   2   0  17    4.80    1.20
  -2   0 -17    7.00    2.30
   2   0  17    1.10    2.20
   4  -1 -17   58.39    3.00
  -4  -1  17   62.79    4.40
   4  -1 -17   58.09    4.80
   4   1 -17   54.89    2.90
  -4   1  17   51.09    4.30
  -3  -1  17  158.28    8.40
   3  -1 -17  168.18    8.00
  -3  -1  17  162.88    8.00
   3  -1 -17  150.28    6.60
  -3   1  17  156.48    8.60
   3   1 -17  167.78    8.70
   3   1 -17  161.68    6.70
  -3   1  17  161.58    8.50
  -2  -1  17  121.69   10.00
  -2  -1  17  141.59    8.20
  -2   1  17  151.28    8.30
   2   1 -17  152.58    8.50
  -2   1  17  154.28   10.60
  -1  -1  17   49.40    4.50
   1  -1 -17   52.19    4.90
  -1   1  17   56.89   10.80
  -1   1  17   60.69    4.90
   1   1 -17   59.49    5.70
   0  -1 -17   77.19    5.80
   0  -1  17   78.29    5.20
   0   1 -17   96.89    7.20
   0   1  17   87.39    5.50
  -1  -1 -17   74.29    5.20
   1  -1  17   78.19    5.00
   1  -1  17   77.39    3.80
  -1   1 -17   70.59    5.50
   1   1  17   75.99    4.70
   1   1  17   76.69    3.80
   2  -1  17  124.19    6.50
  -2  -1 -17  125.89    5.60
   2  -1  17  142.89    5.70
  -2  -1 -17  137.19    7.10
   2   1  17  155.28    7.10
   2   1  17  144.19    6.70
  -2   1 -17  162.08    7.80
   2   1  17  164.48    6.60
  -4  -2  17   39.30    3.80
  -4  -2  17   37.80    5.10
   4  -2 -17   43.60    3.90
   4  -2 -17   33.60    2.10
  -4   2  17   32.80    3.60
   4   2 -17   34.90    2.20
   3  -2 -17   12.00    2.50
  -3  -2  17   18.10    2.90
  -3  -2  17   13.20    3.00
  -3   2  17   19.30    4.00
   3   2 -17   14.60    2.00
  -2  -2  17   45.90    5.10
  -2  -2  17   40.70    5.90
   2  -2 -17   45.90    5.20
  -2   2  17   32.40    4.50
   2   2 -17   39.40    5.70
  -2   2  17   34.30    5.40
   1  -2 -17   60.69    5.10
  -1  -2  17   61.59    4.90
   1   2 -17   63.09    6.60
  -1   2  17   59.69    5.50
  -1   2  17   55.99    6.70
   0  -2  17  215.08   11.50
   0  -2  17  247.88   10.00
   0   2 -17  258.77   12.00
   0   2  17  235.38   12.40
   1  -2  17  162.48    6.60
   1  -2  17  161.48    7.70
  -1   2 -17  168.28    8.60
   1   2  17  164.48    7.00
   1   2  17  165.08    7.70
  -2  -2 -17   19.60    3.60
   2  -2  17   13.20    3.00
   2  -2  17   19.20    1.90
  -2  -2 -17   13.60    1.70
  -2   2 -17   12.50    2.60
   2   2  17   16.60    2.80
   2   2  17   14.80    2.20
   2   2  17   15.80    2.00
  -4  -3  17   24.70    4.00
   4  -3 -17   19.30    3.20
  -4   3  17   10.50    2.40
   4   3 -17   17.70    1.70
  -3  -3  17   93.09    5.40
   3  -3 -17   84.99    5.20
  -3  -3  17   88.79    6.00
   3   3 -17   85.79    3.90
  -3   3  17   85.39    5.70
  -2  -3  17  185.38   10.00
   2  -3 -17  191.38    9.10
  -2  -3  17  191.88    9.00
  -2   3  17  177.58    9.20
  -2   3  17  183.78    8.80
   1  -3 -17    5.10    3.60
  -1  -3  17    6.10    3.00
   1   3 -17    7.50    3.90
  -1   3  17    7.20    2.70
  -1   3  17    5.00    3.10
   0  -3  17   33.80    4.00
   0  -3  17   34.80    3.40
   0  -3 -17   35.30    4.40
   0   3  17   37.90    3.80
   0   3 -17   29.90    5.20
   0   3  17   38.40    5.50
  -1  -3 -17   47.50    4.30
   1  -3  17   40.50    4.10
   1  -3  17   44.40    3.10
  -1   3 -17   43.60    5.10
   1   3  17   37.10    3.50
   1   3  17   45.60    2.70
   2  -3  17   95.19    4.30
  -2  -3 -17   84.19    5.40
  -2   3 -17   99.19    6.00
   2   3  17  101.59    4.90
   2   3  17   99.39    4.50
   3  -4 -17    5.50    2.00
  -3  -4  17    8.20    3.10
  -3  -4  17    8.90    2.40
  -3   4  17    8.80    2.60
   3   4 -17   10.20    1.70
  -2  -4  17    8.80    2.30
   2  -4 -17    6.90    2.20
  -2   4  17   11.00    2.70
   1  -4 -17   68.79    4.90
  -1  -4  17   56.59    4.70
  -1  -4  17   60.39    4.70
  -1   4  17   61.59    5.40
  -1   4  17   68.19    4.60
   0  -4 -17  238.68   10.90
   0  -4  17  235.98   10.60
   0  -4  17  240.78   10.00
   0   4 -17  232.18   11.60
   0   4  17  248.08   10.40
   0   4  17  235.28   11.10
   1  -4  17   82.39    4.20
  -1  -4 -17   78.99    5.40
   1  -4  17   71.79    5.20
  -1   4 -17   55.39    5.80
   1   4  17   66.99    4.10
   1   4  17   68.39    3.30
  -3  -5  17   52.49    3.90
   3  -5 -17   59.89    4.00
  -3   5  17   53.69    4.10
  -2  -5  17   85.79    5.00
   2  -5 -17   93.09    5.40
  -2   5  17   85.49    5.50
  -1  -5  17   76.79    4.80
  -1  -5  17   73.59    4.60
   1  -5 -17   69.19    5.10
  -1   5  17   79.69    5.50
  -1   5  17   78.89    5.20
   0  -5  17    6.80    1.90
   0  -5  17    6.70    2.50
   0  -5 -17    7.90    2.40
   0   5  17    4.50    2.10
   0   5  17    8.40    2.80
  -1  -5 -17   50.89    5.90
   1  -5  17   59.09    3.20
   1   5  17   60.09    3.00
   1   5  17   65.39    3.80
  -2  -6  17   86.19    4.90
   2  -6 -17   94.09    5.30
  -2   6  17   83.79    5.00
   1  -6 -17   37.30    4.30
  -1  -6  17   43.50    3.80
  -1  -6  17   43.00    4.20
  -1   6  17   36.90    3.90
   0  -6  17   51.29    3.20
   0  -6  17   46.70    5.40
   0  -6 -17   47.80    6.30
   0   6  17   41.20    3.50
   0   6  17   42.70    4.10
   1  -7 -17   70.19    6.00
  -1  -7  17   58.39    4.00
  -1  -7  17   67.39    4.20
  -1   7  17   46.30    3.80
  -3   0  18   33.20    4.10
   3   0 -18   22.60    3.30
  -3   0  18   32.10    4.10
  -2   0  18   88.39    5.30
   2   0 -18   86.49    5.70
  -2   0  18   79.69    6.00
   1   0 -18  147.39    7.80
  -1   0  18  146.69    7.30
   0   0 -18   97.69    6.20
   0   0  18   98.09    5.40
  -1   0 -18   37.10    4.00
   1   0  18   38.70    3.30
  -3  -1  18   94.69    6.00
   3  -1 -18  106.19    5.90
  -3  -1  18   96.89    5.60
  -3   1  18   84.19    5.30
   3   1 -18   84.19    7.10
  -3   1  18   99.29    7.60
   2  -1 -18  117.09    6.50
  -2  -1  18  119.59    6.30
  -2  -1  18  118.09    7.20
  -2   1  18  126.49    7.30
   2   1 -18  127.29    7.30
  -2   1  18  124.09    6.50
  -1  -1  18   58.09    4.40
   1  -1 -18   58.29    4.90
   1   1 -18   52.69    5.00
  -1   1  18   41.90    5.80
  -1   1  18   50.49    4.10
   0  -1  18   12.80    2.30
   0  -1 -18    8.50    2.60
   0   1 -18    6.00    2.60
  -1  -1 -18   55.89    4.40
   1  -1  18   55.19    3.90
   1   1  18   58.99    3.70
  -1   1 -18   57.49    4.70
  -3  -2  18    3.70    2.60
  -3  -2  18    3.80    2.40
   3  -2 -18    5.80    2.20
  -3   2  18    2.20    2.20
  -2  -2  18   20.50    2.80
  -2  -2  18   18.40    3.90
   2  -2 -18   27.30    3.80
   2   2 -18   27.00    5.70
  -2   2  18   22.60    3.80
  -2   2  18   25.90    4.30
  -1  -2  18   59.69    4.20
   1  -2 -18   45.60    4.40
   1   2 -18   48.40    5.60
  -1   2  18   52.99    5.40
  -1   2  18   53.09    4.10
   0  -2  18  134.89    6.50
   0  -2 -18  126.89    6.90
   0  -2  18  124.49    6.30
   0   2 -18  131.29    7.40
   0   2  18  130.29    6.40
  -1  -2 -18   75.59    5.10
   1  -2  18   81.39    4.70
   1  -2  18   82.89    4.10
  -1   2 -18   86.99    5.80
   1   2  18   88.39    4.60
  -3  -3  18   49.90    3.90
  -3  -3  18   48.30    5.10
   3  -3 -18   55.79    4.00
  -3   3  18   48.90    4.10
  -2  -3  18  169.28    7.90
   2  -3 -18  168.48    8.10
  -2   3  18  169.28    8.10
  -2   3  18  165.68    8.30
   1  -3 -18   26.00    3.70
  -1  -3  18   27.60    3.30
  -1   3  18   25.60    4.50
  -1   3  18   25.30    3.40
   1   3 -18   22.90    4.00
   0  -3 -18   27.30    3.70
   0  -3  18   40.00    3.40
   0  -3  18   29.50    3.40
   0   3 -18   30.10    5.20
   0   3  18   30.20    3.20
   1  -3  18   63.69    4.70
   1  -3  18   65.89    3.60
  -1  -3 -18   65.99    4.70
   1   3  18   70.19    4.00
  -1   3 -18   74.99    5.60
  -3  -4  18    4.80    2.00
   3  -4 -18    5.60    1.90
  -3   4  18    7.10    2.20
   2  -4 -18    5.80    2.00
  -2  -4  18    5.50    2.00
  -2   4  18    5.70    2.30
   1  -4 -18  100.79    5.70
  -1  -4  18   95.39    5.20
  -1   4  18   84.69    5.60
  -1   4  18   88.39    4.90
   0  -4  18   70.19    4.50
   0  -4  18   67.19    4.00
   0  -4 -18   65.59    4.80
   0   4  18   65.89    7.30
   0   4  18   67.99    4.10
   0   4 -18   80.49    8.80
   1  -4  18   94.99    4.90
   1  -4  18   85.99    5.80
  -1  -4 -18   99.29    6.20
   1   4  18   84.99    4.30
  -1   4 -18   84.49    6.30
   2  -5 -18   47.60    3.90
  -2  -5  18   53.59    3.60
  -2   5  18   40.90    3.80
   1  -5 -18   51.69    4.20
  -1  -5  18   46.40    3.60
  -1   5  18   49.40    4.60
  -1   5  18   41.60    4.00
   0  -5  18    9.40    2.90
   0  -5 -18    7.90    2.70
   0  -5  18    7.00    2.20
   0   5  18    3.40    2.60
   0   5  18    8.80    2.00
  -3   0  19    0.40    3.20
  -3   0  19    1.40    2.70
   3   0 -19    6.70    2.90
   2   0 -19   30.50    4.20
  -2   0  19   21.30    3.70
  -2   0  19   28.00    3.30
   1   0 -19   58.79    4.70
  -1   0  19   58.59    4.00
   0   0  19  108.19    5.60
   0   0 -19  121.79    6.40
  -3  -1  19   51.89    4.10
  -3   1  19   42.60    4.60
  -2  -1  19   73.89    4.50
   2  -1 -19   76.49    4.90
  -2  -1  19   57.09    8.20
  -2   1  19   76.79    4.60
  -2   1  19   70.69    5.30
   2   1 -19   76.29    5.70
  -1  -1  19   45.40    3.70
   1  -1 -19   53.39    4.30
   1   1 -19   37.20    4.60
  -1   1  19   40.00    3.30
   0  -1 -19    5.30    2.10
   0  -1  19    3.20    1.80
   0   1  19    5.10    1.70
   0   1 -19    5.30    2.40
  -2  -2  19   13.90    2.30
   2  -2 -19   11.70    2.40
  -2   2  19   15.60    3.70
  -2   2  19    7.80    2.60
   1  -2 -19  117.79    6.20
  -1  -2  19  110.39    5.70
  -1   2  19  103.89    5.40
  -1   2  19   95.09    7.60
   1   2 -19  113.49    6.70
   0  -2  19  173.28    7.80
   0  -2 -19  181.78    8.40
   0   2 -19  185.38    8.80
   0   2  19  177.08    7.90
   2  -3 -19   76.89    4.60
  -2  -3  19   78.49    4.30
  -2   3  19   76.89    4.90
  -1  -3  19   25.20    3.00
   1  -3 -19   23.00    3.40
  -1   3  19   17.70    3.90
  -1   3  19   24.70    3.10
   0  -3  19    2.90    2.00
   0  -3 -19    2.30    1.60
   0   3  19   -0.10    1.40
   0   3 -19    2.90    3.20
   1  -4 -19   61.99    4.40
  -1  -4  19   68.29    3.80
  -1   4  19   72.79    4.60
  -1   4  19   65.79    4.80
   0   0   0    0.00    0.00

_computing_structure_solution     'SHELXT 2014/5 (Sheldrick, 2014)'
;
_shelx_hkl_checksum              32879
_olex2_submission_special_instructions 'No special instructions were received'
loop_
_space_group_symop_operation_xyz
'x, y, z'
'-x, y+1/2, -z'
loop_
_atom_site_label
_atom_site_type_symbol
_atom_site_fract_x
_atom_site_fract_y
_atom_site_fract_z
_atom_site_U_iso_or_equiv
_atom_site_adp_type
_atom_site_occupancy
_atom_site_site_symmetry_order
_atom_site_calc_flag
_atom_site_refinement_flags_posn
_atom_site_refinement_flags_adp
_atom_site_refinement_flags_occupancy
_atom_site_disorder_assembly
_atom_site_disorder_group
Br1 Br -0.59891(8) 0.94697(5) -0.00075(3) 0.04806(18) Uani 1 1 d . . . . .
O1 O -0.0340(7) 0.5373(4) 0.2698(2) 0.0454(8) Uani 1 1 d . . . . .
O2 O 0.4897(13) 0.3474(4) 0.4280(4) 0.104(2) Uani 1 1 d . . . . .
C5 C 0.5034(12) 0.4552(8) 0.4272(4) 0.0649(15) Uani 1 1 d . . . . .
C6 C 0.3315(11) 0.5306(5) 0.3721(3) 0.0505(13) Uani 1 1 d . . . . .
C7 C 0.3363(14) 0.6464(5) 0.3773(4) 0.0628(17) Uani 1 1 d . . . . .
H7A H 0.452513 0.684398 0.417360 0.075 Uiso 1 1 calc R . . . .
H7B H 0.223526 0.692521 0.340964 0.075 Uiso 1 1 calc R . . . .
C8 C 0.1551(9) 0.4616(6) 0.3104(3) 0.0431(11) Uani 1 1 d . . . . .
H8 H 0.080764 0.396370 0.339037 0.052 Uiso 1 1 calc R . . . .
C9 C 0.2851(9) 0.4079(5) 0.2421(3) 0.0434(11) Uani 1 1 d . . . . .
H9 H 0.465864 0.409948 0.259521 0.052 Uiso 1 1 calc R . . . .
C10 C 0.2095(10) 0.4984(5) 0.1755(3) 0.0433(11) Uani 1 1 d . . . . .
H10 H 0.281871 0.507415 0.127645 0.052 Uiso 1 1 calc R . . . .
C11 C 0.0272(10) 0.5635(5) 0.1939(3) 0.0413(11) Uani 1 1 d . . . . .
C12 C 0.2039(9) 0.2833(5) 0.2157(3) 0.0424(11) Uani 1 1 d . . . . .
C13 C 0.3559(11) 0.1879(6) 0.2341(5) 0.0626(17) Uani 1 1 d . . . . .
H13 H 0.515126 0.199937 0.263722 0.075 Uiso 1 1 calc R . . . .
C14 C 0.2804(14) 0.0737(7) 0.2101(6) 0.081(2) Uani 1 1 d . . . . .
H14 H 0.386893 0.008448 0.224348 0.097 Uiso 1 1 calc R . . . .
C15 C 0.0539(13) 0.0552(6) 0.1661(5) 0.0666(18) Uani 1 1 d . . . . .
H15 H 0.005742 -0.022276 0.147653 0.080 Uiso 1 1 calc R . . . .
C16 C -0.1015(11) 0.1467(6) 0.1487(4) 0.0569(15) Uani 1 1 d . . . . .
H16 H -0.261041 0.133205 0.119702 0.068 Uiso 1 1 calc R . . . .
C17 C -0.0275(11) 0.2625(6) 0.1735(3) 0.0474(13) Uani 1 1 d . . . . .
H17 H -0.137734 0.326792 0.161083 0.057 Uiso 1 1 calc R . . . .
C18 C -0.1202(10) 0.6564(5) 0.1481(3) 0.0379(11) Uani 1 1 d . . . . .
C19 C -0.0726(9) 0.6929(5) 0.0708(3) 0.0436(11) Uani 1 1 d . . . . .
H19 H 0.058515 0.658243 0.048673 0.052 Uiso 1 1 calc R . . . .
C20 C -0.2143(10) 0.7782(5) 0.0271(3) 0.0440(11) Uani 1 1 d . . . . .
H20 H -0.180280 0.803118 -0.024745 0.053 Uiso 1 1 calc R . . . .
C21 C -0.4062(9) 0.8276(5) 0.0587(3) 0.0406(11) Uani 1 1 d . . . . .
C22 C -0.4619(10) 0.7916(5) 0.1338(3) 0.0413(11) Uani 1 1 d . . . . .
H22 H -0.596503 0.825210 0.154476 0.050 Uiso 1 1 calc R . . . .
C23 C -0.3173(9) 0.7056(4) 0.1784(3) 0.0385(10) Uani 1 1 d . . . . .
H23 H -0.353638 0.680281 0.229863 0.046 Uiso 1 1 calc R . . . .
O3 O 0.701(4) 0.512(3) 0.4677(16) 0.060(4) Uani 0.524(11) 1 d . U P A 1
C1 C 1.150(4) 0.429(3) 0.6505(12) 0.095(5) Uani 0.524(11) 1 d D U P A 1
H1A H 1.311284 0.458853 0.643951 0.142 Uiso 0.524(11) 1 calc GR . P A 1
H1B H 1.131363 0.347240 0.631220 0.142 Uiso 0.524(11) 1 calc GR . P A 1
H1C H 1.132158 0.432651 0.708516 0.142 Uiso 0.524(11) 1 calc GR . P A 1
C2 C 0.953(2) 0.5066(14) 0.6005(8) 0.072(3) Uani 0.524(11) 1 d D U P A 1
H2 H 0.807735 0.513041 0.628787 0.087 Uiso 0.524(11) 1 calc R . P A 1
C3 C 1.050(13) 0.630(3) 0.584(4) 0.092(7) Uani 0.524(11) 1 d D . P A 1
H3A H 1.096660 0.671342 0.636554 0.138 Uiso 0.524(11) 1 calc GR . P A 1
H3B H 0.922066 0.674850 0.549645 0.138 Uiso 0.524(11) 1 calc GR . P A 1
H3C H 1.191935 0.622077 0.556656 0.138 Uiso 0.524(11) 1 calc GR . P A 1
C4 C 0.886(4) 0.443(3) 0.5187(10) 0.073(4) Uani 0.524(11) 1 d D U P A 1
H4A H 1.031376 0.434820 0.491737 0.087 Uiso 0.524(11) 1 calc R . P A 1
H4B H 0.822293 0.362907 0.527473 0.087 Uiso 0.524(11) 1 calc R . P A 1
O3A O 0.637(5) 0.515(3) 0.4841(18) 0.060(4) Uani 0.476(11) 1 d . . P A 2
C1A C 1.234(4) 0.431(3) 0.6217(13) 0.095(5) Uani 0.476(11) 1 d D . P A 2
H1AA H 1.217895 0.449960 0.678420 0.142 Uiso 0.476(11) 1 calc GR . P A 2
H1AB H 1.401635 0.448047 0.613212 0.142 Uiso 0.476(11) 1 calc GR . P A 2
H1AC H 1.198049 0.347219 0.610948 0.142 Uiso 0.476(11) 1 calc GR . P A 2
C2A C 1.056(3) 0.5076(16) 0.5631(9) 0.072(3) Uani 0.476(11) 1 d D . P A 2
H2A H 1.121261 0.518122 0.510672 0.087 Uiso 0.476(11) 1 calc R . P A 2
C3A C 1.009(15) 0.630(3) 0.598(5) 0.092(7) Uani 0.476(11) 1 d D U P A 2
H3AA H 0.850699 0.660393 0.570623 0.138 Uiso 0.476(11) 1 calc GR . P A 2
H3AB H 1.137945 0.685074 0.588251 0.138 Uiso 0.476(11) 1 calc GR . P A 2
H3AC H 1.007022 0.623705 0.656832 0.138 Uiso 0.476(11) 1 calc GR . P A 2
C4A C 0.807(4) 0.450(3) 0.5446(13) 0.073(4) Uani 0.476(11) 1 d D . P A 2
H4AA H 0.825702 0.368528 0.524328 0.087 Uiso 0.476(11) 1 calc R . P A 2
H4AB H 0.737741 0.444131 0.595994 0.087 Uiso 0.476(11) 1 calc R . P A 2
loop_
_atom_site_aniso_label
_atom_site_aniso_U_11
_atom_site_aniso_U_22
_atom_site_aniso_U_33
_atom_site_aniso_U_23
_atom_site_aniso_U_13
_atom_site_aniso_U_12
Br1 0.0467(3) 0.0541(3) 0.0420(3) 0.0082(3) 0.00290(17) -0.0002(3)
O1 0.046(2) 0.057(2) 0.0329(17) 0.0017(15) 0.0079(14) 0.0033(16)
O2 0.113(5) 0.042(3) 0.129(5) -0.002(3) -0.069(4) 0.001(3)
C5 0.076(4) 0.047(3) 0.060(3) 0.002(4) -0.022(3) -0.007(4)
C6 0.065(4) 0.044(3) 0.038(3) -0.004(2) -0.006(2) -0.001(2)
C7 0.087(5) 0.045(3) 0.048(3) -0.002(3) -0.014(3) -0.002(3)
C8 0.049(2) 0.040(3) 0.038(2) 0.000(2) -0.0010(17) -0.001(2)
C9 0.037(2) 0.051(3) 0.041(3) -0.007(2) 0.0024(19) -0.0054(19)
C10 0.041(3) 0.047(2) 0.044(3) -0.007(2) 0.013(2) -0.010(2)
C11 0.038(3) 0.048(3) 0.035(2) -0.003(2) -0.0003(19) -0.008(2)
C12 0.039(3) 0.055(3) 0.035(2) -0.008(2) 0.009(2) -0.006(2)
C13 0.044(3) 0.060(4) 0.079(4) -0.025(3) -0.004(3) 0.004(3)
C14 0.060(4) 0.063(4) 0.114(7) -0.040(4) 0.001(4) 0.007(3)
C15 0.068(4) 0.056(4) 0.078(4) -0.034(3) 0.020(3) -0.013(3)
C16 0.048(3) 0.073(4) 0.049(3) -0.007(3) 0.006(2) -0.026(3)
C17 0.043(3) 0.056(3) 0.040(3) 0.002(3) -0.001(2) -0.013(3)
C18 0.038(3) 0.044(3) 0.031(2) -0.008(2) 0.0058(19) -0.008(2)
C19 0.044(3) 0.053(3) 0.035(2) -0.001(2) 0.011(2) -0.005(2)
C20 0.044(3) 0.054(3) 0.034(2) 0.001(2) 0.006(2) -0.006(2)
C21 0.040(3) 0.041(2) 0.038(3) -0.002(2) -0.003(2) -0.009(2)
C22 0.042(3) 0.044(3) 0.038(2) -0.002(2) 0.008(2) -0.003(2)
C23 0.045(3) 0.041(2) 0.030(2) -0.0015(19) 0.0067(19) -0.006(2)
O3 0.069(11) 0.051(3) 0.051(9) 0.002(6) -0.016(6) -0.005(7)
C1 0.089(12) 0.117(9) 0.068(10) 0.013(11) -0.018(7) -0.006(11)
C2 0.054(6) 0.114(7) 0.048(5) 0.004(5) 0.008(3) 0.001(5)
C3 0.102(19) 0.065(5) 0.093(18) -0.004(6) -0.034(10) -0.018(6)
C4 0.080(9) 0.056(4) 0.069(9) 0.014(9) -0.029(6) -0.017(8)
O3A 0.069(11) 0.051(3) 0.051(9) 0.002(6) -0.016(6) -0.005(7)
C1A 0.089(12) 0.117(9) 0.068(10) 0.013(11) -0.018(7) -0.006(11)
C2A 0.054(6) 0.114(7) 0.048(5) 0.004(5) 0.008(3) 0.001(5)
C3A 0.102(19) 0.065(5) 0.093(18) -0.004(6) -0.034(10) -0.018(6)
C4A 0.080(9) 0.056(4) 0.069(9) 0.014(9) -0.029(6) -0.017(8)
loop_
_atom_type_symbol
_atom_type_description
_atom_type_scat_dispersion_real
_atom_type_scat_dispersion_imag
_atom_type_scat_source
C C 0.0181 0.0091 'International Tables Vol C Tables 4.2.6.8 and 6.1.1.4'
H H 0.0000 0.0000 'International Tables Vol C Tables 4.2.6.8 and 6.1.1.4'
Br Br -0.6763 1.2805 'International Tables Vol C Tables 4.2.6.8 and 6.1.1.4'
O O 0.0492 0.0322 'International Tables Vol C Tables 4.2.6.8 and 6.1.1.4'
loop_
_geom_angle_atom_site_label_1
_geom_angle_atom_site_label_2
_geom_angle_atom_site_label_3
_geom_angle
C11 O1 C8 106.4(4)
O2 C5 C6 123.0(6)
O2 C5 O3 121.2(15)
O2 C5 O3A 122.9(17)
O3 C5 C6 115.0(15)
O3A C5 C6 112.8(17)
C5 C6 C8 113.9(5)
C7 C6 C5 121.9(6)
C7 C6 C8 124.2(6)
C6 C7 H7A 120.0
C6 C7 H7B 120.0
H7A C7 H7B 120.0
O1 C8 C6 110.9(5)
O1 C8 H8 109.4
O1 C8 C9 106.4(4)
C6 C8 H8 109.4
C6 C8 C9 111.3(4)
C9 C8 H8 109.4
C8 C9 H9 110.1
C10 C9 C8 99.1(4)
C10 C9 H9 110.1
C10 C9 C12 112.4(4)
C12 C9 C8 114.7(4)
C12 C9 H9 110.1
C9 C10 H10 125.1
C11 C10 C9 109.9(5)
C11 C10 H10 125.1
O1 C11 C18 115.1(5)
C10 C11 O1 113.5(5)
C10 C11 C18 131.5(5)
C13 C12 C9 121.2(5)
C13 C12 C17 118.0(6)
C17 C12 C9 120.8(5)
C12 C13 H13 119.5
C12 C13 C14 121.1(6)
C14 C13 H13 119.5
C13 C14 H14 119.9
C15 C14 C13 120.2(7)
C15 C14 H14 119.9
C14 C15 H15 119.9
C16 C15 C14 120.1(6)
C16 C15 H15 119.9
C15 C16 H16 120.0
C15 C16 C17 120.0(6)
C17 C16 H16 120.0
C12 C17 C16 120.5(6)
C12 C17 H17 119.7
C16 C17 H17 119.7
C19 C18 C11 120.5(5)
C23 C18 C11 120.4(5)
C23 C18 C19 119.0(5)
C18 C19 H19 119.8
C20 C19 C18 120.4(5)
C20 C19 H19 119.8
C19 C20 H20 120.1
C19 C20 C21 119.8(5)
C21 C20 H20 120.1
C20 C21 Br1 119.9(4)
C20 C21 C22 121.2(5)
C22 C21 Br1 118.9(4)
C21 C22 H22 120.5
C21 C22 C23 119.0(5)
C23 C22 H22 120.5
C18 C23 C22 120.5(5)
C18 C23 H23 119.7
C22 C23 H23 119.7
C5 O3 C4 118(2)
H1A C1 H1B 109.5
H1A C1 H1C 109.5
H1B C1 H1C 109.5
C2 C1 H1A 109.5
C2 C1 H1B 109.5
C2 C1 H1C 109.5
C1 C2 H2 110.4
C3 C2 C1 112(3)
C3 C2 H2 110.4
C4 C2 C1 105.4(16)
C4 C2 H2 110.4
C4 C2 C3 108(3)
C2 C3 H3A 109.5
C2 C3 H3B 109.5
C2 C3 H3C 109.5
H3A C3 H3B 109.5
H3A C3 H3C 109.5
H3B C3 H3C 109.5
O3 C4 C2 108(2)
O3 C4 H4A 110.0
O3 C4 H4B 110.0
C2 C4 H4A 110.0
C2 C4 H4B 110.0
H4A C4 H4B 108.4
C5 O3A C4A 118(3)
H1AA C1A H1AB 109.5
H1AA C1A H1AC 109.5
H1AB C1A H1AC 109.5
C2A C1A H1AA 109.5
C2A C1A H1AB 109.5
C2A C1A H1AC 109.5
C1A C2A H2A 109.0
C1A C2A C3A 114(4)
C3A C2A H2A 109.0
C4A C2A C1A 111.4(19)
C4A C2A H2A 109.0
C4A C2A C3A 105(3)
C2A C3A H3AA 109.5
C2A C3A H3AB 109.5
C2A C3A H3AC 109.5
H3AA C3A H3AB 109.5
H3AA C3A H3AC 109.5
H3AB C3A H3AC 109.5
O3A C4A C2A 113(2)
O3A C4A H4AA 108.9
O3A C4A H4AB 108.9
C2A C4A H4AA 108.9
C2A C4A H4AB 108.9
H4AA C4A H4AB 107.8
loop_
_geom_bond_atom_site_label_1
_geom_bond_atom_site_label_2
_geom_bond_distance
Br1 C21 1.894(5)
O1 C8 1.434(6)
O1 C11 1.384(6)
O2 C5 1.218(10)
C5 C6 1.480(9)
C5 O3 1.35(3)
C5 O3A 1.29(3)
C6 C7 1.309(9)
C6 C8 1.512(7)
C7 H7A 0.9500
C7 H7B 0.9500
C8 H8 1.0000
C8 C9 1.559(7)
C9 H9 1.0000
C9 C10 1.511(8)
C9 C12 1.518(7)
C10 H10 0.9500
C10 C11 1.325(8)
C11 C18 1.464(8)
C12 C13 1.371(9)
C12 C17 1.381(8)
C13 H13 0.9500
C13 C14 1.393(9)
C14 H14 0.9500
C14 C15 1.365(10)
C15 H15 0.9500
C15 C16 1.346(10)
C16 H16 0.9500
C16 C17 1.411(9)
C17 H17 0.9500
C18 C19 1.409(7)
C18 C23 1.391(7)
C19 H19 0.9500
C19 C20 1.373(8)
C20 H20 0.9500
C20 C21 1.378(8)
C21 C22 1.389(7)
C22 H22 0.9500
C22 C23 1.393(8)
C23 H23 0.9500
O3 C4 1.45(4)
C1 H1A 0.9800
C1 H1B 0.9800
C1 H1C 0.9800
C1 C2 1.53(2)
C2 H2 1.0000
C2 C3 1.53(3)
C2 C4 1.52(2)
C3 H3A 0.9800
C3 H3B 0.9800
C3 H3C 0.9800
C4 H4A 0.9900
C4 H4B 0.9900
O3A C4A 1.46(4)
C1A H1AA 0.9800
C1A H1AB 0.9800
C1A H1AC 0.9800
C1A C2A 1.54(2)
C2A H2A 1.0000
C2A C3A 1.54(3)
C2A C4A 1.51(2)
C3A H3AA 0.9800
C3A H3AB 0.9800
C3A H3AC 0.9800
C4A H4AA 0.9900
C4A H4AB 0.9900
loop_
_cod_related_entry_id
_cod_related_entry_database
_cod_related_entry_code
1 PubChem 139051088
