#------------------------------------------------------------------------------
#$Date: 2025-08-18 18:33:07 +0300 (Mon, 18 Aug 2025) $
#$Revision: 301779 $
#$URL: file:///home/coder/svn-repositories/cod/cif/1/54/86/1548609.cif $
#------------------------------------------------------------------------------
#
# This file is available in the Crystallography Open Database (COD),
# http://www.crystallography.net/
#
# All data on this site have been placed in the public domain by the
# contributors.
#
data_1548609
loop_
_publ_author_name
'Jia, Jiru'
'Yu, Aimin'
'Ma, Shanshan'
'Zhang, Youquan'
'Li, Ke'
'Meng, Xiangtai'
_publ_section_title
;
 Solvent-Controlled Switchable Domino Reactions of MBH Carbonate:
 Synthesis of Benzothiophene Fused \a-Pyran, 2,3-Dihydrooxepine, and
 Oxatricyclodecene Derivatives.
;
_journal_issue                   22
_journal_name_full               'Organic letters'
_journal_page_first              6084
_journal_page_last               6087
_journal_paper_doi               10.1021/acs.orglett.7b02916
_journal_volume                  19
_journal_year                    2017
_chemical_formula_moiety         'C24 H21 Cl O5 S'
_chemical_formula_sum            'C24 H21 Cl O5 S'
_chemical_formula_weight         456.92
_space_group_crystal_system      triclinic
_space_group_IT_number           2
_space_group_name_Hall           '-P 1'
_space_group_name_H-M_alt        'P -1'
_symmetry_space_group_name_Hall  '-P 1'
_symmetry_space_group_name_H-M   'P -1'
_atom_sites_solution_hydrogens   geom
_atom_sites_solution_primary     direct
_audit_creation_date             2017-01-11
_audit_creation_method
;
Olex2 1.2
(compiled 2016.02.19 svn.r3266 for OlexSys, GUI svn.r5155)
;
_cell_angle_alpha                79.965(14)
_cell_angle_beta                 74.188(18)
_cell_angle_gamma                89.590(15)
_cell_formula_units_Z            2
_cell_length_a                   8.680(2)
_cell_length_b                   10.6240(15)
_cell_length_c                   12.798(2)
_cell_measurement_reflns_used    875
_cell_measurement_temperature    293(2)
_cell_measurement_theta_max      22.1380
_cell_measurement_theta_min      1.9610
_cell_volume                     1117.1(4)
_computing_cell_refinement       'CrysAlisPro 1.171.38.40t (Rigaku OD, 2015)'
_computing_data_collection       'CrysAlisPro 1.171.38.40t (Rigaku OD, 2015)'
_computing_data_reduction        'CrysAlisPro 1.171.38.40t (Rigaku OD, 2015)'
_computing_molecular_graphics    'Olex2 (Dolomanov et al., 2009)'
_computing_publication_material  'Olex2 (Dolomanov et al., 2009)'
_computing_structure_refinement  'ShelXL (Sheldrick, 2015)'
_computing_structure_solution    'ShelXT (Sheldrick, 2015)'
_diffrn_ambient_temperature      293(2)
_diffrn_detector                 'CCD plate'
_diffrn_measured_fraction_theta_full 0.999
_diffrn_measured_fraction_theta_max 0.999
_diffrn_measurement_details
;
List of Runs (angles in degrees, time in seconds):

  # Type    Start    End  Width  t~exp~   \w     \q     \k     \f   Frames
--------------------------------------------------------------------------
  1  \w    -75.00 120.00   1.00   15.00    --   30.00  54.00 120.00  195
  2  \w    -75.00  30.00   1.00   15.00    --   30.00  54.00 240.00  105
;
_diffrn_measurement_device       'abstract diffractometer'
_diffrn_measurement_device_type
'dtrek-CrysAlisPro-abstract goniometer imported rigaku-d*trek images'
_diffrn_measurement_method       '\w scans'
_diffrn_orient_matrix_type
'CrysAlisPro convention (1999,Acta A55,543-557)'
_diffrn_orient_matrix_UB_11      0.0165258000
_diffrn_orient_matrix_UB_12      0.0666611000
_diffrn_orient_matrix_UB_13      -0.0187084000
_diffrn_orient_matrix_UB_21      0.0752643000
_diffrn_orient_matrix_UB_22      -0.0060393000
_diffrn_orient_matrix_UB_23      0.0117486000
_diffrn_orient_matrix_UB_31      0.0358912000
_diffrn_orient_matrix_UB_32      -0.0111870000
_diffrn_orient_matrix_UB_33      -0.0542210000
_diffrn_radiation_monochromator  graphite
_diffrn_radiation_probe          x-ray
_diffrn_radiation_type           MoK\a
_diffrn_radiation_wavelength     0.71073
_diffrn_reflns_av_R_equivalents  0.0515
_diffrn_reflns_av_unetI/netI     0.1368
_diffrn_reflns_Laue_measured_fraction_full 0.999
_diffrn_reflns_Laue_measured_fraction_max 0.999
_diffrn_reflns_limit_h_max       9
_diffrn_reflns_limit_h_min       -10
_diffrn_reflns_limit_k_max       12
_diffrn_reflns_limit_k_min       -10
_diffrn_reflns_limit_l_max       14
_diffrn_reflns_limit_l_min       -15
_diffrn_reflns_number            5414
_diffrn_reflns_point_group_measured_fraction_full 0.999
_diffrn_reflns_point_group_measured_fraction_max 0.999
_diffrn_reflns_theta_full        24.994
_diffrn_reflns_theta_max         24.994
_diffrn_reflns_theta_min         1.681
_diffrn_source                   'fine-focus sealed X-ray tube'
_diffrn_source_type              'Enhance (Mo) X-ray Source'
_exptl_absorpt_coefficient_mu    0.297
_exptl_absorpt_correction_T_max  1.00000
_exptl_absorpt_correction_T_min  0.58301
_exptl_absorpt_correction_type   multi-scan
_exptl_absorpt_process_details
;
CrysAlisPro 1.171.38.40t (Rigaku Oxford Diffraction, 2015)
Empirical absorption correction using spherical harmonics,
 implemented in SCALE3 ABSPACK scaling algorithm.
;
_exptl_crystal_colour            colorless
_exptl_crystal_density_diffrn    1.358
_exptl_crystal_description       block
_exptl_crystal_F_000             476
_refine_diff_density_max         0.374
_refine_diff_density_min         -0.361
_refine_diff_density_rms         0.113
_refine_ls_extinction_method     none
_refine_ls_goodness_of_fit_ref   1.061
_refine_ls_hydrogen_treatment    constr
_refine_ls_matrix_type           full
_refine_ls_number_parameters     284
_refine_ls_number_reflns         3935
_refine_ls_number_restraints     0
_refine_ls_restrained_S_all      1.061
_refine_ls_R_factor_all          0.1710
_refine_ls_R_factor_gt           0.0740
_refine_ls_shift/su_max          0.000
_refine_ls_shift/su_mean         0.000
_refine_ls_structure_factor_coef Fsqd
_refine_ls_weighting_details
'w=1/[\s^2^(Fo^2^)+(0.0918P)^2^] where P=(Fo^2^+2Fc^2^)/3'
_refine_ls_weighting_scheme      calc
_refine_ls_wR_factor_gt          0.1708
_refine_ls_wR_factor_ref         0.2464
_reflns_Friedel_coverage         0.000
_reflns_number_gt                1907
_reflns_number_total             3935
_reflns_threshold_expression     'I > 2\s(I)'
_cod_data_source_file            ol7b02916_si_005.cif
_cod_data_source_block           3
_cod_original_cell_volume        1117.2(4)
_cod_database_code               1548609
_shelx_space_group_comment
;
The symmetry employed for this shelxl refinement is uniquely defined
by the following loop, which should always be used as a source of
symmetry information in preference to the above space-group names.
They are only intended as comments.
;
_reflns_odcompleteness_completeness 82.96
_reflns_odcompleteness_iscentric 1
_reflns_odcompleteness_theta     32.87
_olex2_refinement_description
;
1. Fixed Uiso
 At 1.2 times of:
  All C(H) groups, All C(H,H) groups
 At 1.5 times of:
  All C(H,H,H) groups
2.a Secondary CH2 refined with riding coordinates:
 C15(H15A,H15B)
2.b Aromatic/amide H refined with riding coordinates:
 C7(H7), C4(H4), C18(H18), C19(H19), C3(H3), C22(H22), C21(H21)
2.c Idealised Me refined as rotating group:
 C13(H13A,H13B,H13C), C1(H1A,H1B,H1C), C24(H24A,H24B,H24C), C16(H16A,H16B,H16C)
;
_shelx_res_file
;
    3.res created by SHELXL-2014/7

TITL 3_a.res in P-1
REM Old TITL 3 in P-1 #2
REM SHELXT solution in P-1
REM R1 0.266, Rweak 0.026, Alpha 0.053, Orientation as input
REM Formula found by SHELXT: C24 N O4 Cl2
CELL 0.71073 8.680164 10.624011 12.798038 79.9655 74.1876 89.5905
ZERR 2 0.001964 0.001548 0.002259 0.0135 0.0175 0.0149
LATT 1
SFAC C H Cl O S
UNIT 48 42 2 10 2

L.S. 10
PLAN  20
BOND $H
LIST 6
MORE -1
CONF
fmap 2
acta 52
OMIT -3 50
REM <olex2.extras>
REM <HklSrc "%.\\3.hkl">
REM </olex2.extras>

WGHT    0.091800
FVAR       0.65903
S1    5    0.759702    0.882616    0.741736    11.00000    0.05554    0.03756 =
         0.04933   -0.00771   -0.02316    0.00016
CL1   3    0.774030   -0.025043    1.026022    11.00000    0.10861    0.04506 =
         0.08307    0.00829   -0.04979    0.01034
O1    4    0.450857    0.624709    0.727773    11.00000    0.04578    0.03085 =
         0.05246   -0.01143   -0.02310    0.00940
O3    4    0.722830    0.413521    0.587227    11.00000    0.07117    0.05037 =
         0.03713   -0.01103   -0.01836    0.03037
O5    4    0.806548    0.552774    0.970289    11.00000    0.07626    0.08242 =
         0.04248    0.00459   -0.02982   -0.00660
O4    4    0.963435    0.685971    0.825638    11.00000    0.05663    0.07493 =
         0.05275    0.00597   -0.03114   -0.01407
O2    4    0.619510    0.597598    0.525181    11.00000    0.09102    0.04784 =
         0.04013   -0.00163   -0.02616    0.01997
C17   1    0.687394    0.367066    0.850611    11.00000    0.04684    0.03522 =
         0.03555   -0.00886   -0.02291    0.00483
C6    1    0.489607    0.860111    0.687396    11.00000    0.04375    0.03129 =
         0.03176   -0.01202   -0.01202    0.01032
C12   1    0.539668    0.508674    0.721089    11.00000    0.05244    0.02605 =
         0.04080   -0.00458   -0.02707    0.00922
C23   1    0.836219    0.608698    0.875245    11.00000    0.04529    0.04228 =
         0.04460   -0.01056   -0.01872    0.01857
C10   1    0.726147    0.606382    0.801613    11.00000    0.03869    0.04330 =
         0.02804   -0.01017   -0.01259    0.00684
C11   1    0.655157    0.496901    0.794402    11.00000    0.04379    0.03838 =
         0.03326   -0.01013   -0.01626    0.01384
C2    1    0.331591    1.028583    0.622834    11.00000    0.05494    0.03930 =
         0.03655   -0.00869   -0.01360    0.01312
C9    1    0.680359    0.727802    0.749848    11.00000    0.04139    0.03736 =
         0.03591   -0.00837   -0.01470    0.00356
C5    1    0.600533    0.951627    0.695727    11.00000    0.04906    0.03763 =
         0.03314   -0.00814   -0.01401    0.00469
C14   1    0.631248    0.514841    0.599464    11.00000    0.05022    0.03334 =
         0.03569   -0.01078   -0.02203    0.00464
C7    1    0.356352    0.899735    0.650596    11.00000    0.05267    0.03887 =
         0.03868   -0.01139   -0.01846    0.00698
AFIX  43
H7    2    0.283920    0.839038    0.644757    11.00000   -1.20000
AFIX   0
C4    1    0.575696    1.082886    0.666584    11.00000    0.06484    0.02979 =
         0.04470   -0.00744   -0.01418   -0.00074
AFIX  43
H4    2    0.647448    1.144785    0.671381    11.00000   -1.20000
AFIX   0
C8    1    0.543773    0.733932    0.719215    11.00000    0.04322    0.03193 =
         0.03789   -0.01081   -0.01671    0.00251
C18   1    0.826132    0.306022    0.810950    11.00000    0.04936    0.04063 =
         0.04382    0.00205   -0.01553    0.00908
AFIX  43
H18   2    0.902526    0.345904    0.747809    11.00000   -1.20000
AFIX   0
C13   1    0.408812    0.402720    0.753717    11.00000    0.06525    0.03386 =
         0.05381   -0.01178   -0.02820   -0.00090
AFIX 137
H13A  2    0.335275    0.410796    0.823176    11.00000   -1.50000
H13B  2    0.456482    0.320937    0.760311    11.00000   -1.50000
H13C  2    0.352341    0.409757    0.698193    11.00000   -1.50000
AFIX   0
C19   1    0.853723    0.184971    0.864266    11.00000    0.05135    0.05528 =
         0.05102   -0.00358   -0.01662    0.01684
AFIX  43
H19   2    0.947936    0.144770    0.836901    11.00000   -1.20000
AFIX   0
C3    1    0.441961    1.117590    0.630629    11.00000    0.07776    0.03035 =
         0.04391   -0.00292   -0.02408    0.00843
AFIX  43
H3    2    0.425652    1.204089    0.610947    11.00000   -1.20000
AFIX   0
C22   1    0.575746    0.305868    0.945900    11.00000    0.05253    0.05743 =
         0.04458   -0.00453   -0.00996    0.01327
AFIX  43
H22   2    0.482156    0.346163    0.974523    11.00000   -1.20000
AFIX   0
C20   1    0.741539    0.126299    0.956648    11.00000    0.06743    0.04399 =
         0.04874   -0.00830   -0.03478    0.01025
C1    1    0.188281    1.073783    0.585044    11.00000    0.06447    0.05600 =
         0.05384    0.00065   -0.02040    0.02029
AFIX 137
H1A   2    0.146133    1.006511    0.558123    11.00000   -1.50000
H1B   2    0.219326    1.146971    0.527003    11.00000   -1.50000
H1C   2    0.107674    1.096794    0.645824    11.00000   -1.50000
AFIX   0
C21   1    0.602523    0.184772    0.999021    11.00000    0.06629    0.05769 =
         0.04421    0.01190   -0.01405   -0.00168
AFIX  43
H21   2    0.527104    0.144160    1.062368    11.00000   -1.20000
AFIX   0
C15   1    0.804499    0.401121    0.474149    11.00000    0.07806    0.07289 =
         0.04029   -0.02425   -0.02101    0.02522
AFIX  23
H15A  2    0.853970    0.482907    0.432766    11.00000   -1.20000
H15B  2    0.728111    0.374336    0.438538    11.00000   -1.20000
AFIX   0
C24   1    1.067417    0.710184    0.893465    11.00000    0.06915    0.07969 =
         0.07072   -0.00265   -0.04543   -0.01055
AFIX 137
H24A  2    1.111652    0.796323    0.869904    11.00000   -1.50000
H24B  2    1.152727    0.651518    0.885517    11.00000   -1.50000
H24C  2    1.006070    0.698591    0.969460    11.00000   -1.50000
AFIX   0
C16   1    0.929089    0.304442    0.476158    11.00000    0.07375    0.08645 =
         0.06180   -0.02372   -0.01274    0.02930
AFIX 137
H16A  2    0.983330    0.295026    0.401987    11.00000   -1.50000
H16B  2    0.879268    0.223797    0.517192    11.00000   -1.50000
H16C  2    1.005030    0.332144    0.510591    11.00000   -1.50000
AFIX   0
HKLF 4

REM  3_a.res in P-1
REM R1 =  0.0740 for    1907 Fo > 4sig(Fo)  and  0.1710 for all    3935 data
REM    284 parameters refined using      0 restraints

END

WGHT      0.0916      0.0000

REM Highest difference peak  0.374,  deepest hole -0.361,  1-sigma level  0.113
Q1    1   1.0795  0.2010  0.8005  11.00000  0.05    0.37
Q2    1   0.9641  0.2183  0.6793  11.00000  0.05    0.37
Q3    1   0.9485  0.1224  0.7550  11.00000  0.05    0.34
Q4    1   0.9986  0.1608  0.7473  11.00000  0.05    0.34
Q5    1   0.8576  0.3299  0.8157  11.00000  0.05    0.33
Q6    1   1.0553  0.3632  0.7250  11.00000  0.05    0.32
Q7    1   0.9267  0.2420  0.5372  11.00000  0.05    0.32
Q8    1   1.0814  0.3003  0.8247  11.00000  0.05    0.31
Q9    1   0.1447  1.1614  0.7315  11.00000  0.05    0.31
Q10   1   0.1412  1.1903  0.6631  11.00000  0.05    0.30
Q11   1   1.0915  0.3510  0.8255  11.00000  0.05    0.30
Q12   1   0.1466  1.1368  0.6192  11.00000  0.05    0.30
Q13   1   0.0772  1.0175  0.6376  11.00000  0.05    0.29
Q14   1   0.8552  0.1767  0.9166  11.00000  0.05    0.29
Q15   1   0.8718  0.2021  0.6239  11.00000  0.05    0.29
Q16   1   0.2856  1.2312  0.6410  11.00000  0.05    0.29
Q17   1   1.0321  0.2591  0.7568  11.00000  0.05    0.29
Q18   1   1.1046  0.2564  0.5928  11.00000  0.05    0.29
Q19   1   0.8954  0.3484  0.6834  11.00000  0.05    0.28
Q20   1   0.0402  1.0338  0.6111  11.00000  0.05    0.28
;
_shelx_res_checksum              50866
_shelx_hkl_file
;
   0   0  -1   -0.90    1.07
   0   0  -2  173.54   10.29
   0   0  -3  523.42   21.56
   0   0  -4 1244.57   38.26
   0   0  -5  134.23   14.45
   0   0   5  117.21    9.63
   0   0  -6   15.83    7.60
   0   0   6   17.47    5.11
   0   0  -7  207.93   21.87
   0   0   7  217.33   15.61
   0   0   8  162.34   14.35
   0   0  -8  118.56   17.40
   0   0   9  112.28   13.25
   0   0  -9  141.65   20.42
   0   0 -10    4.75    4.95
   0   0  10   -2.67    6.66
   0   0 -11   -6.24    7.68
   0   0  11   -6.71    6.89
   0   0 -12    6.21    7.95
   0   0 -13   55.31   15.94
   0   0 -14   48.41   17.81
   0   0 -15   17.01    8.79
   0   0 -16  -14.31   12.73
   0   0 -17    7.16   14.53
   0   1 -17    0.25   13.31
   0   1 -16   -4.59   14.06
   0   1 -15   27.21   12.32
   0   1 -14    3.16   10.92
   0   1 -13   31.85   17.15
   0   1 -12   37.70   13.95
   0   1 -11   -0.29    7.80
   0   1 -10  188.14   24.44
   0   1  -9   70.88   14.25
   0  -1   9   71.28    9.26
   0   1  -8    3.97    4.03
   0  -1   8   -3.25    3.23
   0   1  -7   17.23    7.55
   0  -1   7   14.13    4.09
   0  -1   6  185.09   11.47
   0   1  -6  176.24   18.41
   0   1  -5  173.24   17.56
   0   1  -4   16.17    5.00
   0   1  -3 1057.01   34.39
   0   1  -2    1.86    2.48
   0   1  -1   14.67    3.56
   0   1   0   57.45    3.72
   0  -1   0   94.30    4.68
   0   1   1   -6.93    2.64
   0  -1  -2   84.61    6.08
   0   1   2   89.74    7.20
   0   1   3 9959.87   84.42
   0  -1  -3 9999.00   83.85
   0   1   4  223.42   13.99
   0  -1  -4  222.26   14.81
   0   1   5  332.27   18.51
   0  -1  -5  302.54   20.32
   0  -1  -6 1096.94   41.52
   0   1   6 1112.08   36.46
   0   1   7    1.17    3.45
   0  -1  -7    5.55    4.98
   0  -1  -8  114.28   16.11
   0   1   8  102.37   13.28
   0  -1  -9    7.91    6.54
   0   1   9   -3.18    4.81
   0  -1 -10    4.85    5.46
   0   1  10    2.25    5.52
   0  -1 -11    6.14    5.92
   0   1  11    1.69    4.91
   0  -1 -12   -9.92   10.38
   0   1  12   -0.99    5.80
   0  -1 -13    6.71    7.63
   0  -1 -14    1.20    8.11
   0  -1 -15   14.34    8.63
   0  -1 -16    6.63   13.05
   0   2 -17   19.49   18.01
   0   2 -16   16.89   16.24
   0   2 -15    3.88   12.58
   0   2 -14    9.01   15.05
   0   2 -13   -6.20   12.78
   0   2 -12   23.77   13.65
   0   2 -11  250.96   31.71
   0   2 -10   20.75    9.18
   0   2  -9   26.42   10.48
   0   2  -8    9.89    4.73
   0  -2   7  131.52    8.61
   0   2  -7  178.04   21.76
   0  -2   6    0.08    1.28
   0   2  -6    1.84    3.81
   0   2  -5  312.84   24.07
   0   2  -4  164.67   15.87
   0   2  -3   -1.88    2.98
   0   2  -2   71.58    8.86
   0   2  -2   71.47    4.51
   0   2  -1  253.38   13.59
   0   2  -1  242.52    9.65
   0   2   0  756.11   20.02
   0   2   0  772.87   19.20
   0   2   1  175.56   11.02
   0   2   1  178.72    7.49
   0  -2  -1  166.67    7.30
   0   2   2  630.68   22.61
   0  -2  -2  590.55   15.68
   0   2   2  625.03   14.64
   0   2   2  625.86   14.15
   0   2   3 5113.62   53.02
   0   2   3 5121.57   68.31
   0  -2  -3 5117.98   54.04
   0   2   4   21.97    5.63
   0  -2  -4   22.78    4.44
   0   2   5  346.93   20.81
   0  -2  -5  375.15   20.26
   0   2   6   -0.81    4.30
   0  -2  -6   -0.03    3.12
   0   2   7  281.77   21.46
   0  -2  -7  294.70   22.69
   0  -2  -8   23.00    6.86
   0   2   8   19.61    6.98
   0   2   9   60.67   11.49
   0  -2  -9   45.68   11.29
   0  -2 -10   -0.67    5.27
   0   2  10    8.55    7.58
   0   2  11   96.93   16.22
   0  -2 -11   82.52   16.27
   0  -2 -12   10.17    9.64
   0   2  12   -7.36    7.24
   0  -2 -13   15.22   10.63
   0   2  13    3.29    7.60
   0  -2 -14  -13.50    8.26
   0  -2 -15    3.86    9.15
   0  -2 -16   22.52   18.58
   0   3 -17   32.43   21.30
   0   3 -16   18.10   15.77
   0   3 -15   15.39   10.85
   0   3 -14   18.43   15.15
   0   3 -13   18.37   13.05
   0   3 -12   -3.08    9.84
   0   3 -11   19.61   12.11
   0   3 -10   55.09   15.80
   0   3  -9   -9.72    8.35
   0   3  -8  100.88   17.05
   0   3  -7   16.56    8.04
   0   3  -6    7.24    5.99
   0   3  -5   61.40   11.53
   0   3  -4   45.79    9.17
   0   3  -3  956.82   19.49
   0   3  -3  996.44   38.81
   0   3  -2  374.38   22.55
   0   3  -2  387.45   14.16
   0   3  -1  204.66   14.20
   0   3  -1  188.85   10.96
   0   3   0  346.63   16.43
   0   3   0  374.08   16.57
   0   3   1   86.03    6.91
   0   3   1   77.41    8.85
   0   3   2   15.31    3.40
   0   3   2   18.54    5.40
   0   3   3    0.92    1.90
   0   3   3   -1.43    3.51
   0   3   4    3.37    3.14
   0   3   4    6.87    4.76
   0   3   5   63.68    9.61
   0   3   5   64.18    9.85
   0  -3  -5   75.55    8.94
   0   3   6  466.60   24.68
   0  -3  -6  461.16   24.31
   0   3   6  458.14   27.51
   0  -3  -7   76.12   10.96
   0   3   7   68.27   12.07
   0  -3  -8   15.18    4.77
   0   3   8   14.05    5.62
   0   3   9   79.27   14.36
   0  -3  -9   83.60   14.49
   0  -3 -10   13.33    8.10
   0   3  10   21.56    9.21
   0   3  11    3.23    5.54
   0  -3 -11    9.14    7.64
   0  -3 -12   15.50    9.69
   0   3  12    9.97    8.97
   0  -3 -13   -4.23    8.83
   0   3  13    4.85    8.34
   0   3  14   -5.41    7.03
   0   3  14  -10.46   12.57
   0  -3 -14   18.59   13.80
   0  -3 -15    0.52   10.60
   0   3  15   -8.66   11.04
   0   4 -16   14.08   21.02
   0   4 -15    3.93   13.48
   0   4 -14   -1.36   10.78
   0   4 -13   -1.69    8.89
   0   4 -12   24.66   12.77
   0   4 -11   25.47   12.27
   0   4 -10   35.08   13.86
   0   4  -9   14.21   10.12
   0   4  -8   22.12    9.03
   0   4  -7  108.58   19.04
   0   4  -6  135.16   19.41
   0   4  -5   31.42    9.09
   0   4  -4   38.99    4.50
   0   4  -4   35.58    8.96
   0   4  -3   18.72    6.05
   0   4  -3   23.05    4.69
   0   4  -2  355.78   23.20
   0   4  -2  347.70   16.09
   0   4  -1  490.14   25.01
   0   4  -1  493.82   20.98
   0   4   0  863.17   29.09
   0   4   0  883.00   30.43
   0   4   1  116.61   12.12
   0   4   1  114.48    9.53
   0   4   2  252.49   12.76
   0   4   2  267.33   19.08
   0   4   3  683.37   31.81
   0   4   3  680.89   19.73
   0   4   4   45.04    8.83
   0   4   4   61.39    6.27
   0   4   5  444.96   27.57
   0   4   5  432.34   19.31
   0   4   6  262.90   22.28
   0   4   6  258.48   17.62
   0  -4  -7  185.72   15.89
   0   4   7  162.91   15.85
   0   4   7  186.45   20.26
   0   4   8   27.95    8.78
   0   4   8   36.89    9.59
   0  -4  -8   29.55    7.98
   0   4   9   12.77    5.62
   0  -4  -9   12.37    4.97
   0   4   9   16.49    6.56
   0   4  10  113.84   18.38
   0  -4 -10  155.24   19.47
   0   4  10  159.33   21.74
   0   4  11   40.29   12.10
   0   4  11   40.99   12.53
   0  -4 -11   32.38   10.56
   0  -4 -12   18.35    9.01
   0   4  12   14.54    8.65
   0   4  12   11.56    9.41
   0   4  13    0.65    7.13
   0   4  13   10.21    9.55
   0  -4 -13    7.86    6.93
   0  -4 -14   -2.28    9.07
   0   4  14   11.00   13.12
   0   4  14    2.46    9.75
   0   5 -16   17.57   14.88
   0   5 -15   20.63   18.94
   0   5 -14  -11.19   15.45
   0   5 -13  -18.86   15.83
   0   5 -12   22.25   13.53
   0   5 -11   11.98    7.47
   0   5 -10  -10.37   10.35
   0   5  -9   30.31   13.32
   0   5  -8   17.82   10.26
   0   5  -7   48.84   14.29
   0   5  -6   20.22    9.08
   0   5  -5   -1.77    4.17
   0   5  -4   19.10    4.45
   0   5  -4   17.92    7.62
   0   5  -3   18.49    4.93
   0   5  -3   10.10    3.98
   0   5  -2 1246.21   46.98
   0   5  -2 1241.93   35.04
   0   5  -1    3.88    4.32
   0   5  -1    5.08    4.57
   0   5   0   86.01   10.88
   0   5   0   66.74    9.73
   0   5   1  119.63   13.64
   0   5   1  123.41   11.30
   0   5   2  365.44   17.57
   0   5   2  361.43   23.84
   0   5   3  115.05    9.10
   0   5   3  114.32   14.15
   0   5   4    1.70    2.34
   0   5   4    0.36    4.75
   0   5   5   17.78    3.90
   0   5   5   45.53   10.15
   0   5   6   74.78   13.44
   0   5   6  104.40   11.08
   0   5   7   32.71    7.64
   0   5   7   45.30   12.36
   0   5   8   20.11   10.24
   0   5   8   10.75    5.79
   0   5   9    6.71    7.31
   0   5   9    2.99    7.83
   0   5  10   26.59   10.00
   0   5  10   26.27   10.32
   0   5  11   21.09   10.28
   0   5  11   39.53   14.88
   0   5  12   12.32   10.96
   0   5  12  -15.75   11.11
   0  -5 -12    0.28    5.62
   0   5  13   60.33   16.91
   0  -5 -13   52.82   14.43
   0   5  13   48.95   14.13
   0   5  14  -19.84   13.74
   0   5  15   12.49   11.44
   0   6 -15  -18.22   16.30
   0   6 -14   -4.47   11.32
   0   6 -13   35.21   19.10
   0   6 -12   20.73   14.56
   0   6 -11    5.12    7.91
   0   6 -10  -14.88   12.51
   0   6  -9   84.56   19.52
   0   6  -8  117.49   22.30
   0   6  -7   37.31   12.54
   0   6  -6   36.13   11.29
   0   6  -5    3.72    7.81
   0   6  -4   18.75    5.26
   0   6  -4   11.16    6.49
   0   6  -3    8.60    4.78
   0   6  -3    3.58    3.94
   0   6  -2   33.13    9.98
   0   6  -2   27.15    6.20
   0   6  -1   31.62    7.86
   0   6  -1   41.21    7.86
   0   6   0    7.69    4.86
   0   6   0    5.03    3.95
   0   6   1 1177.33   44.89
   0   6   1 1219.20   39.09
   0   6   2   19.98    8.16
   0   6   2   15.68    3.16
   0   6   3   -0.93    2.20
   0   6   3    0.92    5.26
   0   6   4   15.53    7.86
   0   6   4    0.50    2.14
   0   6   5  182.01   22.00
   0   6   5  194.53   12.93
   0   6   6   69.67    9.02
   0   6   6   87.73   15.89
   0   6   7   50.35   11.84
   0   6   7   45.79    8.51
   0   6   8   21.64   10.22
   0   6   8   26.92    8.10
   0   6   9   41.03   13.33
   0   6   9   40.54   10.19
   0   6  10   23.52    8.36
   0   6  10   30.71   12.16
   0   6  11   31.89   11.71
   0   6  11   29.11   12.57
   0   6  12   12.01    9.19
   0   6  13   61.40   18.58
   0   6  14   35.98   14.22
   0   6  15   -5.31   11.71
   0   7 -15   -4.63   16.71
   0   7 -14   -4.61   11.32
   0   7 -13    6.26   16.28
   0   7 -12   17.48   17.60
   0   7 -11   -3.64   12.45
   0   7 -10    2.45    9.23
   0   7  -9   84.95   20.34
   0   7  -8   -9.90    7.67
   0   7  -7    3.78    9.74
   0   7  -6   -2.29    8.26
   0   7  -5   84.42   17.84
   0   7  -4   13.34    8.22
   0   7  -4   25.81    6.16
   0   7  -3   75.76   15.52
   0   7  -3   62.15    9.85
   0   7  -2    3.83    4.32
   0   7  -2    5.22    5.68
   0   7  -1   46.99   10.19
   0   7  -1   41.39    9.98
   0   7   0  125.10   15.43
   0   7   0  123.96   15.17
   0   7   1  313.30   22.13
   0   7   1  310.28   25.58
   0   7   2  170.65   19.59
   0   7   2  156.54   14.56
   0   7   3   24.51    5.80
   0   7   3   21.56    6.22
   0   7   4  139.72   18.78
   0   7   4  139.88   11.75
   0   7   5  134.17   18.70
   0   7   5  103.54    9.91
   0   7   6   45.29   13.70
   0   7   7   34.15   13.10
   0   7   8    9.58   10.61
   0   7   9   48.46   15.08
   0   7  10   62.95   16.00
   0   7  11   -2.51    7.96
   0   7  12   20.85    9.70
   0   7  13    7.88    9.22
   0   7  14   79.30   21.47
   0   7  15   18.11   16.41
   0   8 -14  -24.34   17.51
   0   8 -13    5.59   13.76
   0   8 -12   17.97   10.84
   0   8 -11   10.09   16.52
   0   8 -10   15.87   11.84
   0   8  -9   32.86   13.60
   0   8  -8    8.76    8.44
   0   8  -7    1.30    7.40
   0   8  -6  271.07   34.57
   0   8  -5   59.55   17.62
   0   8  -4   29.19   11.25
   0   8  -4   11.94    3.90
   0   8  -3    4.58    4.76
   0   8  -3    8.78    9.41
   0   8  -2  140.77   20.09
   0   8  -2  132.76   16.36
   0   8  -1    2.46    4.19
   0   8  -1    8.36    5.58
   0   8   0  191.08   20.00
   0   8   0  213.60   21.91
   0   8   1    6.96    5.52
   0   8   1   13.13    6.30
   0   8   2  291.73   27.57
   0   8   2  262.92   20.19
   0   8   3   65.28   14.70
   0   8   3   56.95    8.95
   0   8   4  146.30   20.40
   0   8   4  130.19   12.11
   0   8   5   15.48    8.77
   0   8   6    8.53    7.24
   0   8   7  -19.71   12.69
   0   8   8  306.65   32.99
   0   8   9   24.85   10.60
   0   8  10    8.40   10.41
   0   8  11  -11.49   12.53
   0   8  12   11.21    8.72
   0   8  13    9.53   10.57
   0   8  14    1.82   10.49
   0   8  15   23.16   14.20
   0   9 -13   17.40   16.69
   0   9 -12   -2.59   13.05
   0   9 -11   23.83   18.63
   0   9 -10   44.80   17.72
   0   9  -9   18.22   14.21
   0   9  -8   -0.82   10.96
   0   9  -7   99.53   22.18
   0   9  -6   12.97    9.46
   0   9  -5   19.25   12.04
   0   9  -4   -4.83    6.33
   0   9  -3    9.90    7.21
   0   9  -3   -2.97    6.60
   0   9  -2   13.69    8.70
   0   9  -2   15.01    7.10
   0   9  -1   86.21   15.15
   0   9  -1  113.87   17.81
   0   9   0   45.81   12.13
   0   9   0   54.02   12.97
   0   9   1   32.66   10.55
   0   9   1   33.38    9.38
   0   9   2  133.34   20.81
   0   9   2   93.64   13.66
   0   9   3  251.17   28.02
   0   9   3  224.98   18.88
   0   9   4   18.48    9.75
   0   9   5  -14.00   12.04
   0   9   6   39.47   12.91
   0   9   7   23.10   13.37
   0   9   8    7.91    7.14
   0   9   9   40.80   14.26
   0   9  10   68.31   21.09
   0   9  11   26.82   10.28
   0   9  12   34.75   16.75
   0   9  13    2.06   10.20
   0   9  14   27.02   18.09
   0   9  15   -0.11   16.09
   0  10 -12   31.80   18.24
   0  10 -11    1.23   14.28
   0  10 -10   -9.06   13.03
   0  10  -9   -3.69   14.55
   0  10  -8   13.83   14.56
   0  10  -7   15.48   13.07
   0  10  -6   54.62   20.09
   0  10  -5    1.90    9.44
   0  10  -4   15.20    8.67
   0  10  -3   89.24   18.08
   0  10  -2  -11.65    9.70
   0  10  -2  -12.50   11.65
   0  10  -1    2.03    7.12
   0  10  -1   18.39    8.60
   0  10   0  170.38   21.98
   0  10   0  203.30   24.41
   0  10   1    1.36    5.00
   0  10   1   -2.52    8.87
   0  10   2   21.22    9.16
   0  10   2   16.18    9.07
   0  10   3   -6.75    7.94
   0  10   4   21.70   11.64
   0  10   5   66.27   18.22
   0  10   6   22.65   10.73
   0  10   7   21.58   12.42
   0  10   8   49.27   15.43
   0  10   9    5.93   14.58
   0  10  10   43.47   17.57
   0  10  11   56.16   17.16
   0  10  12  -14.70   15.88
   0  10  13   45.45   19.48
   0  10  14   -5.12   12.06
   0  10  15    1.75   15.88
   0  11 -10   -0.82   13.28
   0  11  -9   -7.65   11.55
   0  11  -8   13.54   11.16
   0  11  -7    5.96   11.80
   0  11  -6   23.37   12.94
   0  11  -5   -1.22    9.48
   0  11  -4   17.57   10.74
   0  11  -3  -12.15   10.23
   0  11  -2    1.56    7.55
   0  11  -2   11.24   10.19
   0  11  -1   56.09   15.33
   0  11  -1   51.18   13.35
   0  11   0   21.43    8.51
   0  11   0   24.30   12.73
   0  11   1   -1.84   10.94
   0  11   2   -3.60    9.24
   0  11   3   53.42   16.31
   0  11   4    3.16    9.25
   0  11   5   18.04   13.87
   0  11   6   57.87   17.58
   0  11   7   66.89   16.79
   0  11   8    2.02    9.71
   0  11   9   -6.35   10.42
   0  11  10   22.39   15.17
   0  11  11   30.23   18.44
   0  11  12    7.75   12.46
   0  11  13  -10.11   16.56
   0  11  14   57.14   26.08
   0  11  15    0.50   17.07
   0  12  -7   13.86   12.48
   0  12  -6   -9.80   10.72
   0  12  -5   26.02   16.63
   0  12  -4   -3.59   15.23
   0  12  -3   51.24   19.02
   0  12  -2   -0.15    8.50
   0  12  -1   -3.35    7.76
   0  12   0   27.10   14.07
   0  12   1  -17.59   14.29
   0  12   2   16.81   13.88
   0  12   3   21.32   13.57
   0  12   4    0.58   11.77
   0  12   5   13.86   12.61
   0  12   6   -8.02   10.37
   0  12   7   10.34   10.10
   0  12   8   31.87   14.37
   0  12   9    5.31   15.25
   0  12  10   13.11   16.31
   0  12  11  -21.34   18.02
   0  12  12  -18.14   15.85
   0  12  13  -17.83   13.89
   0  12  14  -12.05   16.07
   0  13   1    0.39   11.31
   0  13   2   30.18   14.59
   0  13   3   40.11   20.66
   0  13   4    0.09   14.45
   0  13   5    2.36   10.98
   0  13   6   10.11   11.45
   0  13   7   24.71   15.91
   0  13   8   42.00   17.02
   0  13   9   10.80   13.48
   0  13  10   32.06   14.94
   0  13  11   13.28   16.62
   0  13  12   -3.69   15.73
   0  13  13    9.52   15.23
   0  14   3   24.19   14.81
   0  14   4  -46.94   19.59
   0  14   5    1.74   12.38
   0  14   6    0.11   15.73
   0  14   7   -9.98   17.77
   0  14   8    9.18   14.47
   0  14   9  -22.22   18.64
   0  14  10  -21.13   19.85
   0  14  11    3.62   20.62
   0  14  12   43.55   26.03
   0  15   6  -10.33   17.09
   0  15   7  -17.63   18.10
   0  15   8  -20.01   17.79
   0  15   9   33.44   25.14
  -1  15   8   12.38   15.86
  -1  15   7    5.34   15.68
  -1  15   6  -20.40   15.65
  -1  14  11  -16.68   17.93
  -1  14  10  -16.72   18.34
  -1  14   9   29.76   19.49
  -1  14   8    6.21   11.96
  -1  14   7    4.41   12.55
  -1  14   6   26.77   18.75
  -1  14   5   28.36   16.16
  -1  14   4  -18.88   15.30
  -1  14   3   36.66   18.62
  -1  13  13    7.96   19.94
  -1  13  12    7.58   20.44
  -1  13  11    9.33   11.77
  -1  13  10  -16.59   16.46
  -1  13   9   22.80   12.15
  -1  13   8   -9.31   12.77
  -1  13   7   31.39   17.72
  -1  13   6   34.42   13.39
  -1  13   5   11.83   10.72
  -1  13   4   10.80   14.24
  -1  13   3   60.22   18.00
  -1  13   2    2.47    9.20
  -1  13   1    1.79   11.88
  -1  12  14   -3.66   16.12
  -1  12  13    7.11   16.31
  -1  12  12   25.67   13.42
  -1  12  11   28.20   20.06
  -1  12  10   -1.14   12.59
  -1  12   9    5.52   10.83
  -1  12   8  -16.20   10.58
  -1  12   7   -5.88    8.90
  -1  12   6   29.94   15.28
  -1  12   5   13.48   10.85
  -1  12   4   36.99   17.14
  -1  12   3   28.54   14.10
  -1  12   2   16.59   12.98
  -1  12   1   16.24   13.49
  -1  12   0    8.42    9.51
  -1  12  -1   39.81   16.33
  -1  12  -1   13.68   10.06
  -1  12  -2   15.32    9.06
  -1  12  -3   -0.79   10.36
  -1  12  -4   20.91   17.02
  -1  12  -5   -1.04    9.42
  -1  12  -6    3.14   12.45
  -1  12  -7   22.82   18.50
  -1  12  -8  -12.45   15.20
  -1  11  14   -6.40   16.08
  -1  11  13  -33.21   20.07
  -1  11  12   22.72   19.67
  -1  11  11   40.09   19.35
  -1  11  10   18.16   13.86
  -1  11   9   13.39   14.19
  -1  11   8   -4.15    9.00
  -1  11   7   25.68   15.06
  -1  11   6   30.07   12.36
  -1  11   5   -1.98    8.52
  -1  11   4   20.97   12.29
  -1  11   3   14.16    8.82
  -1  11   2  -13.71    7.80
  -1  11   1   13.49    6.32
  -1  11   1   -4.51   11.61
  -1  11   0  108.02   18.85
  -1  11   0   85.48   17.40
  -1  11  -1   25.56   12.47
  -1  11  -1   -5.70   10.77
  -1  11  -2   10.27    9.70
  -1  11  -2   -5.72    8.15
  -1  11  -3   28.88   10.88
  -1  11  -4    3.72    8.59
  -1  11  -5  -11.66   11.07
  -1  11  -6  -15.34   11.62
  -1  11  -7  -15.70   12.48
  -1  11  -8   -0.61   10.43
  -1  11  -9    2.34   13.13
  -1  11 -10  -14.39   14.84
  -1  10  15   42.06   20.95
  -1  10  14   -7.76   14.06
  -1  10  13  -34.26   17.48
  -1  10  12   20.75   15.11
  -1  10  11   11.24   14.67
  -1  10  10   -0.89    8.11
  -1  10   9   22.54    9.43
  -1  10   8    2.64    9.27
  -1  10   7   25.71    9.54
  -1  10   6   16.39   10.99
  -1  10   5   39.19   12.76
  -1  10   4    2.51   10.29
  -1  10   3    8.16    5.71
  -1  10   3   10.34    7.76
  -1  10   2   -5.99    7.24
  -1  10   2    2.34    5.07
  -1  10   1   27.57   11.55
  -1  10   1   31.90    9.76
  -1  10   0   19.92    8.40
  -1  10   0   36.66   12.94
  -1  10  -1   55.53   14.12
  -1  10  -1   53.37   15.42
  -1  10  -2    4.98    7.14
  -1  10  -2   20.38    8.78
  -1  10  -3    5.67    8.80
  -1  10  -3    2.99    7.70
  -1  10  -4   63.93   18.00
  -1  10  -5   -9.57    7.79
  -1  10  -6   12.98   13.59
  -1  10  -7   -1.04   10.10
  -1  10  -8   49.51   19.63
  -1  10  -9    2.78   11.10
  -1  10 -10   -4.79   10.89
  -1  10 -11  -16.12   19.71
  -1  10 -12   -2.34   13.66
  -1   9  15   19.46   17.09
  -1   9  14    7.02   11.42
  -1   9  13   29.28   14.13
  -1   9  12   18.66   10.09
  -1   9  11   -5.89    9.32
  -1   9  10   12.89    9.34
  -1   9   9    2.96    9.17
  -1   9   8   47.76   14.36
  -1   9   7    3.88    7.04
  -1   9   6   69.57   17.62
  -1   9   5  189.87   25.25
  -1   9   4  340.93   24.81
  -1   9   4  400.16   35.44
  -1   9   3   12.23    7.94
  -1   9   3    6.73    5.90
  -1   9   2   65.36   14.86
  -1   9   2   36.08    9.54
  -1   9   1   69.68   15.14
  -1   9   1   53.69   11.64
  -1   9   0  390.25   32.27
  -1   9   0  397.04   32.93
  -1   9  -1   15.98    8.50
  -1   9  -1    6.32    7.71
  -1   9  -2   10.20    5.87
  -1   9  -2   -0.49    5.50
  -1   9  -3  267.34   30.65
  -1   9  -3  234.39   21.00
  -1   9  -4   11.79   10.01
  -1   9  -5   23.29   10.65
  -1   9  -6   -4.93    9.39
  -1   9  -7   51.18   17.42
  -1   9  -8   14.54   14.88
  -1   9  -9   11.14   12.15
  -1   9 -10    2.40   13.21
  -1   9 -11   -5.66   13.06
  -1   9 -12    4.80   14.17
  -1   9 -13    5.82   15.14
  -1   8  15    6.44   14.64
  -1   8  14   57.55   19.66
  -1   8  13   21.76   13.38
  -1   8  12    4.14   10.17
  -1   8  11  -13.51   11.31
  -1   8  10    7.94    9.40
  -1   8   9   50.78   14.88
  -1   8   8   -0.07    6.71
  -1   8   7   37.64   14.19
  -1   8   6   10.85    7.73
  -1   8   6   10.39    6.00
  -1   8   5   55.51   13.51
  -1   8   5   49.26    9.35
  -1   8   4    7.58    5.93
  -1   8   4    9.33    8.06
  -1   8   3    8.60    8.00
  -1   8   3   19.97    6.55
  -1   8   2   74.13   12.14
  -1   8   2   87.15   15.83
  -1   8   1  371.15   31.35
  -1   8   1  332.81   26.74
  -1   8   0   30.02   10.77
  -1   8   0   23.36    9.38
  -1   8  -1   -5.32    6.78
  -1   8  -1   17.05   12.93
  -1   8  -2   95.60   14.45
  -1   8  -2  110.97   18.33
  -1   8  -3  229.89   19.96
  -1   8  -3  250.86   29.53
  -1   8  -4   14.68    5.08
  -1   8  -4   27.00   10.69
  -1   8  -5   28.97   11.68
  -1   8  -6  111.42   22.23
  -1   8  -7    5.23    8.13
  -1   8  -8    9.85   11.47
  -1   8  -9   -2.87   10.09
  -1   8 -10  -15.97   10.88
  -1   8 -11   -6.33    9.62
  -1   8 -12   -1.66   10.70
  -1   8 -13   12.97   16.02
  -1   8 -14    2.61   17.13
  -1   7  15   18.67   13.25
  -1   7  14   -1.25   11.28
  -1   7  13    9.98   15.90
  -1   7  12  -20.53   12.02
  -1   7  11   31.68   13.05
  -1   7  10   34.32   11.98
  -1   7   9   12.04    8.18
  -1   7   9   14.14   11.77
  -1   7   8   -0.63    6.17
  -1   7   8    6.28    6.42
  -1   7   7   19.60    7.89
  -1   7   7   21.69    8.67
  -1   7   6   91.24   12.87
  -1   7   6   75.28   14.93
  -1   7   5  134.94   14.39
  -1   7   5  105.28   16.53
  -1   7   4   49.37   12.52
  -1   7   4   34.77    8.00
  -1   7   3  165.14   16.02
  -1   7   3  146.89   19.11
  -1   7   2  134.83   17.76
  -1   7   2  117.53   14.46
  -1   7   1   31.20    7.74
  -1   7   1   22.86    7.68
  -1   7   0   22.30    6.34
  -1   7   0   14.13    3.95
  -1   7  -1   22.22    6.38
  -1   7  -1   -5.24    6.31
  -1   7  -2  361.24   23.83
  -1   7  -2  318.67   29.06
  -1   7  -3  212.96   24.78
  -1   7  -3  196.88   16.91
  -1   7  -4    2.63    7.30
  -1   7  -4    5.80    4.67
  -1   7  -5   15.29    8.37
  -1   7  -6   51.87   16.09
  -1   7  -7   81.91   19.71
  -1   7  -8   32.49   12.18
  -1   7  -9   -4.51    9.32
  -1   7 -10    2.96   12.46
  -1   7 -11   15.95   15.78
  -1   7 -12    6.07   12.04
  -1   7 -13   -8.69   17.74
  -1   7 -14  -13.53   19.91
  -1   7 -15   11.06   17.53
  -1   6  15   -3.99   10.01
  -1   6  14   -9.75   10.23
  -1   6  13   12.98    7.62
  -1   6  12   12.61    7.72
  -1   6  12   21.62   10.86
  -1   6  11   -1.36    7.53
  -1   6  11   11.25   11.73
  -1   6  10   21.19   18.93
  -1   6  10    4.74    6.47
  -1   6   9    5.64    8.42
  -1   6   9   -0.42    6.23
  -1   6   8  136.82   17.04
  -1   6   8  102.47   17.63
  -1   6   7   46.28   12.46
  -1   6   7   34.64    8.99
  -1   6   6  187.86   17.47
  -1   6   6  187.03   22.13
  -1   6   5    0.78    4.79
  -1   6   5   -0.13    4.76
  -1   6   4   53.64   11.61
  -1   6   4   91.72   11.27
  -1   6   3    3.71    6.23
  -1   6   3    1.19    3.24
  -1   6   2  281.53   23.21
  -1   6   2  279.81   20.22
  -1   6   1   -0.66    4.17
  -1   6   1    9.52    4.84
  -1   6   0   68.33   11.31
  -1   6   0   78.61   12.31
  -1   6  -1   -5.78    5.41
  -1   6  -1    6.83    5.85
  -1   6  -2   50.63   10.03
  -1   6  -2   42.73    8.23
  -1   6  -3   -0.21    3.35
  -1   6  -3   -3.11    5.11
  -1   6  -4    1.32    7.07
  -1   6  -4    0.16    3.51
  -1   6  -5   31.15   10.12
  -1   6  -6  210.33   26.56
  -1   6  -7   76.72   17.71
  -1   6  -8   16.64   11.86
  -1   6  -9   18.35   12.69
  -1   6 -10   22.11   12.44
  -1   6 -11  -15.19   14.11
  -1   6 -12    1.11   11.22
  -1   6 -13  -22.47   18.46
  -1   6 -14   31.99   16.96
  -1   6 -15    3.99   15.87
  -1   6 -16   12.08   18.04
  -1   5  15    4.42    8.85
  -1   5  14   18.07   12.74
  -1   5  14   -1.24    9.65
  -1   5  13   24.70   10.71
  -1   5  13    0.14    8.49
  -1   5  12   56.00   14.92
  -1   5  12   46.35   13.12
  -1   5  11    8.49    6.20
  -1   5  11   10.36    9.27
  -1   5  10   14.05    9.36
  -1   5  10   -6.84    6.76
  -1   5   9   40.56   11.72
  -1   5   9   53.66   13.68
  -1   5   8   17.03    7.51
  -1   5   8  -10.71    6.80
  -1   5   7    2.12    4.51
  -1   5   7   -5.20    6.30
  -1   5   6   -8.23    7.35
  -1   5   6   19.00    6.15
  -1   5   5  214.90   17.14
  -1   5   5  244.24   22.82
  -1   5   4  349.25   20.76
  -1   5   4  345.41   26.25
  -1   5   3 2283.08   51.17
  -1   5   3 2309.28   63.40
  -1   5   2   43.76    8.91
  -1   5   2   45.63    7.80
  -1   5   1    7.92    4.61
  -1   5   1    5.94    5.39
  -1   5   0  512.79   26.17
  -1   5   0  538.42   27.15
  -1   5  -1  792.26   34.99
  -1   5  -1  760.93   30.37
  -1   5  -2  138.55   16.74
  -1   5  -2  144.76   12.52
  -1   5  -3  103.47    9.83
  -1   5  -3   89.15   14.47
  -1   5  -4  133.17   17.58
  -1   5  -4  118.33    8.83
  -1   5  -5  443.37   35.58
  -1   5  -6  251.14   28.08
  -1   5  -7    4.35    8.58
  -1   5  -8    9.34    8.55
  -1   5  -9   13.04    8.02
  -1   5 -10   24.21   13.83
  -1   5 -11   58.80   17.95
  -1   5 -12   22.01   16.21
  -1   5 -13   -5.71   11.84
  -1   5 -14   14.74   14.72
  -1   5 -15   20.18   17.59
  -1   5 -16    1.24   13.35
  -1   4  15    1.78   11.52
  -1   4  14    8.32    8.66
   1  -4 -14   -1.78   12.11
  -1   4  14   16.69   15.98
  -1   4  13   14.26   10.10
  -1   4  13    2.67    7.89
  -1   4  12   13.04    9.52
  -1   4  12    5.51    6.55
  -1   4  11  -10.24    7.87
  -1   4  11    3.45    6.61
   1  -4 -11   12.32    9.66
  -1   4  10    8.47    6.66
   1  -4 -10  -10.73    8.15
  -1   4  10   10.10    8.62
  -1   4   9   50.60   12.23
   1  -4  -9   58.08   13.06
  -1   4   9   31.65   10.48
  -1   4   8   14.68    8.30
  -1   4   8    2.94    4.91
  -1   4   7    2.91    5.62
  -1   4   7   11.93    8.47
  -1   4   6    8.38    5.33
  -1   4   6   11.30    6.88
  -1   4   5   -5.56    3.78
  -1   4   5    6.99    5.31
  -1   4   4    3.59    2.80
  -1   4   4   -2.38    5.07
  -1   4   3   15.41    5.62
  -1   4   3   19.68    7.57
  -1   4   2  121.11   13.58
  -1   4   2  137.07   11.65
  -1   4   1  501.77   25.45
  -1   4   1  492.34   22.59
  -1   4   0  518.71   24.12
  -1   4   0  506.12   25.04
  -1   4  -1   60.13    9.87
  -1   4  -1   65.33    8.02
  -1   4  -2  851.43   26.06
  -1   4  -2  890.54   36.61
  -1   4  -3 1075.70   25.26
  -1   4  -3 1066.67   45.38
  -1   4  -4    5.79    2.00
  -1   4  -4    5.36    4.76
  -1   4  -5   53.11   10.92
  -1   4  -6   -0.68    6.74
  -1   4  -7  136.09   20.99
  -1   4  -8  122.84   20.64
  -1   4  -9  172.87   24.94
  -1   4 -10    9.93    7.90
  -1   4 -11   -2.12   11.15
  -1   4 -12   -2.02   10.22
  -1   4 -13   26.64   15.24
  -1   4 -14    3.64    8.96
  -1   4 -15   32.15   17.30
  -1   4 -16    7.89   11.56
  -1   4 -17    2.82   14.81
  -1   3  15   -0.09    9.71
   1  -3 -15  -14.55   11.19
  -1   3  14   18.59   15.23
   1  -3 -14   -5.87    7.43
  -1   3  13    5.71    8.51
  -1   3  13   -4.52    7.87
  -1   3  12   28.38   11.78
   1  -3 -12   16.71    9.05
  -1   3  12    4.60    6.67
   1  -3 -11    7.41    5.16
  -1   3  11    8.07    6.46
  -1   3  11    5.14    6.49
   1  -3 -10   23.19    9.43
  -1   3  10   -2.79    6.44
  -1   3  10   16.63    9.41
  -1   3   9   83.43   17.76
   1  -3  -9  105.76   16.70
  -1   3   9  119.53   17.24
   1  -3  -8   13.59    7.28
  -1   3   8   10.77    7.28
  -1   3   8    5.57    7.41
   1  -3  -7   70.72   11.88
  -1   3   7   84.92   14.46
  -1   3   7   68.22   14.23
  -1   3   6    8.19    4.99
   1  -3  -6   18.10    6.13
  -1   3   5   28.88    6.37
  -1   3   4   -0.49    2.67
  -1   3   3   14.29    3.19
  -1   3   2   19.03    4.63
  -1   3   1   -3.68    3.09
  -1   3   0 2527.45   47.75
  -1   3  -1  679.10   28.61
  -1   3  -2    3.27    1.99
  -1   3  -2    4.78    4.44
  -1   3  -3    2.60    1.69
  -1   3  -3    6.08    4.61
  -1   3  -4  568.07   32.39
  -1   3  -5  829.96   42.53
  -1   3  -6  510.35   34.70
  -1   3  -7   25.29    9.22
  -1   3  -8  219.69   25.57
  -1   3  -9  156.22   23.68
  -1   3 -10  195.29   27.46
  -1   3 -11   40.59   15.31
  -1   3 -12    8.54    7.68
  -1   3 -13    0.89    8.46
  -1   3 -14   30.68   19.77
  -1   3 -15    4.78   10.14
  -1   3 -16   54.60   23.91
  -1   3 -17  -19.26   17.40
   1  -2 -16    4.48   10.87
  -1   2  16   11.78   14.50
   1  -2 -15   -8.55   10.76
  -1   2  15   13.11   13.60
  -1   2  14    7.61   12.96
   1  -2 -14  -15.18   11.64
  -1   2  13   19.33   13.94
   1  -2 -13   28.24   14.58
  -1   2  13   -6.30   10.34
   1  -2 -12    0.94    7.14
  -1   2  12   12.32    8.99
  -1   2  11    6.88    7.23
   1  -2 -11   10.65    7.46
  -1   2  10   -1.33    7.07
   1  -2 -10    0.98    5.22
   1  -2  -9  225.82   24.86
  -1   2   9  228.05   22.85
  -1   2   8   15.20    7.14
   1  -2  -8    8.41    5.84
   1  -2  -7  290.79   24.66
   1  -2  -6  840.25   38.87
  -1   2   6  712.25   39.17
   1  -2  -5    4.39    3.04
  -1   2   5    7.11    3.68
  -1   2   4  172.20   14.00
   1  -2  -4  196.80   15.22
  -1   2   3  559.08   24.18
  -1   2   2  362.32   16.59
  -1   2   1   -1.10    2.72
  -1   2   0  104.91    9.30
  -1   2  -1  152.62   12.01
  -1   2  -2   49.81    7.37
  -1   2  -3   63.78    9.76
  -1   2  -4  669.43   33.39
  -1   2  -5  172.02   17.61
  -1   2  -6  218.22   21.70
  -1   2  -7  110.42   15.97
  -1   2  -8   80.43   15.88
  -1   2  -9   17.03    8.80
  -1   2 -10  131.52   22.52
  -1   2 -11   -0.61    6.49
  -1   2 -12  106.90   21.90
  -1   2 -13   15.96   13.96
  -1   2 -14   -1.92   10.37
  -1   2 -15   -8.73   13.00
  -1   2 -16   17.20   16.65
  -1   2 -17    6.42   12.46
   1  -1 -16  -10.59   14.33
  -1   1  16   -1.79   16.34
   1  -1 -15   21.29   17.02
   1  -1 -14   14.92   12.54
   1  -1 -13   18.92    9.72
   1  -1 -12   -1.27    7.68
  -1   1  12    5.17    7.60
   1  -1 -11    2.82    7.71
  -1   1  11    9.44    4.74
  -1   1  10   74.11   13.52
   1  -1 -10   67.73   15.64
   1  -1  -9   64.15   14.11
  -1   1   9   65.82   13.07
   1  -1  -8   35.42   10.25
   1  -1  -7    6.98    5.03
   1  -1  -6 3643.90   82.77
   1  -1  -5  179.64   16.51
   1  -1  -4 3203.78   64.71
   1  -1  -3 5519.03   76.09
  -1   1   3 5635.59   75.55
   1  -1  -2 2088.31   40.61
  -1   1   2 2004.92   39.18
  -1   1   1  401.18   15.02
  -1   1   0   45.08    6.59
  -1   1  -1   95.05    8.39
  -1   1  -2  308.47    8.86
  -1   1  -2  292.31   16.00
  -1   1  -3 3744.75   62.97
  -1   1  -4  335.40   21.31
   1  -1   4  376.38   10.51
   1  -1   5   24.74    3.22
  -1   1  -5   19.26    5.15
   1  -1   6   57.09    5.37
  -1   1  -6   40.50    9.39
  -1   1  -7  394.24   29.07
   1  -1   7  378.83   15.25
   1  -1   8  323.20   15.57
  -1   1  -8  344.18   29.79
  -1   1  -9   33.41    8.67
  -1   1 -10   31.48   11.94
  -1   1 -11  141.31   22.77
  -1   1 -12   10.57    6.50
  -1   1 -13    9.07    7.87
  -1   1 -14   -8.09   11.53
  -1   1 -15    7.82   10.19
  -1   1 -16   17.73   15.87
  -1   1 -17   24.66   18.40
   1   0 -16   33.40   16.45
   1   0 -15   14.98   15.21
   1   0 -14   63.92   20.50
   1   0 -13  -11.50   11.27
   1   0 -12    8.12    9.32
  -1   0  11    1.65    6.65
   1   0 -11   31.54   11.86
   1   0 -10   -3.85    7.93
  -1   0  10  -12.70    7.65
   1   0  -9    8.35    6.09
   1   0  -8   62.59   13.00
   1   0  -7   15.05    6.99
   1   0  -6    1.95    4.22
   1   0  -5  287.39   21.80
   1   0  -4  796.78   33.64
   1   0  -3 5046.66   76.12
   1   0  -2 4423.98   62.34
  -1   0   1 6380.51   62.17
   1   0  -1 6305.82   64.42
  -1   0   0  686.93   17.24
  -1   0  -1  666.00   15.93
   1   0   1   -3.39    1.76
   1   0   2   65.64    5.01
  -1   0  -2   69.51    6.44
  -1   0  -3  937.90   27.18
   1   0   3  945.77   19.81
   1   0   4   42.85    5.11
  -1   0  -4   40.69    6.77
   1   0   5   -0.72    2.46
  -1   0  -5    3.07    2.97
   1   0   6  134.45   10.31
  -1   0  -6  147.45   15.76
  -1   0  -7   30.79    8.40
   1   0   7   16.37    4.37
   1   0   8  153.47   13.27
  -1   0  -8  154.95   19.42
  -1   0  -9   45.53   11.64
   1   0   9   45.24    8.09
  -1   0 -10    0.76    5.93
   1   0  10    0.56    5.05
  -1   0 -11    8.74    8.49
  -1   0 -12   -0.22    7.97
  -1   0 -13   14.50   10.32
  -1   0 -14    0.79    7.38
  -1   0 -15   -6.28   11.41
  -1   0 -16   10.91   11.39
  -1   0 -17   -9.93   12.07
   1   1 -16   28.47   18.71
   1   1 -15    2.08   12.09
   1   1 -14    7.87    8.74
   1   1 -13   -4.35    7.75
   1   1 -12    6.66   10.66
   1   1 -11  120.40   24.02
  -1  -1  10   15.43    5.91
   1   1 -10    7.49    5.84
   1   1  -9   -1.32    5.01
   1   1  -8  139.08   19.56
   1   1  -7   -0.28    6.88
   1   1  -6  230.04   22.01
   1   1  -5    8.16    6.07
   1   1  -4   32.17    8.09
   1   1  -3 1161.54   38.83
   1   1  -2 1198.08   35.24
   1   1  -1  100.37   10.03
   1   1  -1  112.43    7.37
  -1  -1   0   12.94    2.94
   1   1   0   11.84    2.65
   1   1   0    6.56    2.56
   1   1   1  829.58   20.52
  -1  -1  -2    1.30    1.33
   1   1   2   -1.16    1.32
  -1  -1  -3   12.35    3.05
   1   1   3   17.64    4.88
   1   1   4   63.17    7.74
  -1  -1  -4   69.21    7.72
  -1  -1  -5   17.05    4.72
   1   1   5   15.10    4.85
   1   1   6  138.51   12.03
  -1  -1  -6  123.76   13.51
  -1  -1  -7  240.67   20.65
   1   1   7  246.15   17.42
   1   1   8   77.32   10.45
  -1  -1  -8   81.21   12.96
   1   1   9   76.85   11.49
  -1  -1  -9   89.83   14.83
  -1  -1 -10   84.98   15.33
   1   1  10  100.48   13.98
  -1  -1 -11   76.40   15.49
   1   1  11   70.55   12.36
   1   1  12    9.70    6.95
  -1  -1 -12    7.52    7.51
  -1  -1 -13    9.26    6.90
  -1  -1 -14   12.95   10.18
  -1  -1 -15   46.41   15.15
  -1  -1 -16    6.76    9.98
   1   2 -16   -6.86   12.47
   1   2 -15    3.54   11.60
   1   2 -14   -6.49    8.77
   1   2 -13   11.07   14.28
   1   2 -12    2.26    7.66
   1   2 -11   14.87    7.72
   1   2 -10   28.48   12.05
   1   2  -9   15.47    9.92
   1   2  -8   67.72   16.18
   1   2  -7  145.33   19.76
   1   2  -6   50.91   10.96
   1   2  -5    3.80    3.53
   1   2  -4    3.67    3.91
   1   2  -3   18.14    6.27
   1   2  -2   13.01    3.38
   1   2  -2    5.41    3.05
   1   2  -1  404.07   15.99
   1   2  -1  410.63   19.80
   1   2   0 1427.69   30.10
   1   2   0 1449.04   30.86
   1   2   1 2988.53   45.61
   1   2   1 2975.92   30.69
  -1  -2  -1 2967.06   30.85
   1   2   2 2590.21   45.10
  -1  -2  -3 1391.36   20.83
   1   2   3 1370.94   35.59
   1   2   4  120.29   11.34
  -1  -2  -4  126.21    8.80
  -1  -2  -5   -1.22    2.27
   1   2   5    4.41    4.05
   1   2   6  471.50   25.29
  -1  -2  -6  472.30   23.68
  -1  -2  -7    8.38    4.39
   1   2   7   -3.45    4.70
   1   2   8    3.48    4.23
  -1  -2  -8    7.16    5.30
  -1  -2  -9  314.25   25.90
   1   2   9  323.57   24.45
   1   2  10   26.62    9.31
  -1  -2 -10   24.86   10.36
   1   2  11   49.01   12.32
  -1  -2 -11   59.21   13.48
   1   2  12   61.67   13.23
  -1  -2 -12   65.40   15.56
   1   2  13   -4.69    7.75
  -1  -2 -13   16.30    9.83
  -1  -2 -14   48.97   17.07
  -1  -2 -15   11.12   11.01
  -1  -2 -16    1.95   10.36
   1   3 -16   13.68   19.21
   1   3 -15   25.39   17.36
   1   3 -14    6.93   10.21
   1   3 -13    7.85    9.85
   1   3 -12   -3.40    9.02
   1   3 -11    3.68    8.04
   1   3 -10    8.44    9.21
   1   3  -9    7.08    9.96
   1   3  -8  169.72   24.51
   1   3  -7   23.22   10.18
   1   3  -6   16.36    7.39
   1   3  -5  276.77   25.97
   1   3  -4  712.87   37.07
   1   3  -3  118.41    9.04
   1   3  -3  142.79   15.49
   1   3  -2   13.41    3.72
   1   3  -2   16.20    5.97
   1   3  -1  701.71   27.82
   1   3  -1  690.11   23.51
   1   3   0  122.59   10.55
   1   3   0  121.39   10.41
   1   3   1  107.51   10.59
   1   3   1   91.52    6.93
   1   3   2    2.86    3.69
   1   3   3  127.55   12.36
   1   3   4   78.28   10.81
  -1  -3  -4   73.55    5.22
  -1  -3  -5 1012.02   25.87
   1   3   5 1023.59   37.85
   1   3   6  191.95   17.19
  -1  -3  -6  209.32   14.49
  -1  -3  -7   -0.17    2.52
   1   3   7   -2.45    4.07
   1   3   8    6.01    6.35
  -1  -3  -8    4.07    4.79
   1   3   9   77.23   13.21
  -1  -3  -9   76.16   11.93
   1   3  10   40.63   10.75
  -1  -3 -10   31.27    8.60
   1   3  11   45.69   12.50
  -1  -3 -11   38.21   12.63
   1   3  12   32.64   13.36
  -1  -3 -12   18.87    8.97
  -1  -3 -13   28.38   12.61
   1   3  13   60.27   16.76
  -1  -3 -14   -2.83    8.71
   1   3  14    0.50    9.38
  -1  -3 -15   16.39   13.49
   1   4 -16  -15.90   21.44
   1   4 -15    7.42   16.69
   1   4 -14    8.46   11.59
   1   4 -13    3.94   11.57
   1   4 -12   12.01   12.85
   1   4 -11   -1.88    9.03
   1   4 -10   48.16   14.51
   1   4  -9   11.58    7.41
   1   4  -8  169.39   25.15
   1   4  -7   60.19   13.88
   1   4  -6   42.46   12.57
   1   4  -5  320.97   28.66
   1   4  -4   33.37    8.95
   1   4  -4   45.05    6.38
   1   4  -3    4.42    3.16
   1   4  -3   -0.40    4.08
   1   4  -2   37.13    8.05
   1   4  -2   32.97    6.56
   1   4  -1    9.50    4.07
   1   4  -1   11.43    4.61
   1   4   0   13.02    3.60
   1   4   0   10.59    3.76
   1   4   1   41.23    5.87
   1   4   1   34.81    7.16
   1   4   2   39.69    4.22
   1   4   2   43.05    7.66
   1   4   3   43.92    8.63
   1   4   4   23.69    6.20
   1   4   5   17.31    3.09
   1   4   5   13.18    6.24
  -1  -4  -6  309.30   14.81
   1   4   6  286.54   23.43
   1   4   6  315.66   16.09
   1   4   7  442.68   29.90
   1   4   7  412.16   21.65
  -1  -4  -7  404.78   20.88
   1   4   8   78.38   14.67
  -1  -4  -8   72.64   10.42
   1   4   9  179.31   20.69
  -1  -4  -9  155.53   16.02
  -1  -4 -10   10.10    6.13
   1   4  10   10.88    6.79
  -1  -4 -11   -9.39    7.88
   1   4  11  -14.52    9.52
  -1  -4 -12   25.20    9.33
   1   4  12   17.35   10.43
  -1  -4 -13    5.84    7.95
   1   4  13   12.91   10.93
  -1  -4 -14   -7.68   12.15
   1   4  14    4.18    7.74
   1   5 -16   14.08   20.01
   1   5 -15   32.00   20.20
   1   5 -14   23.14   18.18
   1   5 -13   24.28   15.87
   1   5 -12   -4.99   11.59
   1   5 -11   -3.82   10.08
   1   5 -10    7.24   11.33
   1   5  -9    1.61    7.31
   1   5  -8   62.69   16.15
   1   5  -7   11.27    8.27
   1   5  -6  155.26   22.28
   1   5  -5  521.54   39.02
   1   5  -4  222.51   23.56
   1   5  -4  243.92   15.41
   1   5  -3  254.36   23.11
   1   5  -3  264.37   16.87
   1   5  -2  319.23   19.29
   1   5  -2  284.98   23.02
   1   5  -1  770.18   34.31
   1   5  -1  728.58   30.05
   1   5   0  543.48   26.52
   1   5   0  579.29   27.29
   1   5   1   10.91    5.31
   1   5   1    5.54    2.50
   1   5   2  215.00   11.53
   1   5   2  214.40   18.34
   1   5   3  235.97    8.85
   1   5   3  279.27   22.10
   1   5   4   21.43    6.88
   1   5   5  196.84   20.47
   1   5   6    2.23    2.26
   1   5   6    2.69    4.77
   1   5   7   97.78   15.89
   1   5   7   92.81    9.39
   1   5   8   72.07   13.67
   1   5   8   62.29    9.74
   1   5   9  106.73   14.23
   1   5   9  156.25   21.88
  -1  -5  -9  131.95   14.18
   1   5  10   68.26   14.55
  -1  -5 -10   83.32   12.46
   1   5  10   60.40   13.27
  -1  -5 -11   -5.29    5.43
   1   5  11    1.28    5.44
  -1  -5 -12    1.80    5.58
   1   5  12   20.79    9.86
   1   5  12    2.59    6.27
   1   5  13   -3.12   11.92
   1   5  14   21.85   13.33
   1   5  15    3.73   12.45
   1   6 -15   18.80   23.32
   1   6 -14   18.40   19.14
   1   6 -13    5.64   12.16
   1   6 -12    2.00    9.80
   1   6 -11    5.12   13.24
   1   6 -10   49.78   17.61
   1   6  -9   41.36   12.74
   1   6  -8   22.27   13.05
   1   6  -7  -14.11    9.23
   1   6  -6   28.24   10.43
   1   6  -5  240.16   15.27
   1   6  -5  281.25   29.23
   1   6  -4    1.15    2.92
   1   6  -4    0.11    5.00
   1   6  -3  121.92   17.52
   1   6  -3  123.75   13.17
   1   6  -2  311.14   25.49
   1   6  -2  326.19   21.54
   1   6  -1  200.50   19.18
   1   6  -1  199.83   17.35
   1   6   0   18.98    5.68
   1   6   0   18.64    6.61
   1   6   1   33.81    6.77
   1   6   1   19.42    5.52
   1   6   2  379.96   18.20
   1   6   2  374.92   27.04
   1   6   3   17.44    3.29
   1   6   3   27.00    9.06
   1   6   4  209.30   22.05
   1   6   5   31.63   10.45
   1   6   6   78.70   14.77
   1   6   7   77.69   16.27
   1   6   8  232.97   25.65
   1   6   9    7.01    7.77
   1   6  10  172.25   24.42
   1   6  11   59.45   16.12
   1   6  12  171.83   26.32
   1   6  13   -2.78   11.61
   1   6  14  -12.08   13.09
   1   6  15   -7.11   11.39
   1   7 -14   -0.69   12.64
   1   7 -13    6.90   12.79
   1   7 -12   -0.83   10.01
   1   7 -11    6.15   13.98
   1   7 -10   56.92   17.84
   1   7  -9   14.70   14.39
   1   7  -8   13.22   10.20
   1   7  -7   22.11   13.17
   1   7  -6   20.92   10.04
   1   7  -5   13.67    5.47
   1   7  -4    4.26    7.26
   1   7  -4    3.06    4.37
   1   7  -3  233.04   25.43
   1   7  -3  214.19   18.88
   1   7  -2  374.26   30.18
   1   7  -2  384.94   24.88
   1   7  -1   -4.87    6.17
   1   7  -1    6.75    5.30
   1   7   0   54.99   11.31
   1   7   0   43.87    9.08
   1   7   1   13.61    5.25
   1   7   1   15.74    8.20
   1   7   2  317.51   18.71
   1   7   2  323.79   27.84
   1   7   3  119.11   17.43
   1   7   3  111.66    9.52
   1   7   4   65.97   13.66
   1   7   5  391.18   32.20
   1   7   6   38.48   11.43
   1   7   7   -6.21    8.24
   1   7   8   24.23    9.97
   1   7   9    2.27    6.49
   1   7  10   23.87    9.96
   1   7  11  119.59   21.47
   1   7  12  -13.03   12.02
   1   7  13   53.58   17.74
   1   7  14   -1.52   12.54
   1   7  15   59.37   19.13
   1   7  16   23.36   17.63
   1   8 -13    5.44   15.57
   1   8 -12   27.01   15.28
   1   8 -11    1.30   14.66
   1   8 -10   -2.65    9.64
   1   8  -9    8.86   11.14
   1   8  -8   20.07   14.36
   1   8  -7   71.76   18.87
   1   8  -6   36.33   14.97
   1   8  -5    8.80    7.55
   1   8  -4   29.90    7.45
   1   8  -4   53.20   13.44
   1   8  -3   14.15    6.65
   1   8  -3   16.85    8.60
   1   8  -2   49.56   12.49
   1   8  -2   60.39   11.84
   1   8  -1    4.84    5.55
   1   8  -1    7.53    6.15
   1   8   0  375.34   28.89
   1   8   0  391.94   28.16
   1   8   1   70.92   12.31
   1   8   1   80.62   14.66
   1   8   2   15.25    8.67
   1   8   2   21.33    6.36
   1   8   3   24.38   10.98
   1   8   4    9.49    7.50
   1   8   5   61.79   15.15
   1   8   6   51.46   14.71
   1   8   7  204.38   27.10
   1   8   8   -1.01    8.65
   1   8   9   20.41   11.77
   1   8  10   13.55   12.30
   1   8  11   -2.91    8.74
   1   8  12   30.61   15.53
   1   8  13   16.56   12.58
   1   8  14   29.59   16.25
   1   8  15    6.73   15.53
   1   8  16    2.03   12.89
   1   9 -12    5.68   12.38
   1   9 -11   -3.66   16.92
   1   9 -10    5.93   13.32
   1   9  -9    7.25   13.11
   1   9  -8   15.24    8.27
   1   9  -7   -3.18    9.47
   1   9  -6    5.40    9.42
   1   9  -5  -12.29    7.45
   1   9  -4    5.26    6.56
   1   9  -3   51.83   14.34
   1   9  -3   13.21    5.69
   1   9  -2   49.59   11.44
   1   9  -2   60.17   14.50
   1   9  -1   79.75   13.68
   1   9  -1   80.78   14.25
   1   9   0   20.91    9.16
   1   9   0   20.22    9.65
   1   9   1   23.39   11.60
   1   9   1   34.86    8.88
   1   9   2  122.84   20.26
   1   9   2  102.30   13.54
   1   9   3   32.35    9.83
   1   9   4   89.93   17.92
   1   9   5   95.03   18.69
   1   9   6   28.98   11.61
   1   9   7   80.35   19.56
   1   9   8   17.19    9.17
   1   9   9  108.29   21.87
   1   9  10   -7.76    9.68
   1   9  11   40.46   18.40
   1   9  12   33.02   16.68
   1   9  13  -33.63   18.58
   1   9  14   -0.31   10.50
   1   9  15  -23.27   22.88
   1   9  16  -17.34   21.71
   1  10 -11   15.90   15.34
   1  10 -10  -10.32   13.62
   1  10  -9  -13.81   12.19
   1  10  -8  -14.66   13.30
   1  10  -7   12.72   10.60
   1  10  -6  -15.97   12.84
   1  10  -5    2.38   12.56
   1  10  -4   95.68   20.45
   1  10  -3   64.75   16.60
   1  10  -2   -2.27    6.74
   1  10  -2  -14.91    6.43
   1  10  -1   19.48   10.32
   1  10  -1   20.28    9.06
   1  10   0   89.35   15.82
   1  10   0   76.31   14.47
   1  10   1  152.48   22.61
   1  10   1  144.84   18.58
   1  10   2   -2.46    7.46
   1  10   3   15.75   13.25
   1  10   4    7.52    8.48
   1  10   5   60.77   16.04
   1  10   6  -15.13   10.24
   1  10   7   79.10   20.37
   1  10   8  197.75   30.04
   1  10   9   -2.42    9.83
   1  10  10  133.04   26.62
   1  10  11   30.86   14.18
   1  10  12   26.86   11.47
   1  10  13   -0.32   17.11
   1  10  14    8.71   18.60
   1  10  15    1.05   16.99
   1  11  -9   42.81   20.97
   1  11  -8   29.03   19.77
   1  11  -7   15.81   14.51
   1  11  -6   -4.49   11.47
   1  11  -5   45.80   16.54
   1  11  -4    0.17    8.32
   1  11  -3    1.06    8.80
   1  11  -2    4.92    7.50
   1  11  -2   10.66    6.67
   1  11  -1   36.45   12.79
   1  11  -1   23.73   10.67
   1  11   0   27.11   10.20
   1  11   1   -9.46   11.06
   1  11   2    8.79    8.96
   1  11   3   16.04   12.23
   1  11   4   44.04   15.52
   1  11   5  -15.28   13.72
   1  11   6    7.18   14.39
   1  11   7  -21.39   15.51
   1  11   8    6.19   12.64
   1  11   9   11.45   14.50
   1  11  10   31.39   17.51
   1  11  11    4.76   10.11
   1  11  12   -8.57   16.19
   1  11  13   -7.18   12.83
   1  11  14   13.50   13.57
   1  11  15  -33.38   21.99
   1  12  -5    5.46   13.22
   1  12  -4    8.66   10.24
   1  12  -1   19.61   10.68
   1  12   0    0.13    8.76
   1  12   1    9.66   10.65
   1  12   2   14.44   10.63
   1  12   3   29.87   10.98
   1  12   4   14.03   10.94
   1  12   5   -9.84   10.82
   1  12   6   -6.06   14.86
   1  12   7   -1.69   11.76
   1  12   8  -11.97   14.37
   1  12   9    7.51   16.91
   1  12  10    7.74   11.90
   1  12  11   31.28   19.04
   1  12  12   -9.88   15.78
   1  12  13    7.53   18.03
   1  12  14   30.22   16.47
   1  13   1   21.04   15.96
   1  13   2    8.90   13.53
   1  13   3   13.21   11.39
   1  13   4   32.57   17.68
   1  13   5   -4.56   14.54
   1  13   6   10.89   12.30
   1  13   7   57.31   18.56
   1  13   8   -4.21   13.68
   1  13   9  -25.25   16.06
   1  13  10    4.32   16.48
   1  13  11  -17.88   15.60
   1  13  12  -11.12   17.30
   1  13  13   -3.09   14.08
   1  13  14  -63.64   26.87
   1  14   3   12.09   20.39
   1  14   4    5.33   12.70
   1  14   5    8.79   11.36
   1  14   6   -6.66   13.27
   1  14   7  -40.33   20.83
   1  14   8   21.01   15.29
   1  14   9    1.05   13.70
   1  14  10  -22.91   20.19
   1  14  11  -23.52   20.97
   1  14  12  -17.52   20.40
   1  15   6  -56.67   27.80
   1  15   7   -8.75   19.06
   1  15   8  -16.47   14.91
   1  15   9   17.18   14.18
   1  15  10   16.68   16.79
  -2  14  11   10.43   16.98
  -2  14  10   -5.71   16.46
  -2  14   9   42.98   19.38
  -2  14   8    9.92   14.22
  -2  14   7   43.94   20.77
  -2  14   6   15.66   12.29
  -2  14   5   -6.58   14.05
  -2  14   4   30.61   14.59
  -2  14   3  -20.10   16.25
  -2  13  12   -5.76   15.04
  -2  13  11   -3.50   12.74
  -2  13  10    7.90   13.90
  -2  13   9    7.33   11.04
  -2  13   8    0.51    9.63
  -2  13   7  -39.70   18.79
  -2  13   6   10.23    9.83
  -2  13   5    6.44    9.11
  -2  13   4    6.82   11.68
  -2  13   3   23.71   16.67
  -2  13   2    8.19    9.42
  -2  13   1   25.75   15.02
  -2  12  13    7.62   16.38
  -2  12  12   -8.98   16.44
  -2  12  11    4.15   11.26
  -2  12  10   10.50   11.35
  -2  12   9  -25.19   15.24
  -2  12   8   -3.77   11.78
  -2  12   7   19.36   13.20
  -2  12   6  -18.78   11.88
  -2  12   5    0.25    8.16
  -2  12   4   45.19   16.20
  -2  12   3   -7.71   10.75
  -2  12   2   21.66   14.32
  -2  12   1  -22.03   15.83
  -2  12   0   44.84   14.61
  -2  12  -1    3.50    9.08
  -2  12  -1   11.37   11.41
  -2  12  -2   27.46   16.66
  -2  12  -3   17.71   14.89
  -2  12  -4   15.99   10.10
  -2  12  -5   -4.09   11.24
  -2  12  -6   47.19   22.06
  -2  12  -7  -11.80   22.39
  -2  12  -8   -3.83   12.87
  -2  12  -9   26.07   20.29
  -2  11  14    8.45   14.27
  -2  11  13   15.25   15.66
  -2  11  12  -20.09   12.47
  -2  11  11   -3.08   13.65
  -2  11  10    3.50   11.21
  -2  11   9    7.72    8.14
  -2  11   8   -0.61   10.38
  -2  11   7   11.39   12.84
  -2  11   6   17.23   11.29
  -2  11   5   -2.29    9.36
  -2  11   4   10.54    8.27
  -2  11   3  -15.95   11.65
  -2  11   2   21.07   10.45
  -2  11   2    8.21    8.11
  -2  11   1   66.11   14.19
  -2  11   1   51.77   14.05
  -2  11   0   12.66   10.93
  -2  11   0   -7.89    8.86
  -2  11  -1   -6.33   11.40
  -2  11  -1   17.62   10.75
  -2  11  -2    1.58    7.77
  -2  11  -2   20.85    8.00
  -2  11  -3   -2.92    7.41
  -2  11  -4   32.81   13.72
  -2  11  -5   13.17   10.84
  -2  11  -6    2.15   12.21
  -2  11  -7   25.47   15.08
  -2  11  -8    2.35   11.07
  -2  11  -9   41.03   22.17
  -2  11 -10  -23.55   19.14
  -2  11 -11    8.33   15.18
  -2  10  14    3.35   11.26
  -2  10  13    0.86   10.68
  -2  10  12   16.21   16.47
  -2  10  11   39.83   16.63
  -2  10  10   -4.62    8.45
  -2  10   9    4.02    9.57
  -2  10   8   19.88   11.19
  -2  10   7   63.69   17.92
  -2  10   6   82.37   16.44
  -2  10   5    7.26   11.62
  -2  10   4   16.75    8.92
  -2  10   4   -0.79    7.37
  -2  10   3   58.57   14.97
  -2  10   3   79.97   15.32
  -2  10   2   20.66   10.57
  -2  10   2   12.05    7.67
  -2  10   1  126.80   20.32
  -2  10   1  111.87   19.31
  -2  10   0   18.14    9.94
  -2  10   0   11.50    9.41
  -2  10  -1    0.40    7.18
  -2  10  -1    7.37    6.92
  -2  10  -2   41.69   12.94
  -2  10  -2   21.51   10.25
  -2  10  -3  126.47   17.37
  -2  10  -3  154.09   26.69
  -2  10  -4    4.07    8.51
  -2  10  -5    6.07   13.25
  -2  10  -6   50.23   20.30
  -2  10  -7  104.14   27.38
  -2  10  -8   -0.57   14.43
  -2  10  -9   34.02   19.38
  -2  10 -10    2.08   11.84
  -2  10 -11    6.55   16.03
  -2  10 -12  -10.20   14.80
  -2   9  15   32.25   18.30
  -2   9  14   25.93   17.52
  -2   9  13   20.87   12.34
  -2   9  12   34.61   16.11
  -2   9  11    9.58    9.03
  -2   9  10   -5.64    8.90
  -2   9   9    9.10   14.42
  -2   9   8   21.28   14.01
  -2   9   7   40.57   10.77
  -2   9   6   58.19   16.00
  -2   9   6   74.52   15.53
  -2   9   5   12.55    6.91
  -2   9   5   -3.67    7.38
  -2   9   4  184.49   24.57
  -2   9   4  177.48   21.17
  -2   9   3  210.97   22.31
  -2   9   3  198.97   24.58
  -2   9   2    1.03    5.70
  -2   9   2   14.80    6.81
  -2   9   1   17.23    8.02
  -2   9   1   16.26    6.62
  -2   9   0   51.39   13.75
  -2   9   0   20.07    8.70
  -2   9  -1    0.80    4.93
  -2   9  -1   -3.11    6.57
  -2   9  -2  130.64   22.04
  -2   9  -2  131.95   18.25
  -2   9  -3  153.36   17.89
  -2   9  -3  157.94   24.50
  -2   9  -4   27.54   12.72
  -2   9  -5   25.11   11.71
  -2   9  -6   40.76   15.37
  -2   9  -7   -6.81    8.51
  -2   9  -8   -8.28   11.33
  -2   9  -9   82.84   23.83
  -2   9 -10   14.13   10.59
  -2   9 -11   20.95   14.11
  -2   9 -12    3.72   15.91
  -2   9 -13    0.88   14.10
  -2   9 -14   28.16   17.67
  -2   8  15   13.29   10.86
  -2   8  14   18.90   14.04
  -2   8  13  -11.17   13.77
  -2   8  12  -17.25   12.31
  -2   8  11   -5.31    8.14
  -2   8  10   11.02   11.53
  -2   8   9   -3.50   11.66
  -2   8   8   68.85   17.14
  -2   8   8  109.41   20.12
  -2   8   7    4.32    8.77
  -2   8   7   22.94    7.19
  -2   8   6   36.10   10.42
  -2   8   6   43.32   11.46
  -2   8   5    7.78    8.97
  -2   8   5   -2.25    4.92
  -2   8   4   41.29   12.35
  -2   8   4   62.45   12.66
  -2   8   3   16.18    6.82
  -2   8   3   17.16   10.77
  -2   8   2   26.36   10.67
  -2   8   2   13.02    7.32
  -2   8   1   61.24   13.06
  -2   8   1   42.56   12.05
  -2   8   0  212.12   22.06
  -2   8   0  223.89   24.17
  -2   8  -1   18.67    8.76
  -2   8  -1   29.51    9.09
  -2   8  -2   36.13   10.07
  -2   8  -2   31.00   11.37
  -2   8  -3   58.82   10.37
  -2   8  -3   83.04   16.41
  -2   8  -4   36.49    8.61
  -2   8  -4   25.42   10.68
  -2   8  -5   30.61   11.35
  -2   8  -6   10.58    8.38
  -2   8  -7  137.91   25.95
  -2   8  -8   11.03    8.50
  -2   8  -9   12.52   10.75
  -2   8 -10   96.71   26.06
  -2   8 -11    6.33   10.08
  -2   8 -12   16.08   16.72
  -2   8 -13    3.71   14.43
  -2   8 -14   39.36   21.78
  -2   8 -15  -16.19   19.72
  -2   7  15   -4.33   12.30
  -2   7  14    3.08   11.95
  -2   7  13   14.47   12.25
  -2   7  12    1.70   11.21
  -2   7  11   -5.13    9.38
  -2   7  10   13.13    8.31
  -2   7  10   30.94   11.01
  -2   7   9   68.44   13.70
  -2   7   9   33.85   10.43
  -2   7   8    2.23    6.60
  -2   7   8   -1.75    6.36
  -2   7   7   10.43    8.46
  -2   7   7   23.38    9.77
  -2   7   6   32.49   10.18
  -2   7   6   56.26   15.39
  -2   7   5   56.68   13.12
  -2   7   5   44.78   11.48
  -2   7   4    2.09    4.34
  -2   7   4   18.89    9.76
  -2   7   3   16.29    5.43
  -2   7   3   18.53    7.43
  -2   7   2   11.86    4.82
  -2   7   2   12.42    6.43
  -2   7   1   27.71    8.06
  -2   7   1   29.27    8.06
  -2   7   0  108.40   15.73
  -2   7   0  100.17   14.87
  -2   7  -1   61.20   11.32
  -2   7  -1   83.36   14.94
  -2   7  -2  178.94   21.79
  -2   7  -2  155.98   16.32
  -2   7  -3  118.03   19.29
  -2   7  -3  124.65   14.33
  -2   7  -4   15.53    7.38
  -2   7  -4   18.85    6.28
  -2   7  -5   73.78   17.34
  -2   7  -6   34.36   13.06
  -2   7  -7   15.67    9.82
  -2   7  -8   13.11    9.52
  -2   7  -9  135.80   27.07
  -2   7 -10   -4.72    8.24
  -2   7 -11   -2.99   10.00
  -2   7 -12   27.58   15.71
  -2   7 -13   47.33   19.69
  -2   7 -14   19.07   19.97
  -2   7 -15   -3.06   13.21
  -2   6  15   -7.88   12.78
  -2   6  14   -8.56   11.46
  -2   6  13   12.75   10.17
  -2   6  12    3.83    6.90
  -2   6  12    5.97    9.98
  -2   6  11   22.62   13.25
  -2   6  11   22.03    9.87
  -2   6  10   -1.68    6.52
  -2   6  10    6.53    8.12
  -2   6   9  156.35   21.61
  -2   6   9  115.89   20.01
  -2   6   8   16.69   10.42
  -2   6   8   29.42   12.29
  -2   6   7  376.18   29.22
  -2   6   7  411.80   35.17
  -2   6   6  284.99   25.07
  -2   6   6  240.61   26.89
  -2   6   5   46.49   11.38
  -2   6   5   51.56   12.50
  -2   6   4   78.77   12.90
  -2   6   4   81.68   14.37
  -2   6   3    9.08    7.99
  -2   6   3    8.19    6.52
  -2   6   2   -2.26    5.36
  -2   6   2   10.26    5.94
  -2   6   1  162.44   17.63
  -2   6   1  155.55   17.31
  -2   6   0   94.82   13.18
  -2   6   0  118.32   15.70
  -2   6  -1   26.63    7.85
  -2   6  -1   20.94    8.34
  -2   6  -2   24.90    6.89
  -2   6  -2   28.05    8.50
  -2   6  -3  139.96   13.32
  -2   6  -3  135.96   19.52
  -2   6  -4  100.08   10.74
  -2   6  -4  122.14   18.29
  -2   6  -5  194.82   25.06
  -2   6  -6    7.63    7.71
  -2   6  -7    5.92   10.51
  -2   6  -8  138.98   24.20
  -2   6  -9  168.83   27.46
  -2   6 -10   21.09   13.26
  -2   6 -11  -17.35   13.93
  -2   6 -12   68.68   22.39
  -2   6 -13   27.94   15.73
  -2   6 -14   25.16   20.12
  -2   6 -15    9.10   15.46
  -2   6 -16    5.29   17.22
  -2   5  14  -10.53   11.26
  -2   5  14  -13.46   11.65
  -2   5  13   10.57    9.52
  -2   5  13   -6.51    9.12
  -2   5  12  -18.85   12.87
  -2   5  12  -10.99    9.56
  -2   5  11   -4.77    8.10
  -2   5  11    0.59    6.50
  -2   5  10    8.13    9.24
  -2   5  10    8.37    8.20
  -2   5   9   -2.91    6.71
  -2   5   9  -12.79    7.21
  -2   5   8    9.18    7.22
  -2   5   8   17.74    9.57
  -2   5   7   47.43   11.96
  -2   5   7   38.47   12.02
  -2   5   6  129.24   17.20
  -2   5   5    2.97    4.86
  -2   5   4  251.63   20.71
  -2   5   3    8.23    6.06
  -2   5   2    6.04    3.76
  -2   5   1  110.76   13.63
  -2   5   0  709.20   34.38
  -2   5  -1   36.37    8.74
  -2   5  -2  173.03   14.84
  -2   5  -2  201.34   19.97
  -2   5  -3    7.55    5.78
  -2   5  -3    3.98    3.61
  -2   5  -4   10.97    3.93
  -2   5  -4   19.07    7.88
  -2   5  -5   32.89   10.43
  -2   5  -6   22.81    9.48
  -2   5  -7   10.09   10.24
  -2   5  -8   17.49    8.90
  -2   5  -9   55.95   16.23
  -2   5 -10   82.46   20.04
  -2   5 -11   -2.28    9.63
  -2   5 -12   75.26   19.90
  -2   5 -13   28.86   14.57
  -2   5 -14    8.01   11.21
  -2   5 -15   16.69   19.62
  -2   5 -16   -0.56   13.82
  -2   4  15   12.65   13.93
  -2   4  14   -1.60   10.06
  -2   4  14  -13.67   14.14
  -2   4  13   29.67   13.33
  -2   4  13   -5.75    8.27
  -2   4  12    7.27    9.87
  -2   4  12   -2.11    8.92
  -2   4  11   17.84   10.82
  -2   4  11   19.40   10.34
  -2   4  10   45.77   15.08
  -2   4  10   55.26   15.30
  -2   4   9   28.31   10.36
  -2   4   9   30.96    8.93
  -2   4   8   21.22   10.89
  -2   4   7    4.98    7.12
  -2   4   6  159.60   18.73
  -2   4   5  133.90   14.84
  -2   4   4   22.44    7.10
  -2   4   3  152.34   15.33
  -2   4   2  286.09   19.99
  -2   4   1 1428.87   43.75
  -2   4   0  153.03   15.46
  -2   4  -1  199.55   17.91
  -2   4  -2    0.62    3.16
  -2   4  -3  831.50   39.39
  -2   4  -4   -3.73    2.86
  -2   4  -4   -3.81    4.44
  -2   4  -5    4.94    1.34
  -2   4  -5   23.33    8.61
  -2   4  -6   18.95    7.88
  -2   4  -7    1.55    7.72
  -2   4  -8   93.92   18.24
  -2   4  -9   16.33    7.71
  -2   4 -10   41.88   13.17
  -2   4 -11   17.39   13.43
  -2   4 -12  128.59   25.70
  -2   4 -13   30.62   16.96
  -2   4 -14   -0.11    9.41
  -2   4 -15   31.21   15.90
  -2   4 -16    0.13   11.33
  -2   4 -17  -10.95   18.66
  -2   3  15    5.55   19.28
   2  -3 -15    0.60   10.48
  -2   3  14   -4.05   11.22
   2  -3 -14    8.69   11.68
  -2   3  13   20.45   11.24
   2  -3 -13   27.97   11.34
  -2   3  13   22.06   13.70
  -2   3  12   80.40   17.31
   2  -3 -12   95.20   19.38
  -2   3  12   97.60   21.33
  -2   3  11   -0.91    5.93
  -2   3  11   -0.29    6.84
   2  -3 -11   -2.66    7.06
  -2   3  10  196.82   27.43
   2  -3 -10  173.77   23.98
  -2   3  10  176.34   23.61
   2  -3  -9   -5.28    4.87
  -2   3   9    0.58    6.77
   2  -3  -8   20.31   10.46
  -2   3   8    9.23    7.12
  -2   3   7   16.22    7.45
  -2   3   6   39.05   11.28
  -2   3   5   89.30   12.22
  -2   3   4  148.58   15.52
  -2   3   3  712.78   30.83
  -2   3   2  174.60   15.58
  -2   3   1  461.90   23.40
  -2   3   0  273.52   18.55
  -2   3  -1   67.30    9.47
  -2   3  -2  413.50   24.78
  -2   3  -3  691.22   33.50
  -2   3  -4  138.86   16.91
  -2   3  -5    5.39    5.48
  -2   3  -6  290.22   28.16
  -2   3  -7  172.86   22.36
  -2   3  -8  122.72   20.13
  -2   3  -9    0.53    7.46
  -2   3 -10    2.60    5.53
  -2   3 -11    2.46    7.83
  -2   3 -12   -1.08    9.08
  -2   3 -13   81.96   23.49
  -2   3 -14   13.56    9.86
  -2   3 -15   21.36   11.12
  -2   3 -16   38.21   21.45
  -2   3 -17  -18.95   19.30
   2  -2 -16   -4.39   13.67
  -2   2  16   25.49   22.88
  -2   2  15   19.37   13.52
   2  -2 -15   -8.25   11.61
  -2   2  14  -19.10   15.24
   2  -2 -14    1.53   10.58
  -2   2  13    3.36    9.87
  -2   2  13   -4.99    7.00
   2  -2 -13    5.21    7.90
  -2   2  12   56.54   20.69
  -2   2  12   58.90   14.27
   2  -2 -12   84.34   17.80
  -2   2  11   44.00   12.33
  -2   2  11   12.48   12.85
   2  -2 -11   48.92   13.34
   2  -2 -10   95.74   19.12
  -2   2  10   81.60   17.39
   2  -2  -9  292.50   29.69
  -2   2   9  293.89   30.81
   2  -2  -8   18.82    8.08
  -2   2   8    9.86    6.33
   2  -2  -7  852.04   45.23
  -2   2   7  933.37   47.95
  -2   2   6   19.24    8.42
   2  -2  -6   26.24    8.16
   2  -2  -5   91.02   14.19
  -2   2   5   64.00   13.57
  -2   2   4  249.14   21.09
  -2   2   3  524.66   25.62
  -2   2   2  650.15   27.51
  -2   2   1  499.28   23.46
  -2   2   0  617.91   25.80
  -2   2  -1 2402.72   50.03
  -2   2  -2  244.35   17.43
  -2   2  -3  100.33   13.04
  -2   2  -4   82.75   11.87
  -2   2  -5  236.95   22.62
  -2   2  -6   89.71   14.83
  -2   2  -7  132.17   17.84
  -2   2  -8    2.45    4.24
  -2   2  -9    8.14    4.56
  -2   2 -10  100.34   19.31
  -2   2 -11  343.30   37.24
  -2   2 -12   10.70   10.62
  -2   2 -13   -6.03   10.42
  -2   2 -14    6.28   12.68
  -2   2 -15   21.82   18.57
  -2   2 -16   10.64   16.07
  -2   2 -17    6.65   14.52
   2  -1 -16    0.83   11.16
  -2   1  16   -1.91   18.05
  -2   1  15   -3.26   15.94
   2  -1 -15    5.80   10.26
  -2   1  14   -0.53   10.51
   2  -1 -14   18.56   12.47
  -2   1  13  -13.55   14.45
   2  -1 -13   21.39   13.75
  -2   1  12   -2.55    7.07
   2  -1 -12   -2.66    7.82
  -2   1  12   -4.99   11.25
  -2   1  11   37.74   15.01
  -2   1  11   50.26   12.78
   2  -1 -11   37.36   13.44
  -2   1  10  -11.58    9.99
   2  -1 -10    4.93    6.04
  -2   1   9  295.83   32.04
   2  -1  -9  229.11   26.39
  -2   1   8  482.69   41.78
   2  -1  -8  554.35   39.52
  -2   1   7   98.58   16.41
   2  -1  -7  106.56   16.70
   2  -1  -6  440.71   30.98
  -2   1   6  396.18   31.87
   2  -1  -5  199.36   19.92
  -2   1   5   94.79   19.00
   2  -1  -4 1732.67   54.14
  -2   1   4 1692.80   53.10
   2  -1  -3   50.93    8.65
  -2   1   3   46.12    8.19
  -2   1   2   35.17    7.38
  -2   1   1    7.88    4.53
  -2   1   0  755.77   25.95
  -2   1  -1    8.74    4.56
  -2   1  -2  799.79   28.39
  -2   1  -3   24.61    6.13
   2  -1   3   21.02    3.37
   2  -1   4  329.17   13.80
  -2   1  -4  286.29   19.95
   2  -1   5  103.40    7.79
  -2   1  -5   94.73   12.05
   2  -1   6   45.32    5.21
  -2   1  -6   42.82    9.64
   2  -1   7  213.40   11.73
  -2   1  -7  218.06   21.72
   2  -1   8   10.57    3.77
  -2   1  -8    3.20    6.75
  -2   1  -9    8.51    6.73
  -2   1 -10  259.09   29.22
  -2   1 -11   16.87   10.46
  -2   1 -12    4.78    7.36
  -2   1 -13   15.07    9.95
  -2   1 -14   47.94   14.77
  -2   1 -15    7.89    9.86
  -2   1 -16   -2.37   11.32
  -2   1 -17    2.42   11.20
   2   0 -16  -14.29   20.16
  -2   0  16    3.05   16.02
  -2   0  15  -16.73   11.79
   2   0 -15  -13.04   16.87
  -2   0  14   13.67   11.86
   2   0 -14   15.21   15.78
   2   0 -13   -8.61    9.58
   2   0 -12   21.24   11.70
   2   0 -11    0.15    8.38
   2   0 -10   22.09   10.37
   2   0  -9   13.22    7.46
   2   0  -8   37.00   12.20
   2   0  -7   66.90   14.18
   2   0  -6  178.72   20.24
   2   0  -5 1619.55   58.44
  -2   0   4   23.94    6.15
   2   0  -4   30.04    8.44
   2   0  -3   66.60   10.63
  -2   0   3   45.72   10.04
  -2   0   2   66.21   11.33
   2   0  -2   80.71   11.03
  -2   0   1  371.50   19.21
  -2   0   0  983.54   29.08
  -2   0  -1  234.12   13.66
   2   0   1  216.12   12.50
  -2   0  -2 1578.40   34.77
   2   0   2 1531.24   32.47
  -2   0  -3  286.68   16.27
   2   0   3  301.15   14.42
   2   0   4  344.41   15.91
  -2   0  -4  357.10   19.94
  -2   0  -5  162.80   14.90
   2   0   5  175.79   11.54
  -2   0  -6   18.53    5.73
   2   0   6   12.15    4.07
  -2   0  -7   46.23    9.93
   2   0   7   48.33    7.18
  -2   0  -8  130.84   17.68
   2   0   8  147.62   12.58
  -2   0  -9   83.41   15.06
   2   0   9   77.68    9.78
   2   0  10   42.73    9.64
  -2   0 -10   51.42   13.86
  -2   0 -11  128.41   22.13
  -2   0 -12   53.05   14.23
  -2   0 -13  120.18   22.96
  -2   0 -14   15.05    8.71
  -2   0 -15    7.56    9.98
  -2   0 -16   -6.92   10.52
  -2   0 -17    5.91   15.38
  -2  -1  16  -46.65   26.77
   2   1 -16   15.74   19.61
  -2  -1  15    2.93   16.10
   2   1 -15    5.94   13.40
   2   1 -14   16.06   13.97
   2   1 -13    9.12    9.63
   2   1 -12   21.63   12.07
   2   1 -11   12.86   11.82
   2   1 -10   -7.16   10.68
   2   1  -9    0.59    6.90
   2   1  -8   19.45   10.47
   2   1  -7   12.74    7.83
   2   1  -6   -0.38    6.08
   2   1  -5  221.32   21.36
   2   1  -4 1087.36   44.50
   2   1  -3   97.41   13.61
   2   1  -2   70.32   11.68
  -2  -1   2   85.11   10.91
   2   1  -1  305.64   19.72
  -2  -1   1  298.41   18.64
   2   1  -1  304.66   16.09
  -2  -1   0   88.49    9.82
   2   1   0   79.34    8.71
  -2  -1  -1 1834.26   36.68
   2   1   1 1910.53   39.28
   2   1   2    0.81    3.74
  -2  -1  -2   11.21    4.06
  -2  -1  -3 5176.75   60.04
   2   1   3 5195.68   66.77
  -2  -1  -4   -0.79    2.67
   2   1   4   -2.64    3.90
   2   1   5   59.93    8.10
  -2  -1  -5   67.75    8.87
  -2  -1  -6  168.51   15.48
   2   1   6  148.33   13.10
   2   1   7  378.86   21.39
  -2  -1  -7  353.71   24.60
   2   1   8   94.39   11.73
  -2  -1  -8   90.20   13.31
  -2  -1  -9  277.98   25.70
   2   1   9  262.26   19.95
   2   1  10  451.53   27.45
  -2  -1 -10  455.35   34.92
   2   1  11  132.31   15.22
  -2  -1 -11  140.47   20.91
   2   1  12   -8.49    6.49
  -2  -1 -12   13.57   10.47
  -2  -1 -13   54.55   16.41
  -2  -1 -14   -4.98    7.58
  -2  -1 -15   36.48   16.60
  -2  -1 -16  -13.71   11.48
  -2  -2  16   -1.16   17.29
   2   2 -16  -15.92   15.75
   2   2 -15   23.67   20.85
   2   2 -14   14.44    9.87
   2   2 -13   21.65   15.94
   2   2 -12    0.09   11.18
   2   2 -11   18.03   13.87
   2   2 -10    9.33   10.58
   2   2  -9   -2.33    6.04
   2   2  -8   10.10    7.43
   2   2  -7  133.83   19.95
   2   2  -6    9.55    7.44
   2   2  -5   19.26    7.35
   2   2  -4    1.47    3.68
   2   2  -3   25.12    8.16
   2   2  -2  181.89   13.33
   2   2  -2  199.11   17.95
   2   2  -1  666.86   25.39
   2   2  -1  672.89   29.50
   2   2   0 2884.64   54.85
  -2  -2   0 2909.66   51.74
   2   2   0 2885.00   52.78
  -2  -2  -1 1209.73   29.42
   2   2   1 1183.53   34.88
  -2  -2  -2 2680.49   37.51
   2   2   2 2658.29   51.21
  -2  -2  -3  937.44   21.53
   2   2   3  900.95   31.14
   2   2   4 2919.88   57.75
  -2  -2  -4 2970.15   42.85
   2   2   5  627.51   27.65
  -2  -2  -5  659.82   24.23
   2   2   6  432.74   24.10
  -2  -2  -6  463.64   23.06
   2   2   7   11.81    5.29
  -2  -2  -7   21.53    5.94
  -2  -2  -8   75.40   11.65
   2   2   8   82.16   12.69
  -2  -2  -9  115.53   15.41
   2   2   9  119.21   15.28
  -2  -2 -10  171.73   20.51
   2   2  10  159.32   18.58
   2   2  11   70.67   12.90
  -2  -2 -11   85.60   15.13
   2   2  12   -9.73    9.60
  -2  -2 -12    3.55    7.11
   2   2  13   24.82   12.22
  -2  -2 -13   39.31   13.70
  -2  -2 -14   -8.35   11.58
  -2  -2 -15    2.85    7.11
  -2  -2 -16   25.59   14.02
   2   3 -16   14.04   17.06
   2   3 -15   -5.51   11.73
   2   3 -14   23.81   17.92
   2   3 -13    6.33   12.44
   2   3 -12   10.30    8.42
   2   3 -11   23.73   12.99
   2   3 -10    5.12    9.53
   2   3  -9  163.71   26.42
   2   3  -8   24.11    8.89
   2   3  -7   46.07   12.17
   2   3  -6    5.52    4.53
   2   3  -5   32.57    8.56
   2   3  -4    1.75    5.07
   2   3  -3   80.75    9.15
   2   3  -3   74.18   12.33
   2   3  -2  213.28   18.56
   2   3  -2  195.70   15.33
   2   3  -1  330.17   19.37
   2   3  -1  343.69   21.67
   2   3   0  120.10   11.58
   2   3   0  119.29   12.20
   2   3   1    6.04    4.64
  -2  -3  -1   13.14    4.30
   2   3   1    3.08    3.12
  -2  -3  -2   83.11    6.63
   2   3   2   68.97    9.27
  -2  -3  -3  406.24   11.45
   2   3   3  438.67   23.91
  -2  -3  -4  756.48   16.90
   2   3   4  801.83   33.13
  -2  -3  -5   36.08    4.46
   2   3   5   37.31    8.17
  -2  -3  -6  423.38   19.12
   2   3   6  392.29   25.45
  -2  -3  -7   19.84    4.53
   2   3   7   25.71    8.89
  -2  -3  -8  173.17   15.98
   2   3   8  163.42   18.44
  -2  -3  -9   61.77   10.94
   2   3   9   42.14    9.33
   2   3  10   39.44   12.23
  -2  -3 -10   41.46   10.04
   2   3  11    8.84    6.28
  -2  -3 -11    3.95    6.27
   2   3  12   23.07   12.55
  -2  -3 -12   11.88    7.57
   2   3  13   16.99   10.69
  -2  -3 -13   14.52    9.37
   2   3  14   24.75   13.41
  -2  -3 -14   19.64    8.69
  -2  -3 -15   -5.48   11.13
   2   4 -15   10.98   15.44
   2   4 -14    4.22   10.62
   2   4 -13   -0.33   12.02
   2   4 -12   17.46   13.29
   2   4 -11   43.38   18.63
   2   4 -10   -7.29    9.15
   2   4  -9    3.86    9.38
   2   4  -8   16.13    6.35
   2   4  -7  299.18   32.01
   2   4  -6   15.14    8.77
   2   4  -5   61.66   13.20
   2   4  -4   17.07    6.45
   2   4  -3   44.45    7.55
   2   4  -3   41.47    9.93
   2   4  -2    4.81    3.89
   2   4  -2   -1.23    4.26
   2   4  -1  160.09   14.76
   2   4  -1  163.20   15.90
   2   4   0   24.86    7.20
   2   4   0   34.41    6.40
   2   4   1  302.79   20.11
   2   4   1  284.51   16.43
   2   4   2  605.24   29.68
   2   4   2  607.70   18.71
  -2  -4  -2  623.07   19.20
   2   4   3  758.73   33.81
   2   4   4  443.64   26.75
   2   4   5    2.25    4.78
   2   4   6  357.56   26.58
  -2  -4  -6  327.78   12.84
  -2  -4  -7  166.40   11.49
   2   4   7  180.20   20.59
   2   4   8   20.41    7.55
  -2  -4  -8   18.18    4.84
   2   4   9   49.97   12.07
  -2  -4  -9   42.98    8.38
   2   4  10   24.63    9.21
  -2  -4 -10   19.89    5.59
   2   4  11   12.31    6.92
  -2  -4 -11    4.30    5.33
   2   4  12  -11.93   11.46
  -2  -4 -12   -0.42    7.30
   2   4  13   95.10   19.95
  -2  -4 -13   32.17   12.23
  -2  -4 -14    6.45    7.71
   2   4  14   22.05   14.58
   2   5 -15   -3.83   16.92
   2   5 -14  -16.72   16.00
   2   5 -13   -6.07   11.82
   2   5 -12   43.09   20.07
   2   5 -11   -0.49   10.50
   2   5 -10    4.60    7.57
   2   5  -9   -1.24    8.11
   2   5  -8   83.47   19.45
   2   5  -7   57.17   15.29
   2   5  -6   84.08   17.68
   2   5  -5    7.50    7.89
   2   5  -4  180.22   15.55
   2   5  -4  162.71   21.07
   2   5  -3    5.46    4.20
   2   5  -3   -5.41    6.27
   2   5  -2  590.30   34.31
   2   5  -2  635.79   30.35
   2   5  -1   17.38    5.58
   2   5  -1   27.89    6.87
   2   5   0   16.75    6.41
   2   5   0   29.51    7.06
   2   5   1  415.19   21.27
   2   5   1  409.40   25.37
   2   5   2  514.07   29.35
   2   5   2  554.78   19.84
   2   5   3    7.34    6.54
   2   5   4  104.57   14.58
   2   5   5  498.16   31.78
   2   5   6  334.55   26.83
   2   5   7  632.97   38.89
   2   5   8    7.51    8.40
   2   5   9   30.09   10.88
  -2  -5 -10   71.35   10.53
   2   5  10   72.28   14.70
   2   5  11    9.82    8.78
   2   5  12   10.24    8.29
   2   5  13   19.49   12.50
   2   5  14   17.24   14.07
   2   5  15    8.22    9.85
   2   6 -14   -4.66   18.39
   2   6 -13   -2.59   13.99
   2   6 -12  -14.94   13.53
   2   6 -11   19.76   14.77
   2   6 -10    1.16   11.06
   2   6  -9   21.86   12.31
   2   6  -8  -14.81   12.08
   2   6  -7   22.13    9.13
   2   6  -6    6.69    6.44
   2   6  -5   11.15    7.51
   2   6  -4   27.66    6.33
   2   6  -4   15.99    9.00
   2   6  -3   35.95   11.00
   2   6  -3   34.07    8.60
   2   6  -2   55.27   11.53
   2   6  -2   72.29   11.36
   2   6  -1    8.04    5.46
   2   6  -1    1.06    4.25
   2   6   0   23.86    6.81
   2   6   0   18.88    6.74
   2   6   1  291.51   19.38
   2   6   1  240.74   21.64
   2   6   2    9.95    5.55
   2   6   2   17.28    4.38
  -2  -6  -3    2.91    1.41
   2   6   3    0.18    1.15
   2   6   4   20.07    8.86
   2   6   5  168.03   19.59
   2   6   6    3.93    6.58
   2   6   7    6.37    7.37
   2   6   8  171.01   23.20
   2   6   9  268.78   28.75
   2   6  10    1.83    8.61
   2   6  11   13.09    9.71
   2   6  12   11.63   12.86
   2   6  13   28.46   12.80
   2   6  14   28.70   13.04
   2   6  15   13.53   15.13
   2   7 -14   15.04   17.09
   2   7 -13   19.89   17.62
   2   7 -12   -2.91   15.76
   2   7 -11    0.11    9.39
   2   7 -10    6.00   13.47
   2   7  -9    6.09   11.37
   2   7  -8   -7.33    7.11
   2   7  -7   -1.12    7.53
   2   7  -6   23.75   12.03
   2   7  -5   30.75    9.41
   2   7  -5   20.17    6.40
   2   7  -4  367.43   24.77
   2   7  -4  338.72   32.98
   2   7  -3  123.54   19.53
   2   7  -3  124.56   15.43
   2   7  -2   28.21    9.40
   2   7  -2   42.15    8.32
   2   7  -1  117.00   15.81
   2   7  -1   96.60   14.78
   2   7   0   33.06    8.65
   2   7   0   57.89   10.25
   2   7   1  595.62   35.07
   2   7   1  576.74   29.12
   2   7   2   49.06   11.88
   2   7   2   49.76    7.64
   2   7   3   -4.03    7.43
   2   7   4  362.64   30.64
   2   7   5   12.27    6.36
   2   7   6   27.32   10.29
   2   7   7   -8.67    8.25
   2   7   8    2.21    7.60
   2   7   9    7.39    9.42
   2   7  10    9.75   10.12
   2   7  11   13.07    9.28
   2   7  12   29.51   15.16
   2   7  13   18.33   16.91
   2   7  14  -16.25   12.59
   2   7  15    0.38   10.84
   2   7  16   20.00   13.14
   2   8 -13   12.48   13.08
   2   8 -12   10.46   19.43
   2   8 -11   21.94   19.27
   2   8 -10  -16.51   12.70
   2   8  -9    4.71   13.12
   2   8  -8   -7.62    8.68
   2   8  -7   -2.85    9.16
   2   8  -6    6.13    9.47
   2   8  -5    2.10    8.57
   2   8  -4   45.90    9.89
   2   8  -4   50.19   14.94
   2   8  -3   19.88    6.58
   2   8  -3   20.22    8.91
   2   8  -2  141.99   20.89
   2   8  -2  128.62   16.76
   2   8  -1   26.19    8.55
   2   8  -1   33.95   10.36
   2   8   0    1.32    6.56
   2   8   0   -4.68    6.43
   2   8   1  209.13   18.86
   2   8   1  202.20   22.57
   2   8   2   14.87    9.73
   2   8   2   26.00    6.67
   2   8   3   11.44    8.74
   2   8   4  265.42   28.84
   2   8   5   88.96   18.22
   2   8   6   14.47    7.58
   2   8   7    5.80    9.39
   2   8   8    5.26    8.04
   2   8   9    6.00    7.93
   2   8  10    2.45    9.79
   2   8  11  -10.57   10.78
   2   8  12    8.18   11.86
   2   8  13   16.52   12.31
   2   8  14   52.54   21.31
   2   8  15    7.53   13.01
   2   8  16   45.82   21.60
   2   9 -12  -18.26   18.29
   2   9 -11   11.51   15.60
   2   9 -10    7.95   13.37
   2   9  -9   10.32   11.94
   2   9  -8   -5.27   11.53
   2   9  -7   -6.43    8.69
   2   9  -6   16.13   14.07
   2   9  -5   57.79   16.52
   2   9  -4   -8.54   11.53
   2   9  -3   -5.51    4.74
   2   9  -3   11.73    9.69
   2   9  -2   -6.17    7.39
   2   9  -2   -1.17    5.21
   2   9  -1    8.26    6.50
   2   9  -1   17.59    8.30
   2   9   0   52.82   13.46
   2   9   0   34.32    8.68
   2   9   1  161.54   17.83
   2   9   1  136.16   19.28
   2   9   2   76.61   14.30
   2   9   3   -4.82   11.72
   2   9   4  622.44   44.81
   2   9   5   20.38   11.07
   2   9   6   -0.41   10.22
   2   9   7  271.11   33.06
   2   9   8   60.25   18.90
   2   9   9   -8.10    8.91
   2   9  10   29.26   14.47
   2   9  11   80.23   22.08
   2   9  12  -16.19   13.53
   2   9  13   -8.10   13.30
   2   9  14    4.06   16.72
   2   9  15   -7.10   14.70
   2   9  16   -1.71   17.03
   2  10 -10   -3.67   14.82
   2  10  -9    0.82   11.18
   2  10  -8  -27.71   15.66
   2  10  -7   -2.60   11.75
   2  10  -6   21.51   13.44
   2  10  -5    3.95    9.52
   2  10  -4    7.71    9.89
   2  10  -3   22.05   10.91
   2  10  -2   35.02    9.57
   2  10  -2   15.93    9.70
   2  10  -1   20.32   10.74
   2  10  -1   11.60    5.88
   2  10   0   11.84    8.73
   2  10   0    3.76    6.60
   2  10   1    5.33    7.59
   2  10   2  -18.59   12.28
   2  10   3   11.80    8.06
   2  10   4   40.68   15.07
   2  10   5   52.20   16.76
   2  10   6  -11.67   12.31
   2  10   7   51.67   17.25
   2  10   8   -1.41    9.67
   2  10   9   13.05   14.29
   2  10  10   89.42   21.51
   2  10  11   36.07   20.21
   2  10  12   10.01   17.82
   2  10  13   10.75   13.42
   2  10  14    7.49   12.08
   2  10  15    2.68   16.29
   2  11  -8   -6.60   15.00
   2  11  -7    0.11   10.15
   2  11  -6   14.16   14.16
   2  11  -5    9.55   11.98
   2  11  -4    3.94   11.67
   2  11  -3   29.89   13.32
   2  11  -2   -3.53    7.41
   2  11  -2   11.14    7.91
   2  11  -1   51.25   14.39
   2  11   0   17.10   10.49
   2  11   1    6.31    9.46
   2  11   2  -12.67    8.45
   2  11   3   52.65   14.86
   2  11   4   22.07   13.15
   2  11   5   16.13   15.22
   2  11   6   20.06   10.80
   2  11   7   82.28   21.97
   2  11   8  -15.54   14.13
   2  11   9   11.56   13.80
   2  11  10   30.35   17.19
   2  11  11   21.10   12.89
   2  11  12  -24.31   19.13
   2  11  13   -1.71   13.21
   2  11  14  -29.67   15.62
   2  11  15   52.37   23.64
   2  12   0  -22.55   13.08
   2  12   1   53.58   16.88
   2  12   2   62.30   17.41
   2  12   3    5.54   11.28
   2  12   4   19.14   12.71
   2  12   5    7.29   13.31
   2  12   6  -14.89   12.26
   2  12   7    8.56   11.85
   2  12   8   -0.59   12.85
   2  12   9   10.24   17.17
   2  12  10    8.32   13.23
   2  12  11   16.48   16.39
   2  12  12  -15.48   17.50
   2  12  13  -13.87   14.86
   2  12  14    3.55   14.34
   2  12  15    1.97   22.55
   2  13   1   -4.70   11.70
   2  13   2   25.22   14.37
   2  13   3   -4.96   13.94
   2  13   4   31.28   13.51
   2  13   5   -0.48   12.03
   2  13   6   26.03   15.47
   2  13   7   29.87   15.23
   2  13   8   20.12   15.56
   2  13   9   13.94   17.69
   2  13  10   34.06   16.09
   2  13  11   -6.40   17.86
   2  13  12   -2.10   13.63
   2  13  13    6.68   16.51
   2  13  14    9.35   15.45
   2  14   3   -8.78   14.80
   2  14   4  -28.72   20.80
   2  14   5  -18.83   14.28
   2  14   6    0.43   14.04
   2  14   7    2.32   11.84
   2  14   8  -28.07   19.30
   2  14   9   36.13   22.75
   2  14  10   18.43   20.10
   2  14  11   10.05   16.98
   2  14  12    0.26   18.42
   2  15   6   -8.38   15.97
   2  15   7  -50.86   26.92
   2  15   8   -9.34   17.64
   2  15   9   35.93   21.11
   2  15  10   -9.54   18.49
  -3  14   9    2.55   16.23
  -3  14   8   -1.34   11.92
  -3  14   7   -2.59   12.33
  -3  14   6   14.96   15.94
  -3  14   5   -1.12   15.12
  -3  14   4   11.07   11.80
  -3  14   3   58.43   20.34
  -3  13  11   13.88   16.20
  -3  13  10  -42.19   21.82
  -3  13   9    0.76   13.85
  -3  13   8    3.43   13.28
  -3  13   7   23.24   18.14
  -3  13   6   12.42   10.17
  -3  13   5    1.39    9.03
  -3  13   4   14.38   12.21
  -3  13   3    5.12   11.16
  -3  13   2  -19.79   16.16
  -3  13   1   18.02   13.34
  -3  12  12   37.09   19.55
  -3  12  11   10.52   14.14
  -3  12  10   15.12   13.88
  -3  12   9    1.11   11.91
  -3  12   8   -5.01    9.30
  -3  12   7  -10.49   12.37
  -3  12   6   26.03   15.90
  -3  12   5    4.93   10.66
  -3  12   4   22.79    8.22
  -3  12   3   24.94   12.89
  -3  12   2   10.71   11.79
  -3  12   1   10.08    9.64
  -3  12   0   19.69   11.83
  -3  12   0   -0.16    8.44
  -3  12  -1   25.85   12.81
  -3  12  -1   39.76   14.41
  -3  12  -2  -11.29   13.46
  -3  12  -3   -0.20   11.56
  -3  12  -4  -13.38   11.23
  -3  12  -5    9.71   14.07
  -3  12  -6   -2.16   13.36
  -3  12  -7   14.17   16.56
  -3  12  -8    2.85   14.42
  -3  12  -9    3.60   16.37
  -3  11  13   21.02   19.35
  -3  11  12    2.11   13.30
  -3  11  11    5.38   12.29
  -3  11  10   -2.50   14.02
  -3  11   9   29.60   15.46
  -3  11   8    8.04   11.01
  -3  11   7   22.41   10.12
  -3  11   6    1.13    7.12
  -3  11   5   16.89   11.34
  -3  11   4   38.89   13.15
  -3  11   3   -3.31    6.73
  -3  11   3    6.45    8.11
  -3  11   2    0.72    7.03
  -3  11   2  -13.75    9.81
  -3  11   1   -6.88    9.53
  -3  11   1   55.19   16.87
  -3  11   0   43.05   14.67
  -3  11   0   14.56    6.92
  -3  11  -1   -2.41   10.82
  -3  11  -1   11.14    7.19
  -3  11  -2   -2.52    7.41
  -3  11  -2   10.01   10.80
  -3  11  -3   -6.05   12.94
  -3  11  -4   43.82   18.80
  -3  11  -5    0.83   11.66
  -3  11  -6   16.91   10.42
  -3  11  -7   -2.60   11.83
  -3  11  -8  -20.79   14.96
  -3  11  -9   -4.96   12.02
  -3  11 -10  -31.75   24.03
  -3  11 -11    4.50   17.04
  -3  10  14   33.33   17.06
  -3  10  13   -0.55   11.22
  -3  10  12   18.76   16.08
  -3  10  11   -6.99   12.37
  -3  10  10   47.97   17.35
  -3  10   9    6.28   10.63
  -3  10   8   22.26   11.29
  -3  10   7   30.68   13.60
  -3  10   6   14.66   11.75
  -3  10   5    2.96    8.88
  -3  10   5  -10.52   10.52
  -3  10   4   32.50   12.71
  -3  10   4   33.26   12.71
  -3  10   3   36.95   12.87
  -3  10   3   34.31   13.30
  -3  10   2   -8.55    8.18
  -3  10   2   10.49    9.99
  -3  10   1   52.38   14.02
  -3  10   1   89.31   18.11
  -3  10   0   -7.53    6.23
  -3  10   0    2.51    5.99
  -3  10  -1    2.23    6.57
  -3  10  -1   12.81    9.62
  -3  10  -2   19.24   10.39
  -3  10  -2    9.07    7.20
  -3  10  -3   14.74    6.36
  -3  10  -3   13.42   11.51
  -3  10  -4   10.83   12.13
  -3  10  -5    8.61   11.10
  -3  10  -6   16.47   14.63
  -3  10  -7  -11.90   12.92
  -3  10  -8    8.36   11.47
  -3  10  -9   20.70   16.37
  -3  10 -10   -0.53   12.34
  -3  10 -11   -3.23   17.11
  -3  10 -12   11.75   19.26
  -3   9  14  -18.83   10.80
  -3   9  13   -0.82   12.33
  -3   9  12    8.95   11.54
  -3   9  11  -22.06   14.41
  -3   9  10    0.35    9.06
  -3   9   9    2.45    7.72
  -3   9   8    2.08    8.42
  -3   9   7   13.09    7.81
  -3   9   7   -0.19    9.61
  -3   9   6   15.88   11.78
  -3   9   6   11.34    8.58
  -3   9   5  207.14   25.14
  -3   9   5  179.43   25.38
  -3   9   4  123.05   20.31
  -3   9   4  136.83   20.28
  -3   9   3    3.11    7.36
  -3   9   3   10.35    6.62
  -3   9   2   19.24    7.64
  -3   9   2   40.98   11.46
  -3   9   1   -1.93    6.34
  -3   9   1    2.94    7.47
  -3   9   0    2.46    6.45
  -3   9   0   24.66   11.29
  -3   9  -1   14.91    9.41
  -3   9  -1   20.21    9.85
  -3   9  -2   19.32    9.07
  -3   9  -2   39.15   13.85
  -3   9  -3    4.75    5.42
  -3   9  -3    9.47    9.66
  -3   9  -4   33.55   14.94
  -3   9  -5   -4.20    7.98
  -3   9  -6   15.13   12.00
  -3   9  -7    0.80   10.40
  -3   9  -8   12.15    9.90
  -3   9  -9   27.95   15.45
  -3   9 -10   15.87   15.47
  -3   9 -11   -1.30   14.98
  -3   9 -12   10.24   13.93
  -3   9 -13    8.53   13.16
  -3   9 -14    8.57   16.96
  -3   8  14    7.66   13.67
  -3   8  13  -13.72   12.62
  -3   8  12   30.80   15.52
  -3   8  11    0.69    7.80
  -3   8  10    1.95    8.74
  -3   8   9    8.84    8.55
  -3   8   9   11.11   12.91
  -3   8   8   20.75   10.01
  -3   8   8   -1.81    7.43
  -3   8   7   11.52   11.58
  -3   8   7   -4.10    7.47
  -3   8   6   24.99   12.15
  -3   8   6    0.06    6.17
  -3   8   5   10.59    9.19
  -3   8   5   -2.38    6.64
  -3   8   4   27.22    9.76
  -3   8   4   53.25   13.85
  -3   8   3   16.73    8.40
  -3   8   3   10.42    6.47
  -3   8   2  118.70   19.07
  -3   8   2  124.46   17.95
  -3   8   1  220.17   25.38
  -3   8   1  235.26   24.70
  -3   8   0   -0.64    6.83
  -3   8   0    9.90    7.69
  -3   8  -1    8.98    5.94
  -3   8  -1    7.09    5.87
  -3   8  -2   10.63    6.67
  -3   8  -2    8.37    5.94
  -3   8  -3  287.48   31.49
  -3   8  -3  331.34   25.77
  -3   8  -4    3.11    4.77
  -3   8  -4    3.79    6.33
  -3   8  -5   44.78   16.27
  -3   8  -6    8.59   10.96
  -3   8  -7   -4.06    8.91
  -3   8  -8    0.59   11.80
  -3   8  -9   65.54   21.62
  -3   8 -10   12.83    9.16
  -3   8 -11   36.45   13.84
  -3   8 -12   -6.46   18.69
  -3   8 -13   -6.20   13.28
  -3   8 -14  -18.45   13.61
  -3   8 -15  -16.90   19.58
  -3   7  14    2.22    9.78
  -3   7  13   44.55   17.54
  -3   7  12   11.15    9.59
  -3   7  11    3.86   10.32
  -3   7  11   24.73   17.66
  -3   7  10   12.55    7.19
  -3   7  10   21.63   14.01
  -3   7   9   18.94   12.19
  -3   7   9   19.66   11.10
  -3   7   8    3.46    7.39
  -3   7   8    3.38    5.89
  -3   7   7   40.15   13.65
  -3   7   7   38.85   12.07
  -3   7   6   21.92    9.96
  -3   7   6   26.37   10.36
  -3   7   5   63.56   14.79
  -3   7   4    9.27    7.55
  -3   7   3   18.53    8.26
  -3   7   2  467.25   33.29
  -3   7   1  521.72   35.84
  -3   7   0   47.85   12.26
  -3   7  -1    8.72    6.96
  -3   7  -1   19.49    8.40
  -3   7  -2  341.74   32.74
  -3   7  -2  411.40   27.96
  -3   7  -3   18.25    6.88
  -3   7  -3   21.60    8.69
  -3   7  -4   12.26    4.89
  -3   7  -4   11.95    8.53
  -3   7  -5   30.84   12.85
  -3   7  -6  279.35   33.12
  -3   7  -7   14.96   10.01
  -3   7  -8   26.12   11.80
  -3   7  -9   16.52   11.48
  -3   7 -10   -1.04    9.59
  -3   7 -11   35.16   16.11
  -3   7 -12   38.35   20.44
  -3   7 -13    6.55   11.78
  -3   7 -14   -4.96   12.32
  -3   7 -15    2.94   13.49
  -3   6  14   19.44   15.35
  -3   6  13   -2.30    9.65
  -3   6  12  -10.48   11.17
  -3   6  12   -1.89   12.69
  -3   6  11  -13.00    9.69
  -3   6  11   -3.93    8.97
  -3   6  10   24.30   10.68
  -3   6  10    8.56    7.37
  -3   6   9   -9.06    7.77
  -3   6   9    4.61   10.10
  -3   6   8   51.95   15.34
  -3   6   8   37.10   10.62
  -3   6   7  139.56   22.18
  -3   6   6   16.35   10.66
  -3   6   5   49.34   11.95
  -3   6   4   34.20    9.70
  -3   6   3   23.84   10.52
  -3   6   2    3.83    4.96
  -3   6   1   41.79   11.08
  -3   6   0    2.69    4.20
  -3   6  -1  560.46   36.24
  -3   6  -2   94.83   15.33
  -3   6  -3  165.36   21.81
  -3   6  -4   32.75    9.83
  -3   6  -4   29.56    8.51
  -3   6  -5   39.70   11.48
  -3   6  -5   15.06    5.24
  -3   6  -6  366.57   36.49
  -3   6  -7   52.70   14.59
  -3   6  -8    3.80    6.70
  -3   6  -9   10.85    9.85
  -3   6 -10    1.14    7.83
  -3   6 -11   15.92   14.13
  -3   6 -12   -8.26   15.23
  -3   6 -13   -2.28   11.81
  -3   6 -14   -5.17   12.67
  -3   6 -15   -0.56   13.20
  -3   6 -16   26.12   23.71
  -3   5  14   13.86   10.77
  -3   5  13   -7.26   10.39
  -3   5  13   -7.10   13.73
  -3   5  12   11.50   12.15
  -3   5  12   20.50   14.02
  -3   5  11   13.98   10.26
  -3   5  11   33.52   14.15
  -3   5  10   14.87   10.11
  -3   5  10   18.75   11.64
  -3   5   9   30.06   11.17
  -3   5   8   43.25   12.69
  -3   5   7   85.82   17.96
  -3   5   6   63.24   14.51
  -3   5   5   -7.50    7.11
  -3   5   4   49.63   10.46
  -3   5   3   54.87   11.67
  -3   5   2  206.64   20.44
  -3   5   1  666.93   36.18
  -3   5   0   -0.22    4.48
  -3   5  -1  146.21   17.32
  -3   5  -2  496.86   32.45
  -3   5  -3   29.14    8.09
  -3   5  -4    6.96    6.46
  -3   5  -5  136.75   19.95
  -3   5  -6  264.99   29.17
  -3   5  -7   -0.80    7.06
  -3   5  -8   12.78   11.70
  -3   5  -9  457.13   44.15
  -3   5 -10   77.47   21.24
  -3   5 -11    6.03    7.45
  -3   5 -12    7.70   12.74
  -3   5 -13   20.61   16.86
  -3   5 -14   16.08   15.13
  -3   5 -15   -4.08   15.10
  -3   5 -16    0.98   13.75
  -3   4  14  -15.22   14.52
  -3   4  14    5.67    7.94
  -3   4  13    1.16   12.45
  -3   4  13   -1.78    7.94
  -3   4  12    0.21    7.66
  -3   4  12  -13.94   10.36
  -3   4  11    4.74    7.33
  -3   4  11   -8.25   11.33
  -3   4  10   -1.79    7.54
  -3   4   9   22.98   10.62
  -3   4   8   71.92   16.73
  -3   4   7   96.82   15.35
  -3   4   6   -5.85    6.14
  -3   4   5   76.84   13.52
  -3   4   4   12.74    6.40
  -3   4   3  151.59   17.34
  -3   4   2  439.78   28.50
  -3   4   1  413.80   27.06
  -3   4   0   87.80   12.53
  -3   4  -1  189.41   18.53
  -3   4  -2  321.37   24.62
  -3   4  -3  140.62   17.23
  -3   4  -4  362.30   28.87
  -3   4  -5  151.10   19.63
  -3   4  -6   17.44    8.87
  -3   4  -7  197.66   25.73
  -3   4  -8  108.78   22.72
  -3   4  -9   58.80   15.47
  -3   4 -10  111.04   22.08
  -3   4 -11   -6.22    8.83
  -3   4 -12   30.61   13.62
  -3   4 -13   65.00   20.85
  -3   4 -14    1.26   12.62
  -3   4 -15    9.59   13.71
  -3   4 -16   -2.94   11.60
  -3   4 -17    4.71   14.57
  -3   3  15   13.56   13.54
  -3   3  14  -15.98   15.11
  -3   3  13   48.66   21.38
  -3   3  13   40.65   13.48
  -3   3  12   -3.25    8.44
  -3   3  12   12.51   10.92
  -3   3  11   10.01   12.08
  -3   3  10   -0.44    9.08
  -3   3   9   10.70   12.80
  -3   3   8   66.73   15.29
  -3   3   7   13.48    7.63
  -3   3   6   24.75    9.41
  -3   3   5    2.21    4.70
  -3   3   4    2.05    4.32
  -3   3   3   71.28   12.05
  -3   3   2  721.60   34.45
  -3   3   1   17.70    7.71
  -3   3   0   28.84    7.68
  -3   3  -1 1042.25   40.41
  -3   3  -2    5.11    4.38
  -3   3  -3  263.81   22.56
  -3   3  -4 1036.19   46.44
  -3   3  -5  950.64   45.90
  -3   3  -6   53.96   12.41
  -3   3  -7   60.07   13.43
  -3   3  -8  165.88   23.56
  -3   3  -9  213.31   28.65
  -3   3 -10   10.66    9.22
  -3   3 -11    3.97    9.26
  -3   3 -12   28.25   15.35
  -3   3 -13   15.19    9.33
  -3   3 -14   20.47   15.90
  -3   3 -15   38.81   17.94
  -3   3 -16  -38.52   23.89
  -3   3 -17   -2.59   16.74
  -3   2  15   11.43   12.65
   3  -2 -15    0.79   12.63
  -3   2  14    2.65   11.08
   3  -2 -14   23.62   17.20
  -3   2  13   -2.22    8.69
   3  -2 -13    7.42    9.21
  -3   2  13   -2.76   10.55
  -3   2  12   69.45   17.09
   3  -2 -12  100.81   22.87
  -3   2  12  104.54   24.72
   3  -2 -11   22.32   12.12
  -3   2  11    8.38    7.80
   3  -2 -10   29.92   11.54
  -3   2  10   19.61   10.06
  -3   2   9   31.69   15.04
   3  -2  -9   52.17   14.38
  -3   2   8  179.79   26.70
   3  -2  -8  164.60   23.29
  -3   2   7   19.25    9.47
  -3   2   6   32.80    9.42
  -3   2   5   37.71    9.93
  -3   2   4  230.68   22.22
  -3   2   3   63.48   11.51
  -3   2   2   46.38    9.48
  -3   2   1    5.65    4.28
  -3   2   0  448.70   25.37
  -3   2  -1   -7.96    4.70
  -3   2  -2   35.79    7.05
  -3   2  -3   48.13    9.22
  -3   2  -4  854.97   39.12
  -3   2  -5  116.91   15.82
  -3   2  -6   -1.13    4.63
  -3   2  -7  762.70   45.02
  -3   2  -8   40.28    9.73
  -3   2  -9    1.43    5.15
  -3   2 -10  135.99   23.79
  -3   2 -11   88.25   19.94
  -3   2 -12  204.55   29.37
  -3   2 -13   31.40   16.03
  -3   2 -14   -3.89   14.61
  -3   2 -15   -1.56   11.91
  -3   2 -16   17.84   17.27
  -3   2 -17   23.10   20.26
  -3   1  16  -25.25   20.19
   3  -1 -15  -45.41   19.18
  -3   1  15   -3.58   16.01
  -3   1  14   18.61   17.93
   3  -1 -14  -46.44   18.30
  -3   1  13   -5.11   16.34
   3  -1 -13    3.65    8.32
  -3   1  12   16.21   13.61
   3  -1 -12   13.75    8.72
  -3   1  11   36.57   14.49
   3  -1 -11   18.72   11.91
  -3   1  10   39.22   15.01
   3  -1 -10   55.77   17.51
  -3   1   9   40.58   13.18
   3  -1  -9   39.93   14.04
  -3   1   8   28.68   14.40
   3  -1  -8   34.45   11.79
  -3   1   7  -12.47    7.62
   3  -1  -7   -1.55    5.54
   3  -1  -6    1.55    5.35
  -3   1   6    4.96    7.28
  -3   1   5    9.13    6.27
   3  -1  -5    5.32    5.74
  -3   1   4    3.43    5.81
  -3   1   3   36.66   11.49
  -3   1   2    6.95    3.72
  -3   1   1   65.26   10.12
  -3   1   0  706.02   30.18
  -3   1  -1   49.49    8.95
  -3   1  -2    4.80    3.42
  -3   1  -3    9.82    5.08
   3  -1   4  930.67   29.59
  -3   1  -4  934.60   37.15
  -3   1  -5  115.45   14.19
   3  -1   5  118.34   10.63
  -3   1  -6  121.21   15.41
   3  -1   6  112.46   10.39
  -3   1  -7  119.49   16.28
   3  -1   7  105.42   10.30
  -3   1  -8  270.57   26.37
   3  -1   8  248.56   15.35
  -3   1  -9    4.91    7.82
   3  -1   9    3.33    3.57
  -3   1 -10  289.21   31.73
  -3   1 -11   34.12   12.10
  -3   1 -12   26.42   15.37
  -3   1 -13    1.93    9.38
  -3   1 -14   -3.27    8.92
  -3   1 -15   87.19   22.72
  -3   1 -16    5.92   14.92
  -3   1 -17    6.63   17.92
   3   0 -16    1.69   19.80
  -3   0  16   29.84   25.28
  -3   0  15  -14.92   17.53
   3   0 -15    6.83   12.50
  -3   0  14  -31.34   18.38
   3   0 -14   -2.46   10.02
   3   0 -13    2.15    7.98
  -3   0  13  -11.33   12.17
  -3   0  12  -10.16   10.73
   3   0 -12   11.57   11.38
  -3   0  11   -5.53    9.81
   3   0 -11   10.74   10.72
   3   0 -10    2.20    7.88
  -3   0  10   25.12   15.15
  -3   0   9    2.15    8.27
   3   0  -9   31.68   12.35
  -3   0   8    2.22    9.58
   3   0  -8    5.81    6.02
  -3   0   7   36.98   14.51
   3   0  -7   39.05   12.57
  -3   0   6   -1.46    6.70
   3   0  -6    9.65    7.94
  -3   0   5    9.10    7.22
   3   0  -5   14.92    7.97
  -3   0   4   26.61    9.41
   3   0  -4   13.03    6.52
  -3   0   3    5.84    5.51
   3   0  -3    4.86    5.29
  -3   0   2    8.68    6.36
  -3   0   1  712.22   32.80
  -3   0   0   36.37    8.78
  -3   0  -1    0.43    3.64
  -3   0  -2   34.80    7.63
   3   0   2   45.58    7.14
  -3   0  -3  931.71   33.09
   3   0   3  935.44   31.28
   3   0   4  453.28   21.79
  -3   0  -4  449.08   24.00
   3   0   5  728.09   27.90
  -3   0  -5  718.91   32.73
  -3   0  -6   23.17    7.81
   3   0   6   20.31    5.02
   3   0   7 1766.04   45.20
  -3   0  -7 1778.59   60.23
   3   0   8    3.95    3.41
  -3   0  -8   11.51    5.13
  -3   0  -9   36.80   10.84
   3   0   9   39.76    7.85
   3   0  10    5.79    4.90
  -3   0 -10   27.16   11.29
  -3   0 -11   76.74   17.18
   3   0  11   57.23    9.71
  -3   0 -12   98.01   21.19
  -3   0 -13   46.90   15.99
  -3   0 -14   -8.17    9.88
  -3   0 -15   25.85   14.19
  -3   0 -16  -12.24   10.48
  -3   0 -17    9.66   11.78
  -3  -1  16   18.33   15.88
   3   1 -16   20.06   18.27
   3   1 -15   35.32   62.20
  -3  -1  15   12.37   16.52
  -3  -1  14   -0.14   13.31
   3   1 -14   -2.07   10.53
  -3  -1  13   18.84   16.11
   3   1 -13   -3.50   11.91
  -3  -1  12    3.53   11.64
   3   1 -12    4.37   10.92
  -3  -1  11   60.84   18.31
   3   1 -11   34.90   15.74
   3   1 -10   -5.71    6.30
  -3  -1  10    6.04   10.50
   3   1  -9    4.84    9.47
   3   1  -8   49.04   13.69
  -3  -1   7   50.24   14.33
   3   1  -7   47.87   12.86
  -3  -1   6   26.02   12.89
   3   1  -6   62.77   13.33
   3   1  -5  222.22   24.81
  -3  -1   5  148.45   25.42
  -3  -1   4   18.99    9.91
   3   1  -4   13.59    7.12
  -3  -1   3  369.28   32.52
   3   1  -3  530.89   32.58
  -3  -1   2   33.89    8.64
   3   1  -2   29.78    8.27
  -3  -1   1  460.94   26.15
  -3  -1   0   20.84    5.58
   3   1   0   21.10    5.33
  -3  -1  -1   81.18   10.26
   3   1   1  100.26   11.52
   3   1   2  127.46   12.21
  -3  -1  -2  139.26   12.48
  -3  -1  -3  113.98   11.48
   3   1   3  146.59   13.64
  -3  -1  -4  535.09   24.28
   3   1   4  543.93   25.92
  -3  -1  -5  273.88   18.72
   3   1   5  266.37   18.34
  -3  -1  -6  490.27   26.98
   3   1   6  446.40   24.10
  -3  -1  -7  190.51   18.76
   3   1   7  203.59   16.95
  -3  -1  -8  147.97   17.85
   3   1   8  167.27   16.71
  -3  -1  -9   87.35   14.57
   3   1   9   64.37    9.73
   3   1  10  306.08   22.63
  -3  -1 -10  331.10   30.05
  -3  -1 -11   29.86   10.97
   3   1  11   16.49    6.60
   3   1  12   17.20    7.52
  -3  -1 -12   17.78    7.48
  -3  -1 -13   40.81   14.35
  -3  -1 -14   24.01   13.87
  -3  -1 -15  -16.33   15.84
  -3  -1 -16   15.42   12.21
  -3  -2  16    9.77   19.97
  -3  -2  15   -7.44   24.73
   3   2 -15   26.74   17.76
  -3  -2  14   12.19   16.42
   3   2 -14   -5.97   10.33
  -3  -2  13   21.50   17.56
   3   2 -13    1.74   10.05
   3   2 -12   -5.18    9.50
   3   2 -11   -0.27    6.91
   3   2 -10   20.13   11.23
   3   2  -9   31.26   14.53
   3   2  -8   36.78   11.97
   3   2  -7   -9.02    8.42
   3   2  -6   47.25   11.81
   3   2  -5   -1.49    4.48
   3   2  -4   16.00    8.91
  -3  -2   3   38.36   10.44
   3   2  -3   20.51    7.70
   3   2  -2  435.08   28.24
  -3  -2   2  322.97   27.53
   3   2  -1  144.04   15.28
   3   2  -1  126.80   12.98
  -3  -2   0  364.96   21.85
   3   2   0  341.12   21.38
  -3  -2  -1 1157.05   35.61
   3   2   1 1103.00   38.58
  -3  -2  -2  180.85   14.06
   3   2   2  193.47   16.29
  -3  -2  -3 1067.18   31.02
   3   2   3 1085.83   38.31
  -3  -2  -4  229.18   14.65
   3   2   4  234.02   18.31
   3   2   5   14.36    6.38
  -3  -2  -5   21.86    5.30
   3   2   6    6.04    5.71
  -3  -2  -6   21.47    5.48
  -3  -2  -7   34.41    8.61
   3   2   7   24.37    6.87
  -3  -2  -8   -5.89    5.53
   3   2   8   -0.46    5.69
  -3  -2  -9   95.59   14.99
   3   2   9   77.33   12.13
  -3  -2 -10   72.83   12.90
   3   2  10   71.24   14.94
  -3  -2 -11   45.70   13.34
   3   2  11   39.87   10.43
  -3  -2 -12   54.11   13.37
   3   2  12   53.09   13.20
  -3  -2 -13    1.22    6.22
   3   2  13   -1.69    6.56
  -3  -2 -14    6.11    7.57
  -3  -2 -15   -0.49    9.20
  -3  -2 -16  -28.21   13.50
  -3  -3  15   22.05   22.64
   3   3 -15   -5.77   14.23
   3   3 -14   -7.62   10.51
  -3  -3  14    0.47   14.15
   3   3 -13    8.92   10.24
   3   3 -12   -3.73   11.60
   3   3 -11   22.86   12.50
   3   3 -10    6.13    9.75
   3   3  -9   -0.79    6.88
   3   3  -8    8.49    8.14
   3   3  -7   94.67   18.64
   3   3  -6   65.82   15.67
   3   3  -5    4.99    7.36
   3   3  -4  154.44   20.87
   3   3  -3   66.06   12.66
   3   3  -2  836.07   42.01
   3   3  -2  876.74   36.01
   3   3  -1   10.39    5.69
  -3  -3   1   -2.04    5.12
   3   3  -1    0.93    3.97
  -3  -3   0   57.89   10.55
   3   3   0   79.35   11.04
   3   3   0   61.69   10.92
  -3  -3  -1  184.03   14.83
   3   3   1  185.21   17.23
  -3  -3  -2  244.83   15.98
   3   3   2  203.13   18.12
  -3  -3  -3    5.96    3.06
   3   3   3   -0.23    3.91
   3   3   4  112.80   13.88
  -3  -3  -4   93.79    8.42
  -3  -3  -5  174.54   11.98
   3   3   5  155.07   16.58
   3   3   6  118.33   14.25
  -3  -3  -6  133.11   11.54
  -3  -3  -7   28.93    5.15
   3   3   7   30.57    7.95
   3   3   8   -1.81    5.47
  -3  -3  -8    3.02    4.20
  -3  -3  -9   84.79   12.54
   3   3   9   99.38   15.61
   3   3  10   84.92   14.86
  -3  -3 -10   87.30   13.10
   3   3  11   48.29   13.72
  -3  -3 -11   30.94    9.19
   3   3  12   11.45    6.29
  -3  -3 -12   -0.26    6.75
   3   3  13   23.26   10.46
  -3  -3 -13   11.88    8.63
   3   3  14  -13.23    8.69
  -3  -3 -14   26.43   12.68
  -3  -4  15   12.50   17.53
   3   4 -15    2.92   12.53
   3   4 -14   -1.02   11.60
   3   4 -13   17.41   15.77
   3   4 -12   35.14   15.69
   3   4 -11   13.65    9.23
   3   4 -10   22.30   12.92
   3   4  -9   -5.47    6.29
   3   4  -8  163.46   25.84
   3   4  -7    5.72    6.99
   3   4  -6   18.02    9.20
   3   4  -5  120.85   19.52
   3   4  -4   40.05   10.90
   3   4  -3   33.52    9.28
   3   4  -3   41.49    8.26
   3   4  -2  -11.52    7.52
   3   4  -2    7.35    6.47
   3   4  -1  551.93   32.80
   3   4  -1  554.83   30.71
   3   4   0  252.79   20.96
  -3  -4   0  280.76   20.65
   3   4   0  275.61   21.64
   3   4   1 3000.34   61.13
  -3  -4  -1 3005.74   60.48
   3   4   1 2994.50   71.25
  -3  -4  -2    8.19    4.61
   3   4   2   10.66    7.12
  -3  -4  -3  267.76   14.17
   3   4   3  256.40   21.34
   3   4   4  127.64   14.63
  -3  -4  -4  133.47    8.61
  -3  -4  -5  650.94   18.33
   3   4   5  713.54   35.91
  -3  -4  -6  944.00   24.59
   3   4   6 1030.20   45.05
  -3  -4  -7   66.08    7.67
   3   4   7   72.86   12.30
  -3  -4  -8  158.96   13.18
   3   4   8  165.06   20.91
   3   4   9    7.17    6.87
  -3  -4  -9   16.13    5.63
   3   4  10   19.52    8.97
  -3  -4 -10    7.62    4.55
   3   4  11   11.69    8.37
  -3  -4 -11   13.30    6.75
   3   4  12   52.70   13.01
  -3  -4 -12   57.66   11.62
   3   4  13   58.81   17.36
  -3  -4 -13   27.01    9.71
   3   4  14   -0.20    9.45
   3   5 -14    4.93   13.96
   3   5 -13   -7.27   21.09
   3   5 -12    1.70    9.63
   3   5 -11   -0.94   12.61
   3   5 -10   19.90   12.45
   3   5  -9   36.94   14.15
   3   5  -8   10.41    9.53
   3   5  -7   10.09   10.94
   3   5  -6    3.66    5.27
   3   5  -5  108.11   20.61
   3   5  -4    7.99    6.91
   3   5  -3   10.23    6.39
   3   5  -3    1.26    5.15
   3   5  -2  129.16   17.94
   3   5  -2  136.29   16.02
   3   5  -1    7.99    5.01
   3   5  -1   10.12    4.22
   3   5   0   48.22   10.42
   3   5   0   25.22    7.76
   3   5   1    3.61    5.21
   3   5   1    6.50    3.24
  -3  -5  -1   -1.46    3.35
  -3  -5  -2  158.54   13.48
   3   5   2  173.42   18.78
   3   5   3    5.56    4.96
  -3  -5  -3    7.67    2.53
   3   5   4  173.18   18.52
   3   5   5    5.04    7.31
   3   5   6  265.78   24.73
   3   5   7   22.18    8.76
   3   5   8   -0.88    6.91
   3   5   9  212.14   24.05
   3   5  10    8.01    7.62
   3   5  11   -3.91    9.06
   3   5  12    8.64    9.79
   3   5  13   20.98   11.06
   3   5  14    1.76    9.28
   3   5  15   -8.77   12.45
   3   6 -14   -3.77   17.59
   3   6 -13   -5.42   13.53
   3   6 -12   24.72   17.94
   3   6 -11   13.11   12.02
   3   6 -10    7.09    9.20
   3   6  -9   -4.74    9.65
   3   6  -8   16.89   13.03
   3   6  -7   -0.94    7.13
   3   6  -6   93.64   18.90
   3   6  -5  282.30   31.95
   3   6  -4    1.48    4.43
   3   6  -4   -3.44    5.93
   3   6  -3    1.04    5.81
   3   6  -3    3.28    5.44
   3   6  -2   97.38   14.55
   3   6  -2   95.89   16.01
   3   6  -1   65.76   11.98
   3   6  -1   53.87   11.95
   3   6   0   20.23    7.78
   3   6   0    0.07    3.46
  -3  -6  -1   13.69    6.48
   3   6   1   10.25    4.28
   3   6   1    5.42    4.90
   3   6   2   42.52   10.50
   3   6   2   41.04    7.18
  -3  -6  -2   43.67    7.40
   3   6   3   24.63    8.98
  -3  -6  -3   16.53    4.64
   3   6   4  203.90   22.73
   3   6   5    2.83    6.22
   3   6   6   -6.39    7.30
   3   6   7  -13.09    9.83
   3   6   8  202.14   26.58
   3   6   9    7.07    9.17
   3   6  10   -5.49    7.98
   3   6  11  -12.25   11.49
   3   6  12  121.92   22.67
   3   6  13   -3.95   10.27
   3   6  14  -14.11   12.74
   3   6  15   21.31   12.23
   3   7 -13  -11.43   17.51
   3   7 -12   22.11   18.82
   3   7 -11   -2.10   12.06
   3   7 -10    3.45   12.43
   3   7  -9   20.03   12.10
   3   7  -8   44.09   14.78
   3   7  -7   25.62   11.97
   3   7  -6   18.82    8.58
   3   7  -5    1.59    5.87
   3   7  -4    0.51    4.89
   3   7  -4    7.84    8.11
   3   7  -3   -7.21    7.67
   3   7  -3   18.31    8.49
   3   7  -2  646.15   41.61
   3   7  -2  624.13   36.87
   3   7  -1    3.37    6.23
   3   7  -1    8.27    5.85
   3   7   0  -11.91    8.16
   3   7   0    5.73    4.88
   3   7   1   23.35    7.20
   3   7   1   13.49    8.64
   3   7   2   50.58   11.83
  -3  -7  -2   48.79    7.95
   3   7   2   51.16    8.72
   3   7   3    6.57    7.69
   3   7   4    3.76    7.43
   3   7   5   18.47   10.29
   3   7   6   27.75   11.85
   3   7   7   22.96   13.39
   3   7   8    4.16    8.24
   3   7   9  -28.70   14.81
   3   7  10   -0.14    7.59
   3   7  11   14.16   11.25
   3   7  12    3.36   11.53
   3   7  13   26.47   14.24
   3   7  14    2.55   14.81
   3   7  15   29.08   13.80
   3   7  16   33.64   21.41
   3   8 -12    8.69   16.47
   3   8 -11   -8.07   11.11
   3   8 -10    9.52   13.57
   3   8  -9  -24.56   17.72
   3   8  -8   16.87   13.44
   3   8  -7    9.84   11.79
   3   8  -6   12.44    9.91
   3   8  -5   61.36   17.63
   3   8  -4   33.54   10.32
   3   8  -4   28.72   11.61
   3   8  -3    0.40    4.35
   3   8  -3   -1.76    5.13
   3   8  -2  161.75   21.63
   3   8  -2  148.28   19.06
   3   8  -1   -2.39    6.02
   3   8  -1    2.10    4.91
   3   8   0    0.51    6.53
   3   8   0    2.67    5.20
   3   8   1  431.94   33.40
   3   8   1  387.73   27.04
   3   8   2    8.45    4.93
  -3  -8  -2    2.42    3.68
   3   8   3   51.57   14.89
   3   8   4   -0.33    6.82
   3   8   5   94.14   17.95
   3   8   6   20.86    9.54
   3   8   7  110.02   20.57
   3   8   8    8.03    9.26
   3   8   9   49.66   16.46
   3   8  10   14.82   12.58
   3   8  11   42.73   17.18
   3   8  12   -2.47    9.30
   3   8  13    4.60   11.14
   3   8  14   -8.21   13.86
   3   8  15   37.01   19.33
   3   8  16   44.96   24.55
   3   9 -11   46.12   21.34
   3   9 -10   -2.56   12.20
   3   9  -9   -1.58   10.51
   3   9  -8   19.39   15.68
   3   9  -7    6.71    9.59
   3   9  -6    2.81    9.39
   3   9  -5   -9.06   10.94
   3   9  -4   -1.82    8.35
   3   9  -3    2.10    5.48
   3   9  -3    9.85    6.84
   3   9  -2   18.22    9.54
   3   9  -2   26.39   12.47
   3   9  -1   82.50   15.87
   3   9  -1  114.53   18.21
   3   9   0    2.02    8.25
   3   9   0   -9.57    5.93
   3   9   1  131.68   19.11
   3   9   1  137.21   16.97
   3   9   2   32.57   12.77
   3   9   3   18.36    8.87
   3   9   4   49.24   13.48
   3   9   5   11.16   10.20
   3   9   6   62.63   16.81
   3   9   7    8.56    7.99
   3   9   8   38.85   13.15
   3   9   9    1.19   10.84
   3   9  10   66.22   18.41
   3   9  11   18.11   14.75
   3   9  12  -15.68   13.43
   3   9  13   36.68   15.57
   3   9  14   -1.03   15.05
   3   9  15   -6.15   16.73
   3   9  16  -18.66   18.17
   3  10  -9  -14.42   14.80
   3  10  -8   17.89   14.71
   3  10  -7   18.33   13.04
   3  10  -6    8.93   10.52
   3  10  -5  -19.67   13.55
   3  10  -4   12.34   11.10
   3  10  -3   -4.02    8.06
   3  10  -2    3.17    6.89
   3  10  -2    5.80    6.18
   3  10  -1    3.75    6.82
   3  10  -1   -2.50    6.20
   3  10   0    7.36    8.03
   3  10   1   24.01    8.46
   3  10   2   34.18   14.79
   3  10   3   -5.35    9.63
   3  10   4   44.27   16.07
   3  10   5    9.12   10.18
   3  10   6   -8.90   12.83
   3  10   7   26.38   11.08
   3  10   8   -1.16    8.85
   3  10   9   15.58   13.31
   3  10  10   -4.90   12.99
   3  10  11   11.48   10.47
   3  10  12   47.26   20.85
   3  10  13   34.53   14.99
   3  10  14    9.83   16.37
   3  10  15   28.11   19.66
   3  10  16   -8.70   15.59
   3  11  -6  -13.50   12.87
   3  11  -5   20.41   14.05
   3  11  -4    0.83   10.00
   3  11  -3    1.28    9.93
   3  11  -1   15.94   11.15
   3  11   0   21.17    9.80
   3  11   1   25.51   13.95
   3  11   2   -5.71    8.72
   3  11   3   15.13   14.99
   3  11   4   34.02   13.14
   3  11   5   -9.70   10.72
   3  11   6   54.53   18.40
   3  11   7   -7.82   11.77
   3  11   8   22.49   14.63
   3  11   9    8.32   13.33
   3  11  10   40.69   17.31
   3  11  11   50.22   22.13
   3  11  12   -1.08   13.66
   3  11  13   22.42   17.73
   3  11  14   14.21   16.46
   3  11  15   18.69   19.50
   3  12   0   27.44   11.37
   3  12   1   27.18   14.66
   3  12   2   42.51   17.41
   3  12   3   50.07   17.23
   3  12   4  -10.38   12.30
   3  12   5   -5.52   13.37
   3  12   6   15.05   14.84
   3  12   7  -16.78   16.00
   3  12   8  -12.06   15.24
   3  12   9   21.19   15.67
   3  12  10  -11.03   14.19
   3  12  11   19.97   14.24
   3  12  12  -24.67   19.01
   3  12  13    4.13   12.82
   3  12  14   52.89   27.04
   3  12  15    5.79   16.30
   3  13   1    2.22   10.73
   3  13   2   46.64   16.91
   3  13   3   -3.76   11.41
   3  13   4  -13.28   15.21
   3  13   5   -5.28   12.45
   3  13   6   48.67   22.05
   3  13   7    9.71   16.83
   3  13   8   34.74   20.23
   3  13   9   25.14   16.11
   3  13  10   -4.84   14.08
   3  13  11   18.30   16.67
   3  13  12   28.47   20.40
   3  13  13   -9.82   16.78
   3  13  14   40.26   24.44
   3  14   3   -4.09   13.17
   3  14   4   21.72   15.10
   3  14   5   27.78   11.55
   3  14   6  -29.96   14.48
   3  14   7  -20.91   19.91
   3  14   8  -19.26   16.22
   3  14   9   16.55   19.50
   3  14  10  -10.69   15.89
   3  14  11    4.45   17.48
   3  14  12  -16.96   20.74
   3  15   7   26.71   19.87
   3  15   8   -9.02   17.58
   3  15   9   21.48   18.63
  -4  14   8  -11.87   12.72
  -4  14   7   -1.45   15.11
  -4  14   6  -12.55   11.98
  -4  14   5  -19.40   17.01
  -4  14   4    3.49   12.69
  -4  13  10  -26.84   12.69
  -4  13   9   -5.15   13.59
  -4  13   8   28.98   12.96
  -4  13   7   23.62   17.30
  -4  13   6  -23.97   16.92
  -4  13   5   -4.63   12.51
  -4  13   4    4.22   12.69
  -4  13   3    2.47   12.34
  -4  13   2   28.79   17.48
  -4  13   1    2.35   10.28
  -4  12  12   -0.36   14.41
  -4  12  11   -8.12   14.20
  -4  12  10   22.64   13.57
  -4  12   9    5.35   14.19
  -4  12   8   15.90   14.55
  -4  12   7    6.02    9.49
  -4  12   6    8.16   11.11
  -4  12   5   10.86   13.13
  -4  12   4   15.87   10.98
  -4  12   3   -7.62   12.14
  -4  12   2    6.12   10.66
  -4  12   1   12.49    9.00
  -4  12   1    8.17    9.07
  -4  12   0   16.35   11.38
  -4  12   0   47.05   18.39
  -4  12  -1    0.28   11.03
  -4  12  -2   -0.88    9.79
  -4  12  -3   -3.97   12.85
  -4  12  -4   17.14   14.77
  -4  12  -5   -4.34   16.34
  -4  12  -6   45.09   18.64
  -4  12  -7  -12.68   15.34
  -4  12  -8    9.86   15.52
  -4  12  -9   24.92   17.81
  -4  11  12  -15.61   16.03
  -4  11  11    2.83   14.46
  -4  11  10    5.65    9.38
  -4  11   9    0.10   12.11
  -4  11   8    7.51   13.44
  -4  11   7   -2.30    8.06
  -4  11   6   18.54   10.27
  -4  11   5   -0.08    8.31
  -4  11   4    8.45   11.13
  -4  11   3   12.87   10.88
  -4  11   3    7.31    9.85
  -4  11   2   13.72   11.53
  -4  11   2    6.00    8.02
  -4  11   1   35.71   14.96
  -4  11   1   33.26   13.57
  -4  11   0   27.65   13.40
  -4  11   0   16.21   11.44
  -4  11  -1    0.07    8.84
  -4  11  -1    7.86    8.98
  -4  11  -2   27.35   14.11
  -4  11  -2  -16.25   11.58
  -4  11  -3   84.78   21.19
  -4  11  -4   15.95   15.99
  -4  11  -5    2.58   10.82
  -4  11  -6   32.23   19.21
  -4  11  -7   28.81   16.52
  -4  11  -8   27.42   15.87
  -4  11  -9    8.71   13.62
  -4  11 -10   -8.20   14.43
  -4  11 -11  -11.23   19.03
  -4  10  13   -2.71   11.35
  -4  10  12    1.28   12.78
  -4  10  11   -7.35    9.57
  -4  10  10   15.41   12.42
  -4  10   9   49.48   19.12
  -4  10   8   -2.01   11.16
  -4  10   7   39.82   14.62
  -4  10   6  -12.12    8.76
  -4  10   6   -4.88   11.86
  -4  10   5   -5.56   13.17
  -4  10   5   24.67   11.60
  -4  10   4    5.89    7.77
  -4  10   4   27.42   13.85
  -4  10   3   12.94   11.70
  -4  10   3   10.45    6.36
  -4  10   2    1.26    6.07
  -4  10   2    5.93    6.85
  -4  10   1    8.02    9.20
  -4  10   1   24.34   11.66
  -4  10   0   27.43   10.86
  -4  10   0   37.80   14.99
  -4  10  -1    9.39    7.31
  -4  10  -1   23.30   11.94
  -4  10  -2    5.13    5.93
  -4  10  -2    4.54    9.70
  -4  10  -3   51.55   13.84
  -4  10  -3   71.05   21.24
  -4  10  -4    4.46    8.05
  -4  10  -5    8.67    7.82
  -4  10  -6   55.50   19.69
  -4  10  -7   20.45    9.70
  -4  10  -8   13.40   15.15
  -4  10  -9   18.51   11.56
  -4  10 -10   10.41   13.86
  -4  10 -11   24.04   17.43
  -4  10 -12    1.20   15.88
  -4   9  13    5.05   11.47
  -4   9  12   12.51   14.07
  -4   9  11    7.13   12.22
  -4   9  10   11.18   13.20
  -4   9   9   22.28   12.36
  -4   9   8   58.38   17.89
  -4   9   8   43.66   15.75
  -4   9   7   12.61   13.72
  -4   9   7  -10.22   10.24
  -4   9   6   56.61   15.79
  -4   9   6   37.71   12.69
  -4   9   5   20.31   10.85
  -4   9   5   21.45   12.79
  -4   9   4   31.96   11.29
  -4   9   4    7.85    7.34
  -4   9   3   24.17   11.42
  -4   9   3   27.03   11.22
  -4   9   2    6.48    6.01
  -4   9   2    4.38    6.76
  -4   9   1   88.38   17.97
  -4   9   1  107.80   19.58
  -4   9   0   16.01   10.77
  -4   9   0   20.54   11.66
  -4   9  -1   25.35   11.30
  -4   9  -1    6.67    9.42
  -4   9  -2   59.54   13.64
  -4   9  -2   62.75   15.70
  -4   9  -3   43.65   11.58
  -4   9  -3   47.49   14.87
  -4   9  -4    3.08    6.65
  -4   9  -5   -3.06    8.88
  -4   9  -6  168.72   28.32
  -4   9  -7   38.02   17.17
  -4   9  -8   -7.69   11.72
  -4   9  -9   11.03   16.07
  -4   9 -10    6.54   14.99
  -4   9 -11   19.69   14.88
  -4   9 -12  -31.50   20.57
  -4   9 -13   16.12   14.91
  -4   9 -14   42.28   27.78
  -4   8  14    0.92   10.19
  -4   8  13   -0.30   10.00
  -4   8  12   13.49   11.10
  -4   8  11   14.48    9.69
  -4   8  10  -16.01   13.38
  -4   8  10    4.57   10.95
  -4   8   9   -3.41   11.80
  -4   8   9   24.25   14.12
  -4   8   8   -8.59   12.75
  -4   8   8   11.34    7.77
  -4   8   7   26.06   11.15
  -4   8   7   21.20   10.61
  -4   8   6   -1.07    8.10
  -4   8   6    6.95    7.61
  -4   8   5   -4.52    7.35
  -4   8   4   61.30   14.04
  -4   8   3    1.97    7.99
  -4   8   2    7.09    7.10
  -4   8   1   28.04   10.93
  -4   8   0   79.99   18.25
  -4   8  -1   14.49    5.95
  -4   8  -2  147.83   19.69
  -4   8  -2  170.61   23.39
  -4   8  -3   17.52    8.72
  -4   8  -3    0.48    8.78
  -4   8  -4   21.88    7.65
  -4   8  -4   14.55    8.77
  -4   8  -5   85.24   20.65
  -4   8  -6   20.49   11.12
  -4   8  -7   31.94   14.85
  -4   8  -8    8.49    8.77
  -4   8  -9   99.98   26.32
  -4   8 -10   25.46   14.96
  -4   8 -11   -4.01   12.74
  -4   8 -12   12.47   17.74
  -4   8 -13    0.83   16.42
  -4   8 -14   14.07   19.81
  -4   8 -15   15.52   19.46
  -4   7  14  -11.64   11.29
  -4   7  13    5.56   11.37
  -4   7  12   -8.77   13.94
  -4   7  11   -0.35    8.18
  -4   7  11   18.39   14.64
  -4   7  10   -0.34    8.16
  -4   7  10   -9.91   12.56
  -4   7   9   -1.45    9.04
  -4   7   9   14.58   15.46
  -4   7   8   -0.21   10.44
  -4   7   7    4.77    8.35
  -4   7   6    2.61    7.50
  -4   7   5  131.26   20.81
  -4   7   4    6.97    6.44
  -4   7   3   48.80   12.80
  -4   7   2   90.30   16.47
  -4   7   1   15.01    8.85
  -4   7   0  213.52   24.72
  -4   7  -1    1.41    5.14
  -4   7  -2    2.35    6.53
  -4   7  -3  161.84   23.62
  -4   7  -4  268.03   30.32
  -4   7  -5   13.44    8.84
  -4   7  -5    1.76    4.47
  -4   7  -6   16.79   10.92
  -4   7  -7   -6.14   10.14
  -4   7  -8    1.71    8.41
  -4   7  -9   21.10   14.20
  -4   7 -10    9.56   12.94
  -4   7 -11    7.89   11.74
  -4   7 -12   -9.55   11.62
  -4   7 -13   27.45   20.88
  -4   7 -14    5.95   18.72
  -4   7 -15   34.12   22.24
  -4   6  14   -5.35   11.52
  -4   6  13    1.30    8.83
  -4   6  12    1.34   12.94
  -4   6  12   17.62   14.59
  -4   6  11   32.96   14.13
  -4   6  11   19.92   12.56
  -4   6  10   15.38   10.86
  -4   6  10  -19.51   10.07
  -4   6   9   -6.95   13.19
  -4   6   8   46.67   14.25
  -4   6   7    8.87    9.72
  -4   6   6   -8.49   10.49
  -4   6   5   48.36   13.18
  -4   6   4  227.98   25.51
  -4   6   3    4.24    6.74
  -4   6   2   24.49   10.24
  -4   6   1    7.02    8.13
  -4   6   0    5.47    5.70
  -4   6  -1  145.81   19.40
  -4   6  -2   19.98    6.87
  -4   6  -3  271.91   28.52
  -4   6  -4   12.22    7.11
  -4   6  -5  198.84   26.22
  -4   6  -6   41.79   11.82
  -4   6  -7  192.62   28.44
  -4   6  -8    3.60    7.64
  -4   6  -9   39.68   16.63
  -4   6 -10   31.81   16.68
  -4   6 -11   17.75   11.46
  -4   6 -12   45.81   20.02
  -4   6 -13   33.44   19.82
  -4   6 -14   18.24   18.18
  -4   6 -15    2.37   14.69
  -4   6 -16   19.74   15.72
  -4   5  13   22.14   15.45
  -4   5  13   -6.92    9.74
  -4   5  12    1.87   10.61
  -4   5  12    3.79   12.54
  -4   5  11   16.25   12.94
  -4   5  10   16.33   11.55
  -4   5   9    2.58    9.44
  -4   5   8    0.06   10.22
  -4   5   7   14.45    6.97
  -4   5   6    7.58    7.53
  -4   5   5  393.72   32.23
  -4   5   4   45.32   10.57
  -4   5   3   63.36   13.30
  -4   5   2    3.36   10.47
  -4   5   1  118.32   17.61
  -4   5   0  120.42   17.16
  -4   5  -1  493.09   34.62
  -4   5  -2   34.68   10.77
  -4   5  -3   25.09    9.79
  -4   5  -4  525.94   38.50
  -4   5  -5   12.12   10.40
  -4   5  -6   33.45   10.78
  -4   5  -7  353.25   37.99
  -4   5  -8  157.37   24.87
  -4   5  -9    2.94    6.76
  -4   5 -10  -14.35   10.75
  -4   5 -11   24.99   15.88
  -4   5 -12   -4.09   13.50
  -4   5 -13   43.30   19.15
  -4   5 -14    0.61   14.09
  -4   5 -15   29.86   21.47
  -4   5 -16    5.23   18.47
  -4   4  14   14.33   11.06
  -4   4  13    4.21    9.97
  -4   4  13    7.97   11.68
  -4   4  12   18.09   10.16
  -4   4  12   -0.82    9.61
  -4   4  11   24.49   14.78
  -4   4  10    7.36   11.88
  -4   4   9    1.62    7.09
  -4   4   8   36.71   13.25
  -4   4   7    4.18    6.39
  -4   4   6   67.30   15.37
  -4   4   5   -4.58    7.94
  -4   4   4   -0.59    6.66
  -4   4   3   -3.47    7.36
  -4   4   2  196.06   22.33
  -4   4   1   -3.50    5.76
  -4   4   0   67.29   12.67
  -4   4  -1  382.83   28.39
  -4   4  -2    9.37    6.44
  -4   4  -3   18.61    7.34
  -4   4  -4  172.78   20.64
  -4   4  -5   -3.92    5.49
  -4   4  -6   24.01    9.24
  -4   4  -7  148.11   22.66
  -4   4  -8    3.24    6.53
  -4   4  -9   18.12   11.14
  -4   4 -10  286.90   35.55
  -4   4 -11  -14.46   12.05
  -4   4 -12   28.85   17.41
  -4   4 -13   38.56   20.19
  -4   4 -14   -4.41   10.73
  -4   4 -15   17.47   19.21
  -4   4 -16   18.47   14.48
  -4   4 -17  -24.66   21.13
  -4   3  14  -24.92   14.33
  -4   3  13    6.45    7.05
  -4   3  13   -8.26   10.88
  -4   3  12  -21.06   15.68
  -4   3  11   20.21   13.72
  -4   3  10   40.17   16.79
  -4   3   9    6.25   10.21
  -4   3   8   15.21    9.46
  -4   3   7   -5.61    8.68
  -4   3   6   29.26   11.51
  -4   3   5   12.66   10.08
  -4   3   4    6.02    7.85
  -4   3   3   20.14    8.54
  -4   3   2   42.01   10.21
  -4   3   1    3.70    6.10
  -4   3   0  145.83   18.28
  -4   3  -1   16.48    7.78
  -4   3  -2   25.18    7.22
  -4   3  -3  279.88   24.05
  -4   3  -4   16.69    6.67
  -4   3  -5    8.29    5.29
  -4   3  -6  169.66   22.01
  -4   3  -7  240.51   26.61
  -4   3  -8  280.59   33.14
  -4   3  -9    1.72    7.63
  -4   3 -10   22.78   13.19
  -4   3 -11    0.59    6.66
  -4   3 -12    1.75    9.77
  -4   3 -13   -7.54   10.40
  -4   3 -14   15.69    9.36
  -4   3 -15   17.89   15.58
  -4   3 -16    2.05   15.42
  -4   3 -17  -16.82   15.71
  -4   2  15  -21.29   14.89
  -4   2  14    1.66   12.90
  -4   2  13    1.11   15.11
  -4   2  12    7.27   10.84
  -4   2  11   14.25   10.43
  -4   2  10  -10.19   11.70
  -4   2   9   12.48   10.39
  -4   2   8   38.31   15.62
  -4   2   7  180.47   28.80
  -4   2   6  124.63   21.38
  -4   2   5    3.85    7.33
  -4   2   4   16.24    8.24
  -4   2   3   57.95   12.69
  -4   2   2  823.53   39.96
  -4   2   1  139.33   17.11
  -4   2   0   23.02    8.25
  -4   2  -1  709.87   35.99
  -4   2  -2   49.04   10.22
  -4   2  -3   32.15    8.61
  -4   2  -4    8.93    5.09
  -4   2  -5   10.35    6.58
  -4   2  -6  186.09   20.94
  -4   2  -7   10.53    7.33
  -4   2  -8   77.67   16.88
  -4   2  -9  275.64   30.18
  -4   2 -10   31.29   12.66
  -4   2 -11  192.70   28.62
  -4   2 -12    3.62    7.13
  -4   2 -13   26.04   11.38
  -4   2 -14    2.49    8.46
  -4   2 -15   13.08   11.62
  -4   2 -16   24.62   19.89
  -4   2 -17   -6.83   14.76
  -4   1  15  -14.28   16.51
  -4   1  14   27.02   20.87
  -4   1  13   20.47   19.75
  -4   1  12   -9.63   13.79
   4  -1 -12   21.38   12.40
  -4   1  11   -3.47    9.55
   4  -1 -11   -0.73    7.56
  -4   1  10  -13.07   10.04
   4  -1 -10   16.69   13.06
  -4   1   9   21.56   11.98
   4  -1  -9    7.35    8.52
  -4   1   8   13.34   10.63
  -4   1   7  -15.81   11.95
  -4   1   6   17.47   12.01
  -4   1   5   31.28   10.58
  -4   1   4  410.50   31.33
  -4   1   3  368.10   27.95
  -4   1   2   -6.99    6.41
  -4   1   1  139.66   17.22
  -4   1   0   86.81   13.15
  -4   1  -1 2177.76   60.50
  -4   1  -2   34.27    8.88
  -4   1  -3 1216.09   45.37
  -4   1  -4  202.77   18.90
  -4   1  -5    5.51    5.32
   4  -1   5   -0.08    3.13
  -4   1  -6   42.50    9.09
   4  -1   6   40.07    7.78
  -4   1  -7  209.47   22.99
   4  -1   7  201.26   16.51
   4  -1   8    8.76    4.92
  -4   1  -8    8.67    4.24
  -4   1  -9   63.63   14.11
   4  -1   9   65.68   10.18
  -4   1 -10  194.88   25.50
   4  -1  10  179.89   16.02
  -4   1 -11  109.09   20.40
  -4   1 -12  -10.09    6.53
  -4   1 -13   10.33   10.50
  -4   1 -14   88.69   24.44
  -4   1 -15   -9.47   11.79
  -4   1 -16   54.52   22.12
  -4   1 -17   -7.09   14.28
  -4   0  15   12.04   24.35
   4   0 -15   -0.64   12.84
   4   0 -14    2.36   12.64
  -4   0  14  -27.41   20.48
   4   0 -13    1.43   10.45
  -4   0  13  -14.04   16.54
   4   0 -12    9.76   12.98
  -4   0  12  -15.72   12.28
  -4   0  11   23.85   18.57
   4   0 -11   -7.03    7.37
  -4   0  10  -16.77   10.48
   4   0 -10    1.38    7.14
  -4   0   9    9.08   13.13
   4   0  -9   50.66   15.54
  -4   0   8   -0.82   10.92
   4   0  -8  -24.69   10.95
   4   0  -7    4.07    6.41
  -4   0   7   -4.03   10.19
   4   0  -6   -3.65    6.66
  -4   0   6   22.83   13.86
  -4   0   5   19.82   10.71
  -4   0   4  -10.34    6.90
  -4   0   3   18.86    7.26
  -4   0   2   57.75   12.25
  -4   0   1  123.56   16.17
  -4   0   0   91.96   13.08
  -4   0  -1   50.11   10.28
  -4   0  -2   41.25    8.61
   4   0   3  320.97   21.72
  -4   0  -3  331.76   23.21
  -4   0  -4 1932.65   55.14
   4   0   4 1913.43   52.21
   4   0   5   -2.10    3.86
  -4   0  -5   -0.40    4.72
  -4   0  -6  298.26   24.20
   4   0   6  290.43   20.86
  -4   0  -7  149.10   17.96
   4   0   7  144.16   15.02
   4   0   8   84.10   11.88
  -4   0  -8   81.66   14.42
  -4   0  -9  101.68   16.37
   4   0   9   79.18   11.46
   4   0  10   29.56    9.35
  -4   0 -10   24.62   10.83
   4   0  11   66.68   12.77
  -4   0 -11   60.95   13.35
  -4   0 -12   26.03   11.42
  -4   0 -13  121.00   24.97
  -4   0 -14   18.32   12.46
  -4   0 -15   12.18   14.64
  -4   0 -16   13.54   13.71
   4   1 -15   22.94   21.34
  -4  -1  15   15.75   27.50
  -4  -1  14    4.00   17.84
   4   1 -14    2.68   13.82
  -4  -1  13   -6.70   13.12
   4   1 -13   -1.71   11.56
  -4  -1  12   12.54   17.40
   4   1 -12    1.47   12.13
  -4  -1  11   -6.77   11.88
   4   1 -11    6.76   12.45
  -4  -1  10  -22.11   14.81
   4   1 -10   10.01    8.51
  -4  -1   9   25.63   16.19
   4   1  -9   -9.47    8.85
  -4  -1   8  109.14   31.65
   4   1  -8  126.61   22.57
  -4  -1   7   16.85   11.46
   4   1  -7  -23.77   10.65
  -4  -1   6   34.81   10.83
   4   1  -6   28.07   12.02
   4   1  -5   -4.43    5.45
  -4  -1   5   10.67    8.59
   4   1  -4  158.54   20.48
  -4  -1   4   86.19   22.06
  -4  -1   3   -3.36    6.67
  -4  -1   2  321.53   27.91
  -4  -1   1   39.02    9.28
  -4  -1   0  202.45   18.42
  -4  -1  -1   -3.81    4.65
   4   1   1    8.44    3.73
  -4  -1  -2    2.94    5.71
   4   1   2    6.67    4.43
   4   1   3   60.21   10.44
  -4  -1  -3   58.10   10.26
  -4  -1  -4   -0.41    3.20
   4   1   4   -3.60    4.81
  -4  -1  -5  186.69   16.99
   4   1   5  181.45   16.97
   4   1   6  165.23   16.86
  -4  -1  -6  172.13   17.29
   4   1   7    2.77    4.09
  -4  -1  -7   -1.30    3.58
  -4  -1  -8    6.23    4.14
   4   1   8   17.00    6.38
   4   1   9   17.31    7.95
  -4  -1  -9    2.38    4.37
   4   1  10   29.81    6.87
  -4  -1 -10   33.46   11.39
   4   1  11   45.51    9.59
  -4  -1 -11   47.33   13.65
   4   1  12   58.12   13.37
  -4  -1 -12   73.73   15.03
  -4  -1 -13   -2.15    9.52
  -4  -1 -14   32.55   15.27
  -4  -1 -15   -1.11    9.10
  -4  -1 -16  -10.28   17.11
  -4  -2  15   18.34   19.88
   4   2 -15    3.00   17.00
  -4  -2  14   24.97   17.38
   4   2 -14  -17.93   18.50
  -4  -2  13    8.22   16.12
   4   2 -13    1.77   14.23
   4   2 -12  -11.66   14.25
  -4  -2  12   39.40   21.87
  -4  -2  11   11.42   10.98
   4   2 -11   19.77   14.25
  -4  -2  10  -11.51   16.43
   4   2 -10   11.88   13.00
  -4  -2   9    4.53   11.33
   4   2  -9    5.64    9.90
  -4  -2   8  -16.99   12.14
   4   2  -8    3.85    6.91
  -4  -2   7   61.48   20.15
   4   2  -7   29.46   11.10
  -4  -2   6   51.43   19.76
   4   2  -6   57.77   13.79
   4   2  -5  115.88   19.49
  -4  -2   5   82.80   20.25
  -4  -2   4   33.22   14.37
   4   2  -4   41.14   10.51
  -4  -2   3   69.61   15.43
   4   2  -3   56.02   13.22
  -4  -2   2    4.09    6.14
   4   2  -2    6.53    5.90
  -4  -2   1  108.07   14.70
  -4  -2   0   24.09    7.84
   4   2   0   31.09    8.46
   4   2   1   33.75    9.07
  -4  -2  -1   21.82    5.85
   4   2   2   15.49    6.79
  -4  -2  -2   12.44    5.07
  -4  -2  -3    6.02    5.25
   4   2   3   -4.15    6.01
  -4  -2  -4  544.84   26.67
   4   2   4  554.63   30.74
   4   2   5   13.43    4.39
  -4  -2  -5   21.07    6.10
  -4  -2  -6  204.07   17.50
   4   2   6  200.58   19.69
  -4  -2  -7  157.84   16.31
   4   2   7  169.77   17.92
   4   2   8    6.67    5.74
  -4  -2  -8    5.01    4.21
  -4  -2  -9   60.98   11.80
   4   2   9   46.37   10.28
   4   2  10   20.21    7.41
  -4  -2 -10   17.22    5.78
  -4  -2 -11   49.98   13.43
   4   2  11   20.80    7.86
   4   2  12    2.28    6.36
  -4  -2 -12    9.08    6.31
  -4  -2 -13   86.95   18.00
   4   2  13   74.95   15.54
  -4  -2 -14   22.25   10.80
  -4  -2 -15   23.81   13.38
  -4  -3  15  -19.13   20.49
   4   3 -15   -0.98   12.73
  -4  -3  14  -41.79   24.08
   4   3 -14   -0.66   13.53
  -4  -3  13   25.53   17.91
   4   3 -13   17.75   13.42
  -4  -3  12  -11.06   14.01
   4   3 -12  -10.95   13.77
   4   3 -11   23.65   15.33
  -4  -3  11   -5.88   13.43
  -4  -3  10    7.46   15.74
   4   3 -10   15.51    9.74
  -4  -3   9   38.67   21.70
   4   3  -9   13.03    9.08
   4   3  -8   30.50   14.36
  -4  -3   8   19.33   18.16
   4   3  -7   -6.82    7.39
  -4  -3   7  -11.18    9.35
  -4  -3   6    5.62    8.75
   4   3  -6    7.10    9.07
   4   3  -5  483.59   40.39
  -4  -3   5  369.14   44.67
  -4  -3   4   -4.60    9.63
   4   3  -4    1.96    6.61
   4   3  -3  344.03   32.55
  -4  -3   3  381.88   32.10
   4   3  -2  240.39   25.50
  -4  -3   2  238.99   24.56
   4   3  -1  511.89   34.89
  -4  -3   1  526.29   33.03
   4   3  -1  532.04   31.90
  -4  -3   0  195.56   19.99
   4   3   0  227.45   20.87
   4   3   1   37.85    8.25
  -4  -3  -1   43.73    9.73
  -4  -3  -2   70.43   10.36
   4   3   2   56.82   10.50
  -4  -3  -3  858.73   33.04
   4   3   3  816.50   39.81
   4   3   4   30.35    9.26
  -4  -3  -4   34.35    6.97
  -4  -3  -5  325.68   19.31
   4   3   5  352.83   25.69
   4   3   6  113.64   15.56
  -4  -3  -6  123.16   12.43
  -4  -3  -7  228.78   17.96
   4   3   7  223.53   21.48
  -4  -3  -8   37.19    9.14
   4   3   8   34.15   10.52
   4   3   9   63.79   13.33
  -4  -3  -9   53.51   10.56
  -4  -3 -10    2.70    6.32
   4   3  10   -1.37    8.75
   4   3  11   32.00   10.41
  -4  -3 -11   24.80    9.17
   4   3  12   20.47    9.87
  -4  -3 -12    2.35    6.40
  -4  -3 -13   27.48    8.86
   4   3  13   43.60   14.32
   4   3  14   -8.67   10.44
  -4  -3 -14   14.78   10.29
  -4  -4  14  -33.22   27.14
   4   4 -14    6.30   14.35
  -4  -4  13   12.90   19.31
   4   4 -13    7.61   13.64
  -4  -4  12   10.75   19.99
   4   4 -12    2.71   12.57
  -4  -4  11  -32.55   22.97
   4   4 -11    5.10   12.13
  -4  -4  10  -19.97   17.41
   4   4 -10   -1.09   10.47
  -4  -4   9   -0.83   12.72
   4   4  -9   25.14   13.69
   4   4  -8   -1.77    8.52
   4   4  -7   -5.26    6.01
   4   4  -6   64.25   17.21
   4   4  -5   28.84   11.67
  -4  -4   5   40.84   16.27
   4   4  -4   35.99   13.31
  -4  -4   4   55.52   17.22
  -4  -4   3    3.99    8.77
   4   4  -3    1.15    5.52
   4   4  -2  231.63   26.86
  -4  -4   2  259.25   26.42
   4   4  -2  253.83   23.20
   4   4  -1   51.67   10.95
  -4  -4   1   40.37   10.86
   4   4  -1   65.72   12.23
  -4  -4   0  164.23   18.24
   4   4   0  202.83   20.80
   4   4   1  119.63   15.82
  -4  -4  -1  113.37   14.01
  -4  -4  -2  242.85   19.44
   4   4   2  248.14   22.68
   4   4   3    2.88    4.61
  -4  -4  -3    4.23    3.65
   4   4   4   45.72    9.73
  -4  -4  -4   60.77    8.64
  -4  -4  -5  116.56   10.53
   4   4   5   79.74   13.80
   4   4   6   22.34    8.85
  -4  -4  -6   35.05    6.18
   4   4   7   23.88    8.19
  -4  -4  -7   33.80    6.40
  -4  -4  -8   94.44   10.99
   4   4   8   93.14   15.76
   4   4   9   95.54   17.25
  -4  -4  -9  110.36   13.38
  -4  -4 -10    5.56    5.11
   4   4  10  -11.76    9.03
  -4  -4 -11   44.67   10.40
   4   4  11   46.20   12.82
   4   4  12   23.25   12.18
   4   4  13   13.94   11.68
   4   4  14   64.31   17.06
   4   4  15   18.02   15.92
  -4  -5  14  -40.94   26.84
   4   5 -14   18.75   13.20
  -4  -5  13   20.07   15.61
   4   5 -13    2.52   15.35
  -4  -5  12   42.81   22.83
   4   5 -12   15.23   19.90
   4   5 -11    1.46   12.59
  -4  -5  11   12.46   18.96
   4   5 -10   11.32   10.39
   4   5  -9   -0.48    8.01
   4   5  -8   80.35   20.09
   4   5  -7   -1.78    7.20
   4   5  -6    3.93    8.75
   4   5  -5   72.12   16.64
   4   5  -4    2.48    6.61
  -4  -5   3   37.19   15.33
   4   5  -3   30.10    9.84
   4   5  -3   35.20   11.46
  -4  -5   2   72.05   17.35
   4   5  -2   75.52   13.97
   4   5  -2   69.66   15.31
   4   5  -1   -8.21    6.57
   4   5  -1    7.61    6.21
  -4  -5   1   -3.00    5.85
   4   5   0    5.14    6.15
   4   5   0    8.29    5.27
  -4  -5   0    1.64    5.15
   4   5   1   40.65   10.38
  -4  -5  -1   44.79    9.81
   4   5   2   96.95   15.09
  -4  -5  -2   96.26   11.89
   4   5   3   83.81   13.18
  -4  -5  -3   82.38   10.54
   4   5   4   39.19   10.68
  -4  -5  -4   36.44    6.69
   4   5   5   17.07    8.48
  -4  -5  -5   25.07    4.50
   4   5   6   43.50   12.25
   4   5   7   -0.34    6.42
   4   5   8  119.29   18.28
   4   5   9    7.50   10.36
   4   5  10  292.47   29.26
   4   5  11  -10.24    8.85
   4   5  12   40.81   12.40
   4   5  13   -2.07   10.48
   4   5  14   25.10   12.43
   4   5  15   21.67   14.50
  -4  -6  13  -23.39   17.48
   4   6 -13   -7.48   15.91
  -4  -6  12   -3.58   19.56
   4   6 -12   15.44   17.74
  -4  -6  11   -5.49   21.03
   4   6 -11    2.01   10.92
   4   6 -10    0.11    9.25
   4   6  -9    0.60   11.48
   4   6  -8   50.07   17.17
   4   6  -7    5.26    9.14
   4   6  -6   49.74   16.39
   4   6  -5   78.06   20.19
   4   6  -4   10.39    7.97
   4   6  -3    6.35    7.53
   4   6  -3    3.60    4.88
  -4  -6   2    9.97    9.35
   4   6  -2   22.96   10.05
   4   6  -2   15.10    5.37
   4   6  -1    6.18    6.07
  -4  -6   1    0.91    5.80
   4   6  -1    6.61    8.31
  -4  -6   0    6.30    8.06
   4   6   0    3.79    4.61
   4   6   0    1.71    4.13
   4   6   1  146.88   18.61
   4   6   1  122.97   15.80
  -4  -6  -1  128.12   16.29
   4   6   2   13.54    8.42
  -4  -6  -2    0.43    4.19
   4   6   3   79.44   16.21
  -4  -6  -3   72.95    9.92
   4   6   4    1.83    7.63
   4   6   5   96.41   16.38
   4   6   6   38.14   13.21
   4   6   7    6.14    7.38
   4   6   8    2.25    6.96
   4   6   9   52.11   14.75
   4   6  10   67.41   17.08
   4   6  11   44.95   15.59
   4   6  12   20.99   11.57
   4   6  13   64.28   17.70
   4   6  14    4.59    9.05
   4   6  15   33.16   15.02
  -4  -7  12    4.82   17.02
   4   7 -12    2.81   13.88
   4   7 -11   -2.24   12.51
   4   7 -10    6.44    9.94
   4   7  -9   -1.38   11.45
   4   7  -8    9.27   10.57
   4   7  -7    5.74    9.76
   4   7  -6    6.84    7.81
   4   7  -5   47.16   17.02
   4   7  -4   20.52    9.05
   4   7  -4    9.28    6.23
   4   7  -3  103.45   17.25
   4   7  -3  151.35   22.45
   4   7  -2   -4.51    4.72
   4   7  -2   -3.90    5.58
   4   7  -1   28.52    9.75
   4   7  -1   27.57    8.28
  -4  -7   1   14.84    8.81
   4   7   0   38.47   10.81
  -4  -7   0   24.63    9.36
   4   7   0   21.93    8.41
   4   7   1   72.98   16.32
   4   7   1   54.81   11.73
  -4  -7  -1   56.89   12.14
  -4  -7  -2   29.94    8.35
   4   7   2   24.98   11.56
   4   7   3   -2.42    5.99
  -4  -7  -3    5.10    4.52
   4   7   4   94.62   16.58
   4   7   5  147.61   21.68
   4   7   6    1.07    8.68
   4   7   7   20.09   11.18
   4   7   8    3.61    8.60
   4   7   9   24.10   11.44
   4   7  10    4.17    9.65
   4   7  11  -12.05   10.75
   4   7  12   12.39   11.05
   4   7  13   28.39   12.48
   4   7  14  -10.97   10.85
   4   7  15   18.28   17.66
   4   7  16    5.88   12.15
   4   8 -11    4.20   12.98
   4   8 -10    5.23   11.00
   4   8  -9   -5.51   15.57
   4   8  -8   -8.17    9.92
   4   8  -7   37.54   17.18
   4   8  -6    5.34   10.12
   4   8  -5   35.43   13.74
   4   8  -4   25.60   10.76
   4   8  -4   19.67   10.73
   4   8  -3   30.84   10.61
   4   8  -3   27.67   11.64
   4   8  -2   13.26    8.58
   4   8  -2    0.72    6.64
   4   8  -1   63.90   14.49
   4   8  -1   52.42   13.15
  -4  -8   1   44.57   15.11
   4   8   0   98.98   18.50
  -4  -8   0   80.11   16.15
   4   8   0   71.04   13.52
   4   8   1   -3.45    8.82
  -4  -8  -1   10.89    8.08
   4   8   1   -2.75    4.14
   4   8   2   24.33   11.58
  -4  -8  -2    7.73    4.73
   4   8   3   29.08   11.75
   4   8   4   82.81   15.79
   4   8   5    0.78    8.41
   4   8   6   63.31   16.53
   4   8   7    5.72    9.22
   4   8   8   31.20   12.59
   4   8   9    2.39    8.07
   4   8  10   27.93   14.42
   4   8  11    0.48   11.44
   4   8  12  -25.28   19.71
   4   8  13    2.43   11.03
   4   8  14    0.29   14.96
   4   8  15  -30.40   19.35
   4   8  16  -44.51   21.78
   4   9 -10   18.38   19.70
   4   9  -9   11.20   14.75
   4   9  -8    7.57   11.08
   4   9  -7    5.47   10.42
   4   9  -6   11.35   11.69
   4   9  -5   -1.19    7.33
   4   9  -4   31.73   12.75
   4   9  -3    9.88    9.03
   4   9  -3   -2.89    7.21
   4   9  -2   33.04   11.88
   4   9  -2   33.03   15.21
   4   9  -1   23.46   11.17
   4   9  -1   39.66   11.49
   4   9   0  105.16   19.08
   4   9   0  114.43   18.14
  -4  -9   0  119.70   21.96
   4   9   1   35.29   12.77
  -4  -9  -1   42.80   11.92
   4   9   1   35.95   10.73
   4   9   2   13.20    9.81
   4   9   3    0.06    7.34
   4   9   4   17.71    7.55
   4   9   5   15.04    9.90
   4   9   6   91.71   19.91
   4   9   7    9.16    8.52
   4   9   8   11.03   11.70
   4   9   9   -3.83   11.48
   4   9  10   10.46   14.07
   4   9  11   10.92   12.98
   4   9  12  -14.65   12.25
   4   9  13    6.15   11.86
   4   9  14   12.55   13.45
   4   9  15   -1.40   13.24
   4   9  16   -8.26   14.66
   4  10  -8   -2.10   16.16
   4  10  -7   -8.48    9.65
   4  10  -6    9.58   12.05
   4  10  -5  -24.80   14.71
   4  10  -4   10.82   12.22
   4  10  -3   -9.13    9.49
   4  10  -2   12.83   11.02
   4  10  -2   30.90   14.05
   4  10  -1   -0.43    7.58
  -4 -10   1   22.78   12.92
   4  10  -1   10.35   10.04
   4  10   0    8.35    7.49
   4  10   1   33.58   14.01
   4  10   2   16.37    9.43
   4  10   3   75.27   17.24
   4  10   4   63.89   17.95
   4  10   5   18.41   11.95
   4  10   6   10.35    9.83
   4  10   7   34.33   14.96
   4  10   8    7.79    9.26
   4  10   9   15.75   14.53
   4  10  10  -10.26   10.34
   4  10  11    8.54   12.55
   4  10  12   -0.50   16.62
   4  10  13   35.99   18.08
   4  10  14   34.34   15.64
   4  10  15   17.51   16.42
   4  11  -1    5.42    8.05
   4  11   0  -10.89    9.85
   4  11   1   -2.95    9.16
   4  11   2    5.58    9.26
   4  11   3   56.45   15.81
   4  11   4  -19.43   14.32
   4  11   5    3.32    8.57
   4  11   6    0.42   10.00
   4  11   7   23.67   14.04
   4  11   8   -4.32   11.47
   4  11   9   16.17   13.83
   4  11  10   30.54   15.41
   4  11  11   18.76   15.89
   4  11  12    5.12   18.13
   4  11  13   -7.97   13.99
   4  11  14   13.32   15.56
   4  11  15   27.40   22.79
   4  12   0   12.54   11.81
   4  12   1  -14.65   13.16
   4  12   2    9.10   12.03
   4  12   3    2.22    9.38
   4  12   4    3.16    9.96
   4  12   5  -26.73   14.72
   4  12   6   11.57   15.07
   4  12   7   16.96   15.60
   4  12   8   38.43   17.10
   4  12   9   -5.21   16.37
   4  12  10    0.65   14.14
   4  12  11  -33.44   17.85
   4  12  12  -30.36   22.53
   4  12  13   41.26   21.67
   4  12  14   44.84   23.93
   4  13   2    8.62   12.18
   4  13   3   13.48   14.19
   4  13   4   11.07   13.40
   4  13   5   15.86   14.98
   4  13   6   16.38   11.55
   4  13   7  -25.97   14.62
   4  13   8   24.78   18.15
   4  13   9   32.63   21.56
   4  13  10   20.68   15.13
   4  13  11   27.13   21.97
   4  13  12   17.34   17.51
   4  13  13  -12.38   24.18
   4  14   4    7.96   13.15
   4  14   5   -9.73   15.06
   4  14   6   -2.74   18.04
   4  14   7    8.96   15.84
   4  14   8  -11.94   14.15
   4  14   9   11.13   15.28
   4  14  10   14.99   14.92
   4  14  11   23.08   24.05
   4  14  12    6.68   20.84
  -5  13   9   -7.76   15.15
  -5  13   8   20.97   13.93
  -5  13   7   29.65   15.95
  -5  13   6  -12.38   14.48
  -5  13   5   43.06   19.86
  -5  13   4    3.47   11.60
  -5  13   3   19.15   14.51
  -5  13   2   17.62   16.66
  -5  12  10    1.15   11.48
  -5  12   9   -2.19   10.51
  -5  12   8   24.57   16.47
  -5  12   7    5.54   14.85
  -5  12   6  -31.85   15.97
  -5  12   5    8.50   11.44
  -5  12   4   13.93   12.18
  -5  12   3   27.49   14.65
  -5  12   2  -15.13   13.40
  -5  12   1  -11.55   12.00
  -5  12   1  -11.19   11.12
  -5  12   0   -2.66   10.87
  -5  12   0   19.98   13.05
  -5  12  -1   -4.89   12.66
  -5  12  -2   14.58   11.80
  -5  12  -3   22.12   16.87
  -5  12  -4  -10.22   11.32
  -5  12  -5  -15.89   14.24
  -5  12  -6   13.76   15.51
  -5  12  -7    3.66   13.67
  -5  12  -8   -6.29   14.08
  -5  11  11   28.09   19.95
  -5  11  10  -28.48   20.35
  -5  11   9   -9.44   14.44
  -5  11   8   -7.03   13.33
  -5  11   7   -3.03    9.15
  -5  11   6   15.61   11.01
  -5  11   5    8.28   10.10
  -5  11   4    4.03    8.84
  -5  11   4  -23.16   16.58
  -5  11   3  -13.00   11.67
  -5  11   3   16.88   13.19
  -5  11   2    0.94   10.01
  -5  11   2   -1.68    9.78
  -5  11   1   -1.60    8.90
  -5  11   1   15.01   14.01
  -5  11   0   25.75   12.38
  -5  11   0   -5.49    9.45
  -5  11  -1   21.38   11.44
  -5  11  -1   -8.29   12.24
  -5  11  -2   -0.41    8.86
  -5  11  -2   23.66   16.32
  -5  11  -3   26.60   14.34
  -5  11  -4    3.45    8.96
  -5  11  -5   -9.91   11.89
  -5  11  -6   -8.00   11.71
  -5  11  -7   20.02   15.44
  -5  11  -8   33.79   21.18
  -5  11  -9   17.52   17.29
  -5  11 -10   34.03   25.04
  -5  11 -11   15.33   14.23
  -5  10  12    3.15   14.96
  -5  10  11   26.37   16.20
  -5  10  10  -16.12   14.46
  -5  10   9    4.44   12.30
  -5  10   8   15.16    8.94
  -5  10   7  -19.33   15.68
  -5  10   6  -13.08   10.69
  -5  10   6   -3.11    7.84
  -5  10   5   19.76   12.20
  -5  10   5    8.28    9.53
  -5  10   4   47.57   13.16
  -5  10   4   61.74   18.92
  -5  10   3  -12.64    9.69
  -5  10   3   -4.78   10.93
  -5  10   2   11.23    9.01
  -5  10   2    4.18    7.72
  -5  10   1    6.92    7.48
  -5  10   1    2.62   10.14
  -5  10   0   58.69   15.52
  -5  10   0   51.46   16.40
  -5  10  -1    7.30    6.46
  -5  10  -1    6.98    7.68
  -5  10  -2    5.76    7.01
  -5  10  -2   17.47   17.27
  -5  10  -3    5.17    8.17
  -5  10  -3    5.56   12.33
  -5  10  -4   -3.37    8.05
  -5  10  -5    4.30   11.12
  -5  10  -6   -0.86   10.49
  -5  10  -7   35.43   18.48
  -5  10  -8   -1.81    9.99
  -5  10  -9    9.21   15.13
  -5  10 -10   15.21   16.82
  -5  10 -11    5.28   13.70
  -5  10 -12   12.65   15.50
  -5   9  13  -10.72   11.74
  -5   9  12  -11.44   18.06
  -5   9  11   12.24   15.22
  -5   9  10   -1.18   10.86
  -5   9   9   -3.51    9.64
  -5   9   8   52.43   20.49
  -5   9   8   25.06   13.69
  -5   9   7    3.08   11.44
  -5   9   7   -8.66    8.54
  -5   9   6   21.98   12.68
  -5   9   6    5.68   10.58
  -5   9   5   -8.23   10.65
  -5   9   4    7.71    8.95
  -5   9   3   -0.98    7.05
  -5   9   2  -14.80    9.68
  -5   9   1   31.37   13.38
  -5   9   0    8.19    8.38
  -5   9  -1   -6.88    8.50
  -5   9  -2   -6.84    8.22
  -5   9  -2   10.44   10.24
  -5   9  -3   22.74   10.96
  -5   9  -3   -5.45    8.85
  -5   9  -4   25.25   10.50
  -5   9  -4   33.91   15.45
  -5   9  -5    6.96    7.68
  -5   9  -6   16.39   13.34
  -5   9  -7   -3.61   12.42
  -5   9  -8   13.44   12.90
  -5   9  -9   41.09   21.34
  -5   9 -10   39.94   20.84
  -5   9 -11   18.19   12.38
  -5   9 -12   -7.17   18.41
  -5   9 -13   14.72   17.60
  -5   8  13  -37.08   20.20
  -5   8  12  -11.97   10.32
  -5   8  11  -23.74   13.77
  -5   8  10  -20.80   13.61
  -5   8   9   24.32   17.20
  -5   8   9    6.01   10.09
  -5   8   8  -20.99   16.63
  -5   8   7   20.37   13.49
  -5   8   6   17.78   14.94
  -5   8   5   63.51   20.26
  -5   8   4   11.92    8.38
  -5   8   3   86.55   17.89
  -5   8   2   91.43   19.64
  -5   8   1   36.27   12.95
  -5   8   0   70.75   16.26
  -5   8  -1    0.49    7.52
  -5   8  -2   -4.92    5.68
  -5   8  -3   92.74   19.46
  -5   8  -4    7.55    8.03
  -5   8  -5   38.06   14.85
  -5   8  -6  -10.61   11.70
  -5   8  -7    8.49    8.71
  -5   8  -8   18.20   16.84
  -5   8  -9   21.53   11.15
  -5   8 -10   13.38   16.18
  -5   8 -11    0.62   11.15
  -5   8 -12   42.57   22.69
  -5   8 -13   14.49   15.41
  -5   8 -14   35.18   24.56
  -5   7  13   11.93   12.09
  -5   7  12  -14.80   13.91
  -5   7  11   -3.43    9.30
  -5   7  11   26.48   17.60
  -5   7  10    7.42   11.64
  -5   7  10   -2.96   11.87
  -5   7   9   16.01   13.28
  -5   7   8   19.59   15.54
  -5   7   7   20.51   11.60
  -5   7   6   16.06   14.11
  -5   7   5   22.18   11.53
  -5   7   4   13.70   12.72
  -5   7   3    4.89    8.47
  -5   7   2   79.09   16.58
  -5   7   1  240.60   27.55
  -5   7   0    5.40    7.87
  -5   7  -1  105.29   19.33
  -5   7  -2   18.57   12.35
  -5   7  -3   66.16   15.37
  -5   7  -4   60.96   15.85
  -5   7  -5   16.28   10.91
  -5   7  -6   80.29   18.35
  -5   7  -7   14.30    8.11
  -5   7  -8   49.35   15.94
  -5   7  -9   30.90   14.10
  -5   7 -10   -0.53   11.33
  -5   7 -11   14.40   12.44
  -5   7 -12   14.79   15.30
  -5   7 -13   -4.70   13.03
  -5   7 -14  -17.40   21.38
  -5   7 -15   27.85   21.28
  -5   6  13   -0.56   10.37
  -5   6  12  -11.79   13.13
  -5   6  12   33.16   15.40
  -5   6  11   49.96   22.74
  -5   6  10   12.50   15.69
  -5   6   9    5.53   11.78
  -5   6   8    8.89    9.70
  -5   6   7   15.74   11.52
  -5   6   6   30.84   13.64
  -5   6   5  109.32   18.87
  -5   6   4   -8.02   10.41
  -5   6   3   14.94    9.70
  -5   6   2  266.65   28.76
  -5   6   1    1.23    6.85
  -5   6   0   67.35   15.24
  -5   6  -1  580.11   41.76
  -5   6  -2  205.88   24.61
  -5   6  -3    7.92    7.46
  -5   6  -4   20.08    9.66
  -5   6  -5   53.87   13.83
  -5   6  -6    8.17    9.13
  -5   6  -7   -6.06    8.83
  -5   6  -8   77.08   19.81
  -5   6  -9    2.17    7.92
  -5   6 -10   13.32   10.28
  -5   6 -11   12.50   14.81
  -5   6 -12   16.71   12.99
  -5   6 -13  -14.20   15.80
  -5   6 -14    0.66   13.25
  -5   6 -15    6.59   15.39
  -5   6 -16   19.21   22.31
  -5   5  13   -1.37   13.56
  -5   5  13   -0.09   13.14
  -5   5  12    3.87   15.56
  -5   5  11  -13.82   12.77
  -5   5  10  -14.13   15.78
  -5   5   9   -1.76   10.83
  -5   5   8    4.29    9.24
  -5   5   7   10.65   12.15
  -5   5   6   85.27   19.50
  -5   5   5  128.88   21.67
  -5   5   4   -5.22    7.22
  -5   5   3   50.22   15.36
  -5   5   2  101.88   19.18
  -5   5   1    6.11    9.07
  -5   5   0    7.17    5.81
  -5   5  -1  277.06   28.04
  -5   5  -2   75.20   15.90
  -5   5  -3    4.32    5.62
  -5   5  -4 1074.13   56.97
  -5   5  -5   24.27    9.29
  -5   5  -6   10.18    8.95
  -5   5  -7   33.32   13.30
  -5   5  -8   76.87   18.97
  -5   5  -9  127.06   23.02
  -5   5 -10   -6.52    9.71
  -5   5 -11   25.18   14.30
  -5   5 -12   29.07   15.58
  -5   5 -13   20.46   15.30
  -5   5 -14   14.25   15.24
  -5   5 -15   -3.73   12.86
  -5   5 -16   39.50   23.08
  -5   4  13  -13.62   12.27
  -5   4  13   -5.57   10.60
  -5   4  12    3.74   13.10
  -5   4  11   13.62   15.46
  -5   4  10   11.30   12.19
  -5   4   9   -2.64    8.66
  -5   4   8    2.13   10.01
  -5   4   7   28.12   13.42
  -5   4   6   14.64    8.05
  -5   4   5   44.61   14.04
  -5   4   4    1.13    9.11
  -5   4   3  185.64   22.78
  -5   4   2  -12.51   11.53
  -5   4   1   23.85   10.17
  -5   4   0    7.67    6.33
  -5   4  -1  123.76   18.13
  -5   4  -2   47.01   12.26
  -5   4  -3   13.51    7.71
  -5   4  -4    5.15    4.37
  -5   4  -5  167.36   21.82
  -5   4  -6  312.90   30.61
  -5   4  -7   28.23   11.52
  -5   4  -8  108.20   19.74
  -5   4  -9   33.33   13.84
  -5   4 -10   69.87   18.23
  -5   4 -11   65.90   19.22
  -5   4 -12   18.69   13.89
  -5   4 -13  -25.37   14.10
  -5   4 -14  -15.35   12.90
  -5   4 -15   34.91   14.13
  -5   4 -16    5.02   13.63
  -5   3  14  -14.72   17.03
  -5   3  13  -13.80   19.58
  -5   3  12   -0.32   11.89
  -5   3  11   14.59   14.27
  -5   3  10   12.27   12.35
  -5   3   9   38.38   17.10
  -5   3   8   17.99   12.58
  -5   3   7   18.52   10.77
  -5   3   6   41.08   13.63
  -5   3   5  175.88   23.63
  -5   3   4    7.26    6.94
  -5   3   3   55.24   13.98
  -5   3   2    6.43    9.74
  -5   3   1   34.24   12.11
  -5   3   0    7.90    5.86
  -5   3  -1  205.74   23.27
  -5   3  -2   -2.79    6.51
  -5   3  -3   11.92    8.58
  -5   3  -4  326.42   29.46
  -5   3  -5  325.55   29.14
  -5   3  -6   67.25   14.58
  -5   3  -7   39.99   11.94
  -5   3  -8   22.21    9.91
  -5   3  -9  242.46   31.40
  -5   3 -10   59.08   16.66
  -5   3 -11    7.77   12.48
  -5   3 -12    8.25   12.18
  -5   3 -13   10.94    9.98
  -5   3 -14   56.63   21.26
  -5   3 -15   26.95   17.57
  -5   3 -16    7.12   12.10
  -5   3 -17   -0.84   16.64
  -5   2  14  -29.52   18.11
  -5   2  13  -14.48   15.84
  -5   2  12   21.08   15.17
  -5   2  11   -2.27   10.18
  -5   2  10   -1.14   11.03
  -5   2   9   -5.74   12.46
  -5   2   8   93.98   20.89
  -5   2   7    9.95   11.12
  -5   2   6  126.03   24.46
  -5   2   5  191.91   23.76
  -5   2   4   11.59    6.46
  -5   2   3  282.43   27.31
  -5   2   2   45.14   10.36
  -5   2   1   -0.80    5.67
  -5   2   0  699.33   39.47
  -5   2  -1   90.70   16.12
  -5   2  -2  120.01   17.44
  -5   2  -3    1.39    5.82
  -5   2  -4  303.28   27.04
  -5   2  -5    8.76    5.33
  -5   2  -6   -7.10    7.14
  -5   2  -7   99.79   17.28
  -5   2  -8  384.93   34.93
  -5   2  -9    2.32    6.74
  -5   2 -10   58.79   16.64
  -5   2 -11    1.36   10.63
  -5   2 -12   33.15   14.91
  -5   2 -13    8.88    8.58
  -5   2 -14   20.53   13.43
  -5   2 -15  -10.64   16.44
  -5   2 -16   10.61   16.06
  -5   2 -17   -0.67   15.95
  -5   1  14   13.16   14.76
  -5   1  13   14.23   19.04
  -5   1  12    2.98   13.18
  -5   1  11   35.81   21.12
  -5   1  10   17.39   14.96
  -5   1   9    2.14    8.76
  -5   1   8   27.25   14.80
  -5   1   7   15.45    9.26
  -5   1   6   13.26   10.81
  -5   1   5   70.06   16.01
  -5   1   4   15.82    9.55
  -5   1   3   37.13   10.00
  -5   1   2  320.34   28.08
  -5   1   1  266.72   24.65
  -5   1   0   75.66   15.29
  -5   1  -1  106.64   15.96
  -5   1  -2  194.05   21.15
  -5   1  -3  127.82   16.91
  -5   1  -4    3.21    4.67
  -5   1  -5   27.99    8.49
  -5   1  -6    4.73    3.80
  -5   1  -7  420.00   32.79
  -5   1  -8   88.62   16.18
   5  -1   8   60.66   10.15
  -5   1  -9    5.79    6.10
   5  -1   9   -3.29    5.70
  -5   1 -10   -5.17    9.84
   5  -1  10    3.56    5.27
  -5   1 -11   82.28   18.97
  -5   1 -12   18.24   10.20
  -5   1 -13   28.73   11.61
  -5   1 -14   88.27   20.37
  -5   1 -15   61.40   19.86
  -5   1 -16   -1.88   12.83
  -5   0  14  -19.88   23.16
  -5   0  13    8.40   15.80
  -5   0  12    7.47   12.77
  -5   0  11   22.43   18.61
  -5   0  10   40.30   20.78
  -5   0   9   33.31   17.34
  -5   0   8    9.60   14.99
  -5   0   7   -2.53    7.70
  -5   0   6   12.99   11.03
  -5   0   5   16.29   10.91
  -5   0   4   78.29   18.59
  -5   0   3   -0.88    6.23
  -5   0   2    7.06    7.14
  -5   0   1   82.02   15.05
  -5   0   0  193.64   21.81
  -5   0  -1   11.05    7.04
  -5   0  -2  525.18   33.13
  -5   0  -3  395.57   27.94
  -5   0  -4  131.07   16.22
   5   0   4  112.13   14.61
  -5   0  -5   13.51    6.33
   5   0   5   18.45    7.23
   5   0   6   18.71    6.04
  -5   0  -6   13.09    6.78
   5   0   7    5.84    3.97
  -5   0  -7    8.89    5.84
   5   0   8    1.63    4.04
  -5   0  -8   -3.33    4.90
   5   0   9    7.52    5.45
  -5   0  -9   26.84   11.33
   5   0  10   37.05   10.10
  -5   0 -10   62.72   15.68
   5   0  11  137.19   17.38
  -5   0 -11  125.02   21.39
  -5   0 -12    8.33   10.14
  -5   0 -13   22.81   20.23
  -5   0 -14    5.81   11.11
  -5   0 -15   -2.04   10.73
  -5   0 -16   -4.86   12.92
  -5  -1  14   -6.34   15.64
  -5  -1  13   38.51   25.93
  -5  -1  12   -1.94   13.10
   5   1 -12    9.94   14.45
  -5  -1  11  -25.16   20.39
   5   1 -11   13.47   12.40
  -5  -1  10  -13.71   13.20
   5   1 -10    9.16   13.10
  -5  -1   9   50.70   21.24
   5   1  -9   55.03   16.62
  -5  -1   8   18.43   12.14
   5   1  -8   -4.94    8.55
  -5  -1   7    5.00   11.51
   5   1  -7    2.07    6.76
  -5  -1   6   33.36   15.50
  -5  -1   5    6.29   11.74
  -5  -1   4    9.92    9.85
  -5  -1   3   24.23   10.58
  -5  -1   2   25.53   10.86
  -5  -1   1   32.13   10.61
  -5  -1   0    8.55    6.51
  -5  -1  -1   61.87   13.24
  -5  -1  -2  197.37   20.86
   5   1   2  149.78   17.37
  -5  -1  -3  110.93   15.97
   5   1   3  107.65   14.30
   5   1   4   13.01    6.54
  -5  -1  -4   16.46    6.82
   5   1   5   22.82    8.56
  -5  -1  -5   20.66    6.60
   5   1   6   -3.43    4.76
  -5  -1  -6   -1.29    4.43
  -5  -1  -7  204.96   21.19
   5   1   7  202.13   20.18
   5   1   8   16.31    6.84
  -5  -1  -8    7.33    4.55
   5   1   9    8.53    6.86
  -5  -1  -9   -2.43    5.94
   5   1  10   90.66   15.21
  -5  -1 -10   81.68   14.90
   5   1  11   12.13    5.74
  -5  -1 -11    1.75    8.04
  -5  -1 -12    8.50    8.15
   5   1  12    5.79    6.80
  -5  -1 -13   18.98   11.06
  -5  -1 -14   48.46   16.30
  -5  -1 -15    8.59    8.81
  -5  -2  14    5.26   17.39
   5   2 -14   39.59   19.97
   5   2 -13   13.65   15.31
  -5  -2  13   -6.51   17.51
   5   2 -12    1.65   13.24
  -5  -2  12  -29.97   22.81
   5   2 -11    5.23   13.14
  -5  -2  11   -8.86   14.86
  -5  -2  10   -8.55   12.79
   5   2 -10    2.53   10.06
  -5  -2   9   38.57   24.11
   5   2  -9   17.67   10.42
  -5  -2   8  102.76   28.26
   5   2  -8   49.89   17.79
   5   2  -7   52.78   15.79
  -5  -2   7   34.60   19.12
   5   2  -6   33.65   13.86
  -5  -2   6   12.99   11.76
  -5  -2   5   11.70    8.29
   5   2  -5    1.82    8.17
  -5  -2   4  -16.17   11.53
  -5  -2   3   68.63   14.67
  -5  -2   2   14.46    9.31
  -5  -2   1   13.30    8.35
  -5  -2   0    8.16    5.45
  -5  -2  -1    5.16    5.34
   5   2   1   18.10    6.97
   5   2   2   59.66   12.16
  -5  -2  -2   66.40   11.24
  -5  -2  -3  150.31   17.70
   5   2   3  187.04   20.78
   5   2   4    3.82    4.54
  -5  -2  -4   12.46    5.36
   5   2   5   13.19    5.21
  -5  -2  -5   23.76    7.85
  -5  -2  -6  283.47   22.32
   5   2   6  294.72   25.09
  -5  -2  -7  216.09   20.52
   5   2   7  199.46   21.30
   5   2   8   12.19    7.92
  -5  -2  -8   10.14    5.02
  -5  -2  -9   15.63    6.19
   5   2   9   26.49   11.00
   5   2  10  106.78   17.21
  -5  -2 -10  129.95   19.96
  -5  -2 -11   -5.03    8.32
   5   2  11    1.49    6.59
   5   2  12   39.72   11.10
  -5  -2 -12   39.28   12.46
  -5  -2 -13   57.45   15.98
   5   2  13   46.98   14.10
  -5  -2 -14   -2.92    8.16
   5   3 -14    0.28   15.57
  -5  -3  14   47.75   33.99
   5   3 -13   -1.04   12.93
  -5  -3  13  -15.54   24.15
  -5  -3  12    4.06   15.77
   5   3 -12    2.29   15.53
  -5  -3  11   14.46   20.21
   5   3 -11   -8.93   15.31
  -5  -3  10    7.22   14.19
   5   3 -10   28.20   18.84
  -5  -3   9   10.68   14.81
   5   3  -9   10.99   14.09
  -5  -3   8   27.92   15.86
   5   3  -8   60.79   20.31
  -5  -3   7   -2.11   14.17
   5   3  -7    2.52    8.17
  -5  -3   6   24.12   12.11
   5   3  -6   22.33   11.78
  -5  -3   5   32.87   14.30
   5   3  -5   38.97   13.93
   5   3  -4   62.19   15.20
  -5  -3   4   39.78   16.65
  -5  -3   3   49.21   15.85
   5   3  -3   35.36   12.12
  -5  -3   2   14.14    8.17
  -5  -3   1   -4.59    4.76
  -5  -3   0   -2.06    5.11
   5   3   0   -2.47    4.16
   5   3   1    0.13    5.29
  -5  -3  -1   -0.53    4.80
   5   3   2   21.64    9.01
  -5  -3  -2   13.63    7.40
  -5  -3  -3  104.16   13.66
   5   3   3  145.81   18.64
   5   3   4   21.47    7.99
  -5  -3  -4   41.87    9.04
   5   3   5   33.40    8.67
  -5  -3  -5   25.31    7.86
   5   3   6   30.68    9.94
  -5  -3  -6   35.59    7.83
   5   3   7   11.46    6.22
  -5  -3  -7    5.32    4.12
   5   3   8  135.61   18.41
  -5  -3  -8  157.75   17.93
   5   3   9    9.66   10.00
  -5  -3  -9  -13.17    8.86
   5   3  10   91.52   16.38
  -5  -3 -10  136.88   18.57
   5   3  11  104.80   18.36
  -5  -3 -11  113.60   17.97
   5   3  12   18.45   11.12
  -5  -3 -12    4.34    9.46
  -5  -3 -13   -1.27    8.17
   5   3  13  -15.84   10.72
   5   3  14   16.75   10.56
  -5  -4  13  -24.30   27.05
   5   4 -13    1.75   13.40
  -5  -4  12  -35.57   19.38
   5   4 -12   15.93   21.93
  -5  -4  11  -10.10   18.21
   5   4 -11    4.07   17.15
  -5  -4  10  -13.96   20.33
   5   4 -10    1.97   10.93
  -5  -4   9   25.35   17.13
   5   4  -9   17.07   13.98
  -5  -4   8   37.62   17.68
   5   4  -8   -0.94    7.89
  -5  -4   7    2.87   11.74
   5   4  -7    8.49   10.50
  -5  -4   6   29.50   18.07
   5   4  -6   36.23   15.02
  -5  -4   5   46.16   18.59
   5   4  -5   75.97   18.24
  -5  -4   4    5.05    8.69
   5   4  -4   27.66   12.17
   5   4  -3   13.18    7.18
  -5  -4   3   -0.58    8.10
  -5  -4   2   -2.96    8.34
   5   4  -2   -1.09    5.51
  -5  -4   1    0.82    7.04
   5   4  -1   -4.79    4.69
   5   4   0   16.24    7.89
  -5  -4   0    5.16    5.96
   5   4   1   93.00   14.86
  -5  -4  -1   95.69   15.75
   5   4   2  118.96   17.79
  -5  -4  -2  103.11   14.20
   5   4   3  152.44   19.61
  -5  -4  -3  151.10   16.70
  -5  -4  -4   96.63   12.45
   5   4   4   99.16   15.66
  -5  -4  -5  240.70   18.46
   5   4   5  270.98   25.97
  -5  -4  -6  337.14   21.67
   5   4   6  344.85   28.84
   5   4   7   45.43   12.39
  -5  -4  -7   20.37    6.47
   5   4   8   26.76    8.93
  -5  -4  -8   25.56    6.27
  -5  -4  -9   86.45   13.34
   5   4   9   89.35   16.83
   5   4  10  151.80   21.08
  -5  -4 -10  165.38   19.02
   5   4  11   44.08   13.59
   5   4  12    8.56    9.50
   5   4  13  148.13   23.94
   5   4  14   24.65   12.07
  -5  -5  13    9.09   19.89
   5   5 -13  -42.10   21.53
  -5  -5  12   41.07   28.21
   5   5 -12   -3.03   20.85
  -5  -5  11   11.85   21.20
   5   5 -11    3.43   20.49
   5   5 -10   -1.48   13.51
  -5  -5  10  -18.00   14.31
   5   5  -9   30.91   17.69
  -5  -5   9   14.30   15.27
  -5  -5   8  -12.01   16.34
   5   5  -8    4.51   12.76
  -5  -5   7   41.94   21.37
   5   5  -7   14.28   11.36
   5   5  -6   18.81   11.01
  -5  -5   6    3.06   12.37
  -5  -5   5   43.63   18.40
   5   5  -5   28.07    9.76
  -5  -5   4    4.58   11.99
   5   5  -4    3.81    8.07
  -5  -5   3    4.71    7.89
   5   5  -3    5.50    8.06
   5   5  -2    9.38    7.01
  -5  -5   2    0.36    9.03
   5   5  -2    6.11    6.55
   5   5  -1   96.55   16.87
  -5  -5   1   74.49   15.90
   5   5   0   14.70    6.88
  -5  -5   0    7.31    4.65
  -5  -5  -1   99.10   14.57
   5   5   1   78.06   14.65
   5   5   2   77.22   15.06
  -5  -5  -2   54.10   11.06
   5   5   3  131.06   18.86
  -5  -5  -3  131.54   15.86
   5   5   4  127.48   18.83
  -5  -5  -4  161.03   15.86
  -5  -5  -5   40.88    7.92
   5   5   5   47.71   10.81
  -5  -5  -6   66.69    9.06
   5   5   6   75.87   15.11
   5   5   7    5.68    7.26
   5   5   8  382.60   34.66
   5   5   9  424.32   35.25
   5   5  10   18.50   12.30
   5   5  11  108.68   19.53
   5   5  12   67.40   16.52
   5   5  13   40.40   14.20
   5   5  14   61.74   18.83
   5   5  15  -26.33   17.28
  -5  -6  12  -35.85   26.72
   5   6 -12    0.41   13.96
   5   6 -11  -13.13   17.33
  -5  -6  11   33.74   24.91
  -5  -6  10   33.61   22.49
   5   6 -10   10.11   11.30
  -5  -6   9  -19.45   17.87
   5   6  -9    6.18   10.03
  -5  -6   8   24.55   15.56
   5   6  -8   -0.31   12.25
  -5  -6   7   -0.73   14.34
   5   6  -7   19.14   13.26
  -5  -6   6   73.22   23.14
   5   6  -6   33.25   13.34
   5   6  -5    5.27    6.65
  -5  -6   5   -4.90    9.53
   5   6  -4   28.76   14.29
  -5  -6   4   16.60   14.21
  -5  -6   3   11.18   10.50
   5   6  -3    6.31    9.08
  -5  -6   2   47.89   14.51
   5   6  -2   58.43   14.28
   5   6  -2   57.08   13.69
   5   6  -1   10.34    6.93
  -5  -6   1    8.86    6.21
   5   6  -1   15.24    6.86
   5   6   0   21.06    8.54
  -5  -6   0    8.39    8.12
   5   6   1   -7.97    6.90
  -5  -6  -1    2.84    6.35
  -5  -6  -2  162.09   16.74
   5   6   2  194.51   22.84
   5   6   3   -3.68    7.39
  -5  -6  -3    2.30    6.22
   5   6   4   16.59    8.06
  -5  -6  -4    2.58    5.19
   5   6   5   83.64   16.97
   5   6   6   23.08   10.86
   5   6   7   33.70   12.24
   5   6   8   74.66   15.37
   5   6   9   22.45   11.88
   5   6  10   10.49    8.10
   5   6  11   80.77   18.09
   5   6  12   73.77   18.50
   5   6  13   12.39   11.67
   5   6  14    0.24   13.63
   5   6  15   30.74   15.72
   5   7 -11   13.38   18.19
  -5  -7  11   -3.06   20.37
  -5  -7  10  -10.13   22.81
   5   7 -10   14.19   13.19
  -5  -7   9   -5.16   14.72
   5   7  -9   13.76   13.72
   5   7  -8   29.58   17.37
  -5  -7   8   51.14   27.05
   5   7  -7    7.88   10.42
  -5  -7   7    6.04   13.83
   5   7  -6   -5.35   10.81
  -5  -7   6   -3.47   14.62
  -5  -7   5   11.58   11.91
   5   7  -5   -0.51    9.54
   5   7  -4   -7.57    9.11
  -5  -7   4    7.25    8.93
   5   7  -3   -6.13    8.67
   5   7  -3   10.98   10.28
  -5  -7   3   11.08   12.73
   5   7  -2   26.55   10.77
  -5  -7   2   17.07   12.03
   5   7  -2   12.15    7.33
   5   7  -1   16.38    9.76
   5   7  -1    9.75    5.45
  -5  -7   1   26.84   12.34
   5   7   0    5.21    8.32
  -5  -7   0   -7.24    7.69
   5   7   0   -6.17    6.19
   5   7   1   13.02    7.41
  -5  -7  -1   23.44    7.62
   5   7   2   21.45   10.58
  -5  -7  -2    5.57    6.03
  -5  -7  -3   18.01    6.47
   5   7   3   17.77    7.86
   5   7   4   51.04   13.63
   5   7   5    2.06    9.08
   5   7   6   37.80   12.26
   5   7   7    5.98    9.89
   5   7   8   10.85   11.19
   5   7   9   -1.22    7.40
   5   7  10   25.09   12.98
   5   7  11   37.90   15.61
   5   7  12    3.80   10.59
   5   7  13  -36.75   19.48
   5   7  14   13.45   15.76
   5   7  15   29.43   17.94
  -5  -8  10   -6.16   21.49
   5   8 -10   23.64   17.62
  -5  -8   9    3.50   16.34
   5   8  -9   30.23   18.58
   5   8  -8   20.28   17.65
  -5  -8   8   13.29   14.68
   5   8  -7    9.13   13.42
  -5  -8   7   -0.70   20.10
  -5  -8   6   62.23   26.62
   5   8  -6   36.16   16.92
   5   8  -5    9.48   10.90
  -5  -8   5   36.50   22.25
  -5  -8   4    6.80   10.53
   5   8  -4    3.76    7.62
   5   8  -3   -0.60    8.68
  -5  -8   3   -4.61   12.86
   5   8  -3   10.00    7.77
   5   8  -2   14.53    8.11
  -5  -8   2   22.12   12.33
   5   8  -2    9.27    9.23
   5   8  -1   12.48    8.84
  -5  -8   1   32.19   10.82
   5   8  -1   25.14   12.06
   5   8   0    6.43    7.18
  -5  -8   0    1.02    6.85
   5   8   0    1.70    5.71
   5   8   1   14.73    8.58
  -5  -8  -1   20.99    8.76
   5   8   2    7.87   10.25
  -5  -8  -2   10.04    6.37
   5   8   3   10.66   11.22
   5   8   4   -3.53    8.71
   5   8   5   28.19    8.99
   5   8   6  -10.25   12.29
   5   8   7    2.26    8.76
   5   8   8   79.33   17.96
   5   8   9   -9.52   10.53
   5   8  10   -8.97   11.31
   5   8  11    4.34    9.70
   5   8  12    7.33   13.30
   5   8  13  -14.00   13.04
   5   8  14   19.55   14.78
   5   8  15   -4.44   11.48
   5   8  16   18.77   16.15
  -5  -9   8    7.37   18.84
   5   9  -8   -9.48   16.20
   5   9  -7  -17.66   14.38
  -5  -9   7   -0.61   17.87
  -5  -9   6  -48.97   22.88
   5   9  -6    3.26   14.77
   5   9  -5    1.32   10.18
  -5  -9   5  -22.05   19.66
  -5  -9   4    0.23   15.54
   5   9  -4   -0.69   10.69
   5   9  -3   -5.41    9.45
  -5  -9   3   27.70   13.70
   5   9  -3   24.97   12.86
   5   9  -2   -5.85    9.60
  -5  -9   2    2.26   12.13
   5   9  -2   16.12   11.81
  -5  -9   1   36.82   17.44
   5   9  -1   45.34   13.81
   5   9  -1   56.53   15.24
   5   9   0   -7.18    7.81
  -5  -9   0   -7.52   10.96
   5   9   0    3.87    6.09
   5   9   1   43.13   14.43
   5   9   2    9.91   11.41
   5   9   3    4.65    7.14
   5   9   4    2.48    9.31
   5   9   5   -0.35    7.43
   5   9   6    4.63    9.19
   5   9   7   26.03   13.37
   5   9   8   13.76   12.15
   5   9   9   68.32   20.58
   5   9  10  -10.66   10.85
   5   9  11   49.76   18.30
   5   9  12   -6.58   12.96
   5   9  13  -19.55   15.57
   5   9  14   37.65   20.72
   5   9  15   41.17   22.06
   5  10  -5    0.79   11.86
  -5 -10   4   -1.74   17.78
   5  10  -4  -12.34   11.37
   5  10  -3    8.87   10.96
  -5 -10   3    7.28   16.82
   5  10  -2  -16.43   11.58
   5  10  -1   -7.41    7.56
   5  10   0   -1.12    9.85
   5  10   1   32.03   14.15
   5  10   2   14.42   10.23
   5  10   3    5.74    7.53
   5  10   4   46.49   18.27
   5  10   5   21.88   14.17
   5  10   6   -3.49   10.31
   5  10   7   23.06   16.35
   5  10   8   -7.37    9.75
   5  10   9   20.43   13.29
   5  10  10   25.31   16.52
   5  10  11    1.17   12.18
   5  10  12   37.01   12.89
   5  10  13    5.12   14.54
   5  10  14   56.53   22.83
   5  10  15   17.83   17.28
   5  11  -1   -0.37    9.23
   5  11   0   33.80   13.82
   5  11   1   21.26   14.78
   5  11   2   80.92   19.12
   5  11   3   -3.69   10.35
   5  11   4   12.32   10.26
   5  11   5   -3.31   10.64
   5  11   6   -2.71   11.10
   5  11   7    7.40   15.63
   5  11   8    7.97   13.44
   5  11   9    7.89   11.83
   5  11  10   21.88   15.46
   5  11  11   -1.06   15.72
   5  11  12   -1.98   12.66
   5  11  13    0.11   15.56
   5  11  14   28.24   20.16
   5  11  15    9.85   18.03
   5  12   1   17.11   12.07
   5  12   2   -6.04   10.10
   5  12   3   -6.66   13.09
   5  12   4    7.68   15.80
   5  12   5   46.21   18.39
   5  12   6    0.48   11.84
   5  12   7    2.17   10.95
   5  12   8  -20.57   11.11
   5  12   9    0.21   11.74
   5  12  10    0.55   14.58
   5  12  11   22.70   19.83
   5  12  12   11.85   13.56
   5  12  13   21.92   16.62
   5  12  14   26.61   24.36
   5  13   3   13.81   10.60
   5  13   4   -2.66   14.17
   5  13   5    8.25   10.90
   5  13   6   16.35   13.92
   5  13   7   18.75   13.96
   5  13   8   24.08   17.92
   5  13   9   48.93   20.30
   5  13  10   45.47   23.79
   5  13  11   33.52   17.99
   5  13  12    0.38   13.49
   5  13  13   11.57   23.90
   5  14   5    3.42   14.39
   5  14   6   22.27   17.79
   5  14   7   10.03   18.13
   5  14   8   -2.04   17.77
   5  14   9   35.79   21.06
   5  14  10  -31.15   19.99
   5  14  11   10.76   18.58
  -6  13   6  -28.51   16.97
  -6  13   5    2.07   14.82
  -6  13   4  -43.66   21.02
  -6  12   9   27.16   18.30
  -6  12   8    2.25   13.21
  -6  12   7   23.89   16.38
  -6  12   6   45.03   21.15
  -6  12   5   23.71   15.38
  -6  12   4   27.80   15.53
  -6  12   3   20.05   13.48
  -6  12   2   12.32   10.75
  -6  12   1   26.52   15.71
  -6  12   0   -9.76   17.23
  -6  12  -1   32.65   20.02
  -6  12  -2   16.65   16.14
  -6  12  -3   -2.42   12.03
  -6  12  -4    8.82   17.90
  -6  12  -5   -5.19   15.14
  -6  12  -6    6.92   15.86
  -6  12  -7   -1.53   19.06
  -6  11  10    9.30   15.46
  -6  11   9    0.11   12.04
  -6  11   8    3.97   13.05
  -6  11   7    0.62   11.40
  -6  11   6   -2.69   16.36
  -6  11   5   -3.67    9.04
  -6  11   4   -0.56   11.31
  -6  11   3   31.22   17.01
  -6  11   3   -3.36   12.38
  -6  11   2   -7.35   11.77
  -6  11   2   -1.51    9.84
  -6  11   1   31.81   18.72
  -6  11   1   10.66   12.98
  -6  11   0   26.61   14.97
  -6  11   0    1.89   13.15
  -6  11  -1   -5.07   12.16
  -6  11  -1   -5.34   10.72
  -6  11  -2  -12.53   12.26
  -6  11  -3    9.17   10.17
  -6  11  -4   14.14   14.13
  -6  11  -5    1.38   12.85
  -6  11  -6    0.48   13.20
  -6  11  -7   46.88   20.75
  -6  11  -8    6.45   17.07
  -6  11  -9  -13.70   19.49
  -6  11 -10    7.57   18.31
  -6  10  11  -11.46   12.48
  -6  10  10    3.12   14.31
  -6  10   9   10.66   11.85
  -6  10   8   -5.90   13.38
  -6  10   7    9.65   12.89
  -6  10   6    0.82   14.95
  -6  10   6  -19.48   12.94
  -6  10   5  -14.76   16.29
  -6  10   5    5.63    8.62
  -6  10   4  -15.72   12.22
  -6  10   4    0.95   12.48
  -6  10   3    4.47    8.56
  -6  10   2    3.02    7.89
  -6  10   1   16.80   14.68
  -6  10   0   -5.02    7.95
  -6  10   0   15.90   14.35
  -6  10  -1   22.49   12.93
  -6  10  -1   15.37   13.24
  -6  10  -2    8.13   10.40
  -6  10  -2  -15.64   11.97
  -6  10  -3   16.91    8.74
  -6  10  -4   29.58   13.16
  -6  10  -5    0.52   11.05
  -6  10  -6   15.66   13.08
  -6  10  -7   22.01   15.57
  -6  10  -8    6.53   11.29
  -6  10  -9  -10.54   13.25
  -6  10 -10   17.33   14.89
  -6  10 -11   -4.36   14.95
  -6  10 -12   28.51   16.80
  -6   9  12   -7.67   15.94
  -6   9  11   12.33   12.26
  -6   9  10   23.84   15.04
  -6   9   9  -11.46   10.53
  -6   9   8  -25.15   14.82
  -6   9   8   19.10   16.33
  -6   9   7   -2.67   11.73
  -6   9   6   38.98   16.65
  -6   9   5   13.63    9.59
  -6   9   4    0.87   11.48
  -6   9   3  -12.72   14.29
  -6   9   2    0.17    8.50
  -6   9   1   25.22   11.12
  -6   9   0   54.63   17.65
  -6   9  -1    8.49    7.58
  -6   9  -2   27.69   11.86
  -6   9  -3   44.91   14.24
  -6   9  -4   -7.79    9.21
  -6   9  -5    3.30    7.92
  -6   9  -6   65.49   20.73
  -6   9  -7   27.15   13.11
  -6   9  -8   -4.29   12.58
  -6   9  -9   13.53   15.23
  -6   9 -10    4.83   10.73
  -6   9 -11   47.78   24.05
  -6   9 -12    4.44   19.05
  -6   9 -13  -19.83   21.92
  -6   8  12    9.67   13.34
  -6   8  11    3.14   16.80
  -6   8  10   -6.13   14.40
  -6   8   9   18.66   19.23
  -6   8   8   27.55   15.44
  -6   8   7   -7.17   14.33
  -6   8   6   32.50   14.01
  -6   8   5    0.08   13.20
  -6   8   4   38.19   17.50
  -6   8   3   28.57   12.11
  -6   8   2   -3.27    7.50
  -6   8   1   -3.32    6.52
  -6   8   0    4.69    7.01
  -6   8  -1   -0.69    8.20
  -6   8  -2  145.42   26.27
  -6   8  -3   10.25   12.02
  -6   8  -4    0.08    9.31
  -6   8  -5    8.09    9.69
  -6   8  -6   25.52   11.97
  -6   8  -7   19.46   10.23
  -6   8  -8   -7.25   13.50
  -6   8  -9   83.82   25.14
  -6   8 -10   29.60   20.13
  -6   8 -11    2.51   11.19
  -6   8 -12  -17.36   11.08
  -6   8 -13    9.19   14.55
  -6   8 -14  -38.83   27.22
  -6   7  12    0.43   10.86
  -6   7  11    7.76   11.83
  -6   7  10    2.90   11.74
  -6   7   9   10.68   11.01
  -6   7   8    9.69   14.09
  -6   7   7   -6.48   10.49
  -6   7   6   19.29   10.92
  -6   7   5   68.92   19.40
  -6   7   4   -8.35   10.70
  -6   7   3   46.29   14.85
  -6   7   2   21.40   14.45
  -6   7   1   -7.61    9.82
  -6   7   0    2.07    9.35
  -6   7  -1  -12.11    9.74
  -6   7  -2    4.00    6.52
  -6   7  -3   10.95   11.28
  -6   7  -4   17.67   12.14
  -6   7  -5  152.49   25.42
  -6   7  -6  122.06   22.97
  -6   7  -7    0.96    8.43
  -6   7  -8   10.22   10.39
  -6   7  -9    2.72   12.74
  -6   7 -10    8.03   10.96
  -6   7 -11    2.32   10.22
  -6   7 -12    9.21   15.34
  -6   7 -13   42.71   22.13
  -6   7 -14  -39.89   28.10
  -6   7 -15  -23.48   22.03
  -6   6  12   -0.10   12.84
  -6   6  11   12.30   14.29
  -6   6  10    1.27   14.24
  -6   6   9   24.26   14.85
  -6   6   8    5.12   11.55
  -6   6   7   13.11    9.82
  -6   6   6    0.30   11.02
  -6   6   5   49.32   16.31
  -6   6   4  -14.09   11.43
  -6   6   3    6.20    8.39
  -6   6   2  160.20   24.62
  -6   6   1    0.64    9.34
  -6   6   0  100.05   18.85
  -6   6  -1   87.65   18.20
  -6   6  -2   11.62   10.45
  -6   6  -3   29.54   11.38
  -6   6  -4    6.22    8.04
  -6   6  -5   22.86   11.39
  -6   6  -6   29.21   13.34
  -6   6  -7   -3.69    7.77
  -6   6  -8   -3.06   10.23
  -6   6  -9   45.66   15.33
  -6   6 -10   -5.22    9.39
  -6   6 -11   23.99   14.46
  -6   6 -12   -2.33   10.56
  -6   6 -13    9.50   15.38
  -6   6 -14    8.92   11.74
  -6   6 -15    1.56   12.71
  -6   5  12   12.65   12.73
  -6   5  11  -23.15   18.50
  -6   5  10  -27.57   18.92
  -6   5   9  -12.44   14.04
  -6   5   8   -3.63   11.64
  -6   5   7   -5.18    9.22
  -6   5   6    0.15   10.06
  -6   5   5   24.36    9.73
  -6   5   4    2.27   10.66
  -6   5   3   22.52   11.32
  -6   5   2   -5.76    9.09
  -6   5   1    1.76    8.60
  -6   5   0   13.39   10.64
  -6   5  -1   38.92   13.27
  -6   5  -2  259.65   30.21
  -6   5  -3    8.61    8.55
  -6   5  -4  125.66   20.73
  -6   5  -5   -4.23    7.29
  -6   5  -6   62.14   16.02
  -6   5  -7   -2.07    6.59
  -6   5  -8  130.68   23.39
  -6   5  -9   25.53   12.36
  -6   5 -10   -1.76    8.33
  -6   5 -11   25.25   14.61
  -6   5 -12   -1.20   10.08
  -6   5 -13   11.98   13.46
  -6   5 -14    4.16   13.74
  -6   5 -15   11.60   18.05
  -6   5 -16   32.27   23.46
  -6   4  12    8.76   17.15
  -6   4  11   23.97   14.78
  -6   4  10   -2.94   11.46
  -6   4   9   40.49   18.95
  -6   4   8   19.06   12.69
  -6   4   7   -0.31   10.23
  -6   4   6   28.63   15.68
  -6   4   5   22.03   14.86
  -6   4   4    2.15    8.19
  -6   4   3   68.05   17.00
  -6   4   2   91.58   18.49
  -6   4   1   -4.81    9.93
  -6   4   0   46.51   12.71
  -6   4  -1    3.47    5.95
  -6   4  -2   75.20   17.07
  -6   4  -3   43.52   12.68
  -6   4  -4  615.05   44.53
  -6   4  -5  197.86   25.63
  -6   4  -6   60.70   14.00
  -6   4  -7   10.61    9.07
  -6   4  -8   17.18   10.19
  -6   4  -9   25.24   10.90
  -6   4 -10   16.58    9.96
  -6   4 -11   19.15   14.16
  -6   4 -12   67.78   20.58
  -6   4 -13   -0.66    9.53
  -6   4 -14  -10.63   15.38
  -6   4 -15   33.37   17.54
  -6   4 -16   22.86   20.83
  -6   3  13   20.66   14.24
  -6   3  12   39.02   21.83
  -6   3  11   16.58   17.37
  -6   3  10   11.98   11.83
  -6   3   9    4.65   12.25
  -6   3   8   49.67   18.05
  -6   3   7   15.88   11.19
  -6   3   6   68.13   18.89
  -6   3   5   25.82   12.12
  -6   3   4   13.36    7.06
  -6   3   3   48.29   14.23
  -6   3   2  -20.94   12.50
  -6   3   1   -2.20   10.57
  -6   3   0   98.11   18.13
  -6   3  -1   12.51    7.96
  -6   3  -2    0.82    7.79
  -6   3  -3  335.54   31.93
  -6   3  -4  119.85   19.32
  -6   3  -5    0.06    6.37
  -6   3  -6   -0.48    6.07
  -6   3  -7  253.41   28.34
  -6   3  -8   28.51   10.66
  -6   3  -9    5.42    7.58
  -6   3 -10   76.54   19.51
  -6   3 -11   55.06   17.73
  -6   3 -12   49.24   16.73
  -6   3 -13    9.61    9.36
  -6   3 -14    8.15   11.22
  -6   3 -15    6.85   11.71
  -6   3 -16   11.45   15.37
  -6   2  13  -12.13   18.46
  -6   2  12  -15.04   11.73
  -6   2  11  -19.37   16.21
  -6   2  10   19.21   17.64
  -6   2   9   25.65   13.04
  -6   2   8   -4.35   10.17
  -6   2   7  107.96   22.75
  -6   2   6    4.15    8.94
  -6   2   5   43.47   14.64
  -6   2   4  -14.60    8.48
  -6   2   3   33.15   13.87
  -6   2   2   -2.81    9.52
  -6   2   1   17.95    8.59
  -6   2   0   -4.98    6.62
  -6   2  -1   18.02    9.26
  -6   2  -2    5.28    6.42
  -6   2  -3   -0.63    7.33
  -6   2  -4   14.06    9.21
  -6   2  -5  144.60   20.68
  -6   2  -6   20.21   10.19
  -6   2  -7  185.04   24.38
  -6   2  -8    1.19    5.19
  -6   2  -9   25.12   13.85
  -6   2 -10   36.12   12.87
  -6   2 -11   22.92   12.74
  -6   2 -12   11.28   13.30
  -6   2 -13   32.33   16.10
  -6   2 -14   -5.38   12.58
  -6   2 -15   19.69   14.18
  -6   2 -16  -13.96   10.96
  -6   1  13  -30.33   23.02
  -6   1  12   14.26   16.29
  -6   1  11  -12.31   13.68
  -6   1  10   24.00   11.97
  -6   1   9   31.48   17.01
  -6   1   8   13.39   12.35
  -6   1   7   -0.94   10.38
  -6   1   6   45.72   16.77
  -6   1   5    2.45    7.12
  -6   1   4   58.41   18.32
  -6   1   3   83.50   17.50
  -6   1   2   20.00   10.30
  -6   1   1    0.91    6.71
  -6   1   0   28.56   10.77
  -6   1  -1  130.69   20.81
  -6   1  -2   -4.94    8.44
  -6   1  -3   42.30   11.22
  -6   1  -4   -2.65    4.94
  -6   1  -5   12.19    4.72
  -6   1  -6  104.30   17.16
  -6   1  -7  157.30   20.83
  -6   1  -8    0.81    6.06
  -6   1  -9   -0.06    6.70
  -6   1 -10   86.97   19.60
  -6   1 -11   19.81   10.33
  -6   1 -12   21.69   10.16
  -6   1 -13   27.88   15.92
  -6   1 -14    6.63    9.23
  -6   1 -15    6.53   14.51
  -6   1 -16   -8.97   11.66
  -6   0  13  -21.37   17.58
  -6   0  12   -0.28   13.99
  -6   0  11   33.65   21.41
  -6   0  10   -5.70   16.12
  -6   0   9   15.26   14.77
  -6   0   8   10.83   12.65
  -6   0   7    8.64    9.41
  -6   0   6    1.30    7.93
  -6   0   5   10.39    9.23
  -6   0   4   78.24   20.49
  -6   0   3   76.37   19.07
  -6   0   2    5.50    7.14
  -6   0   1  -10.31   12.06
  -6   0   0   17.22   10.06
  -6   0  -1   11.92    7.25
  -6   0  -2  -11.74    8.56
  -6   0  -3   28.67   11.09
  -6   0  -4  161.62   20.98
  -6   0  -5   30.45   10.11
  -6   0  -6   52.99   12.33
   6   0   6   48.79   11.32
  -6   0  -7    1.83    5.15
   6   0   7   -2.56    5.96
  -6   0  -8   -4.21    6.75
   6   0   8    1.99    5.76
  -6   0  -9   11.19    8.11
   6   0   9   20.46    6.94
   6   0  10  125.59   17.94
  -6   0 -10  124.92   19.87
   6   0  11   -4.44    7.17
  -6   0 -11    1.73    6.83
  -6   0 -12    7.60    7.35
  -6   0 -13   -0.09   11.29
  -6   0 -14    2.31    9.44
  -6   0 -15    3.04    9.73
  -6  -1  13   32.46   16.93
  -6  -1  12   35.43   25.74
  -6  -1  11    4.26   13.66
  -6  -1  10  -10.55   17.48
  -6  -1   9   -6.18   14.84
  -6  -1   8    6.79   16.29
  -6  -1   7   -0.77    9.18
  -6  -1   6  -10.13   13.12
  -6  -1   5    8.30    7.88
  -6  -1   4    3.51    6.68
  -6  -1   3    4.41    7.92
  -6  -1   2   -6.45    8.37
  -6  -1   1   60.98   12.08
  -6  -1   0  184.46   23.06
  -6  -1  -1   79.70   15.85
  -6  -1  -2   75.04   14.35
  -6  -1  -3   17.78   10.75
   6   1   3   -0.93    5.00
  -6  -1  -4  192.12   22.19
   6   1   4  160.59   20.28
  -6  -1  -5   -3.81    7.38
   6   1   5    6.90    3.93
   6   1   6   -0.09    8.18
  -6  -1  -6    6.38    5.20
  -6  -1  -7   44.39    9.77
   6   1   7   26.42    7.95
  -6  -1  -8    3.54    5.54
   6   1   8   15.23    6.73
   6   1   9   86.20   14.25
  -6  -1  -9   71.88   14.84
  -6  -1 -10   32.77   10.53
   6   1  10   36.54   11.32
   6   1  11   54.30   12.60
  -6  -1 -11   49.14   15.57
   6   1  12   14.62    8.16
  -6  -1 -12   15.51   14.01
  -6  -1 -13   13.66    7.86
  -6  -1 -14   22.06   14.16
  -6  -1 -15   -0.49   13.92
  -6  -2  13  -19.97   21.80
  -6  -2  12  -26.77   24.26
  -6  -2  11  -16.29   18.49
  -6  -2  10   -8.83   15.04
  -6  -2   9    9.11   17.09
  -6  -2   8  -10.79   14.46
  -6  -2   7   23.48   18.90
  -6  -2   6   -9.42   10.76
  -6  -2   5   -0.49    8.81
  -6  -2   4    1.15   11.21
  -6  -2   3   19.05    9.70
  -6  -2   2    6.26    6.91
  -6  -2   1   29.02   12.31
  -6  -2   0    6.47    9.30
  -6  -2  -1  -14.91    9.30
  -6  -2  -2   56.70   14.54
   6   2   2   58.65   13.09
  -6  -2  -3   22.96   10.87
   6   2   3   30.13    9.51
   6   2   4  109.79   17.36
  -6  -2  -4   92.40   17.18
  -6  -2  -5  145.92   18.82
   6   2   5  168.06   20.69
   6   2   6   -0.10    4.65
  -6  -2  -6    0.59    5.29
   6   2   7  100.87   15.92
  -6  -2  -7  114.45   16.77
   6   2   8   50.02   11.83
  -6  -2  -8   57.68   12.57
  -6  -2  -9   11.53    6.39
   6   2   9    7.31    6.40
  -6  -2 -10    7.60    7.81
   6   2  10    3.11    7.33
   6   2  11    8.97    7.20
  -6  -2 -11   15.25    9.71
   6   2  12   -8.25    7.86
  -6  -2 -12    4.92    8.55
   6   2  13   28.28   10.12
  -6  -2 -13   -1.98    8.97
  -6  -2 -14    0.33   12.20
  -6  -3  13    0.35   17.60
  -6  -3  12    4.01   19.47
  -6  -3  11   16.10   17.70
  -6  -3  10  -33.51   21.05
  -6  -3   9   17.09   24.47
  -6  -3   8  -14.11   18.92
  -6  -3   7   -0.55   11.65
  -6  -3   6   38.58   19.48
  -6  -3   5    3.90    8.62
  -6  -3   4   33.88   15.27
  -6  -3   3   10.20   10.04
  -6  -3   2   21.91   12.83
  -6  -3   1   11.34   10.05
  -6  -3   0  107.08   18.21
  -6  -3  -1    7.67    5.66
   6   3   1    7.40    5.69
   6   3   2   31.29   10.28
  -6  -3  -2   35.42   11.36
   6   3   3  134.88   19.35
  -6  -3  -3  132.53   18.45
   6   3   4   98.53   16.29
  -6  -3  -4  118.54   17.94
  -6  -3  -5  219.75   21.54
   6   3   5  218.49   24.91
   6   3   6   45.61   12.08
  -6  -3  -6   49.74   11.09
  -6  -3  -7  210.36   21.13
   6   3   7  198.91   23.84
   6   3   8   38.65   12.03
  -6  -3  -8   48.13   10.99
   6   3   9    5.82    6.96
  -6  -3  -9    2.87    5.11
   6   3  10   52.49   13.62
  -6  -3 -10   31.88   12.05
  -6  -3 -11   25.61   11.58
   6   3  11   26.55   10.72
  -6  -3 -12    8.17   10.33
   6   3  12  -11.26    8.77
   6   3  13   10.02    7.07
   6   3  14   18.22   10.70
  -6  -4  12  -50.25   30.35
   6   4 -12   -0.13   14.13
  -6  -4  11   -3.31   21.23
   6   4 -11   -2.77   11.85
  -6  -4  10    4.63   15.83
   6   4 -10   -0.94   11.62
  -6  -4   9   -6.27   21.12
   6   4  -9    3.63   11.94
  -6  -4   8  -25.26   21.19
   6   4  -8    1.85   10.43
  -6  -4   7   18.59   13.54
   6   4  -7   -3.95    8.89
  -6  -4   6   24.41   17.38
   6   4  -6    3.07    7.94
  -6  -4   5   -9.65   10.75
  -6  -4   4   13.39    8.96
  -6  -4   3   26.29   17.85
  -6  -4   2   23.37    6.46
  -6  -4   1   82.26   17.13
  -6  -4   0   42.55   12.62
   6   4   0   49.32   12.87
  -6  -4  -1    7.54    7.16
   6   4   1    6.93    7.10
   6   4   2  113.88   18.38
  -6  -4  -2  106.83   17.75
   6   4   3   36.94   11.79
  -6  -4  -3   25.82    7.69
  -6  -4  -4  212.56   20.60
   6   4   4  175.71   22.66
   6   4   5  145.73   20.99
  -6  -4  -5  147.89   16.80
  -6  -4  -6  593.33   33.30
   6   4   6  568.25   40.39
   6   4   7  123.75   19.67
  -6  -4  -7  121.76   15.43
   6   4   8  155.80   23.06
  -6  -4  -8  186.86   19.59
  -6  -4  -9   -6.56    7.18
   6   4   9   17.10   10.18
   6   4  10  150.82   23.38
   6   4  11   37.09   14.82
   6   4  12   66.32   18.09
   6   4  13   22.43   10.91
   6   4  14    0.51    8.48
   6   5 -12   -4.15   18.83
   6   5 -11    9.98   14.03
  -6  -5  11  -35.40   29.29
   6   5 -10   11.75   16.19
  -6  -5  10   11.38   17.46
   6   5  -9   -9.61   13.99
  -6  -5   9    1.05   16.40
   6   5  -8   -7.70   11.84
  -6  -5   8    9.50   15.21
   6   5  -7   -0.60    8.51
  -6  -5   7   -6.12   13.74
   6   5  -6   33.57   15.56
  -6  -5   6   33.60   21.59
  -6  -5   5    1.40    9.77
   6   5  -5   10.90   10.15
  -6  -5   4   43.02   17.45
  -6  -5   3   46.86   17.61
  -6  -5   2   36.93   13.41
  -6  -5   1    9.79    9.41
   6   5  -1    8.19    5.39
   6   5   0   10.74    7.89
  -6  -5   0   -1.01    7.64
  -6  -5  -1   -3.74    5.37
   6   5   1   -2.16    7.42
   6   5   2   67.77   15.12
  -6  -5  -2   36.26   10.98
   6   5   3    7.93    8.74
  -6  -5  -3   -7.03    6.77
   6   5   4   61.96   14.73
  -6  -5  -4   43.63   10.08
  -6  -5  -5  461.03   28.96
   6   5   5  489.70   38.80
   6   5   6    2.22    5.88
  -6  -5  -6    6.91    5.48
   6   5   7   60.67   15.19
   6   5   8   62.36   15.81
   6   5   9  172.56   24.18
   6   5  10   49.92   15.84
   6   5  11   57.13   15.51
   6   5  12   22.62   14.03
   6   5  13   -3.30    8.16
   6   5  14   -2.76   10.46
   6   5  15   -1.99   10.21
   6   6 -11    3.93   16.75
  -6  -6  11   12.91   19.32
   6   6 -10    2.15   11.58
  -6  -6  10    8.30   24.79
   6   6  -9   16.45   17.46
  -6  -6   9  -22.19   16.70
   6   6  -8   -2.87   14.92
  -6  -6   8   25.81   21.95
   6   6  -7   24.76   16.94
  -6  -6   7   31.87   21.09
   6   6  -6   -1.73    9.05
  -6  -6   6    6.03   11.38
   6   6  -5   29.48   15.19
  -6  -6   5   24.65   16.78
  -6  -6   4   -4.62   10.25
   6   6  -4   -1.66    8.24
  -6  -6   3   30.57   15.77
  -6  -6   2    5.02    9.19
  -6  -6   1    9.42    8.28
   6   6  -1    6.82    7.55
   6   6   0    1.47    6.36
  -6  -6   0   -0.68    6.50
   6   6   1   32.04   13.01
  -6  -6  -1   19.25    8.98
   6   6   2   24.50   10.26
  -6  -6  -2   25.60   10.23
   6   6   3   12.37    9.68
  -6  -6  -3  -16.54    8.68
   6   6   4   39.37   13.31
  -6  -6  -4   42.73   11.60
   6   6   5    4.79    8.20
   6   6   6  -12.05    6.88
   6   6   7    8.91    7.76
   6   6   8   -1.57    9.40
   6   6   9    8.45    8.49
   6   6  10    7.17    9.64
   6   6  11   -5.85   11.04
   6   6  12    8.37   11.45
   6   6  13   12.35   12.15
   6   6  14   17.85   14.71
   6   6  15   11.00   13.39
   6   7 -10    1.45   14.53
  -6  -7  10   13.78   23.32
  -6  -7   9  -33.76   23.99
   6   7  -9    1.47   14.85
  -6  -7   8  -33.89   22.55
   6   7  -8    7.80   11.61
  -6  -7   7  -32.95   21.96
   6   7  -7  -21.94   13.65
   6   7  -6   10.17   17.58
  -6  -7   6   -0.52   15.56
   6   7  -5    3.71   10.14
  -6  -7   5  -11.04   15.89
   6   7  -4  -16.82   13.14
  -6  -7   4  -12.31   15.38
  -6  -7   3   -2.84   11.16
   6   7  -3   -8.21    9.44
  -6  -7   2   -2.27   10.29
   6   7  -2   13.27    9.62
  -6  -7   1    4.28    6.95
   6   7  -1    3.30    7.69
   6   7   0   20.13    9.71
  -6  -7   0   39.82   12.51
   6   7   1    0.53    5.73
  -6  -7  -1   12.55    7.83
   6   7   2   21.89    7.90
  -6  -7  -2   28.24    9.12
   6   7   3   35.55   11.24
  -6  -7  -3   23.41    9.41
   6   7   4   -0.85    7.71
   6   7   5   77.11   18.36
   6   7   6   10.93    6.49
   6   7   7   -6.04    9.82
   6   7   8   18.29   13.23
   6   7   9    9.82    9.24
   6   7  10  -11.81   12.08
   6   7  11    7.48    8.68
   6   7  12   13.80    9.63
   6   7  13  -13.55   12.03
   6   7  14  -21.66   15.88
   6   7  15    1.74   11.95
  -6  -8   8    4.16   20.11
   6   8  -8    8.23   16.23
  -6  -8   7    6.21   21.22
   6   8  -7   40.15   17.87
   6   8  -6    3.73    9.98
  -6  -8   6   -2.42   16.54
   6   8  -5    1.93    9.86
  -6  -8   5   -1.28   17.62
   6   8  -4   16.78   12.52
  -6  -8   4   19.53   16.83
  -6  -8   3  -17.86   14.90
   6   8  -3   17.59   11.37
  -6  -8   2   -2.81    8.74
   6   8  -2   -1.69    8.60
   6   8  -1    5.14    7.12
  -6  -8   1    6.25   10.17
   6   8   0    7.20    6.47
  -6  -8   0   10.68   10.13
   6   8   1    3.65    7.45
  -6  -8  -1    9.50    8.79
   6   8   2   -7.53    8.52
   6   8   3    2.70    6.51
   6   8   4    9.92    9.54
   6   8   5   62.71   16.19
   6   8   6   37.91   13.47
   6   8   7   56.14   16.61
   6   8   8    2.13   11.40
   6   8   9   15.79   12.71
   6   8  10    0.90    9.80
   6   8  11   18.86   14.63
   6   8  12    9.03   12.15
   6   8  13   11.35   12.37
   6   8  14    9.66   15.55
   6   8  15   39.53   17.66
  -6  -9   6   -1.87   17.46
   6   9  -6   -0.97   13.47
   6   9  -5    2.40   11.18
  -6  -9   5    7.50   17.84
   6   9  -4   11.85   13.67
  -6  -9   4   19.55   21.44
  -6  -9   3    1.86   11.20
   6   9  -3   -9.43   10.24
  -6  -9   2   30.12   17.42
   6   9  -2    0.07    7.00
   6   9  -1   20.44   11.40
  -6  -9   1  -12.09    8.64
   6   9   0   11.81    8.52
   6   9   1   -2.31    7.26
   6   9   2   12.16   11.08
   6   9   3   11.00    9.91
   6   9   4    6.66    8.51
   6   9   5   -4.00    8.05
   6   9   6   18.36    8.34
   6   9   7   -4.84   12.47
   6   9   8   26.27   14.78
   6   9   9   13.39   13.43
   6   9  10    0.71   10.99
   6   9  11   -5.92   11.02
   6   9  12  -19.76   14.71
   6   9  13   -2.62   13.09
   6   9  14   -4.33   12.02
   6   9  15   21.55   20.20
   6  10  -1   13.45   12.29
   6  10   0   23.52   13.77
   6  10   1    1.98    7.86
   6  10   2   -1.74    8.01
   6  10   3   40.57   14.21
   6  10   4   26.84   10.05
   6  10   5    5.26    9.57
   6  10   6   12.13   10.13
   6  10   7   15.81   11.32
   6  10   8   12.81    9.95
   6  10   9  -13.95   10.22
   6  10  10   12.64   12.91
   6  10  11    6.93   10.38
   6  10  12   10.11   17.69
   6  10  13  -15.45   16.27
   6  10  14   20.79   14.96
   6  10  15    8.18   17.21
   6  11   0   -0.66    9.25
   6  11   1   23.59   10.82
   6  11   2   27.10   13.23
   6  11   3   15.84   10.20
   6  11   4    7.45   12.96
   6  11   5    7.62    8.97
   6  11   6  -13.30   13.43
   6  11   7   15.79   10.63
   6  11   8   -0.20   11.79
   6  11   9  -10.16   14.16
   6  11  10   11.10   13.12
   6  11  11   -6.63   13.70
   6  11  12   19.25   17.37
   6  11  13   15.34   16.82
   6  11  14    6.58   16.72
   6  12   2   16.64   12.95
   6  12   3   13.43   16.44
   6  12   4    6.83    9.82
   6  12   5  -19.64   12.76
   6  12   6   45.88   19.76
   6  12   7   20.94   16.70
   6  12   8  -21.27   15.49
   6  12   9   -3.42   14.14
   6  12  10   16.22   13.65
   6  12  11  -12.91   15.12
   6  12  12   17.62   19.45
   6  12  13    9.17   13.89
   6  13   4   12.64   13.44
   6  13   5    2.68   13.91
   6  13   6   29.69   17.70
   6  13   7  -34.83   22.28
   6  13   8   41.07   23.13
   6  13   9    4.77   13.82
   6  13  10  -12.41   14.03
   6  13  11  -18.80   16.41
   6  13  12    8.86   15.62
   6  14   8  -28.85   18.44
  -7  12   6    4.49   14.67
  -7  12   5    0.34   14.27
  -7  12   4   22.95   12.18
  -7  12   3  -13.24   17.41
  -7  12   2    1.27   12.76
  -7  12  -1   40.90   24.56
  -7  12  -2    8.11   13.90
  -7  12  -3   28.57   21.27
  -7  12  -4  -12.46   18.68
  -7  12  -5    6.58   17.21
  -7  12  -6   -2.74   17.13
  -7  11   8   16.77   14.98
  -7  11   7   -6.05   12.33
  -7  11   6   -7.98   10.65
  -7  11   5   11.11   17.24
  -7  11   4  -25.86   16.93
  -7  11   3   16.47   18.51
  -7  11   3   16.64   16.45
  -7  11   2    6.85   14.64
  -7  11   2    8.69   11.10
  -7  11   1   12.03   15.33
  -7  11   1    1.87   13.72
  -7  11   0   -4.51   10.65
  -7  11   0   -9.20   16.51
  -7  11  -1    4.61   11.98
  -7  11  -2    4.43   10.41
  -7  11  -3    7.22   13.39
  -7  11  -4    1.15   11.66
  -7  11  -5   40.62   19.68
  -7  11  -6    4.87   15.93
  -7  11  -7   18.85   20.50
  -7  11  -8   14.75   15.85
  -7  11  -9    3.03   17.42
  -7  10  10    0.24   15.21
  -7  10   9  -16.97   14.70
  -7  10   8  -18.68   14.05
  -7  10   7  -16.70   15.47
  -7  10   5  -23.61   18.40
  -7  10   4   22.55   13.92
  -7  10   3   36.95   18.87
  -7  10   2   25.81   14.90
  -7  10   1   11.35   10.54
  -7  10   0    2.91   15.24
  -7  10  -1   13.88   11.42
  -7  10  -2    0.20   12.78
  -7  10  -3    1.24   12.04
  -7  10  -4   35.66   15.37
  -7  10  -5   -0.44   12.09
  -7  10  -6    9.60   11.55
  -7  10  -7   -2.87   10.90
  -7  10  -8    2.39   11.78
  -7  10  -9   -3.74   12.71
  -7  10 -10   -1.68   13.46
  -7  10 -11    1.33   13.90
  -7   9  10  -15.03   18.44
  -7   9   9   28.17   17.45
  -7   9   7   32.70   18.85
  -7   9   6    0.84   12.34
  -7   9   5   23.31   12.65
  -7   9   4  -28.86   16.27
  -7   9   3  -22.68   15.33
  -7   9   2  -14.91   12.97
  -7   9   1   50.21   15.73
  -7   9   0   27.81   12.58
  -7   9  -1   -2.95    7.80
  -7   9  -2   14.65   10.67
  -7   9  -3   12.33   11.15
  -7   9  -4   14.87   10.48
  -7   9  -5   14.55   11.29
  -7   9  -6   -0.52   11.40
  -7   9  -7   78.96   25.46
  -7   9  -8    9.12   14.57
  -7   9  -9   21.20   11.36
  -7   9 -10   38.20   21.45
  -7   9 -11   14.74   16.41
  -7   9 -12   17.61   14.18
  -7   8  11   12.85   16.07
  -7   8   8    3.29   16.21
  -7   8   7    8.52   11.65
  -7   8   6   46.12   17.86
  -7   8   5    2.42   11.21
  -7   8   4   20.70   14.63
  -7   8   3    1.66    8.72
  -7   8   2    2.90   11.88
  -7   8   1   -2.53    7.18
  -7   8   0   13.43    8.56
  -7   8  -1   17.00   11.23
  -7   8  -2   -0.69    9.60
  -7   8  -3    9.37   11.61
  -7   8  -4   19.36   14.29
  -7   8  -5   -6.29    7.25
  -7   8  -6  -10.86   13.76
  -7   8  -7    6.70   13.79
  -7   8  -8   29.08   16.19
  -7   8  -9   26.13   17.29
  -7   8 -10   23.08   16.67
  -7   8 -11    1.28   12.63
  -7   8 -12    2.86   13.32
  -7   8 -13    3.47   18.01
  -7   7   9   37.31   21.21
  -7   7   8   -8.60   11.78
  -7   7   7   20.45   15.17
  -7   7   6   26.29   18.26
  -7   7   5   17.39   12.76
  -7   7   4  -11.82   10.70
  -7   7   3   -2.84    8.28
  -7   7   2   11.84   11.38
  -7   7   1   -9.83   10.68
  -7   7   0    2.18    8.09
  -7   7  -1    2.11    7.21
  -7   7  -2   31.03   12.91
  -7   7  -3    2.36   10.27
  -7   7  -4    5.74    7.26
  -7   7  -5   30.76   16.28
  -7   7  -6   12.72   12.25
  -7   7  -7   15.53   12.66
  -7   7  -8   -7.20    8.59
  -7   7  -9   -2.17   12.09
  -7   7 -10   12.38   15.65
  -7   7 -11   14.13   14.21
  -7   7 -12   -8.68   16.37
  -7   7 -13   15.77   16.06
  -7   7 -14    5.91   17.38
  -7   6  10    3.04   14.07
  -7   6   9   -5.44   14.07
  -7   6   8   30.77   17.81
  -7   6   7   13.44   15.65
  -7   6   6  -16.60   11.76
  -7   6   5    1.40   13.20
  -7   6   4   33.86   14.78
  -7   6   3    5.28    9.45
  -7   6   2    0.67    8.78
  -7   6   1   13.90   11.45
  -7   6   0   27.57   12.01
  -7   6  -1    0.07    9.29
  -7   6  -2   -5.84    7.67
  -7   6  -3    9.20    8.20
  -7   6  -4   44.40   15.23
  -7   6  -5  -17.43   11.42
  -7   6  -6    2.40    6.99
  -7   6  -7    8.55    7.04
  -7   6  -8   24.21   13.05
  -7   6  -9   32.05   13.25
  -7   6 -10    6.09   13.39
  -7   6 -11   23.44   15.68
  -7   6 -12   43.65   19.65
  -7   6 -13  -10.62   15.12
  -7   6 -14    7.25   14.82
  -7   6 -15   -6.80   15.94
  -7   5  11   23.07   22.42
  -7   5  10   26.38   14.22
  -7   5   9    8.69   17.78
  -7   5   8    5.73   16.54
  -7   5   7   21.02   13.15
  -7   5   6   46.39   15.98
  -7   5   5   -8.92   11.05
  -7   5   4    2.11    8.84
  -7   5   3   16.32    9.25
  -7   5   2   71.35   17.00
  -7   5   1   37.29   14.54
  -7   5   0  128.59   21.52
  -7   5  -1    6.07    8.68
  -7   5  -2  147.20   23.67
  -7   5  -3   60.72   15.51
  -7   5  -4    4.94    8.98
  -7   5  -5   16.56    9.69
  -7   5  -6   69.30   18.37
  -7   5  -7  119.10   23.78
  -7   5  -8   25.47   12.12
  -7   5  -9   21.10   11.76
  -7   5 -10   16.89    7.92
  -7   5 -11   14.31   12.53
  -7   5 -12   18.63   14.83
  -7   5 -13   54.22   21.78
  -7   5 -14    2.07   11.15
  -7   5 -15    7.86   18.88
  -7   4  12  -21.69   17.70
  -7   4  11  -17.96   15.00
  -7   4  10   35.18   21.87
  -7   4   9  -12.08   14.51
  -7   4   8    0.67   12.13
  -7   4   7   -3.67   12.70
  -7   4   6   13.53   11.34
  -7   4   5  -15.09   11.74
  -7   4   4  -10.52   12.76
  -7   4   3   71.62   17.21
  -7   4   2   -7.17   10.19
  -7   4   1   -0.94    8.94
  -7   4   0   17.53   10.72
  -7   4  -1  270.71   30.44
  -7   4  -2   18.82   11.18
  -7   4  -3   70.93   17.19
  -7   4  -4   21.17   10.67
  -7   4  -5  362.79   38.62
  -7   4  -6    6.19    8.32
  -7   4  -7   23.62   11.57
  -7   4  -8   -9.49    7.77
  -7   4  -9   14.02   11.49
  -7   4 -10   18.83   13.89
  -7   4 -11    2.53   13.79
  -7   4 -12   10.23   10.06
  -7   4 -13   33.65   19.04
  -7   4 -14   13.12   14.09
  -7   4 -15   17.86   18.33
  -7   3  12  -14.01   17.06
  -7   3  11    8.72   17.85
  -7   3  10    5.77   14.95
  -7   3   9    2.31   11.02
  -7   3   8   -4.32   14.60
  -7   3   7   13.90   11.82
  -7   3   6   -7.66   12.28
  -7   3   5    2.19   10.39
  -7   3   4   32.10   14.83
  -7   3   3   -0.35    8.60
  -7   3   2  -13.15    8.90
  -7   3   1   -5.46   10.68
  -7   3   0  149.14   27.72
  -7   3  -1   33.25   12.41
  -7   3  -2   36.78   11.98
  -7   3  -3   -0.13    5.86
  -7   3  -4  103.00   19.36
  -7   3  -5   10.18    8.18
  -7   3  -6   16.39    8.31
  -7   3  -7   22.84   10.82
  -7   3  -8   99.01   20.24
  -7   3  -9    9.78    7.16
  -7   3 -10    9.31    6.47
  -7   3 -11    3.08    7.70
  -7   3 -12   -3.96    8.95
  -7   3 -13   48.25   15.90
  -7   3 -14  -20.37   15.83
  -7   3 -15   -5.01   12.30
  -7   3 -16  -10.19   16.22
  -7   2  12   -5.09   13.84
  -7   2  11   16.09   15.79
  -7   2  10   16.98   17.41
  -7   2   9    9.77   12.51
  -7   2   8  -26.61   15.98
  -7   2   7   -4.54    9.80
  -7   2   6   -8.97   10.37
  -7   2   5   -3.26    8.68
  -7   2   4   -2.14   10.52
  -7   2   3   29.82   15.03
  -7   2   2   13.03    8.58
  -7   2   1    8.12    8.37
  -7   2   0   23.75   11.11
  -7   2  -1   54.61   15.16
  -7   2  -2    1.68    7.34
  -7   2  -3    5.97   10.05
  -7   2  -4  145.37   22.30
  -7   2  -5    0.06    5.80
  -7   2  -6    3.62    7.89
  -7   2  -7   -2.07    5.51
  -7   2  -8    5.76    7.85
  -7   2  -9   -2.64    5.63
  -7   2 -10    2.10    7.97
  -7   2 -11    5.02    8.12
  -7   2 -12    2.62   10.48
  -7   2 -13   42.94   18.59
  -7   2 -14   24.22   18.99
  -7   2 -15   16.83   16.32
  -7   2 -16   -3.20   13.98
  -7   1  12   19.17   20.11
  -7   1  11  -15.44   17.53
  -7   1  10   -5.16   13.02
  -7   1   9   -3.06   11.42
  -7   1   8   11.69   13.36
  -7   1   7    6.51   11.95
  -7   1   6  -12.30   13.46
  -7   1   5   -1.05   10.16
  -7   1   4   17.65   13.13
  -7   1   3   31.14   14.56
  -7   1   2   18.29    9.48
  -7   1   1   17.99   10.07
  -7   1   0   23.71   12.08
  -7   1  -1    2.91    8.89
  -7   1  -2   70.06   15.09
  -7   1  -3   75.51   16.13
  -7   1  -4   20.28    9.47
  -7   1  -5   13.47    8.33
  -7   1  -6   42.67   13.40
  -7   1  -7   60.33   15.64
  -7   1  -8   17.41    8.95
  -7   1  -9   -9.89    8.66
  -7   1 -10    6.93    6.42
  -7   1 -11   12.06    9.70
  -7   1 -12   -2.82    7.84
  -7   1 -13   -1.83   10.60
  -7   1 -14    1.58   10.48
  -7   1 -15    9.20   10.84
  -7   0  12   26.31   20.14
  -7   0  11    2.80   16.82
  -7   0  10  -36.01   21.15
  -7   0   9    3.24   12.60
  -7   0   8  -18.57   15.73
  -7   0   7   -1.50   15.30
  -7   0   6   -6.00   10.79
  -7   0   5   10.20   12.62
  -7   0   4   31.88   16.52
  -7   0   3   13.67    8.93
  -7   0   2   22.34    8.71
  -7   0   1    1.64    8.06
  -7   0   0    1.03    7.08
  -7   0  -1   10.51   13.05
  -7   0  -2  272.15   29.60
  -7   0  -3    4.40    7.98
  -7   0  -4    1.97    7.03
  -7   0  -5   29.27   11.24
  -7   0  -6   16.88    6.60
  -7   0  -7   25.15   10.72
  -7   0  -8   32.22   12.64
   7   0   9   10.50    9.54
  -7   0  -9    2.44    5.32
  -7   0 -10   37.41   13.34
   7   0  10   29.40    9.85
  -7   0 -11    7.38   10.78
   7   0  11    2.52    5.87
  -7   0 -12   16.39   11.52
  -7   0 -13   10.48   11.39
  -7   0 -14    2.49   14.75
  -7   0 -15    9.69   13.41
  -7  -1  12  -12.82   27.57
  -7  -1  11  -19.40   17.54
  -7  -1  10   10.18   14.39
  -7  -1   9   22.31   18.56
  -7  -1   8   -0.81   11.93
  -7  -1   7   -3.90   10.19
  -7  -1   6    4.19    9.05
  -7  -1   5   -7.50    8.56
  -7  -1   4    4.45    7.72
  -7  -1   3   10.09    9.89
  -7  -1   2   -0.80    8.95
  -7  -1   1  242.28   28.95
  -7  -1   0   18.91   10.71
  -7  -1  -1  101.26   19.58
  -7  -1  -2   -9.64    7.81
  -7  -1  -3   47.20   14.87
  -7  -1  -4   17.29    8.60
  -7  -1  -5   14.96    6.88
   7   1   5   26.57   10.80
  -7  -1  -6   -9.06    6.92
   7   1   6    7.22    6.49
   7   1   7   31.08   11.12
  -7  -1  -7   56.93   13.82
  -7  -1  -8   10.86    7.54
   7   1   8   16.69    8.33
   7   1   9   29.57   10.40
  -7  -1  -9   34.24   12.05
   7   1  10    2.16    6.27
  -7  -1 -10    1.41    6.80
  -7  -1 -11   15.94    9.63
   7   1  11   20.05   10.59
   7   1  12   -2.60    8.66
  -7  -1 -12   -1.49    8.07
  -7  -1 -13   12.69    8.94
  -7  -1 -14    5.34   12.66
  -7  -2  12    7.85   16.87
  -7  -2  11   62.33   30.21
  -7  -2  10   36.25   29.19
  -7  -2   9    1.07   14.00
  -7  -2   8   -2.45   11.51
  -7  -2   7   -6.22   11.21
  -7  -2   6   11.82   10.61
  -7  -2   5   10.80    8.98
  -7  -2   4    3.48    9.81
  -7  -2   3   15.47   13.50
  -7  -2   2   12.03   10.11
  -7  -2   1  138.39   24.22
  -7  -2   0    4.22    8.84
  -7  -2  -1  101.62   25.47
  -7  -2  -2  153.36   21.47
  -7  -2  -3   58.94   14.56
   7   2   3   78.33   16.11
  -7  -2  -4    0.05    7.51
   7   2   4    8.21    6.55
  -7  -2  -5  244.73   27.31
   7   2   5  245.12   27.43
   7   2   6   72.64   14.57
  -7  -2  -6   59.95   13.61
   7   2   7    5.59    6.47
  -7  -2  -7   -1.03    4.65
   7   2   8    3.75    9.30
  -7  -2  -8    2.92    4.96
   7   2   9   -3.27    8.16
  -7  -2  -9   -1.34    5.54
   7   2  10   42.61   12.04
  -7  -2 -10   58.05   13.73
   7   2  11    3.23    6.79
  -7  -2 -11   -2.56    7.83
   7   2  12   31.10   11.38
  -7  -2 -12   21.38   10.85
   7   2  13   11.55    8.36
  -7  -2 -13   -5.43    8.10
  -7  -3  11   30.53   26.20
  -7  -3  10   41.25   24.11
  -7  -3   9    3.71   18.33
  -7  -3   8   24.90   16.79
  -7  -3   7   24.91   18.48
  -7  -3   6   16.58    9.59
  -7  -3   5   28.49   17.10
  -7  -3   4   30.73   11.20
  -7  -3   3   14.02    8.90
  -7  -3   2   31.52   14.49
  -7  -3   1    3.37    7.68
  -7  -3   0   97.34   20.99
  -7  -3  -1    4.54    7.81
  -7  -3  -2  638.76   44.23
   7   3   2  713.53   48.05
  -7  -3  -3   26.32   12.72
   7   3   3   11.10    9.59
  -7  -3  -4  257.13   26.80
   7   3   4  254.01   29.65
   7   3   5    6.26    5.17
  -7  -3  -5   36.33   10.57
  -7  -3  -6   95.56   17.89
   7   3   6   68.71   14.74
   7   3   7   18.85   11.35
  -7  -3  -7   10.77    7.50
   7   3   8    4.82    7.25
  -7  -3  -8   11.27    4.88
   7   3   9   34.97   12.84
  -7  -3  -9   36.19   12.40
  -7  -3 -10   14.57    9.49
   7   3  10   34.96   13.55
   7   3  11    1.26    7.82
  -7  -3 -11    8.30    9.03
   7   3  12   11.28    9.83
   7   3  13   19.76   12.02
   7   3  14    8.60    8.35
  -7  -4  11    0.17   19.10
  -7  -4  10   -4.88   17.54
  -7  -4   9    5.12   19.75
  -7  -4   8    4.97   16.22
  -7  -4   7   -9.75   13.92
  -7  -4   6   -8.42   12.08
  -7  -4   5    8.75   11.60
  -7  -4   4   28.93   14.49
  -7  -4   3   20.66   11.38
  -7  -4   2    4.82   11.51
  -7  -4   1   69.10   16.26
  -7  -4   0   16.29   10.75
  -7  -4  -1   45.63   14.33
   7   4   1   51.78   12.88
   7   4   2   20.36   10.24
  -7  -4  -2   13.96    9.99
  -7  -4  -3  118.28   18.58
   7   4   3  169.10   24.80
   7   4   4   -2.78    6.12
  -7  -4  -4    3.87    7.09
  -7  -4  -5  478.22   34.78
   7   4   5  461.96   39.43
  -7  -4  -6    8.78    8.32
   7   4   6   -5.62    8.51
   7   4   7   22.90   10.34
  -7  -4  -7   18.34    8.37
   7   4   8   95.84   18.10
  -7  -4  -8   82.61   13.75
   7   4   9   27.65    9.65
  -7  -4  -9   13.04    6.24
   7   4  10   -6.56    9.78
   7   4  11   -9.09   10.50
   7   4  12   21.27   10.73
   7   4  13    0.53    8.04
   7   4  14   20.14    8.76
  -7  -5  10   10.98   29.89
  -7  -5   9    0.64   21.35
  -7  -5   8   13.36   15.90
  -7  -5   7   12.54   15.70
  -7  -5   6   -2.27   16.90
  -7  -5   5    3.07   14.82
  -7  -5   4   15.93   17.28
  -7  -5   3   19.10   11.61
  -7  -5   2    4.13    9.07
  -7  -5   1  -19.36   11.16
  -7  -5   0    1.05    7.36
   7   5   0    3.82    7.64
  -7  -5  -1   20.81   11.28
   7   5   1   -4.90    8.19
   7   5   2   -5.52    9.05
  -7  -5  -2   -1.54    6.71
   7   5   3   34.08   12.34
  -7  -5  -3   17.65    7.17
   7   5   4   73.32   17.69
  -7  -5  -4  104.33   16.30
   7   5   5   -3.98    7.77
  -7  -5  -5   -1.67    6.22
  -7  -5  -6    0.37    4.79
   7   5   6    3.29    5.79
   7   5   7   11.43    6.09
   7   5   8   22.62   10.52
   7   5   9   -4.68    7.02
   7   5  10    5.40    9.90
   7   5  11   -2.68    8.62
   7   5  12  -14.37   11.52
   7   5  13    4.94    7.86
   7   5  14   -2.02   10.23
   7   5  15   15.09   11.20
  -7  -6   9   -4.54   19.95
  -7  -6   8   22.90   25.02
  -7  -6   7    8.25   20.40
  -7  -6   6   24.20   19.30
  -7  -6   5   -2.61   11.41
  -7  -6   4    4.49   12.08
  -7  -6   3  -15.64   13.56
  -7  -6   2   -8.66    7.93
  -7  -6   1   52.02   15.28
  -7  -6   0    4.39    8.17
   7   6   0    4.89    9.70
   7   6   1   24.63   10.65
  -7  -6  -1    2.22    6.98
   7   6   2   12.65   10.95
  -7  -6  -2    2.42    6.83
   7   6   3    5.16    7.53
  -7  -6  -3  -16.49   10.54
   7   6   4   -4.47    5.75
  -7  -6  -4    0.09    6.65
   7   6   5   28.22   12.15
   7   6   6   16.10   11.84
   7   6   7   20.34   12.17
   7   6   8   28.41   13.32
   7   6   9   25.37   12.65
   7   6  10   26.15   14.96
   7   6  11    3.51   10.13
   7   6  12   32.90   14.92
   7   6  13   -0.43    9.10
   7   6  14   -7.06   14.44
   7   6  15   11.85   17.00
  -7  -7   8   18.04   20.81
  -7  -7   7   20.71   20.48
  -7  -7   6  -74.71   26.04
  -7  -7   5  -12.65   16.89
  -7  -7   4  -14.30   11.99
  -7  -7   3    7.18   11.79
  -7  -7   2  -25.69   13.34
  -7  -7   1    0.63    7.44
   7   7  -1   -9.84    8.22
  -7  -7   0   33.81   13.11
   7   7   0   27.26   12.76
  -7  -7  -1    4.17    8.88
   7   7   1    5.88    9.05
  -7  -7  -2   46.14   12.30
   7   7   2   52.91   15.62
   7   7   3    9.72    9.80
  -7  -7  -3   -0.18    7.56
   7   7   4   27.99   11.72
   7   7   5   10.49    7.61
   7   7   6   -2.76    7.97
   7   7   7    9.76    8.27
   7   7   8   14.27    7.90
   7   7   9   -3.66    9.93
   7   7  10   16.35    9.90
   7   7  11    8.78   10.29
   7   7  12   18.61   15.37
   7   7  13   24.53   14.31
   7   7  14   10.85   14.48
   7   7  15   -1.93   12.47
  -7  -8   6    3.89   15.84
  -7  -8   5  -10.59   16.61
  -7  -8   4   63.79   24.78
  -7  -8   3  -11.83   17.62
  -7  -8   2   15.90   15.90
   7   8  -1    0.89    9.20
  -7  -8   1   15.21   14.55
   7   8   0  -15.88   12.53
  -7  -8   0    3.56    8.28
   7   8   1   20.30   13.01
   7   8   2   11.29   10.49
   7   8   3    8.78    7.04
   7   8   4   14.57   11.67
   7   8   5    6.28    8.79
   7   8   6   13.53    8.42
   7   8   7   13.92    8.75
   7   8   8   -2.50    8.68
   7   8   9  -11.28   11.44
   7   8  10   -5.56    9.21
   7   8  11   22.93   10.90
   7   8  12   19.49   13.93
   7   8  13   -7.24   14.70
   7   8  14   -6.95   12.07
   7   8  15   44.40   19.88
   7   9  -1    3.59    7.89
   7   9   0   -2.34   10.08
   7   9   1   16.16   12.16
   7   9   2   14.97   13.17
   7   9   3   22.13    7.73
   7   9   4    9.73   12.40
   7   9   5   -2.86   10.24
   7   9   6   -4.69   10.19
   7   9   7   27.54   14.30
   7   9   8    5.55    9.99
   7   9   9  -12.06   14.62
   7   9  10  -11.77   15.68
   7   9  11   35.60   14.77
   7   9  12    6.64   10.88
   7   9  13   -8.94   13.02
   7   9  14    7.22   12.78
   7   9  15  -29.56   22.51
   7  10  -1    7.71    8.35
   7  10   0   -2.62    8.02
   7  10   1    7.66    9.98
   7  10   2   12.28   12.04
   7  10   3  -13.74   10.52
   7  10   4   26.07   13.21
   7  10   5   15.35    8.97
   7  10   6    9.65   10.16
   7  10   7   19.62   15.70
   7  10   8   35.76   15.44
   7  10   9   -3.58   11.60
   7  10  10  -35.45   17.68
   7  10  11    7.53   11.42
   7  10  12    3.52   14.09
   7  10  13   31.87   19.31
   7  10  14   19.85   16.72
   7  11   1   -8.17   11.66
   7  11   2   -5.38   12.24
   7  11   3  -21.26   12.92
   7  11   4   -4.20   10.16
   7  11   5  -14.49   13.18
   7  11   6  -14.99    9.63
   7  11   7  -20.19   15.38
   7  11   8    0.21   12.98
   7  11   9  -12.99   15.78
   7  11  10   37.95   19.98
   7  11  11   20.80   15.34
   7  11  12   23.76   17.28
   7  11  13  -18.49   19.30
   7  11  14  -29.97   21.47
   7  12   3    8.66   11.37
   7  12   4   14.98   14.65
   7  12   5    9.44   10.94
   7  12   6   -6.54   11.18
   7  12   7   17.98   11.99
   7  12   8    9.95   12.39
   7  12   9    0.12   15.11
   7  12  10   16.95   14.72
   7  12  11    6.03   18.31
   7  12  12    3.81   13.99
   7  12  13   -1.97   14.42
   7  13   6   28.24   18.50
   7  13   7    3.10   16.27
   7  13   8  -29.65   22.82
   7  13   9   11.38   15.68
   7  13  10  -31.31   22.22
  -8  11   6   12.05   17.00
  -8  11   5  -18.57   17.42
  -8  11   4    4.70   12.58
  -8  11   1   -1.68   12.54
  -8  11   0   39.66   23.16
  -8  11  -1  -20.18   16.61
  -8  11  -2    3.10   11.39
  -8  11  -3  -13.75   19.12
  -8  11  -4   27.62   18.70
  -8  11  -5   18.76   20.50
  -8  11  -6   -3.74   12.74
  -8  11  -7    3.79   13.89
  -8  11  -8   -1.13   15.90
  -8  10   8   -5.48   16.86
  -8  10   4   22.20   16.58
  -8  10   3   26.20   17.77
  -8  10   2  -24.04   17.34
  -8  10   1   10.22   11.76
  -8  10   0   14.36   11.03
  -8  10  -1   24.95   16.43
  -8  10  -2    9.35   13.18
  -8  10  -3   39.91   19.57
  -8  10  -4    4.87   13.37
  -8  10  -5   26.59   18.82
  -8  10  -6    9.17   13.33
  -8  10  -7    6.55   10.88
  -8  10  -8  -33.90   24.12
  -8  10  -9   -2.90   13.97
  -8  10 -10   21.98   17.29
  -8   9   6   15.33   18.45
  -8   9   5    7.55   14.13
  -8   9   4   29.88   19.10
  -8   9   3  -15.78   13.38
  -8   9   2   15.15   10.53
  -8   9   1    6.36   11.86
  -8   9   0    4.84    8.99
  -8   9  -1   21.27   15.20
  -8   9  -2   15.99   11.96
  -8   9  -3    9.28   13.03
  -8   9  -4    2.62   12.97
  -8   9  -5   38.72   18.68
  -8   9  -6   25.64   15.73
  -8   9  -7    4.24   11.20
  -8   9  -8   -8.61   11.11
  -8   9  -9   -1.40   13.09
  -8   9 -10  -19.97   20.82
  -8   9 -11   -9.38   15.13
  -8   8   7    9.92   16.28
  -8   8   6    4.00   13.09
  -8   8   5   30.49   16.70
  -8   8   4    3.71   11.36
  -8   8   3    9.93   15.85
  -8   8   2   -7.21    9.02
  -8   8   1   14.73   11.37
  -8   8   0   -6.63    9.53
  -8   8  -1   22.15   13.52
  -8   8  -2   -6.33    9.46
  -8   8  -3    7.59   11.18
  -8   8  -4   10.19   10.70
  -8   8  -5   -4.01   11.72
  -8   8  -6    9.51   10.29
  -8   8  -7    1.39    8.36
  -8   8  -8    7.79   12.17
  -8   8  -9    4.46   10.62
  -8   8 -10   10.91   14.22
  -8   8 -11   14.93   19.75
  -8   8 -12    8.59   16.69
  -8   8 -13   -2.53   19.55
  -8   7   8   29.13   16.76
  -8   7   7   10.37   12.39
  -8   7   6    1.84   11.82
  -8   7   5   18.65   17.53
  -8   7   4   -1.42   10.56
  -8   7   3   -5.78    9.68
  -8   7   2  -11.20   15.83
  -8   7   1   -8.34   12.76
  -8   7   0   -9.45   12.73
  -8   7  -1   22.64    8.95
  -8   7  -2   28.45   13.31
  -8   7  -3   -1.44    9.67
  -8   7  -4   -7.17   12.19
  -8   7  -5    8.66   10.95
  -8   7  -6   13.46    9.54
  -8   7  -7    5.42    9.84
  -8   7  -8   29.26   16.48
  -8   7  -9   -0.66   12.47
  -8   7 -10   11.90   14.45
  -8   7 -11   22.99   16.63
  -8   7 -12   16.03   12.79
  -8   7 -13  -18.67   16.69
  -8   6   9    0.57   15.06
  -8   6   8   21.81   14.99
  -8   6   7    5.04   15.81
  -8   6   6  -13.23   15.96
  -8   6   5  -22.48   17.76
  -8   6   4   18.93   10.10
  -8   6   3   -1.22   11.81
  -8   6   2    9.39   11.59
  -8   6   1   11.48   11.56
  -8   6   0   23.66   11.17
  -8   6  -1    4.48    7.26
  -8   6  -2   15.25   12.51
  -8   6  -3   12.95    8.58
  -8   6  -4   -9.51    9.34
  -8   6  -5   71.41   20.87
  -8   6  -6   23.19   13.73
  -8   6  -7   10.85    8.52
  -8   6  -8   14.05   12.97
  -8   6  -9   41.97   19.64
  -8   6 -10    2.71    8.99
  -8   6 -11   -9.33   13.68
  -8   6 -12   22.84   12.45
  -8   6 -13   19.37   15.73
  -8   6 -14   17.20   12.79
  -8   5  10   30.95   18.38
  -8   5   9  -19.97   21.67
  -8   5   8  -17.86   12.18
  -8   5   7   33.70   19.23
  -8   5   6   -0.67   14.76
  -8   5   5   13.33   16.60
  -8   5   4   -3.39   13.54
  -8   5   3   45.51   17.56
  -8   5   2   17.29   11.07
  -8   5   1   39.79   15.06
  -8   5   0   32.49   15.37
  -8   5  -1   51.76   15.39
  -8   5  -2   -2.55    7.92
  -8   5  -3   12.47   10.83
  -8   5  -4   10.28   10.69
  -8   5  -5   19.15   11.80
  -8   5  -6   17.39   13.68
  -8   5  -7   12.83    7.35
  -8   5  -8   69.36   19.10
  -8   5  -9    5.51   11.27
  -8   5 -10   -4.06   12.50
  -8   5 -11   16.67   11.28
  -8   5 -12   10.80   14.59
  -8   5 -13   -4.01   13.35
  -8   5 -14    8.83   12.30
  -8   5 -15   16.54   21.44
  -8   4  10   16.93   15.75
  -8   4   9   -4.99   18.39
  -8   4   8  -26.55   17.21
  -8   4   7  -39.53   20.49
  -8   4   6   -3.23   15.52
  -8   4   5   10.11   10.34
  -8   4   4   35.50   13.26
  -8   4   3   -8.57   10.06
  -8   4   2   27.30   15.31
  -8   4   1   47.95   16.85
  -8   4   0   -1.47    9.47
  -8   4  -1   32.63   12.44
  -8   4  -2   12.02    8.42
  -8   4  -3   15.72   11.98
  -8   4  -4   95.95   20.94
  -8   4  -5   -3.52    8.39
  -8   4  -6    9.55   11.35
  -8   4  -7   23.50   12.24
  -8   4  -8    8.30   17.23
  -8   4  -9    5.65    7.01
  -8   4 -10    7.44   10.46
  -8   4 -11  -15.05   11.82
  -8   4 -12   12.43   10.95
  -8   4 -13  -12.68   12.55
  -8   4 -14   -4.31   15.05
  -8   4 -15   -6.38   15.80
  -8   3  11    2.97   19.74
  -8   3  10   32.61   18.60
  -8   3   9   -2.38   13.42
  -8   3   8    9.19   15.65
  -8   3   7    3.30   12.54
  -8   3   6   10.21   14.38
  -8   3   5   13.58   13.53
  -8   3   4    7.19    9.42
  -8   3   3   23.11   16.33
  -8   3   2    9.77   12.02
  -8   3   1   15.80   12.69
  -8   3   0   41.29   15.25
  -8   3  -1   10.40   13.11
  -8   3  -2   26.97   13.19
  -8   3  -3    4.78    8.33
  -8   3  -4    3.17    7.92
  -8   3  -5   22.87    9.81
  -8   3  -6  -10.64    9.36
  -8   3  -7   95.62   19.39
  -8   3  -8   41.61   16.19
  -8   3  -9   28.40   11.38
  -8   3 -10  -10.38   10.66
  -8   3 -11   21.74   12.82
  -8   3 -12   41.11   15.42
  -8   3 -13   -1.46   11.48
  -8   3 -14   13.01   12.77
  -8   3 -15    6.72   17.34
  -8   2  11  -24.95   24.49
  -8   2  10   39.09   22.53
  -8   2   9   28.98   18.77
  -8   2   8    6.73   12.21
  -8   2   7   35.83   21.06
  -8   2   6    0.59   10.11
  -8   2   5   -2.10   12.80
  -8   2   4   -9.06   11.55
  -8   2   3   36.27   16.56
  -8   2   2  -19.03   10.60
  -8   2   1   61.68   17.38
  -8   2   0   15.19    9.48
  -8   2  -1   22.50   12.85
  -8   2  -2  -11.69    9.03
  -8   2  -3   21.92   13.82
  -8   2  -4   15.51   10.83
  -8   2  -5    6.62    6.79
  -8   2  -6   30.90   12.31
  -8   2  -7   60.33   15.47
  -8   2  -8   30.91   10.74
  -8   2  -9    0.73    8.77
  -8   2 -10  -19.60   11.22
  -8   2 -11    4.50    9.89
  -8   2 -12  -18.90   14.58
  -8   2 -13    8.18   10.99
  -8   2 -14   40.72   24.26
  -8   2 -15    6.53   12.61
  -8   1  11   -6.68   16.16
  -8   1  10  -14.56   15.69
  -8   1   9  -12.65   21.61
  -8   1   8   -3.41   12.63
  -8   1   7  -11.48   11.96
  -8   1   6   -8.25   12.33
  -8   1   5   20.07   15.07
  -8   1   4   31.18   17.34
  -8   1   3    9.24    8.87
  -8   1   2   10.52    8.19
  -8   1   1   -5.59    8.92
  -8   1   0    6.11    8.40
  -8   1  -1    4.71   10.67
  -8   1  -2    9.27   11.41
  -8   1  -3   24.96   10.29
  -8   1  -4   -8.60    6.76
  -8   1  -5   47.11   15.39
  -8   1  -6   -3.72    9.50
  -8   1  -7   24.27   10.31
  -8   1  -8   -6.54    8.47
  -8   1  -9   28.60   12.62
  -8   1 -10   65.69   17.73
  -8   1 -11   -7.28    7.20
  -8   1 -12   37.64   14.40
  -8   1 -13   14.26   14.51
  -8   1 -14   50.72   20.02
  -8   0  11   -2.43   22.88
  -8   0  10    4.26   15.04
  -8   0   9  -23.88   18.18
  -8   0   8   16.43   16.84
  -8   0   7   38.44   21.43
  -8   0   6   22.19   12.95
  -8   0   5    8.89   14.86
  -8   0   4    0.09    9.56
  -8   0   3   47.09   14.97
  -8   0   2   10.15   10.21
  -8   0   1    2.20   10.26
  -8   0   0  -14.64   10.59
  -8   0  -1   12.11   11.04
  -8   0  -2   -4.58   10.97
  -8   0  -3   17.86   10.54
  -8   0  -4   12.84    9.58
  -8   0  -5   54.45   13.90
  -8   0  -6   25.02   12.01
  -8   0  -7   77.77   16.99
  -8   0  -8    0.07    6.18
  -8   0  -9   -9.39    9.19
  -8   0 -10    5.44    7.15
  -8   0 -11   35.15   13.67
  -8   0 -12   13.46   11.87
  -8   0 -13  -14.65   10.34
  -8   0 -14   -9.57   13.09
  -8  -1  11    7.82   20.37
  -8  -1  10  -11.92   20.59
  -8  -1   9    0.14   15.10
  -8  -1   8   -0.89   14.88
  -8  -1   7   -1.40   12.87
  -8  -1   6   11.99   13.66
  -8  -1   5   15.33   12.08
  -8  -1   4   56.75   19.22
  -8  -1   3   -7.78   10.39
  -8  -1   2   12.96    8.51
  -8  -1   1  100.11   23.55
  -8  -1   0   36.81   12.97
  -8  -1  -1   28.53   14.95
  -8  -1  -2   -0.13    7.81
  -8  -1  -3   27.81   11.26
  -8  -1  -4   35.36   12.83
  -8  -1  -5   -7.85    8.28
  -8  -1  -6   65.27   15.22
  -8  -1  -7    8.35    9.76
  -8  -1  -8    4.57    6.22
   8   1   8    4.72    5.49
  -8  -1  -9   18.59    9.31
   8   1   9    8.18    6.14
  -8  -1 -10   76.26   18.00
   8   1  10   55.81   14.85
  -8  -1 -11    5.09    9.24
   8   1  11   14.87    9.52
  -8  -1 -12  -11.44   10.53
   8   1  12   15.34   11.45
  -8  -1 -13   -5.47   11.19
  -8  -2  11  -11.25   18.51
  -8  -2  10   32.48   24.03
  -8  -2   9    1.60   17.79
  -8  -2   8    7.88   21.75
  -8  -2   7    2.19   12.14
  -8  -2   6  -12.34   16.58
  -8  -2   5   15.30   15.92
  -8  -2   4   36.23   15.18
  -8  -2   3   28.21   13.83
  -8  -2   2   90.90   19.07
  -8  -2   1   82.88   19.95
  -8  -2   0  101.44   23.05
  -8  -2  -1   15.38   13.11
  -8  -2  -2   22.97   12.64
  -8  -2  -3  -11.61    8.47
  -8  -2  -4   -2.45    9.47
  -8  -2  -5   27.38   11.17
   8   2   5   19.96   11.51
  -8  -2  -6  -11.89    7.54
   8   2   6   -0.89    6.84
  -8  -2  -7   17.50    9.61
   8   2   7   43.05   14.35
  -8  -2  -8   10.12    6.13
   8   2   8   14.61    9.85
   8   2   9   61.35   15.63
  -8  -2  -9   59.11   14.37
   8   2  10   -1.41    7.02
  -8  -2 -10    4.76    8.64
   8   2  11   -2.01    8.46
  -8  -2 -11   25.94   13.16
   8   2  12   -7.61   10.95
  -8  -2 -12   10.99   11.24
   8   2  13   10.21    7.81
  -8  -3  10   30.78   24.75
  -8  -3   9   14.96   15.18
  -8  -3   8   -9.25   17.47
  -8  -3   7    2.55   12.91
  -8  -3   6   11.99   15.60
  -8  -3   5   12.65   14.77
  -8  -3   4  -14.86   13.60
  -8  -3   3    1.95   10.60
  -8  -3   2   18.30   13.19
  -8  -3   1   94.88   23.25
  -8  -3   0   71.49   17.76
  -8  -3  -1  124.40   22.64
  -8  -3  -2   75.88   18.30
  -8  -3  -3   31.61   10.08
  -8  -3  -4   -3.76    8.26
   8   3   4  -23.34   12.38
  -8  -3  -5  -10.07    8.00
   8   3   5    7.34    8.97
   8   3   6    5.19    5.84
  -8  -3  -6    6.90    6.18
   8   3   7    3.06    7.60
  -8  -3  -7   17.28    7.79
   8   3   8   15.41    8.93
  -8  -3  -8    4.51    7.74
   8   3   9    5.66    8.00
  -8  -3  -9    7.65   10.74
   8   3  10   21.24   11.58
  -8  -3 -10   21.26    9.23
   8   3  11    5.81    9.76
   8   3  12   28.95   13.22
   8   3  13   22.56   13.71
  -8  -4   9    8.98   16.94
  -8  -4   8  -24.03   22.28
  -8  -4   7    7.64   13.85
  -8  -4   6    5.81   15.58
  -8  -4   5    0.22   12.35
  -8  -4   4   -0.39   11.37
  -8  -4   3  -54.79   17.48
  -8  -4   2    9.24    9.73
  -8  -4   1    2.54   10.54
  -8  -4   0   14.18   11.07
  -8  -4  -1    9.82    8.70
  -8  -4  -2    6.76    8.80
   8   4   2    1.76    8.92
  -8  -4  -3   10.52    9.97
   8   4   3    0.15    9.73
  -8  -4  -4   39.80   12.95
   8   4   4   19.35   13.37
   8   4   5   -5.86    7.40
  -8  -4  -5   11.55    8.10
   8   4   6    9.02    9.76
  -8  -4  -6    8.87    8.89
   8   4   7    2.45    7.05
  -8  -4  -7    1.07    6.56
   8   4   8   11.76   10.65
  -8  -4  -8   10.24    6.37
   8   4   9   13.09   10.51
   8   4  10    4.88   14.82
   8   4  11   -8.62   10.33
   8   4  12   -5.20    9.52
   8   4  13  -18.83   13.00
   8   4  14   -3.63   11.15
  -8  -5   8   49.82   24.81
  -8  -5   7   -9.62   17.21
  -8  -5   6  -20.67   17.77
  -8  -5   5   49.40   21.69
  -8  -5   4  -13.20   14.41
  -8  -5   3  -27.06   14.02
  -8  -5   2   10.02    9.21
  -8  -5   1    2.42   10.15
  -8  -5   0  -12.64    9.39
  -8  -5  -1   -4.06   10.65
  -8  -5  -2    1.38    9.43
   8   5   2   20.75    9.18
  -8  -5  -3   12.12   10.69
   8   5   3    0.87    6.93
   8   5   4  -11.36    7.62
  -8  -5  -4  -17.81   12.22
   8   5   5  -16.17   11.23
  -8  -5  -5    0.32    9.49
   8   5   6   22.66   10.93
  -8  -5  -6   18.32    9.61
   8   5   7   21.78   14.39
   8   5   8   42.52   15.30
   8   5   9   14.67   10.02
   8   5  10   -0.16    9.46
   8   5  11   10.51    9.25
   8   5  12   -2.30    9.23
   8   5  13   29.57   14.94
   8   5  14   18.48   13.80
  -8  -6   7    7.65   15.82
  -8  -6   6   12.46   18.26
  -8  -6   5  -12.59   14.86
  -8  -6   4   -6.65   12.35
  -8  -6   3   -1.23   10.60
  -8  -6   2   14.01   10.55
  -8  -6   1    7.50    9.25
  -8  -6   0   24.87   10.95
   8   6   1   22.16   12.71
  -8  -6  -1    5.12    8.16
  -8  -6  -2    6.03    7.23
   8   6   2    4.97    7.71
   8   6   3  -10.88    8.72
  -8  -6  -3    1.72    8.64
   8   6   4   -0.57    8.72
  -8  -6  -4   -0.27    9.45
   8   6   5   17.06    7.73
   8   6   6   11.75   13.52
   8   6   7   11.76   10.82
   8   6   8   16.82   12.53
   8   6   9   18.09   13.84
   8   6  10   -4.38    9.83
   8   6  11   11.35   11.21
   8   6  12    5.74    9.20
   8   6  13   -0.09   10.50
   8   6  14   37.70   20.58
  -8  -7   5   -5.97   14.18
  -8  -7   4  -11.13   14.17
  -8  -7   3   -1.31   11.80
  -8  -7   2   -7.95   14.04
  -8  -7   1   -1.02    9.74
  -8  -7   0   -6.22    9.33
   8   7   0   -6.42    9.49
  -8  -7  -1    3.77    8.19
   8   7   1   29.56   14.03
   8   7   2    0.77   11.45
  -8  -7  -2    9.80   11.84
   8   7   3   10.32    8.43
   8   7   4   22.76   13.17
   8   7   5   -4.84   10.34
   8   7   6    1.95    7.16
   8   7   7    5.36    9.05
   8   7   8   20.59   12.46
   8   7   9   42.62   17.40
   8   7  10    2.41    9.62
   8   7  11   13.25   14.04
   8   7  12   -5.71   10.05
   8   7  13   -8.31   13.48
   8   7  14  -14.00   16.38
   8   8   0   -1.00   10.76
   8   8   1   19.06   13.53
   8   8   2  -12.28   11.63
   8   8   3   -7.50    9.96
   8   8   4   15.58   11.55
   8   8   5   28.48   13.11
   8   8   6   26.35   15.13
   8   8   7   30.19   14.36
   8   8   8    7.51    8.54
   8   8   9   -2.68   13.51
   8   8  10   27.44   16.57
   8   8  11    1.76   11.32
   8   8  12   -0.71   11.04
   8   8  13    0.53   10.99
   8   8  14   43.32   17.81
   8   9   0    1.22   11.33
   8   9   1    7.51   12.35
   8   9   2    3.66   11.22
   8   9   3   -2.90    8.99
   8   9   4   32.68   16.58
   8   9   5    1.60   11.29
   8   9   6   35.70   13.37
   8   9   7    4.65   14.19
   8   9   8   48.36   18.90
   8   9   9    0.20   12.73
   8   9  10   17.78   17.90
   8   9  11   10.25   10.46
   8   9  12   14.13   15.62
   8   9  13    9.23   13.44
   8   9  14   15.79   16.50
   8  10   0    0.58   11.14
   8  10   1   26.42   15.80
   8  10   2   28.00   16.50
   8  10   3   14.84   11.28
   8  10   4    3.99   12.56
   8  10   5    7.50    8.71
   8  10   6   11.48   11.67
   8  10   7   34.17   18.56
   8  10   8   46.79   20.36
   8  10   9   22.60   16.73
   8  10  10  -11.97   14.19
   8  10  11   -6.08   13.35
   8  10  12   19.97   11.35
   8  10  13   52.97   22.40
   8  11   2  -11.56   15.10
   8  11   3   -4.08   12.07
   8  11   4    4.34   11.48
   8  11   5   -5.02   11.90
   8  11   6   -8.51   12.54
   8  11   7    6.63   11.26
   8  11   8   47.87   20.86
   8  11   9   -3.30   10.77
   8  11  10   39.58   18.11
   8  11  11   12.90   16.54
   8  11  12  -31.54   20.73
   8  11  13    7.18   12.92
   8  12   5  -10.03   13.37
   8  12   6   -3.23   13.54
   8  12   7    2.45   11.73
   8  12   8    1.67   12.11
   8  12   9   12.71   15.38
   8  12  10   12.52   20.94
   8  12  11    1.03   14.91
  -9  11  -3   19.32   17.30
  -9  11  -4   13.44   20.59
  -9  10   2   -9.71   14.28
  -9  10   1  -10.77   16.51
  -9  10   0   26.36   19.72
  -9  10  -1   42.31   23.39
  -9  10  -2    5.24   10.91
  -9  10  -3   30.93   19.00
  -9  10  -4   31.46   18.37
  -9  10  -5   22.19   17.55
  -9  10  -6   19.80   19.46
  -9  10  -7    8.47   16.49
  -9  10  -8  -15.74   20.83
  -9   9   4    7.30   15.44
  -9   9   3  -34.40   17.57
  -9   9   2  -15.10   12.58
  -9   9   1   32.22   18.32
  -9   9   0  -14.45   14.69
  -9   9  -1   19.23   13.37
  -9   9  -2   10.12   10.01
  -9   9  -3  -10.33   12.79
  -9   9  -4   -8.31   15.21
  -9   9  -5   -9.63   14.99
  -9   9  -6    3.93   10.68
  -9   9  -7    7.48   16.22
  -9   9  -8    2.28   13.99
  -9   9  -9   -5.83   11.90
  -9   9 -10   11.24   18.57
  -9   8   6    6.71   17.52
  -9   8   5  -10.16   18.37
  -9   8   4   44.39   18.88
  -9   8   3   28.70   17.59
  -9   8   2  -13.13   14.41
  -9   8   1   -8.66   10.44
  -9   8   0   29.24   18.32
  -9   8  -1    8.07   10.76
  -9   8  -2   -9.92    9.46
  -9   8  -3   -3.28   11.18
  -9   8  -4  -20.73   14.99
  -9   8  -5    7.12   13.83
  -9   8  -6   14.25   14.37
  -9   8  -7   18.75   13.74
  -9   8  -8    5.15   16.53
  -9   8  -9    6.59   12.64
  -9   8 -10   -7.25   16.46
  -9   8 -11   -7.64   17.90
  -9   7   7  -17.45   21.39
  -9   7   6    6.31   12.34
  -9   7   5   22.40   15.23
  -9   7   4  -18.32   16.88
  -9   7   3    7.54   13.80
  -9   7   2   17.50   12.07
  -9   7   1   14.40   13.58
  -9   7   0    9.02   12.64
  -9   7  -1    0.88   10.67
  -9   7  -2   27.52   13.54
  -9   7  -3   48.92   20.60
  -9   7  -4   25.16   12.01
  -9   7  -5   -2.70   10.98
  -9   7  -6    4.68   10.23
  -9   7  -7    1.31   11.16
  -9   7  -8   16.67   13.44
  -9   7  -9   46.47   19.76
  -9   7 -10  -10.07   12.64
  -9   7 -11  -21.94   18.02
  -9   7 -12   -0.56   13.73
  -9   6   8   40.25   23.22
  -9   6   7  -28.13   21.04
  -9   6   6    5.99   14.56
  -9   6   5   56.80   19.31
  -9   6   4    5.54   13.84
  -9   6   3   13.92   12.05
  -9   6   2   34.18   17.41
  -9   6   1   12.93   10.31
  -9   6   0    0.09   12.25
  -9   6  -1  -11.34   13.25
  -9   6  -2    9.03    9.55
  -9   6  -3  -12.39   12.24
  -9   6  -4   14.46   14.28
  -9   6  -5    9.33    9.30
  -9   6  -6   -4.16   10.91
  -9   6  -7    1.56   10.63
  -9   6  -8    3.66   13.48
  -9   6  -9  -10.73   13.00
  -9   6 -10  -13.46   18.89
  -9   6 -11  -10.66   13.54
  -9   6 -12    4.58   14.32
  -9   6 -13    5.71   12.94
  -9   5   9   20.02   21.20
  -9   5   8    0.97   15.30
  -9   5   7   31.24   19.87
  -9   5   6  -21.42   16.98
  -9   5   5   -1.14   12.11
  -9   5   4    2.39   15.54
  -9   5   3   -7.99    9.86
  -9   5   2   15.21   13.52
  -9   5   1    1.20   11.70
  -9   5   0    4.55    9.34
  -9   5  -1   11.23   13.33
  -9   5  -2    3.18   10.49
  -9   5  -3    5.03   10.78
  -9   5  -4    5.95    8.18
  -9   5  -5   -4.08    8.99
  -9   5  -6   21.39   16.16
  -9   5  -7    8.36   10.92
  -9   5  -8   10.24   10.41
  -9   5  -9   26.31   13.85
  -9   5 -10  -13.58   14.85
  -9   5 -11   -3.81   14.95
  -9   5 -12    7.27   13.91
  -9   5 -13   -5.02   13.55
  -9   5 -14   12.87   13.85
  -9   4   9   -4.39   17.87
  -9   4   8    1.10   17.14
  -9   4   7  -14.67   18.98
  -9   4   6   23.49   17.42
  -9   4   5   26.01   18.25
  -9   4   4  -10.85   11.66
  -9   4   3  -33.93   19.98
  -9   4   2   19.50   11.09
  -9   4   1    5.12   12.27
  -9   4   0   38.72   15.89
  -9   4  -1   12.26    8.89
  -9   4  -2   11.78    9.64
  -9   4  -3   12.87   12.62
  -9   4  -4    2.61    8.46
  -9   4  -5   41.88   16.28
  -9   4  -6    2.15    9.38
  -9   4  -7   -4.68   10.97
  -9   4  -8   18.96    9.65
  -9   4  -9    4.64   11.35
  -9   4 -10   -3.98   11.02
  -9   4 -11   39.92   19.77
  -9   4 -12   -2.69   10.63
  -9   4 -13   31.55   20.82
  -9   4 -14   17.02   16.79
  -9   3   9  -12.88   19.20
  -9   3   8   23.70   17.79
  -9   3   7  -10.26   17.26
  -9   3   6   19.62   15.02
  -9   3   5    1.03   10.75
  -9   3   4  -23.09   19.19
  -9   3   3  -13.74   17.57
  -9   3   2   -1.71   10.29
  -9   3   1   -1.58   10.15
  -9   3   0    3.48    9.92
  -9   3  -1   16.51   10.58
  -9   3  -2   -9.75    9.90
  -9   3  -3    3.28   10.96
  -9   3  -4   18.14   12.55
  -9   3  -5   52.09   16.25
  -9   3  -6   -3.23    7.81
  -9   3  -7   -0.92    9.27
  -9   3  -8  100.41   23.43
  -9   3  -9  -14.11   12.26
  -9   3 -10    8.26   10.47
  -9   3 -11   42.73   18.38
  -9   3 -12   10.85   15.21
  -9   3 -13    5.19   11.53
  -9   3 -14   28.55   21.03
  -9   2  10    5.10   15.71
  -9   2   9    9.84   20.58
  -9   2   8   -0.77   13.88
  -9   2   7   66.37   25.22
  -9   2   6  -15.37   17.22
  -9   2   5  -12.05   14.44
  -9   2   4   -7.41   12.73
  -9   2   3   -2.03   11.90
  -9   2   2   32.63   15.54
  -9   2   1   17.11   13.48
  -9   2   0    0.09   11.51
  -9   2  -1   21.08   12.95
  -9   2  -2   18.54   14.93
  -9   2  -3   29.06   14.18
  -9   2  -4    3.23   11.45
  -9   2  -5   10.25   14.01
  -9   2  -6   18.47   13.00
  -9   2  -7    4.31    8.33
  -9   2  -8   12.42    8.09
  -9   2  -9   -3.56    9.19
  -9   2 -10    2.55    8.76
  -9   2 -11   25.25   15.71
  -9   2 -12   22.31   14.11
  -9   2 -13   22.22   16.47
  -9   2 -14   29.97   18.62
  -9   1  10    7.71   20.07
  -9   1   9   17.00   18.83
  -9   1   8   19.39   20.86
  -9   1   7    7.11   17.31
  -9   1   6  -15.68   16.23
  -9   1   5   33.17   20.18
  -9   1   4    0.99   10.68
  -9   1   3  -13.79   12.03
  -9   1   2   42.14   19.77
  -9   1   1   -5.02   11.23
  -9   1   0   17.03   10.71
  -9   1  -1    9.69   10.91
  -9   1  -2   40.07   14.29
  -9   1  -3   67.11   22.56
  -9   1  -4  -10.51    8.98
  -9   1  -5   17.65   13.93
  -9   1  -6   -8.89    8.13
  -9   1  -7   -7.90    9.13
  -9   1  -8   27.61   15.90
  -9   1  -9    8.59    9.52
  -9   1 -10   20.97   14.61
  -9   1 -11    5.11    8.40
  -9   1 -12   20.58   13.31
  -9   1 -13   -3.06   13.12
  -9   0  10   27.20   20.97
  -9   0   9  -19.28   25.45
  -9   0   8  -26.05   20.79
  -9   0   7    5.68   12.82
  -9   0   6   -1.17   15.90
  -9   0   5    2.37   11.47
  -9   0   4   42.89   20.24
  -9   0   3   -8.89    9.74
  -9   0   2    2.21   10.24
  -9   0   1   -9.51    9.94
  -9   0   0   -3.76    9.16
  -9   0  -1   34.58   14.88
  -9   0  -2   37.79   18.69
  -9   0  -3   65.90   20.44
  -9   0  -4   79.66   22.47
  -9   0  -5    5.75    9.72
  -9   0  -6    7.42    9.10
  -9   0  -7   48.28   18.48
  -9   0  -8   35.55   16.34
  -9   0  -9   12.24   10.74
  -9   0 -10   17.78   13.71
  -9   0 -11   22.68   11.56
  -9   0 -12    8.46   12.91
  -9   0 -13    9.98   11.75
  -9  -1   9   -8.79   19.71
  -9  -1   8    3.51   16.50
  -9  -1   7   -1.17   14.50
  -9  -1   6   -1.07   12.00
  -9  -1   5  -14.42   13.13
  -9  -1   4    1.12   10.32
  -9  -1   3   -3.20   14.62
  -9  -1   2   26.77   13.99
  -9  -1   1   -0.42   10.15
  -9  -1   0    7.24   10.05
  -9  -1  -1   -5.19   10.68
  -9  -1  -2   19.00   13.91
  -9  -1  -3   18.53   11.91
  -9  -1  -4   21.35    9.07
  -9  -1  -5   -3.78   11.80
  -9  -1  -6   -6.96    9.30
  -9  -1  -7   12.42    9.24
  -9  -1  -8   22.10   12.45
  -9  -1  -9    8.76    9.89
  -9  -1 -10   -4.68    9.88
  -9  -1 -11   23.91   11.70
  -9  -1 -12   25.01   14.56
  -9  -2   9  -29.43   19.08
  -9  -2   8   12.95   19.50
  -9  -2   7   12.86   15.77
  -9  -2   6   52.76   23.19
  -9  -2   5    2.80   11.19
  -9  -2   4   15.19   16.84
  -9  -2   3   27.48   16.01
  -9  -2   2   17.77    9.68
  -9  -2   1  -24.91   17.75
  -9  -2   0   -1.19   10.02
  -9  -2  -1    0.08    8.96
  -9  -2  -2   17.78   11.99
  -9  -2  -3    0.83   10.18
  -9  -2  -4   13.57   12.38
  -9  -2  -5   -8.67   11.71
  -9  -2  -6   60.91   17.42
  -9  -2  -7   -7.20    6.96
  -9  -2  -8    4.10   10.78
   9   2   8   21.73   12.09
  -9  -2  -9    0.44    7.85
   9   2   9   13.98   13.32
  -9  -2 -10    2.30    7.17
   9   2  10    1.70    7.80
  -9  -2 -11    9.63   11.75
   9   2  11   -3.60    8.11
   9   2  12    7.80   11.52
  -9  -3   8    9.99   16.22
  -9  -3   7  -11.24   16.47
  -9  -3   6    9.98   15.67
  -9  -3   5    4.37   13.84
  -9  -3   4    3.78   11.07
  -9  -3   3   35.70   18.66
  -9  -3   2    0.71   13.12
  -9  -3   1   18.48   13.01
  -9  -3   0   -4.69    8.84
  -9  -3  -1   29.04   14.49
  -9  -3  -2   42.95   17.87
  -9  -3  -3   12.87   11.19
  -9  -3  -4   18.30   14.16
  -9  -3  -5  -14.71    9.50
  -9  -3  -6    7.23    9.18
   9   3   6   14.96   11.06
  -9  -3  -7    7.93   13.28
   9   3   7    1.55    6.83
  -9  -3  -8    3.51    7.61
   9   3   8    8.44   11.32
  -9  -3  -9   -2.98    7.11
   9   3   9    5.86    7.76
   9   3  10    8.61   12.74
   9   3  11    7.55    9.70
   9   3  12    8.64   10.82
   9   3  13  -16.65   12.30
  -9  -4   7    9.10   14.75
  -9  -4   6    0.26   15.76
  -9  -4   5   10.22   14.03
  -9  -4   4   12.16   12.03
  -9  -4   3   -0.68   11.15
  -9  -4   2    3.87   13.89
  -9  -4   1  -11.37   13.06
  -9  -4   0    1.48    9.56
  -9  -4  -1   -7.93    8.66
  -9  -4  -2    3.18    9.44
  -9  -4  -3    2.15   12.57
  -9  -4  -4   -3.36   10.30
   9   4   4    2.06    7.55
  -9  -4  -5   53.94   16.16
   9   4   5   46.95   15.50
  -9  -4  -6  -12.14    8.94
   9   4   6    2.79    9.14
  -9  -4  -7   -6.53    9.25
   9   4   7   14.54   11.18
   9   4   8    4.67    9.09
   9   4   9   54.47   17.81
   9   4  10   14.32   14.11
   9   4  11   32.75   14.39
   9   4  12   14.74   13.46
   9   4  13   -8.43   14.01
  -9  -5   6   16.07   21.07
  -9  -5   5   28.38   18.27
  -9  -5   4  -17.26   15.49
  -9  -5   3   15.87   14.45
  -9  -5   2  -13.85   15.99
  -9  -5   1   30.02   15.41
  -9  -5   0    2.40    8.92
  -9  -5  -1   -2.98    8.39
  -9  -5  -2  -15.68   12.60
  -9  -5  -3   17.24   11.84
   9   5   3    5.31    7.50
  -9  -5  -4   -1.05   11.40
   9   5   4   -6.32    8.58
  -9  -5  -5   61.13   16.38
   9   5   5   55.51   18.97
   9   5   6  -15.78    9.50
   9   5   7   12.10   11.73
   9   5   8   33.18   15.58
   9   5   9  -11.85   10.69
   9   5  10   16.60    9.96
   9   5  11   10.18   12.19
   9   5  12   26.07   15.24
   9   5  13   30.99   16.10
   9   5  14   16.20   16.55
  -9  -6   5  -17.73   20.07
  -9  -6   4    0.35   13.78
  -9  -6   3   -7.95   12.85
  -9  -6   2    8.75   14.53
  -9  -6   1   -1.37   10.47
  -9  -6   0   21.54   11.55
  -9  -6  -1  -13.00   12.05
  -9  -6  -2   -3.60    9.91
   9   6   3   32.19   16.82
   9   6   4   20.82   14.51
   9   6   5    5.03    9.59
   9   6   6   17.58   11.70
   9   6   7   -6.39    8.09
   9   6   8   19.99   11.49
   9   6   9    2.52    8.47
   9   6  10    1.71   12.38
   9   6  11   -3.30    9.04
   9   6  12    9.54    9.09
   9   6  13   12.59   15.88
   9   6  14  -14.80   13.20
   9   7   2    5.95    9.18
   9   7   3  -14.86   11.57
   9   7   4    1.72   10.32
   9   7   5   24.54   15.42
   9   7   6    4.18    9.26
   9   7   7  -14.24   12.25
   9   7   8   29.29   13.45
   9   7   9   28.29   18.91
   9   7  10    7.95   12.27
   9   7  11    7.32   12.83
   9   7  12    3.85    9.81
   9   7  13   17.83   16.00
   9   7  14   10.33   17.35
   9   8   2   -1.52   13.42
   9   8   3   20.63   14.03
   9   8   4   25.08   15.23
   9   8   5   -2.69    9.35
   9   8   6   25.04   14.57
   9   8   7   -3.62   10.93
   9   8   8   -7.32   12.41
   9   8   9   22.59   13.91
   9   8  10    5.32   13.83
   9   8  11   27.14   15.71
   9   8  12   -2.31   10.39
   9   8  13   -7.03   10.96
   9   9   1   -0.94   11.90
   9   9   2   13.10   12.34
   9   9   3    9.80   11.84
   9   9   4   -1.87   10.14
   9   9   5  -23.89   16.03
   9   9   6   13.43   10.89
   9   9   7    3.61   10.32
   9   9   8  -11.22   10.79
   9   9   9  -26.17   17.62
   9   9  10   16.01   13.97
   9   9  11   27.60   13.96
   9   9  12  -12.81   17.39
   9   9  13   22.49   14.11
   9  10   2  -17.28   14.55
   9  10   3    8.28   12.18
   9  10   4   -1.20   13.08
   9  10   5   12.97   12.19
   9  10   6   18.40   17.67
   9  10   7  -18.08   13.01
   9  10   8   12.02   13.01
   9  10   9   -0.80   10.70
   9  10  10   -7.40   14.57
   9  10  11   11.09   17.66
   9  10  12   34.40   19.92
   9  11   4    6.55   17.84
   9  11   5    1.04   11.38
   9  11   6    8.84   14.46
   9  11   7  -12.17   12.59
   9  11   8   37.40   20.46
   9  11   9  -21.17   14.90
   9  11  10   10.05   13.79
   9  11  11   -5.33   15.99
 -10  10  -2    1.42   14.90
 -10  10  -3   21.72   16.96
 -10  10  -4   -1.44   14.01
 -10  10  -5  -16.71   16.40
 -10   9   2   16.18   15.48
 -10   9   1   11.57   12.99
 -10   9   0    9.67   12.06
 -10   9  -1   -6.65   12.19
 -10   9  -2    8.99   14.64
 -10   9  -3   -6.36   12.83
 -10   9  -4   -0.37   11.07
 -10   9  -5   16.34   15.78
 -10   9  -6    9.24   11.84
 -10   9  -7    0.66   15.25
 -10   9  -8   20.82   19.22
 -10   8   4   -1.11   14.91
 -10   8   3   27.63   22.28
 -10   8   2   16.20   16.80
 -10   8   1    5.09   12.75
 -10   8   0    7.68   12.67
 -10   8  -1  -12.36   16.07
 -10   8  -2    0.80   11.25
 -10   8  -3  -22.01   15.43
 -10   8  -4   -0.83   10.20
 -10   8  -5   -2.04   11.63
 -10   8  -6    9.67   12.41
 -10   8  -7   11.18   16.07
 -10   8  -8   -0.26   13.12
 -10   8  -9   21.99   21.65
 -10   8 -10   15.05   19.15
 -10   7   5   41.05   22.43
 -10   7   4    5.84   13.64
 -10   7   3   19.98   18.37
 -10   7   2   10.25   12.98
 -10   7   1   30.92   14.15
 -10   7   0   14.37   11.46
 -10   7  -1  -15.51   15.42
 -10   7  -2  -12.98   15.03
 -10   7  -3   -0.78   10.42
 -10   7  -4   11.76   14.31
 -10   7  -5    0.35   10.82
 -10   7  -6   23.95   14.75
 -10   7  -7   10.58   17.67
 -10   7  -8   -5.82   12.91
 -10   7  -9   12.65   13.66
 -10   7 -10   13.89   12.65
 -10   7 -11   -4.02   17.80
 -10   6   6   -7.62   16.42
 -10   6   5  -11.29   16.97
 -10   6   4   -9.27   15.64
 -10   6   3   20.55   17.58
 -10   6   2    5.15   16.37
 -10   6   1   -2.36   13.09
 -10   6   0   10.25   11.24
 -10   6  -1    7.81   11.26
 -10   6  -2  -16.50   10.12
 -10   6  -3   21.83   15.96
 -10   6  -4  -10.74   11.65
 -10   6  -5   -3.10    8.90
 -10   6  -6  -17.42   14.86
 -10   6  -7    4.39   13.06
 -10   6  -8   11.04   10.57
 -10   6  -9    8.21   13.91
 -10   6 -10   -5.70   14.99
 -10   6 -11   16.96   19.59
 -10   6 -12   42.06   24.85
 -10   5   7   11.50   19.22
 -10   5   6   47.61   21.36
 -10   5   5   -5.66   16.47
 -10   5   4   33.01   15.92
 -10   5   3    6.92   15.98
 -10   5   2   -7.69   13.63
 -10   5   1    7.12   12.06
 -10   5   0    2.58   13.24
 -10   5  -1    9.72   12.16
 -10   5  -2   -0.82    9.33
 -10   5  -3    8.70   12.08
 -10   5  -4   -2.00   13.04
 -10   5  -5   10.81   11.80
 -10   5  -6   -2.19   11.90
 -10   5  -7  -10.04   17.48
 -10   5  -8   10.72   13.68
 -10   5  -9   10.80   16.35
 -10   5 -10   -3.03   11.60
 -10   5 -11  -18.54   16.02
 -10   5 -12  -19.61   19.97
 -10   4   7   -9.56   15.67
 -10   4   6   -5.52   14.08
 -10   4   5   -6.43   17.21
 -10   4   4   -7.61   13.07
 -10   4   3   -6.15   15.03
 -10   4   2  -10.80   14.96
 -10   4   1   -6.07   17.53
 -10   4   0  -19.35   18.35
 -10   4  -1    7.55    9.40
 -10   4  -2   15.02   14.46
 -10   4  -3    5.66   12.02
 -10   4  -4    5.20   11.32
 -10   4  -5   -9.53    9.29
 -10   4  -6    2.85    9.00
 -10   4  -7  -16.38   11.64
 -10   4  -8   66.15   21.85
 -10   4  -9   12.37   14.07
 -10   4 -10   13.68   10.87
 -10   4 -11    8.48   13.20
 -10   4 -12   -1.75   14.40
 -10   4 -13   -9.72   13.42
 -10   3   8  -10.68   25.10
 -10   3   7   21.04   21.40
 -10   3   6  -49.50   27.62
 -10   3   5   24.03   20.66
 -10   3   4  -22.77   13.67
 -10   3   3    6.51   14.12
 -10   3   2  -16.52   19.97
 -10   3   1   20.30   10.11
 -10   3   0  -30.98   19.19
 -10   3  -1  -13.63   12.77
 -10   3  -2  -10.16   12.29
 -10   3  -3    4.44    9.76
 -10   3  -4   22.12   11.54
 -10   3  -5   11.38    9.75
 -10   3  -6   -4.09   14.04
 -10   3  -7   22.70   14.33
 -10   3  -8   -7.19    9.84
 -10   3  -9   19.83   13.23
 -10   3 -10    8.40   12.34
 -10   3 -11   15.97   12.08
 -10   3 -12    6.39   14.06
 -10   3 -13   22.73   21.50
 -10   2   8   -4.69   16.95
 -10   2   7  -36.77   28.42
 -10   2   6  -10.63   17.08
 -10   2   5  -21.38   24.21
 -10   2   4    7.76   13.54
 -10   2   3   31.01   20.06
 -10   2   2  -21.43   17.70
 -10   2   1   13.61   15.00
 -10   2   0   -5.96   11.33
 -10   2  -1   58.52   23.47
 -10   2  -2  -12.78   13.96
 -10   2  -3   10.64    9.46
 -10   2  -4   14.59   13.67
 -10   2  -5   14.20    9.91
 -10   2  -6   18.01   16.71
 -10   2  -7    2.30    8.32
 -10   2  -8   12.09   10.81
 -10   2  -9    2.99   10.00
 -10   2 -10    5.05   11.56
 -10   2 -11    4.77   13.12
 -10   2 -12   14.25   14.05
 -10   2 -13    7.38   11.27
 -10   1   8   -4.98   18.75
 -10   1   7   31.36   33.26
 -10   1   6  -13.90   20.73
 -10   1   5  -10.74   17.67
 -10   1   4  -11.18   18.58
 -10   1   3   22.19   17.08
 -10   1   2   11.80   14.11
 -10   1   1   24.45   15.04
 -10   1   0   -1.34   12.93
 -10   1  -1    8.83   13.18
 -10   1  -2  -18.17   17.65
 -10   1  -3   10.53   10.22
 -10   1  -4  -13.97   13.32
 -10   1  -5   39.46   20.72
 -10   1  -6   -6.11   10.48
 -10   1  -7   39.15   15.35
 -10   1  -8   11.78   10.11
 -10   1  -9   31.95   16.92
 -10   1 -10   54.15   21.81
 -10   1 -11   13.56   16.87
 -10   1 -12    0.74   10.17
 -10   0   8   -2.26   17.56
 -10   0   7   15.72   21.60
 -10   0   6    0.13   14.96
 -10   0   5   -8.97   18.30
 -10   0   4   -8.69   19.11
 -10   0   3  -12.06   14.34
 -10   0   2   12.03   13.58
 -10   0   1    2.60   10.40
 -10   0   0   16.99   16.52
 -10   0  -1   63.39   24.00
 -10   0  -2    0.09   10.45
 -10   0  -3   17.43   12.94
 -10   0  -4   10.78   13.77
 -10   0  -5    7.26   13.21
 -10   0  -6   33.52   15.93
 -10   0  -7  -16.84   17.89
 -10   0  -8    6.40   11.89
 -10   0  -9   -3.17   10.76
 -10   0 -10   -6.62   13.46
 -10   0 -11    6.39    9.43
 -10   0 -12   -3.70   10.43
 -10  -1   7   11.10   20.02
 -10  -1   6   24.94   19.38
 -10  -1   5   -9.73   16.37
 -10  -1   4  -21.59   16.62
 -10  -1   3  -21.47   15.71
 -10  -1   2   38.33   18.91
 -10  -1   1   15.78   16.13
 -10  -1   0   27.26   15.68
 -10  -1  -1   19.28   12.28
 -10  -1  -2   -2.14   10.47
 -10  -1  -3   14.99   13.83
 -10  -1  -4   -9.26   10.98
 -10  -1  -5   11.72    8.52
 -10  -1  -6    7.04    8.44
 -10  -1  -7   19.31   11.66
 -10  -1  -8    3.95   11.28
 -10  -1  -9   10.32   10.33
 -10  -1 -10   25.47   16.17
 -10  -1 -11   26.41   13.72
 -10  -2   7    0.59   17.93
 -10  -2   6    7.37   16.64
 -10  -2   5   22.23   17.47
 -10  -2   4    3.24   13.77
 -10  -2   3   -0.96   12.69
 -10  -2   2    3.49   11.75
 -10  -2   1   17.60   16.01
 -10  -2   0  -14.02   14.92
 -10  -2  -1   29.83   19.05
 -10  -2  -2   16.84   13.30
 -10  -2  -3    8.76   13.82
 -10  -2  -4  -26.44   14.38
 -10  -2  -5   -0.34   10.23
 -10  -2  -6    8.13   11.07
 -10  -2  -7   -0.08   11.52
 -10  -2  -8   -7.29   12.02
 -10  -2  -9   20.33   13.85
 -10  -3   6  -15.87   22.38
 -10  -3   5  -13.24   16.05
 -10  -3   4   15.76   14.81
 -10  -3   3   22.71   15.02
 -10  -3   2   30.57   18.37
 -10  -3   1   12.74   10.80
 -10  -3   0   -0.89   14.55
 -10  -3  -1   -3.58   16.08
 -10  -3  -2    7.76   12.62
 -10  -3  -3   67.00   21.31
 -10  -3  -4    2.62   10.97
 -10  -3  -5   -1.29    8.61
 -10  -3  -6  -10.33   12.08
 -10  -3  -7   40.26   17.25
 -10  -3  -8    4.50    9.27
  10   3   9    5.80   10.92
  10   3  10    4.06   11.41
  10   3  11   29.88   16.59
  10   3  12   -8.04   13.33
 -10  -4   5   21.42   17.45
 -10  -4   4   -6.26   14.83
 -10  -4   3   17.70   13.31
 -10  -4   2  -28.08   16.43
 -10  -4   1   38.75   18.44
 -10  -4   0  -10.61   11.37
 -10  -4  -1   -5.60   11.12
 -10  -4  -2   -4.36   12.17
 -10  -4  -3   11.35   11.49
 -10  -4  -4   30.78   19.32
 -10  -4  -5    4.70   12.17
 -10  -4  -6   -3.45    8.91
  10   4   7    8.63   10.33
  10   4   8   15.48   10.39
  10   4   9   -5.12   10.21
  10   4  10   23.19   13.22
  10   4  11    0.79   10.88
  10   4  12   17.87   15.11
 -10  -5   3   28.04   18.01
 -10  -5   2   -1.64   11.77
 -10  -5   1   -1.13   12.21
 -10  -5   0   19.48   14.48
 -10  -5  -1   12.77   10.60
 -10  -5  -2   11.44   10.80
 -10  -5  -3  -16.03   11.80
  10   5   5   -1.10    7.86
  10   5   6   12.40   13.13
  10   5   7   18.34   13.11
  10   5   8   -1.39   10.04
  10   5   9  -13.87   11.66
  10   5  10    8.37   12.62
  10   5  11   14.04   13.51
  10   5  12   -7.52   13.67
  10   5  13    1.17   16.25
  10   6   5  -10.21   11.50
  10   6   6   -5.03    9.62
  10   6   7  -12.59   12.89
  10   6   8    6.47   11.31
  10   6   9   15.53   13.82
  10   6  10  -12.37   13.10
  10   6  11    4.59   11.06
  10   6  12  -18.54   13.11
  10   6  13   10.72   13.33
  10   7   4  -11.49   14.65
  10   7   5   33.64   17.23
  10   7   6   12.32   12.46
  10   7   7   12.43    9.51
  10   7   8   -1.60    9.82
  10   7   9  -10.36   11.80
  10   7  10  -20.79   16.75
  10   7  11  -29.64   19.73
  10   7  12  -14.96   16.70
  10   7  13   14.64   15.40
  10   8   3    1.68   10.07
  10   8   4   -1.11   13.81
  10   8   5  -23.78   14.33
  10   8   6   14.36   11.74
  10   8   7   11.96   11.67
  10   8   8  -10.16   13.64
  10   8   9   -9.36   13.42
  10   8  10    9.52   15.65
  10   8  11   -5.96   13.55
  10   8  12   27.24   19.81
  10   9   3   42.33   20.74
  10   9   4   -4.62   14.92
  10   9   5   -9.90   11.93
  10   9   6  -12.34   15.08
  10   9   7    9.39   11.34
  10   9   8   15.92   15.95
  10   9   9    3.21   10.72
  10   9  10   43.39   23.16
  10   9  11  -12.57   15.98
  10   9  12   17.40   16.16
  10  10   5   -1.81   10.95
  10  10   6   -3.27   17.08
  10  10   7   -6.46   13.11
  10  10   8  -12.19   16.17
  10  10   9   -5.50   11.81
  10  10  10   -6.88   15.96
 -11   8   1   10.84   12.16
 -11   8   0  -18.07   13.19
 -11   8  -1   13.74   19.07
 -11   8  -2  -10.26   15.75
 -11   8  -3   18.80   16.29
 -11   8  -4  -14.22   14.37
 -11   8  -5   -8.53   15.37
 -11   8  -6   12.95   16.51
 -11   8  -7  -12.69   16.23
 -11   7   2   10.88   14.51
 -11   7   1  -10.24   13.07
 -11   7   0    8.91   15.62
 -11   7  -1    0.12   11.95
 -11   7  -2  -11.35   14.74
 -11   7  -3   29.53   17.05
 -11   7  -4   12.27   16.41
 -11   7  -5    2.03   14.75
 -11   7  -6   10.48   14.48
 -11   7  -7    6.07   12.73
 -11   7  -8   -9.20   18.13
 -11   7  -9   -6.41   13.36
 -11   6   4   24.05   20.74
 -11   6   3  -21.30   15.71
 -11   6   2   20.62   14.31
 -11   6   1   24.79   21.48
 -11   6   0   39.45   19.07
 -11   6  -1   22.82   15.89
 -11   6  -2    7.81   13.71
 -11   6  -3   13.87   13.44
 -11   6  -4   34.97   21.59
 -11   6  -5    6.30   10.74
 -11   6  -6  -16.10   19.33
 -11   6  -7  -10.77   13.91
 -11   6  -8   -3.14   12.18
 -11   6  -9    6.05   15.26
 -11   6 -10  -23.94   22.44
 -11   5   4  -20.78   19.38
 -11   5   3    8.94   16.10
 -11   5   2   39.11   22.74
 -11   5   1  -25.86   20.29
 -11   5   0   27.71   18.85
 -11   5  -1    8.07   13.18
 -11   5  -2   -5.67   13.66
 -11   5  -3   12.33   11.70
 -11   5  -4    8.73   12.83
 -11   5  -5   -3.12   13.44
 -11   5  -6   13.70   17.36
 -11   5  -7   -0.37   14.91
 -11   5  -8    8.76   17.36
 -11   5  -9   10.00   17.42
 -11   5 -10   -8.41   15.17
 -11   5 -11  -15.60   19.89
 -11   4   5   16.81   18.52
 -11   4   4    2.03   15.05
 -11   4   3   60.71   26.05
 -11   4   2  -34.09   19.70
 -11   4   1   36.48   20.19
 -11   4   0   18.72   17.67
 -11   4  -1   -1.25   12.66
 -11   4  -2  -18.55   17.03
 -11   4  -3   15.85   16.92
 -11   4  -4    4.61   17.22
 -11   4  -5   48.09   21.77
 -11   4  -6    9.62   15.22
 -11   4  -7   21.07   16.38
 -11   4  -8   -2.09   12.20
 -11   4  -9   -6.89   14.30
 -11   4 -10    8.47   12.98
 -11   4 -11   10.27   15.06
 -11   3   6  -15.54   24.30
 -11   3   5   15.34   17.18
 -11   3   4   17.19   20.35
 -11   3   3  -12.75   17.19
 -11   3   2   13.77   12.88
 -11   3   1  -14.82   19.82
 -11   3   0   19.77   15.97
 -11   3  -1   22.51   19.35
 -11   3  -2   -6.68   12.37
 -11   3  -3   -7.82   16.05
 -11   3  -4    4.16   15.38
 -11   3  -5   22.75   16.86
 -11   3  -6  -14.90    9.86
 -11   3  -7   51.00   31.01
 -11   3  -8   10.95   12.70
 -11   3  -9    3.38   10.92
 -11   3 -10   -0.25   13.79
 -11   3 -11   -3.40   13.32
 -11   2   6   23.09   17.48
 -11   2   5    4.24   17.72
 -11   2   4  -14.48   14.63
 -11   2   3   45.93   22.62
 -11   2   2   12.32   12.37
 -11   2   1   23.52   14.69
 -11   2   0   -7.00   16.67
 -11   2  -1   34.40   19.06
 -11   2  -2   30.04   19.20
 -11   2  -3   11.15   14.41
 -11   2  -4    5.05   13.52
 -11   2  -5   -0.55   15.27
 -11   2  -6   26.64   16.26
 -11   2  -7  -22.99   16.14
 -11   2  -8    7.00   15.69
 -11   2  -9   -6.49   10.80
 -11   2 -10    0.47   10.73
 -11   2 -11   23.25   17.66
 -11   1   6   14.33   26.30
 -11   1   5   11.08   14.42
 -11   1   4   13.59   13.73
 -11   1   3  -12.69   14.24
 -11   1   2  -60.55   24.55
 -11   1   1   -4.78   16.15
 -11   1   0   42.67   22.97
 -11   1  -1   13.66   14.22
 -11   1  -2  -33.71   20.59
 -11   1  -3   -1.92   12.20
 -11   1  -4   23.86   14.59
 -11   1  -5   27.38   17.15
 -11   1  -6  -21.60   17.23
 -11   1  -7    9.25   12.79
 -11   1  -8  -19.35   19.74
 -11   1  -9   52.56   21.86
 -11   1 -10   -5.13   13.48
 -11   0   5  -24.01   17.98
 -11   0   4   30.59   14.54
 -11   0   3    6.31   12.54
 -11   0   2  -14.07   14.92
 -11   0   1    6.67   12.57
 -11   0   0  -20.66   13.66
 -11   0  -1  -27.58   16.87
 -11   0  -2  -29.98   16.11
 -11   0  -3  -11.41   15.34
 -11   0  -4    9.00   14.57
 -11   0  -5    2.18   13.27
 -11   0  -6  -14.31   11.09
 -11   0  -7    5.41   10.48
 -11   0  -8   -5.25   12.36
 -11   0  -9    9.46   13.12
 -11   0 -10   31.48   18.25
 -11  -1   5  -13.96   19.08
 -11  -1   4    9.79   14.82
 -11  -1   3   -2.98   14.39
 -11  -1   2   22.14   17.90
 -11  -1   1    2.69   12.18
 -11  -1   0   16.65   17.77
 -11  -1  -1  -13.25   15.82
 -11  -1  -2   11.09   15.73
 -11  -1  -3   15.94   10.88
 -11  -1  -4    9.58   11.93
 -11  -1  -5   17.55   13.19
 -11  -1  -6   23.21   17.09
 -11  -1  -7   -8.23   10.41
 -11  -1  -8   10.01    9.60
 -11  -1  -9  -13.20   12.09
 -11  -2   4    4.76   15.36
 -11  -2   3  -22.08   21.49
 -11  -2   2  -17.33   15.44
 -11  -2   1   13.76   15.56
 -11  -2   0  -31.53   18.97
 -11  -2  -1   -1.78   11.68
 -11  -2  -2   21.52   12.73
 -11  -2  -3   35.16   17.63
 -11  -2  -4    9.79   13.77
 -11  -2  -5   18.64   14.82
 -11  -2  -6   12.56   14.60
 -11  -2  -7    1.88   10.07
 -11  -3   3  -13.61   13.20
 -11  -3   2  -13.97   20.60
 -11  -3   1   33.08   20.98
 -11  -3   0   12.48   12.98
 -11  -3  -1   15.82   16.43
 -11  -3  -2   39.88   19.73
 -11  -3  -3   11.43   13.83
 -11  -3  -4   23.27   10.56
 -11  -3  -5  -13.95   10.16
 -11  -4   0    0.30   13.13
 -11  -4  -1  -33.31   17.89
  11   4  11   36.17   19.21
  11   5   9   16.59   16.01
  11   5  10   -4.71    9.71
  11   5  11   -6.59   18.65
  11   6   7   10.51   16.68
  11   6   8   13.61   16.58
  11   6   9   28.88   15.34
  11   6  10   21.32   14.99
  11   6  11   19.60   17.99
  11   7   6   30.37   18.34
  11   7   7   -3.07   12.13
  11   7   8    9.11   15.89
  11   7   9   -2.14   13.15
  11   7  10   -2.16   10.56
  11   7  11    0.12   17.21
  11   8   6    7.33   13.38
  11   8   7   11.50   17.02
  11   8   8  -13.60   18.02
  11   8   9    0.37   11.72
  11   8  10    6.62   14.31
  11   9   6   11.16   15.02
  11   9   7   20.05   19.49
  11   9   8   10.33   16.49
 -12   6   0   -7.28   13.46
 -12   6  -1  -10.65   18.32
 -12   6  -2    8.95   13.08
 -12   6  -3   19.74   16.44
 -12   6  -4    0.94   16.32
 -12   6  -5    9.42   17.86
 -12   6  -6   -7.22   17.11
 -12   6  -7   37.54   24.67
 -12   5   1   13.99   15.49
 -12   5   0    8.82   16.33
 -12   5  -1   34.22   20.28
 -12   5  -2    7.48   14.46
 -12   5  -3   -2.60   13.40
 -12   5  -4  -24.00   17.45
 -12   5  -5  -26.66   24.79
 -12   5  -6  -16.98   14.34
 -12   5  -7    5.24   15.28
 -12   5  -8   -9.12   16.98
 -12   4   2   -5.49   13.83
 -12   4   1   -4.45   15.58
 -12   4   0   23.77   18.24
 -12   4  -1   -6.33   16.19
 -12   4  -2   -9.51   13.60
 -12   4  -3   13.74   16.20
 -12   4  -4   -7.96   14.93
 -12   4  -5   18.38   17.03
 -12   4  -6  -12.95   17.41
 -12   4  -7   21.53   19.52
 -12   4  -8   11.47   16.22
 -12   3   2   -0.66   14.74
 -12   3   1   10.08   15.99
 -12   3   0    5.20   14.95
 -12   3  -1   19.41   12.43
 -12   3  -2  -20.22   19.87
 -12   3  -3   12.96   17.77
 -12   3  -4   -0.75   12.98
 -12   3  -5  -29.99   20.39
 -12   3  -6   12.22   13.19
 -12   3  -7    3.53   13.92
 -12   3  -8   11.65   19.33
 -12   2   3   -6.11   24.72
 -12   2   2    5.90   16.54
 -12   2   1   11.34   18.81
 -12   2   0  -20.95   19.71
 -12   2  -1    0.98   14.12
 -12   2  -2   -6.70   14.21
 -12   2  -3   17.73   16.19
 -12   2  -4   11.62   17.17
 -12   2  -5  -30.29   17.03
 -12   2  -6   41.36   22.05
 -12   2  -7   16.26   13.82
 -12   2  -8   17.10   18.35
 -12   1   2    6.60   17.75
 -12   1   1   10.53   17.64
 -12   1   0   -5.99   14.61
 -12   1  -1   -8.30   18.60
 -12   1  -2  -11.18   15.02
 -12   1  -3   -8.77   14.34
 -12   1  -4  -23.62   14.45
 -12   1  -5  -13.59   16.19
 -12   1  -6   -9.72   12.30
 -12   1  -7   18.27   21.08
 -12   1  -8   33.73   20.19
 -12   0   2  -18.01   18.58
 -12   0   1   31.75   22.34
 -12   0   0   28.23   23.77
 -12   0  -1  -28.16   17.84
 -12   0  -2  -19.21   14.74
 -12   0  -3    2.99   12.46
 -12   0  -4  -25.94   18.79
 -12   0  -5   13.09   14.10
 -12   0  -6   11.52   15.23
 -12   0  -7   -1.51   12.25
 -12  -1   1  -22.48   18.89
 -12  -1   0  -12.61   14.33
 -12  -1  -1   20.30   19.37
 -12  -1  -2   -1.23   15.97
 -12  -1  -3   18.67   14.55
 -12  -1  -4  -10.03   15.89
 -12  -1  -5   -0.66   11.91
   0   0   0    0.00    0.00


TITL 3 in P-1
REM P-1 (#2 in standard setting)
CELL 0.71073   8.680164  10.624011  12.798038  79.9655  74.1876  89.5905
ZERR    5.00   0.001964   0.001548   0.002259   0.0135   0.0175   0.0149
LATT  1
SFAC C H N O
UNIT 55.00 50.00 5.00 5.00
TREF
HKLF 4
END
_computing_structure_solution     'SHELXT 2014/5 (Sheldrick, 2014)'
;
_shelx_hkl_checksum              13995
_shelx_shelxl_version_number     2014/7
_olex2_submission_special_instructions 'No special instructions were received'
_oxdiff_exptl_absorpt_empirical_details
;
Empirical correction (ABSPACK) includes:
- Absorption correction using spherical harmonics
- Frame scaling
;
_oxdiff_exptl_absorpt_empirical_full_max 1.509
_oxdiff_exptl_absorpt_empirical_full_min 0.800
loop_
_space_group_symop_operation_xyz
'x, y, z'
'-x, -y, -z'
loop_
_atom_site_label
_atom_site_type_symbol
_atom_site_fract_x
_atom_site_fract_y
_atom_site_fract_z
_atom_site_U_iso_or_equiv
_atom_site_adp_type
_atom_site_occupancy
_atom_site_site_symmetry_order
_atom_site_calc_flag
_atom_site_refinement_flags_posn
S1 S 0.7597(2) 0.88262(15) 0.74174(14) 0.0457(5) Uani 1 1 d .
Cl1 Cl 0.7740(3) -0.02504(16) 1.02602(17) 0.0767(8) Uani 1 1 d .
O1 O 0.4509(5) 0.6247(3) 0.7278(3) 0.0407(11) Uani 1 1 d .
O3 O 0.7228(6) 0.4135(4) 0.5872(3) 0.0519(13) Uani 1 1 d .
O5 O 0.8065(6) 0.5528(5) 0.9703(4) 0.0663(15) Uani 1 1 d .
O4 O 0.9634(6) 0.6860(5) 0.8256(4) 0.0603(14) Uani 1 1 d .
O2 O 0.6195(6) 0.5976(4) 0.5252(4) 0.0589(14) Uani 1 1 d .
C17 C 0.6874(8) 0.3671(5) 0.8506(5) 0.0366(15) Uani 1 1 d .
C6 C 0.4896(8) 0.8601(5) 0.6874(5) 0.0345(15) Uani 1 1 d .
C12 C 0.5397(8) 0.5087(5) 0.7211(5) 0.0371(15) Uani 1 1 d .
C23 C 0.8362(8) 0.6087(6) 0.8752(6) 0.0425(16) Uani 1 1 d .
C10 C 0.7261(7) 0.6064(6) 0.8016(5) 0.0356(15) Uani 1 1 d .
C11 C 0.6552(8) 0.4969(5) 0.7944(5) 0.0369(15) Uani 1 1 d .
C2 C 0.3316(8) 1.0286(6) 0.6228(5) 0.0432(17) Uani 1 1 d .
C9 C 0.6804(8) 0.7278(5) 0.7498(5) 0.0372(15) Uani 1 1 d .
C5 C 0.6005(8) 0.9516(6) 0.6957(5) 0.0392(16) Uani 1 1 d .
C14 C 0.6312(8) 0.5148(5) 0.5995(5) 0.0372(15) Uani 1 1 d .
C7 C 0.3564(8) 0.8997(6) 0.6506(5) 0.0417(16) Uani 1 1 d .
H7 H 0.2839 0.8390 0.6448 0.050 Uiso 1 1 calc R
C4 C 0.5757(9) 1.0829(6) 0.6666(5) 0.0465(18) Uani 1 1 d .
H4 H 0.6474 1.1448 0.6714 0.056 Uiso 1 1 calc R
C8 C 0.5438(8) 0.7339(5) 0.7192(5) 0.0360(15) Uani 1 1 d .
C18 C 0.8261(8) 0.3060(6) 0.8109(5) 0.0453(17) Uani 1 1 d .
H18 H 0.9025 0.3459 0.7478 0.054 Uiso 1 1 calc R
C13 C 0.4088(8) 0.4027(5) 0.7537(5) 0.0481(18) Uani 1 1 d .
H13A H 0.3353 0.4108 0.8232 0.072 Uiso 1 1 calc GR
H13B H 0.4565 0.3209 0.7603 0.072 Uiso 1 1 calc GR
H13C H 0.3523 0.4098 0.6982 0.072 Uiso 1 1 calc GR
C19 C 0.8537(9) 0.1850(6) 0.8643(6) 0.0529(19) Uani 1 1 d .
H19 H 0.9479 0.1448 0.8369 0.063 Uiso 1 1 calc R
C3 C 0.4420(9) 1.1176(6) 0.6306(5) 0.0497(19) Uani 1 1 d .
H3 H 0.4257 1.2041 0.6109 0.060 Uiso 1 1 calc R
C22 C 0.5757(9) 0.3059(6) 0.9459(5) 0.0528(18) Uani 1 1 d .
H22 H 0.4822 0.3462 0.9745 0.063 Uiso 1 1 calc R
C20 C 0.7415(10) 0.1263(6) 0.9566(6) 0.0497(18) Uani 1 1 d .
C1 C 0.1883(9) 1.0738(6) 0.5850(6) 0.059(2) Uani 1 1 d .
H1A H 0.1461 1.0065 0.5581 0.088 Uiso 1 1 calc GR
H1B H 0.2193 1.1470 0.5270 0.088 Uiso 1 1 calc GR
H1C H 0.1077 1.0968 0.6458 0.088 Uiso 1 1 calc GR
C21 C 0.6025(10) 0.1848(6) 0.9990(6) 0.059(2) Uani 1 1 d .
H21 H 0.5271 0.1442 1.0624 0.071 Uiso 1 1 calc R
C15 C 0.8045(10) 0.4011(7) 0.4741(5) 0.061(2) Uani 1 1 d .
H15A H 0.8540 0.4829 0.4328 0.073 Uiso 1 1 calc R
H15B H 0.7281 0.3743 0.4385 0.073 Uiso 1 1 calc R
C24 C 1.0674(10) 0.7102(7) 0.8935(6) 0.069(2) Uani 1 1 d .
H24A H 1.1117 0.7963 0.8699 0.104 Uiso 1 1 calc GR
H24B H 1.1527 0.6515 0.8855 0.104 Uiso 1 1 calc GR
H24C H 1.0061 0.6986 0.9695 0.104 Uiso 1 1 calc GR
C16 C 0.9291(10) 0.3044(7) 0.4762(6) 0.074(2) Uani 1 1 d .
H16A H 0.9833 0.2950 0.4020 0.111 Uiso 1 1 calc GR
H16B H 0.8793 0.2238 0.5172 0.111 Uiso 1 1 calc GR
H16C H 1.0050 0.3321 0.5106 0.111 Uiso 1 1 calc GR
loop_
_atom_site_aniso_label
_atom_site_aniso_U_11
_atom_site_aniso_U_22
_atom_site_aniso_U_33
_atom_site_aniso_U_23
_atom_site_aniso_U_13
_atom_site_aniso_U_12
S1 0.0555(13) 0.0376(9) 0.0493(11) -0.0077(8) -0.0232(9) 0.0002(8)
Cl1 0.109(2) 0.0451(10) 0.0831(15) 0.0083(10) -0.0498(14) 0.0103(11)
O1 0.046(3) 0.031(2) 0.052(3) -0.011(2) -0.023(2) 0.009(2)
O3 0.071(4) 0.050(3) 0.037(3) -0.011(2) -0.018(2) 0.030(2)
O5 0.076(4) 0.082(4) 0.042(3) 0.005(3) -0.030(3) -0.007(3)
O4 0.057(4) 0.075(3) 0.053(3) 0.006(3) -0.031(3) -0.014(3)
O2 0.091(4) 0.048(3) 0.040(3) -0.002(2) -0.026(3) 0.020(3)
C17 0.047(4) 0.035(3) 0.036(4) -0.009(3) -0.023(3) 0.005(3)
C6 0.044(4) 0.031(3) 0.032(3) -0.012(3) -0.012(3) 0.010(3)
C12 0.052(4) 0.026(3) 0.041(4) -0.005(3) -0.027(3) 0.009(3)
C23 0.045(5) 0.042(4) 0.045(4) -0.011(3) -0.019(4) 0.019(3)
C10 0.039(4) 0.043(4) 0.028(3) -0.010(3) -0.013(3) 0.007(3)
C11 0.044(4) 0.038(3) 0.033(3) -0.010(3) -0.016(3) 0.014(3)
C2 0.055(5) 0.039(4) 0.037(4) -0.009(3) -0.014(3) 0.013(3)
C9 0.041(4) 0.037(3) 0.036(4) -0.008(3) -0.015(3) 0.004(3)
C5 0.049(5) 0.038(3) 0.033(3) -0.008(3) -0.014(3) 0.005(3)
C14 0.050(5) 0.033(3) 0.036(4) -0.011(3) -0.022(3) 0.005(3)
C7 0.053(5) 0.039(3) 0.039(4) -0.011(3) -0.018(3) 0.007(3)
C4 0.065(5) 0.030(3) 0.045(4) -0.007(3) -0.014(4) -0.001(3)
C8 0.043(4) 0.032(3) 0.038(4) -0.011(3) -0.017(3) 0.003(3)
C18 0.049(5) 0.041(3) 0.044(4) 0.002(3) -0.016(4) 0.009(3)
C13 0.065(5) 0.034(3) 0.054(4) -0.012(3) -0.028(4) -0.001(3)
C19 0.051(5) 0.055(4) 0.051(4) -0.004(4) -0.017(4) 0.017(4)
C3 0.078(6) 0.030(3) 0.044(4) -0.003(3) -0.024(4) 0.008(4)
C22 0.053(5) 0.057(4) 0.045(4) -0.005(4) -0.010(4) 0.013(4)
C20 0.067(6) 0.044(4) 0.049(4) -0.008(3) -0.035(4) 0.010(4)
C1 0.064(6) 0.056(4) 0.054(5) 0.001(4) -0.020(4) 0.020(4)
C21 0.066(6) 0.058(4) 0.044(4) 0.012(4) -0.014(4) -0.002(4)
C15 0.078(6) 0.073(5) 0.040(4) -0.024(4) -0.021(4) 0.025(4)
C24 0.069(6) 0.080(5) 0.071(5) -0.003(4) -0.045(5) -0.011(4)
C16 0.074(7) 0.086(6) 0.062(5) -0.024(5) -0.013(5) 0.029(5)
loop_
_atom_type_symbol
_atom_type_description
_atom_type_scat_dispersion_real
_atom_type_scat_dispersion_imag
_atom_type_scat_source
C C 0.0033 0.0016 'International Tables Vol C Tables 4.2.6.8 and 6.1.1.4'
H H 0.0000 0.0000 'International Tables Vol C Tables 4.2.6.8 and 6.1.1.4'
Cl Cl 0.1484 0.1585 'International Tables Vol C Tables 4.2.6.8 and 6.1.1.4'
O O 0.0106 0.0060 'International Tables Vol C Tables 4.2.6.8 and 6.1.1.4'
S S 0.1246 0.1234 'International Tables Vol C Tables 4.2.6.8 and 6.1.1.4'
loop_
_geom_angle_atom_site_label_1
_geom_angle_atom_site_label_2
_geom_angle_atom_site_label_3
_geom_angle
C5 S1 C9 90.9(3)
C8 O1 C12 114.5(5)
C14 O3 C15 116.1(5)
C23 O4 C24 116.6(5)
C18 C17 C11 121.8(6)
C18 C17 C22 118.4(6)
C22 C17 C11 119.8(6)
C5 C6 C8 108.6(5)
C7 C6 C5 120.1(5)
C7 C6 C8 131.4(6)
O1 C12 C11 111.3(4)
O1 C12 C14 106.9(4)
O1 C12 C13 103.6(5)
C14 C12 C11 111.1(5)
C13 C12 C11 114.7(5)
C13 C12 C14 108.7(5)
O5 C23 O4 124.1(6)
O5 C23 C10 124.3(6)
O4 C23 C10 111.5(5)
C11 C10 C23 122.1(5)
C11 C10 C9 119.5(5)
C9 C10 C23 117.9(5)
C17 C11 C12 119.7(5)
C10 C11 C17 123.5(5)
C10 C11 C12 116.8(5)
C7 C2 C3 118.9(6)
C7 C2 C1 121.6(6)
C3 C2 C1 119.5(6)
C10 C9 S1 128.6(5)
C8 C9 S1 110.7(5)
C8 C9 C10 119.7(5)
C6 C5 S1 113.0(4)
C4 C5 S1 127.6(5)
C4 C5 C6 119.4(6)
O3 C14 C12 110.5(5)
O2 C14 O3 124.8(6)
O2 C14 C12 124.7(6)
C6 C7 H7 119.8
C2 C7 C6 120.5(6)
C2 C7 H7 119.8
C5 C4 H4 120.7
C3 C4 C5 118.5(6)
C3 C4 H4 120.7
O1 C8 C6 121.2(5)
C9 C8 O1 121.6(5)
C9 C8 C6 116.9(5)
C17 C18 H18 119.5
C17 C18 C19 121.0(7)
C19 C18 H18 119.5
C12 C13 H13A 109.5
C12 C13 H13B 109.5
C12 C13 H13C 109.5
H13A C13 H13B 109.5
H13A C13 H13C 109.5
H13B C13 H13C 109.5
C18 C19 H19 120.2
C20 C19 C18 119.5(7)
C20 C19 H19 120.2
C2 C3 C4 122.6(6)
C2 C3 H3 118.7
C4 C3 H3 118.7
C17 C22 H22 119.6
C17 C22 C21 120.8(7)
C21 C22 H22 119.6
C19 C20 Cl1 120.5(6)
C19 C20 C21 121.1(6)
C21 C20 Cl1 118.4(6)
C2 C1 H1A 109.5
C2 C1 H1B 109.5
C2 C1 H1C 109.5
H1A C1 H1B 109.5
H1A C1 H1C 109.5
H1B C1 H1C 109.5
C22 C21 H21 120.4
C20 C21 C22 119.2(7)
C20 C21 H21 120.4
O3 C15 H15A 109.9
O3 C15 H15B 109.9
O3 C15 C16 108.7(6)
H15A C15 H15B 108.3
C16 C15 H15A 109.9
C16 C15 H15B 109.9
O4 C24 H24A 109.5
O4 C24 H24B 109.5
O4 C24 H24C 109.5
H24A C24 H24B 109.5
H24A C24 H24C 109.5
H24B C24 H24C 109.5
C15 C16 H16A 109.5
C15 C16 H16B 109.5
C15 C16 H16C 109.5
H16A C16 H16B 109.5
H16A C16 H16C 109.5
H16B C16 H16C 109.5
loop_
_geom_bond_atom_site_label_1
_geom_bond_atom_site_label_2
_geom_bond_distance
S1 C9 1.763(6)
S1 C5 1.753(7)
Cl1 C20 1.757(6)
O1 C12 1.452(7)
O1 C8 1.389(6)
O3 C14 1.339(7)
O3 C15 1.456(7)
O5 C23 1.216(7)
O4 C23 1.321(8)
O4 C24 1.464(7)
O2 C14 1.203(6)
C17 C11 1.502(8)
C17 C18 1.378(9)
C17 C22 1.392(9)
C6 C5 1.410(8)
C6 C7 1.399(8)
C6 C8 1.445(8)
C12 C11 1.540(8)
C12 C14 1.533(9)
C12 C13 1.526(8)
C23 C10 1.517(8)
C10 C11 1.349(8)
C10 C9 1.449(8)
C2 C7 1.384(8)
C2 C3 1.386(9)
C2 C1 1.500(9)
C9 C8 1.344(8)
C5 C4 1.410(8)
C7 H7 0.9300
C4 H4 0.9300
C4 C3 1.386(9)
C18 H18 0.9300
C18 C19 1.398(8)
C13 H13A 0.9600
C13 H13B 0.9600
C13 H13C 0.9600
C19 H19 0.9300
C19 C20 1.363(9)
C3 H3 0.9300
C22 H22 0.9300
C22 C21 1.396(9)
C20 C21 1.373(10)
C1 H1A 0.9600
C1 H1B 0.9600
C1 H1C 0.9600
C21 H21 0.9300
C15 H15A 0.9700
C15 H15B 0.9700
C15 C16 1.488(10)
C24 H24A 0.9600
C24 H24B 0.9600
C24 H24C 0.9600
C16 H16A 0.9600
C16 H16B 0.9600
C16 H16C 0.9600
loop_
_geom_torsion_atom_site_label_1
_geom_torsion_atom_site_label_2
_geom_torsion_atom_site_label_3
_geom_torsion_atom_site_label_4
_geom_torsion
S1 C9 C8 O1 -174.3(4)
S1 C9 C8 C6 -0.3(7)
S1 C5 C4 C3 179.2(5)
Cl1 C20 C21 C22 179.1(5)
O1 C12 C11 C17 145.9(5)
O1 C12 C11 C10 -35.9(8)
O1 C12 C14 O3 177.0(4)
O1 C12 C14 O2 -4.7(8)
O5 C23 C10 C11 -46.0(9)
O5 C23 C10 C9 125.6(7)
O4 C23 C10 C11 138.3(6)
O4 C23 C10 C9 -50.2(8)
C17 C18 C19 C20 0.2(10)
C17 C22 C21 C20 0.4(10)
C6 C5 C4 C3 0.1(9)
C12 O1 C8 C6 159.0(5)
C12 O1 C8 C9 -27.3(8)
C23 C10 C11 C17 -4.9(10)
C23 C10 C11 C12 177.0(6)
C23 C10 C9 S1 11.3(9)
C23 C10 C9 C8 -155.6(6)
C10 C9 C8 O1 -5.2(9)
C10 C9 C8 C6 168.8(5)
C11 C17 C18 C19 -179.8(5)
C11 C17 C22 C21 179.5(6)
C11 C12 C14 O3 55.4(6)
C11 C12 C14 O2 -126.2(6)
C11 C10 C9 S1 -176.9(5)
C11 C10 C9 C8 16.2(9)
C9 S1 C5 C6 0.4(5)
C9 S1 C5 C4 -178.8(6)
C9 C10 C11 C17 -176.4(6)
C9 C10 C11 C12 5.6(9)
C5 S1 C9 C10 -167.9(6)
C5 S1 C9 C8 -0.1(5)
C5 C6 C7 C2 -0.4(9)
C5 C6 C8 O1 174.6(5)
C5 C6 C8 C9 0.6(8)
C5 C4 C3 C2 0.4(10)
C14 O3 C15 C16 166.4(6)
C14 C12 C11 C17 -95.1(6)
C14 C12 C11 C10 83.0(6)
C7 C6 C5 S1 -179.3(5)
C7 C6 C5 C4 0.0(9)
C7 C6 C8 O1 -6.9(10)
C7 C6 C8 C9 179.1(6)
C7 C2 C3 C4 -0.9(10)
C8 O1 C12 C11 46.1(6)
C8 O1 C12 C14 -75.4(6)
C8 O1 C12 C13 169.9(4)
C8 C6 C5 S1 -0.6(6)
C8 C6 C5 C4 178.7(6)
C8 C6 C7 C2 -178.8(6)
C18 C17 C11 C12 102.1(7)
C18 C17 C11 C10 -75.9(8)
C18 C17 C22 C21 -1.0(9)
C18 C19 C20 Cl1 -179.4(5)
C18 C19 C20 C21 -0.8(10)
C13 C12 C11 C17 28.7(8)
C13 C12 C11 C10 -153.2(6)
C13 C12 C14 O3 -71.8(6)
C13 C12 C14 O2 106.6(7)
C19 C20 C21 C22 0.4(10)
C3 C2 C7 C6 0.9(9)
C22 C17 C11 C12 -78.4(7)
C22 C17 C11 C10 103.6(8)
C22 C17 C18 C19 0.7(9)
C1 C2 C7 C6 -178.9(6)
C1 C2 C3 C4 178.9(6)
C15 O3 C14 O2 -4.1(9)
C15 O3 C14 C12 174.3(5)
C24 O4 C23 O5 -4.0(10)
C24 O4 C23 C10 171.8(6)
loop_
_cod_related_entry_id
_cod_related_entry_database
_cod_related_entry_code
1 PubChem 139051698
