#------------------------------------------------------------------------------
#$Date: 2025-08-18 18:33:07 +0300 (Mon, 18 Aug 2025) $
#$Revision: 301779 $
#$URL: file:///home/coder/svn-repositories/cod/cif/1/54/86/1548606.cif $
#------------------------------------------------------------------------------
#
# This file is available in the Crystallography Open Database (COD),
# http://www.crystallography.net/
#
# All data on this site have been placed in the public domain by the
# contributors.
#
data_1548606
loop_
_publ_author_name
'Jia, Jiru'
'Yu, Aimin'
'Ma, Shanshan'
'Zhang, Youquan'
'Li, Ke'
'Meng, Xiangtai'
_publ_section_title
;
 Solvent-Controlled Switchable Domino Reactions of MBH Carbonate:
 Synthesis of Benzothiophene Fused \a-Pyran, 2,3-Dihydrooxepine, and
 Oxatricyclodecene Derivatives.
;
_journal_issue                   22
_journal_name_full               'Organic letters'
_journal_page_first              6084
_journal_page_last               6087
_journal_paper_doi               10.1021/acs.orglett.7b02916
_journal_volume                  19
_journal_year                    2017
_chemical_formula_moiety         'C18 H18 O5 S'
_chemical_formula_sum            'C18 H18 O5 S'
_chemical_formula_weight         346.38
_space_group_crystal_system      triclinic
_space_group_IT_number           2
_space_group_name_Hall           '-P 1'
_space_group_name_H-M_alt        'P -1'
_symmetry_space_group_name_Hall  '-P 1'
_symmetry_space_group_name_H-M   'P -1'
_atom_sites_solution_hydrogens   geom
_atom_sites_solution_primary     iterative
_audit_creation_date             2016-06-23
_audit_creation_method
;
Olex2 1.2-beta
(compiled 2016.02.19 svn.r3266 for OlexSys, GUI svn.r5155)
;
_cell_angle_alpha                81.945(3)
_cell_angle_beta                 68.341(3)
_cell_angle_gamma                81.982(3)
_cell_formula_units_Z            2
_cell_length_a                   9.1078(9)
_cell_length_b                   9.1877(9)
_cell_length_c                   11.1460(11)
_cell_measurement_reflns_used    6272
_cell_measurement_temperature    296(2)
_cell_measurement_theta_max      26.524
_cell_measurement_theta_min      3.084
_cell_volume                     854.38(15)
_computing_cell_refinement       'SAINT v8.34A (Bruker, 2013)'
_computing_data_reduction        'SAINT v8.34A (Bruker, 2013)'
_computing_molecular_graphics    'Olex2 (Dolomanov et al., 2009)'
_computing_publication_material  'Olex2 (Dolomanov et al., 2009)'
_computing_structure_refinement  'ShelXL (Sheldrick, 2015)'
_computing_structure_solution    'olex2.solve (Bourhis et al., 2015)'
_diffrn_ambient_temperature      296.15
_diffrn_measured_fraction_theta_full 0.998
_diffrn_measured_fraction_theta_max 0.996
_diffrn_measurement_device_type  'CCD area detector'
_diffrn_measurement_method       'phi and omega scans'
_diffrn_radiation_monochromator  graphite
_diffrn_radiation_type           MoK\a
_diffrn_radiation_wavelength     0.71073
_diffrn_reflns_av_R_equivalents  0.0525
_diffrn_reflns_av_unetI/netI     0.0419
_diffrn_reflns_Laue_measured_fraction_full 0.998
_diffrn_reflns_Laue_measured_fraction_max 0.996
_diffrn_reflns_limit_h_max       11
_diffrn_reflns_limit_h_min       -11
_diffrn_reflns_limit_k_max       11
_diffrn_reflns_limit_k_min       -11
_diffrn_reflns_limit_l_max       14
_diffrn_reflns_limit_l_min       -14
_diffrn_reflns_number            17875
_diffrn_reflns_point_group_measured_fraction_full 0.998
_diffrn_reflns_point_group_measured_fraction_max 0.996
_diffrn_reflns_theta_full        25.242
_diffrn_reflns_theta_max         27.544
_diffrn_reflns_theta_min         3.084
_exptl_absorpt_coefficient_mu    0.214
_exptl_absorpt_correction_T_max  0.7456
_exptl_absorpt_correction_T_min  0.6609
_exptl_absorpt_process_details
;
SADABS-2012/1 (Bruker,2012) was used for absorption correction.
wR2(int) was 0.0641 before and 0.0558 after correction.
The Ratio of minimum to maximum transmission is 0.8864.
The \l/2 correction factor is 0.0015.
;
_exptl_crystal_density_diffrn    1.346
_exptl_crystal_description       block
_exptl_crystal_F_000             364
_exptl_crystal_size_max          0.301
_exptl_crystal_size_mid          0.165
_exptl_crystal_size_min          0.118
_refine_diff_density_max         0.240
_refine_diff_density_min         -0.286
_refine_diff_density_rms         0.054
_refine_ls_extinction_method     none
_refine_ls_goodness_of_fit_ref   0.985
_refine_ls_hydrogen_treatment    constr
_refine_ls_matrix_type           full
_refine_ls_number_parameters     221
_refine_ls_number_reflns         3908
_refine_ls_number_restraints     0
_refine_ls_restrained_S_all      0.985
_refine_ls_R_factor_all          0.0806
_refine_ls_R_factor_gt           0.0502
_refine_ls_shift/su_max          0.044
_refine_ls_shift/su_mean         0.001
_refine_ls_structure_factor_coef Fsqd
_refine_ls_weighting_details
'w=1/[\s^2^(Fo^2^)+(0.1000P)^2^] where P=(Fo^2^+2Fc^2^)/3'
_refine_ls_weighting_scheme      calc
_refine_ls_wR_factor_gt          0.1320
_refine_ls_wR_factor_ref         0.1508
_reflns_Friedel_coverage         0.000
_reflns_number_gt                2736
_reflns_number_total             3908
_reflns_threshold_expression     'I > 2\s(I)'
_cod_data_source_file            ol7b02916_si_002.cif
_cod_data_source_block           tianj0602_0m
_cod_database_code               1548606
_shelx_space_group_comment
;
The symmetry employed for this shelxl refinement is uniquely defined
by the following loop, which should always be used as a source of
symmetry information in preference to the above space-group names.
They are only intended as comments.
;
_olex2_refinement_description
;
1. Fixed Uiso
 At 1.2 times of:
  All C(H) groups, All C(H,H) groups
 At 1.5 times of:
  All C(H,H,H) groups
2.a Secondary CH2 refined with riding coordinates:
 C2(H2A,H2B)
2.b Aromatic/amide H refined with riding coordinates:
 C6(H6), C14(H14), C15(H15), C17(H17)
2.c Idealised Me refined as rotating group:
 C1(H1A,H1B,H1C), C4(H4A,H4B,H4C), C9(H9A,H9B,H9C), C18(H18A,H18B,H18C)
;
_shelx_res_file
;
    tianj0602_0m.res created by SHELXL-2014/7

TITL
CELL 0.71073 9.1078 9.1877 11.146 81.945 68.341 81.982
ZERR 2 0.0009 0.0009 0.0011 0.003 0.003 0.003
LATT 1
SFAC C H O S
UNIT 36 36 10 2

L.S. 4
PLAN  20
TEMP 23
fmap 2
acta
REM <olex2.extras>
REM <HklSrc "%.\\tianj0602_0m.hkl">
REM </olex2.extras>

WGHT    0.100000
FVAR       0.35873
C1    1    1.070296    0.344194   -0.319741    11.00000    0.11155    0.08829 =
         0.05812   -0.00417   -0.00909   -0.00925
AFIX 137
H1A   2    1.111669    0.309261   -0.404270    11.00000   -1.50000
H1B   2    1.154691    0.376669   -0.301156    11.00000   -1.50000
H1C   2    0.990621    0.425131   -0.317538    11.00000   -1.50000
AFIX   0
O1    3    0.959989    0.273926   -0.094335    11.00000    0.05447    0.04857 =
         0.05461   -0.00844   -0.01046   -0.00753
S1    4    0.306568    0.305368    0.263424    11.00000    0.03295    0.03644 =
         0.05751    0.00156   -0.01608   -0.00060
C2    1    0.999619    0.223858   -0.222006    11.00000    0.07389    0.06988 =
         0.06249   -0.02153   -0.01109   -0.00348
AFIX  23
H2A   2    0.904814    0.199837   -0.232307    11.00000   -1.20000
H2B   2    1.074389    0.136198   -0.232087    11.00000   -1.20000
AFIX   0
O2    3    0.827304    0.075722   -0.001294    11.00000    0.05828    0.04533 =
         0.07931   -0.01798   -0.01705   -0.01198
C3    1    0.872741    0.188651    0.005801    11.00000    0.02781    0.03393 =
         0.06295   -0.00406   -0.01492    0.00072
O3    3    0.739093    0.163146    0.237458    11.00000    0.03318    0.03687 =
         0.05814    0.00704   -0.01969   -0.00137
C4    1    0.991496    0.251819    0.159128    11.00000    0.04085    0.04681 =
         0.07435    0.00038   -0.02970   -0.00551
AFIX 137
H4A   2    0.968798    0.289865    0.240693    11.00000   -1.50000
H4B   2    1.064313    0.310806    0.091182    11.00000   -1.50000
H4C   2    1.037967    0.151582    0.162214    11.00000   -1.50000
AFIX   0
O4    3    0.381629    0.601451    0.150571    11.00000    0.04564    0.03847 =
         0.09986    0.00665   -0.03280    0.00024
C5    1    0.838907    0.256880    0.132741    11.00000    0.03091    0.03291 =
         0.05359    0.00223   -0.01622   -0.00593
O5    3    0.615718    0.690266    0.096017    11.00000    0.04858    0.02652 =
         0.06998    0.00330   -0.02477   -0.00289
C6    1    0.759487    0.411241    0.123526    11.00000    0.03798    0.03109 =
         0.04790   -0.00141   -0.01643   -0.00604
AFIX  43
H6    2    0.821578    0.490121    0.091867    11.00000   -1.20000
AFIX   0
C7    1    0.601945    0.437134    0.159836    11.00000    0.04020    0.02810 =
         0.03819   -0.00271   -0.01789   -0.00219
C8    1    0.519759    0.583406    0.136332    11.00000    0.04152    0.03093 =
         0.04032   -0.00293   -0.01588   -0.00202
C9    1    0.546677    0.834336    0.061747    11.00000    0.06655    0.02573 =
         0.06044    0.00047   -0.02448   -0.00026
AFIX 137
H9A   2    0.523183    0.831694   -0.015052    11.00000   -1.50000
H9B   2    0.620425    0.906192    0.045883    11.00000   -1.50000
H9C   2    0.450650    0.860636    0.131691    11.00000   -1.50000
AFIX   0
C10   1    0.509718    0.312097    0.219408    11.00000    0.03425    0.02898 =
         0.04030   -0.00244   -0.01533   -0.00221
C11   1    0.581534    0.183397    0.254543    11.00000    0.03192    0.03364 =
         0.03717   -0.00227   -0.01401   -0.00262
C12   1    0.478113    0.070727    0.318395    11.00000    0.03724    0.03201 =
         0.03351   -0.00265   -0.01133   -0.00275
C13   1    0.323119    0.123144    0.327521    11.00000    0.03932    0.03537 =
         0.04182   -0.00003   -0.01202   -0.00457
C14   1    0.201946    0.028725    0.382048    11.00000    0.03719    0.05104 =
         0.06149    0.00682   -0.01176   -0.01088
AFIX  43
H14   2    0.098187    0.061697    0.388726    11.00000   -1.20000
AFIX   0
C15   1    0.240190   -0.113798    0.425416    11.00000    0.05412    0.04640 =
         0.05555    0.00867   -0.01121   -0.01791
AFIX  43
H15   2    0.160155   -0.176922    0.460819    11.00000   -1.20000
AFIX   0
C16   1    0.392992   -0.167819    0.418755    11.00000    0.05590    0.03474 =
         0.03633    0.00055   -0.01062   -0.00686
C17   1    0.512316   -0.074650    0.365113    11.00000    0.04381    0.03663 =
         0.04053   -0.00182   -0.01490   -0.00011
AFIX  43
H17   2    0.615365   -0.108462    0.360022    11.00000   -1.20000
AFIX   0
C18   1    0.425893   -0.326079    0.466630    11.00000    0.07593    0.03560 =
         0.05799    0.00793   -0.01723   -0.00958
AFIX 137
H18A  2    0.400920   -0.390383    0.417447    11.00000   -1.50000
H18B  2    0.361724   -0.343307    0.556639    11.00000   -1.50000
H18C  2    0.536010   -0.345435    0.456325    11.00000   -1.50000
AFIX   0
HKLF 4

REM
REM R1 =  0.0502 for    2736 Fo > 4sig(Fo)  and  0.0806 for all    3908 data
REM    221 parameters refined using      0 restraints

END

WGHT      0.0781      0.0631

REM Highest difference peak  0.240,  deepest hole -0.286,  1-sigma level  0.054
Q1    1   0.2785  0.0718  0.3497  11.00000  0.05    0.24
Q2    1   0.5558  0.3612  0.1669  11.00000  0.05    0.23
Q3    1   0.9088  0.2608  0.1348  11.00000  0.05    0.23
Q4    1   0.5510  0.2385  0.2036  11.00000  0.05    0.22
Q5    1   0.4975 -0.3962  0.4028  11.00000  0.05    0.22
Q6    1   0.8878  0.0824  0.0137  11.00000  0.05    0.22
Q7    1   0.6654  0.1856  0.2542  11.00000  0.05    0.21
Q8    1   0.4037  0.3042  0.2701  11.00000  0.05    0.21
Q9    1   0.3003  0.3617  0.3264  11.00000  0.05    0.21
Q10   1   0.5271  0.1200  0.3015  11.00000  0.05    0.21
Q11   1   0.6148  0.6371  0.0385  11.00000  0.05    0.20
Q12   1   0.3165  0.2226  0.3138  11.00000  0.05    0.20
Q13   1   0.6368  0.8801 -0.0191  11.00000  0.05    0.19
Q14   1   0.3927  0.5853  0.2044  11.00000  0.05    0.19
Q15   1   0.4768 -0.3363  0.5293  11.00000  0.05    0.19
Q16   1   0.8120  0.3343  0.1060  11.00000  0.05    0.19
Q17   1   0.8426  0.2357  0.0678  11.00000  0.05    0.18
Q18   1   0.5818  0.9074  0.1159  11.00000  0.05    0.18
Q19   1   0.9146  0.3367 -0.0805  11.00000  0.05    0.18
Q20   1   1.2334  0.2684  0.1186  11.00000  0.05    0.18
;
_shelx_res_checksum              2929
_shelx_hkl_file
;
   0   0  -2  227.50    1.06   1
   0   0  -2  227.93    1.28   2
   0   0  -2  232.04    1.24   3
   0   0  -2  216.76    1.32   4
   0   0   2  221.82    1.04   1
   0   0   2  212.00    1.24   2
   0   0   2  142.35    0.98   3
   0   0   2  224.58    1.34   4
   0   0  -3    4.34    0.23   1
   0   0  -3    4.24    0.29   2
   0   0  -3    4.47    0.27   3
   0   0  -3    4.54    0.33   4
   0   0   3    4.54    0.24   1
   0   0   3    3.97    0.30   2
   0   0   3    4.26    0.26   3
   0   0   3    4.38    0.30   4
   0   0  -4    7.66    0.34   1
   0   0  -4    8.29    0.39   3
   0   0  -4    8.14    0.50   4
   0   0   4    8.23    0.36   1
   0   0   4    7.16    0.42   2
   0   0   4    7.80    0.41   3
   0   0   4    9.06    0.45   4
   0   0  -5    4.49    0.40   2
   0   0  -5    5.06    0.40   3
   0   0  -5    4.98    0.54   4
   0   0   5    5.70    0.39   1
   0   0   5    4.54    0.46   2
   0   0   5    4.39    0.41   3
   0   0   5    4.91    0.42   4
   0   0  -6   16.31    0.59   1
   0   0  -6   16.62    0.70   2
   0   0  -6   17.15    0.67   3
   0   0  -6   15.57    0.80   4
   0   0   6   16.35    0.73   2
   0   0   6   16.90    0.70   3
   0   0   6   15.14    0.68   4
   0   0  -7   23.57    0.73   1
   0   0  -7   24.57    0.91   2
   0   0  -7   25.10    0.87   3
   0   0  -7   21.72    0.98   4
   0   0   7   24.06    0.76   1
   0   0   7   23.30    0.91   2
   0   0   7   22.62    0.88   3
   0   0   7   24.56    0.95   4
   0   0  -8   29.98    0.87   1
   0   0  -8   29.25    1.10   2
   0   0  -8   29.25    1.07   3
   0   0  -8   32.48    1.28   4
   0   0   8   20.24    0.83   1
   0   0   8   30.32    1.15   2
   0   0   8   30.84    1.09   3
   0   0   8   29.06    1.19   4
   0   0  -9    6.59    0.66   1
   0   0  -9    6.78    0.76   3
   0   0  -9    9.00    1.06   4
   0   0   9    5.11    0.61   1
   0   0   9    6.82    0.82   2
   0   0   9    5.52    0.66   3
   0   0 -10    4.04    0.56   1
   0   0 -10    2.46    0.69   4
   0   0  10    2.82    0.64   1
   0   0  10    3.06    0.76   2
   0   0  10    3.21    0.71   3
   0   0 -11   -0.33    0.51   1
   0   0 -11    0.14    0.82   4
   0   0  11    0.39    0.72   2
   0   0  11   -0.57    0.65   3
   0   0 -12    2.73    0.71   1
   0   0 -12    5.22    1.04   4
   0   0  12    3.11    1.04   2
   0   0  12    3.75    0.96   3
   0   0 -13    2.63    1.25   4
   0   0  13    1.12    1.14   2
   0  -1  13   -1.00    1.12   2
   0  -1  13    1.46    1.14   3
   0   1 -13   -0.13    1.18   4
   0  -1  12    0.17    0.86   2
   0  -1  12    1.75    0.93   3
   0   1 -12    1.60    1.02   4
   0  -1  11    1.34    0.74   2
   0   1 -11    1.99    0.52   1
   0   1 -11    0.32    0.82   4
   0  -1  10    0.98    0.52   1
   0  -1  10    0.70    0.65   2
   0  -1  10   -0.30    0.61   3
   0   1 -10    0.96    0.42   1
   0   1 -10    0.30    0.61   4
   0  -1   9   26.36    0.89   1
   0  -1   9   39.40    1.43   2
   0  -1   9   38.18    1.38   3
   0   1  -9   39.64    0.94   1
   0   1  -9   36.88    1.32   3
   0   1  -9   38.74    1.56   4
   0  -1   8    7.02    0.78   2
   0  -1   8    7.30    0.80   3
   0   1  -8    6.85    0.51   1
   0   1  -8    5.38    0.64   2
   0   1  -8    8.19    0.83   3
   0   1  -8    7.58    0.83   4
   0  -1   7   28.90    0.71   1
   0  -1   7   28.29    1.04   2
   0  -1   7   28.69    0.99   3
   0  -1   7   28.07    1.06   4
   0   1  -7   27.29    1.00   2
   0   1  -7   28.73    0.98   3
   0   1  -7   28.23    1.13   4
   0  -1   6    0.62    0.22   1
   0  -1   6   -0.11    0.28   2
   0  -1   6    0.49    0.31   3
   0  -1   6    0.31    0.33   4
   0   1  -6    0.47    0.17   1
   0   1  -6    0.90    0.29   2
   0   1  -6    1.31    0.33   3
   0   1  -6    0.27    0.35   4
   0  -1   5  107.53    0.97   1
   0  -1   5  105.27    1.51   2
   0  -1   5  105.26    1.43   3
   0  -1   5  110.83    1.59   4
   0   1  -5  111.03    0.97   1
   0   1  -5  112.85    1.52   2
   0   1  -5  107.55    1.43   3
   0   1  -5  107.31    1.62   4
   0  -1   4   24.86    0.42   1
   0  -1   4   23.87    0.70   2
   0  -1   4   25.20    0.67   3
   0  -1   4   25.57    0.72   4
   0   1  -4   23.88    0.40   1
   0   1  -4   23.83    0.65   2
   0   1  -4   25.15    0.77   4
   0  -1   3   34.00    0.37   1
   0  -1   3   34.10    0.66   3
   0  -1   3   34.07    0.71   4
   0   1  -3   35.03    0.37   1
   0   1  -3   34.69    0.69   2
   0   1  -3   35.55    0.66   3
   0   1  -3   37.75    0.76   4
   0  -1   2   59.89    0.77   2
   0  -1   2   63.37    0.77   3
   0  -1   2   58.38    0.77   4
   0   1  -2   61.39    0.29   1
   0   1  -2   60.08    0.77   2
   0   1  -2   60.63    0.74   3
   0   1  -2   58.03    0.77   4
   0  -1   1    0.09    0.06   2
   0  -1   1    0.29    0.09   4
   0   1  -1    0.29    0.09   2
   0   1  -1    0.02    0.06   3
   0   1  -1    0.29    0.08   3
   0   1  -1   -0.04    0.04   4
   0  -1  -2   45.39    0.60   2
   0  -1  -2   47.97    0.62   3
   0  -1  -2   46.83    0.55   4
   0   1   2   44.22    0.63   1
   0   1   2   48.10    0.62   2
   0   1   2   46.35    0.61   3
   0   1   2   47.74    0.55   4
   0  -1  -3 2325.74   11.35   1
   0  -1  -3 2380.65   11.48   2
   0  -1  -3 2325.60    9.54   3
   0  -1  -3 2261.67    9.66   4
   0   1   3 2438.18   11.61   1
   0   1   3 2333.55   11.56   2
   0   1   3 2250.66    9.84   3
   0   1   3 2387.22   10.34   4
   0  -1  -4   45.66    0.83   1
   0  -1  -4   46.07    0.86   2
   0  -1  -4   46.46    0.81   3
   0  -1  -4   43.52    0.85   4
   0   1   4   44.02    0.81   1
   0   1   4   44.65    0.85   2
   0   1   4   43.43    0.83   3
   0   1   4   47.55    0.85   4
   0  -1  -5   68.05    1.09   1
   0  -1  -5   68.87    1.14   2
   0  -1  -5   68.70    1.10   3
   0  -1  -5   65.51    1.17   4
   0   1   5   70.38    1.10   1
   0   1   5   67.66    1.16   2
   0   1   5   64.67    1.09   3
   0   1   5   69.88    1.16   4
   0  -1  -6    0.53    0.26   1
   0  -1  -6    0.30    0.26   2
   0  -1  -6   -0.11    0.24   3
   0  -1  -6    0.09    0.30   4
   0   1   6    0.34    0.27   1
   0   1   6    0.22    0.29   2
   0   1   6    0.05    0.28   3
   0   1   6    0.02    0.26   4
   0  -1  -7    0.43    0.29   1
   0  -1  -7    0.52    0.33   2
   0  -1  -7    0.38    0.33   3
   0  -1  -7    0.27    0.39   4
   0   1   7    0.23    0.36   1
   0   1   7    0.49    0.38   2
   0   1   7    0.40    0.33   3
   0   1   7    0.45    0.34   4
   0  -1  -8   20.14    0.87   1
   0  -1  -8   20.59    0.96   2
   0  -1  -8   19.70    0.93   3
   0  -1  -8   20.84    1.07   4
   0   1   8   19.59    0.95   1
   0   1   8   17.77    0.95   2
   0   1   8   18.42    0.91   3
   0   1   8   18.58    0.99   4
   0  -1  -9   10.98    0.80   1
   0  -1  -9   11.54    0.99   3
   0  -1  -9   12.09    1.07   4
   0   1   9    7.70    0.89   1
   0   1   9   11.83    0.95   2
   0   1   9   10.40    0.88   3
   0  -1 -10    1.54    0.54   1
   0  -1 -10    0.87    0.73   4
   0   1  10    0.71    0.68   1
   0   1  10    1.35    0.60   2
   0   1  10    2.74    0.67   3
   0  -1 -11    1.49    0.61   1
   0  -1 -11    1.14    0.80   4
   0   1  11    1.17    0.87   1
   0   1  11    1.70    0.79   2
   0   1  11    1.51    0.69   3
   0  -1 -12    0.25    0.71   1
   0  -1 -12    2.21    0.93   4
   0   1  12    0.89    0.90   2
   0   1  12    0.25    0.84   3
   0  -1 -13   -0.50    1.08   4
   0   1  13    0.35    1.07   2
   0   1  13   -0.83    0.99   3
   0   2 -13    3.78    1.27   4
   0  -2  12    6.45    1.21   2
   0  -2  12    4.32    1.11   3
   0   2 -12    7.83    1.27   4
   0  -2  11    0.56    0.80   2
   0  -2  11   -0.94    0.76   3
   0   2 -11   -0.17    0.83   4
   0  -2  10    2.83    0.80   2
   0  -2  10    3.84    0.76   3
   0   2 -10    2.40    0.79   4
   0  -2   9    0.31    0.30   1
   0  -2   9   -0.03    0.52   2
   0  -2   9    0.53    0.54   3
   0   2  -9    0.87    0.24   1
   0  -2   8   22.63    0.56   1
   0  -2   8   23.14    1.11   2
   0  -2   8   22.98    1.09   3
   0   2  -8   22.20    0.51   1
   0   2  -8   21.25    1.06   3
   0   2  -8   19.85    1.11   4
   0  -2   7   10.28    0.37   1
   0  -2   7   11.91    0.82   2
   0  -2   7   11.23    0.78   3
   0  -2   7   12.75    0.88   4
   0   2  -7   12.24    0.36   1
   0   2  -7   12.25    0.84   2
   0   2  -7   12.27    0.78   3
   0   2  -7   10.72    0.84   4
   0  -2   6   40.40    0.50   1
   0  -2   6   41.66    1.16   2
   0  -2   6   42.64    1.13   3
   0  -2   6   42.35    1.19   4
   0   2  -6   41.69    0.49   1
   0   2  -6   39.50    1.10   2
   0   2  -6   41.54    1.08   3
   0   2  -6   39.60    1.22   4
   0  -2   5    0.62    0.09   1
   0  -2   5    1.25    0.14   1
   0  -2   5    0.76    0.29   2
   0  -2   5    0.76    0.28   3
   0  -2   5    0.44    0.30   4
   0   2  -5    0.58    0.25   2
   0   2  -5    0.89    0.25   3
   0   2  -5    0.53    0.34   4
   0  -2   4   16.84    0.65   2
   0  -2   4   16.18    0.62   3
   0  -2   4   18.25    0.64   4
   0   2  -4   17.93    0.64   2
   0   2  -4   18.42    0.61   3
   0   2  -4   16.21    0.70   4
   0  -2   3   31.19    0.76   2
   0  -2   3   31.64    0.74   3
   0  -2   3   29.65    0.71   4
   0   2  -3   31.24    0.73   2
   0   2  -3   29.90    0.76   4
   0  -2   2    0.06    0.03   1
   0  -2   2  100.28    1.08   4
   0   2  -2  104.30    0.45   1
   0   2  -2  102.85    1.17   2
   0   2  -2  108.13    1.17   3
   0   2  -2   97.49    1.08   4
   0  -2   1   16.21    0.30   1
   0  -2   1   17.09    0.47   2
   0  -2   1   17.95    0.47   3
   0  -2   1   16.71    0.38   4
   0   2  -1   16.61    0.31   1
   0   2  -1   17.19    0.47   2
   0   2  -1   17.41    0.46   3
   0   2  -1   17.08    0.40   4
   0  -2   0  630.94    3.13   1
   0  -2   0  678.86    2.51   2
   0  -2   0  681.14    2.52   3
   0  -2   0  610.56    2.46   4
   0   2   0  622.31    3.31   1
   0   2   0  663.73    2.47   2
   0   2   0  673.48    2.52   3
   0   2   0  620.76    2.41   4
   0  -2  -1  178.82    1.32   1
   0  -2  -1  189.60    1.33   2
   0  -2  -1  199.22    1.37   3
   0   2   1  190.96    1.36   1
   0   2   1  196.30    1.35   2
   0  -2  -2   69.49    0.95   1
   0  -2  -2   75.08    0.90   2
   0  -2  -2   72.52    0.89   3
   0  -2  -2   71.41    0.56   4
   0   2   2   71.94    0.96   1
   0   2   2   72.87    0.89   2
   0   2   2   72.00    0.90   3
   0   2   2   70.70    0.55   4
   0  -2  -3   84.10    1.14   1
   0  -2  -3   94.65    1.11   2
   0  -2  -3   92.30    1.08   3
   0  -2  -3   84.99    0.86   4
   0   2   3   87.46    0.86   4
   0  -2  -4  285.71    2.24   1
   0  -2  -4  297.22    2.15   2
   0   2   4  298.97    2.26   1
   0   2   4  285.10    2.13   2
   0   2   4  295.54    2.13   3
   0   2   4  296.29    1.92   4
   0  -2  -5  106.03    1.50   1
   0  -2  -5  109.08    1.45   2
   0  -2  -5  105.25    1.40   3
   0  -2  -5  103.87    1.36   4
   0   2   5  110.90    1.52   1
   0   2   5  104.68    1.46   2
   0   2   5  102.06    1.40   3
   0   2   5  108.77    1.36   4
   0  -2  -6  202.16    2.19   1
   0  -2  -6  206.34    2.16   2
   0  -2  -6  200.93    2.08   3
   0  -2  -6  187.78    2.04   4
   0   2   6  202.29    2.17   1
   0   2   6  198.79    2.17   2
   0   2   6  195.61    2.09   3
   0   2   6  202.52    2.08   4
   0  -2  -7    3.74    0.47   1
   0  -2  -7    3.48    0.45   2
   0  -2  -7    4.72    0.59   3
   0  -2  -7    4.51    0.54   4
   0   2   7    5.11    0.58   1
   0   2   7    3.74    0.51   2
   0   2   7    4.28    0.51   3
   0   2   7    5.48    0.60   4
   0  -2  -8    2.12    0.47   1
   0  -2  -8    1.36    0.45   2
   0  -2  -8    1.56    0.47   3
   0  -2  -8    2.24    0.54   4
   0   2   8    1.58    0.55   1
   0   2   8    1.85    0.47   2
   0   2   8    1.90    0.45   3
   0   2   8    2.27    0.52   4
   0  -2  -9    1.32    0.53   1
   0  -2  -9    1.00    0.58   3
   0  -2  -9    0.07    0.51   4
   0   2   9    0.97    0.67   1
   0   2   9    0.92    0.52   2
   0   2   9    1.31    0.49   3
   0  -2 -10    1.83    0.58   1
   0  -2 -10   -0.65    0.59   4
   0   2  10    0.68    0.62   2
   0   2  10    0.91    0.59   3
   0  -2 -11    0.97    0.64   1
   0  -2 -11    2.04    0.82   4
   0   2  11    1.26    0.71   2
   0   2  11    0.61    0.65   3
   0  -2 -12    0.73    0.77   1
   0  -2 -12    0.92    0.95   4
   0   2  12   -0.35    0.84   2
   0   2  12   -0.39    0.83   3
   0  -2 -13    1.69    0.93   1
   0  -2 -13   -0.94    1.12   4
   0   2  13    0.30    1.14   2
   0   2  13    0.16    1.01   3
   0  -3  12    3.66    1.21   2
   0   3 -12    3.66    1.11   3
   0   3 -12    4.95    1.15   4
   0  -3  11    5.59    1.01   2
   0   3 -11    6.34    0.99   3
   0   3 -11    5.71    1.09   4
   0  -3  10    2.09    0.78   2
   0   3 -10    0.51    0.78   4
   0  -3   9   16.66    1.22   2
   0  -3   9   17.27    1.19   3
   0   3  -9   16.60    1.19   4
   0  -3   8    4.22    0.68   2
   0  -3   8    3.46    0.63   3
   0   3  -8    5.55    0.81   4
   0  -3   7    1.14    0.42   2
   0  -3   7    0.89    0.45   3
   0   3  -7    1.18    0.52   2
   0   3  -7    0.40    0.44   3
   0   3  -7    1.16    0.49   4
   0  -3   6    0.10    0.33   2
   0  -3   6   -0.29    0.35   4
   0   3  -6   -0.13    0.35   2
   0   3  -6   -0.11    0.33   3
   0   3  -6    0.31    0.39   4
   0  -3   5   49.39    1.21   2
   0  -3   5   51.78    1.21   4
   0   3  -5   53.00    1.21   2
   0   3  -5   52.30    1.22   3
   0   3  -5   52.85    1.18   3
   0   3  -5   49.15    1.25   4
   0  -3   4    6.91    0.56   2
   0  -3   4    7.75    0.53   4
   0   3  -4    7.39    0.50   2
   0   3  -4    6.72    0.50   3
   0   3  -4    6.95    0.46   3
   0   3  -4    6.45    0.60   4
   0  -3   3    1.31    0.30   2
   0  -3   3    1.16    0.24   4
   0   3  -3    1.57    0.27   2
   0   3  -3    1.05    0.29   3
   0   3  -3    1.01    0.23   3
   0   3  -3    1.17    0.29   4
   0  -3   2   13.25    0.31   1
   0  -3   2   13.82    0.58   2
   0  -3   2   13.52    0.53   3
   0  -3   2   14.16    0.48   4
   0   3  -2   13.55    0.32   1
   0   3  -2   13.70    0.54   2
   0   3  -2   13.73    0.56   3
   0   3  -2   12.80    0.52   4
   0  -3   1   61.55    0.73   1
   0  -3   1   62.57    1.02   2
   0  -3   1   59.38    0.76   4
   0   3  -1   60.10    0.72   1
   0   3  -1   60.18    1.01   2
   0   3  -1   62.26    1.01   3
   0   3  -1   59.86    0.77   4
   0  -3   0   30.05    0.60   1
   0  -3   0   31.54    0.70   3
   0  -3   0   29.49    0.41   4
   0   3   0   30.11    0.59   1
   0   3   0   31.48    0.70   2
   0   3   0   30.28    0.70   3
   0   3   0   29.21    0.41   4
   0  -3  -1    4.20    0.33   1
   0  -3  -1    4.78    0.34   2
   0  -3  -1    5.13    0.32   3
   0   3   1    5.50    0.34   2
   0   3   1    4.87    0.37   3
   0  -3  -2    7.53    0.44   1
   0   3   2    7.44    0.41   1
   0   3   2    7.69    0.41   2
   0   3   2    7.21    0.40   2
   0   3   2    7.75    0.42   3
   0  -3  -3   16.77    0.63   1
   0  -3  -3   16.80    0.56   2
   0  -3  -3   17.86    0.58   3
   0  -3  -3   17.32    0.36   4
   0   3   3   17.26    0.61   1
   0   3   3   16.37    0.57   2
   0   3   3   17.27    0.61   3
   0   3   3   17.73    0.36   4
   0  -3  -4   79.70    1.35   1
   0  -3  -4   83.82    1.26   2
   0  -3  -4   82.59    1.25   3
   0  -3  -4   78.85    0.94   4
   0   3   4   79.60    1.31   1
   0   3   4   78.59    1.23   2
   0   3   4   75.97    1.22   3
   0   3   4   81.70    0.94   4
   0  -3  -5   61.85    1.28   1
   0  -3  -5   62.29    1.18   2
   0  -3  -5   61.10    1.16   3
   0  -3  -5   61.36    1.01   4
   0   3   5   62.76    1.26   1
   0   3   5   63.68    1.22   2
   0   3   5   61.76    1.20   3
   0  -3  -6    2.40    0.42   1
   0  -3  -6    2.51    0.38   2
   0  -3  -6    2.49    0.41   3
   0  -3  -6    2.73    0.38   4
   0   3   6    3.20    0.48   1
   0   3   6    2.53    0.43   2
   0   3   6    2.29    0.42   3
   0   3   6    3.22    0.37   4
   0  -3  -7    3.55    0.53   1
   0  -3  -7    3.23    0.45   2
   0  -3  -7    3.05    0.44   3
   0  -3  -7    3.25    0.46   4
   0   3   7    3.72    0.60   1
   0   3   7    3.37    0.53   2
   0   3   7    3.53    0.50   3
   0   3   7    3.64    0.45   4
   0  -3  -8   34.99    1.25   1
   0  -3  -8   32.29    1.20   2
   0  -3  -8   33.77    1.20   3
   0  -3  -8   30.43    1.13   4
   0   3   8   32.36    1.29   1
   0   3   8   33.10    1.24   2
   0   3   8   34.20    1.21   3
   0   3   8   32.96    1.11   4
   0  -3  -9    7.95    0.93   1
   0  -3  -9    5.67    0.80   3
   0  -3  -9    7.80    0.78   4
   0   3   9    5.45    0.75   2
   0   3   9    7.84    0.92   3
   0   3   9    9.88    0.96   4
   0  -3 -10    0.29    0.63   1
   0  -3 -10    0.42    0.62   4
   0   3  10    0.24    0.64   2
   0   3  10    0.42    0.58   3
   0  -3 -11    1.33    0.74   1
   0   3  11    0.43    0.74   2
   0   3  11    0.61    0.72   3
   0  -3 -12   -0.14    0.84   1
   0  -3 -12   -0.93    0.91   4
   0   3  12    0.55    0.90   2
   0   3  12   -0.06    0.89   3
   0  -3 -13    1.81    1.06   1
   0  -3 -13    0.04    1.21   4
   0   3  13   -0.07    1.04   2
   0   3  13    1.73    1.14   3
   0  -4  12    1.06    1.11   2
   0   4 -12    0.48    1.20   3
   0   4 -12    0.85    1.19   4
   0  -4  11    2.11    0.91   2
   0   4 -11    1.12    0.97   3
   0   4 -11    1.27    1.00   4
   0  -4  10    2.44    0.80   2
   0   4 -10    1.73    0.83   3
   0   4 -10    1.80    0.94   4
   0  -4   9    4.96    0.79   2
   0   4  -9    1.86    0.70   4
   0  -4   8   21.76    1.27   2
   0   4  -8   22.64    1.22   3
   0  -4   7    2.99    0.61   2
   0   4  -7    3.91    0.68   3
   0   4  -7    4.39    0.69   4
   0  -4   6    1.94    0.49   2
   0  -4   6    2.65    0.54   4
   0   4  -6    1.72    0.47   2
   0   4  -6    2.59    0.54   3
   0   4  -6    2.40    0.53   3
   0   4  -6    1.75    0.48   4
   0  -4   5    1.91    0.43   2
   0  -4   5    2.13    0.45   4
   0   4  -5    2.05    0.37   2
   0   4  -5    2.30    0.41   3
   0   4  -5    2.08    0.44   3
   0   4  -5    1.52    0.45   4
   0  -4   4    0.80    0.36   2
   0  -4   4    0.51    0.32   4
   0   4  -4    0.82    0.31   2
   0   4  -4    0.51    0.35   3
   0   4  -4    1.23    0.34   3
   0   4  -4    0.35    0.35   4
   0  -4   3   88.18    0.72   1
   0  -4   3   83.82    1.49   2
   0  -4   3   82.98    1.31   4
   0   4  -3   88.34    0.73   1
   0   4  -3   86.38    1.47   2
   0   4  -3   87.11    1.49   3
   0   4  -3   88.25    1.46   3
   0   4  -3   79.82    1.34   4
   0  -4   2   26.44    0.53   1
   0  -4   2   25.63    0.82   2
   0  -4   2   27.50    0.82   3
   0  -4   2   26.21    0.69   4
   0   4  -2   26.16    0.54   1
   0   4  -2   26.33    0.81   2
   0   4  -2   27.23    0.85   3
   0   4  -2   25.74    0.73   4
   0  -4   1   73.82    0.97   1
   0  -4   1   71.46    1.26   2
   0  -4   1   73.69    1.24   3
   0  -4   1   72.81    0.92   4
   0   4  -1   72.27    0.96   1
   0   4  -1   77.04    1.27   2
   0   4  -1   71.10    1.24   3
   0   4  -1   70.19    0.92   4
   0  -4   0   77.57    1.09   1
   0  -4   0   75.00    1.24   2
   0  -4   0   76.90    1.23   3
   0  -4   0   77.19    0.74   4
   0   4   0   75.19    1.10   1
   0   4   0   79.14    1.24   2
   0   4   0   73.15    1.22   3
   0   4   0   75.19    0.73   4
   0  -4  -1    0.03    0.21   1
   0  -4  -1    0.31    0.22   2
   0  -4  -1    0.41    0.21   3
   0   4   1    0.52    0.21   1
   0   4   1    0.13    0.19   2
   0   4   1    0.46    0.23   3
   0  -4  -2    8.49    0.52   1
   0  -4  -2    9.08    0.50   3
   0   4   2    9.32    0.53   1
   0   4   2    9.21    0.53   2
   0   4   2    9.89    0.51   2
   0   4   2    9.11    0.52   3
   0  -4  -3   14.80    0.68   1
   0  -4  -3   14.60    0.62   3
   0  -4  -3    6.22    0.16   4
   0  -4  -3   14.74    0.23   4
   0   4   3   13.88    0.64   1
   0   4   3   13.44    0.59   2
   0   4   3   13.63    0.57   2
   0   4   3   14.80    0.68   3
   0  -4  -4    0.42    0.28   1
   0  -4  -4    0.18    0.25   3
   0  -4  -4    0.42    0.15   4
   0   4   4    0.76    0.28   1
   0   4   4    0.68    0.30   2
   0   4   4    0.54    0.28   2
   0   4   4    0.32    0.29   3
   0   4   4    0.28    0.12   4
   0  -4  -5   11.24    0.70   1
   0  -4  -5   11.93    0.65   2
   0  -4  -5   10.92    0.65   3
   0   4   5   11.33    0.64   1
   0   4   5   11.03    0.67   2
   0   4   5   10.67    0.67   3
   0   4   5   11.11    0.44   4
   0  -4  -6    8.20    0.73   1
   0  -4  -6    7.97    0.67   2
   0  -4  -6    8.58    0.74   3
   0  -4  -6    8.79    0.54   4
   0   4   6    9.50    0.73   1
   0   4   6    7.59    0.69   2
   0   4   6    8.23    0.69   3
   0   4   6    8.49    0.51   4
   0  -4  -7    2.16    0.52   1
   0  -4  -7    0.76    0.40   2
   0  -4  -7    2.10    0.53   3
   0  -4  -7    1.51    0.38   4
   0   4   7    0.60    0.50   1
   0   4   7    1.67    0.51   2
   0   4   7    2.07    0.53   3
   0   4   7    1.21    0.35   4
   0  -4  -8    2.09    0.57   1
   0  -4  -8    1.78    0.54   2
   0  -4  -8    1.02    0.60   3
   0  -4  -8    1.71    0.45   4
   0   4   8    1.44    0.58   2
   0   4   8    1.67    0.53   3
   0   4   8    2.00    0.46   4
   0  -4  -9    0.63    0.60   1
   0  -4  -9    0.56    0.50   4
   0   4   9    0.46    0.63   2
   0   4   9    0.06    0.56   3
   0   4   9    0.69    0.53   4
   0  -4 -10   -0.41    0.60   4
   0   4  10   -0.22    0.62   2
   0   4  10    0.18    0.63   3
   0  -4 -11    2.23    0.84   1
   0  -4 -11    1.98    0.86   4
   0   4  11    1.42    0.78   2
   0  -4 -12    0.21    0.88   1
   0  -4 -12    0.41    1.01   4
   0   4  12    0.08    0.95   2
   0   4  12    0.76    0.95   3
   0  -4 -13    1.93    1.19   1
   0  -4 -13    2.21    1.23   4
   0   4  13    0.72    1.19   2
   0   4  13    1.63    1.18   3
   0  -5  11    3.89    1.10   2
   0   5 -11    5.37    1.18   3
   0   5 -11    2.67    1.16   4
   0  -5  10    1.52    0.90   2
   0   5 -10    0.33    0.83   3
   0   5 -10    0.72    0.91   4
   0  -5   9    2.89    0.86   2
   0   5  -9    4.85    0.86   3
   0   5  -9    1.75    0.85   4
   0  -5   8    7.50    0.93   2
   0   5  -8    5.54    0.86   4
   0  -5   7   18.01    1.11   2
   0   5  -7   18.46    1.19   3
   0   5  -7   16.08    1.21   4
   0  -5   6   -0.14    0.45   2
   0   5  -6   -0.19    0.46   3
   0   5  -6    0.51    0.50   4
   0  -5   5    1.33    0.44   2
   0  -5   5    0.79    0.46   4
   0   5  -5    0.84    0.46   3
   0   5  -5    0.00    0.50   3
   0   5  -5    0.59    0.43   4
   0  -5   4   23.49    0.99   2
   0  -5   4   23.49    0.91   4
   0   5  -4   24.75    0.99   2
   0   5  -4   23.96    1.00   3
   0   5  -4   23.76    1.03   3
   0   5  -4   23.39    0.95   4
   0  -5   3    7.47    0.35   1
   0  -5   3    6.59    0.61   2
   0  -5   3    7.04    0.57   4
   0   5  -3    6.66    0.37   1
   0   5  -3    6.90    0.63   2
   0   5  -3    6.87    0.61   3
   0   5  -3    7.07    0.65   3
   0   5  -3    6.83    0.61   4
   0  -5   2    2.36    0.41   2
   0  -5   2    2.72    0.45   3
   0  -5   2    3.12    0.35   4
   0   5  -2    2.41    0.30   1
   0   5  -2    2.10    0.39   2
   0   5  -2    2.73    0.45   3
   0   5  -2    2.63    0.36   4
   0  -5   1   15.61    0.58   1
   0  -5   1   14.17    0.71   3
   0  -5   1   15.52    0.52   4
   0   5  -1   15.00    0.58   1
   0   5  -1   15.10    0.69   2
   0   5  -1   16.06    0.74   3
   0  -5   0   44.21    0.96   1
   0  -5   0   41.65    1.06   2
   0  -5   0   46.52    1.12   3
   0  -5   0   44.82    0.63   4
   0   5   0   43.41    0.95   1
   0   5   0   45.49    1.09   2
   0   5   0   43.92    1.12   3
   0   5   0   42.67    0.63   4
   0  -5  -1    4.72    0.47   1
   0  -5  -1    4.83    0.51   2
   0  -5  -1    5.19    0.50   3
   0   5   1    3.89    0.48   1
   0   5   1    4.77    0.49   2
   0   5   1    4.69    0.55   3
   0  -5  -2    1.29    0.36   1
   0  -5  -2    1.21    0.36   2
   0  -5  -2    0.89    0.31   3
   0   5   2    1.51    0.34   1
   0   5   2    1.89    0.33   2
   0   5   2    1.28    0.35   3
   0  -5  -3  193.48    2.30   1
   0  -5  -3  207.34    2.28   3
   0   5   3  204.22    2.32   1
   0   5   3  209.30    2.32   2
   0   5   3  211.57    2.28   2
   0   5   3  193.44    2.23   3
   0  -5  -4    4.99    0.61   1
   0  -5  -4    3.17    0.47   3
   0   5   4    4.39    0.53   1
   0   5   4    3.41    0.49   2
   0   5   4    3.73    0.47   2
   0   5   4    3.08    0.44   3
   0  -5  -5   61.30    1.48   1
   0  -5  -5   59.07    1.37   3
   0  -5  -5   59.76    0.77   4
   0   5   5   62.32    1.46   1
   0   5   5   61.93    1.42   2
   0   5   5   60.39    1.38   2
   0   5   5   61.42    1.41   3
   0   5   5   61.14    0.77   4
   0  -5  -6   31.61    1.20   1
   0  -5  -6   32.85    1.15   3
   0  -5  -6   29.84    0.75   4
   0   5   6   31.65    1.13   2
   0   5   6   33.65    1.17   2
   0   5   6   28.46    1.10   3
   0   5   6   30.35    0.71   4
   0  -5  -7    3.49    0.59   1
   0  -5  -7    2.45    0.58   2
   0  -5  -7    3.17    0.65   3
   0  -5  -7    3.16    0.43   4
   0   5   7    2.65    0.59   2
   0   5   7    3.27    0.60   3
   0   5   7    2.80    0.39   4
   0  -5  -8    5.46    0.80   1
   0  -5  -8    3.26    0.52   4
   0   5   8    4.57    0.73   2
   0   5   8    4.22    0.68   3
   0   5   8    3.38    0.50   4
   0  -5  -9    1.20    0.65   1
   0  -5  -9    0.73    0.51   4
   0   5   9    0.01    0.64   2
   0   5   9    1.13    0.62   3
   0   5   9    0.11    0.51   4
   0  -5 -10   -0.45    0.71   1
   0  -5 -10    0.64    0.63   4
   0   5  10    0.47    0.86   2
   0   5  10    0.45    0.71   3
   0   5  10   -0.76    0.65   4
   0  -5 -11    2.42    0.99   1
   0  -5 -11    2.04    0.84   4
   0   5  11   -0.63    0.83   2
   0   5  11    3.06    0.93   3
   0  -5 -12    0.84    1.03   1
   0  -5 -12    0.58    1.05   4
   0   5  12   -0.30    1.01   2
   0   5  12    1.01    1.01   3
   0  -6  10    0.95    0.94   2
   0   6 -10    0.78    0.99   3
   0   6 -10    0.67    1.08   4
   0  -6   9    4.47    1.03   2
   0   6  -9    4.47    0.94   3
   0   6  -9    4.33    1.03   4
   0  -6   8    1.67    0.74   2
   0   6  -8    2.69    0.77   3
   0   6  -8    2.83    0.83   4
   0  -6   7    7.45    0.95   2
   0   6  -7    6.20    0.83   3
   0  -6   6   38.25    1.48   2
   0   6  -6   39.75    1.52   3
   0   6  -6   36.18    1.43   4
   0  -6   5    0.96    0.51   2
   0  -6   5   -0.14    0.49   4
   0   6  -5    0.23    0.53   3
   0   6  -5    0.34    0.49   4
   0  -6   4   71.13    0.77   1
   0  -6   4   94.97    1.99   2
   0  -6   4   90.58    1.69   4
   0   6  -4   95.15    0.88   1
   0   6  -4   94.65    1.98   3
   0   6  -4   87.49    1.71   4
   0  -6   3  111.23    2.07   2
   0  -6   3  108.67    1.66   4
   0   6  -3  109.58    1.22   1
   0   6  -3  104.09    1.95   2
   0   6  -3  107.92    1.99   3
   0   6  -3  108.12    1.98   3
   0   6  -3  102.54    1.64   4
   0  -6   2    2.02    0.34   1
   0  -6   2    2.13    0.50   2
   0  -6   2    2.17    0.53   3
   0  -6   2    2.66    0.37   4
   0   6  -2    2.43    0.36   1
   0   6  -2    1.92    0.41   2
   0   6  -2    2.16    0.50   3
   0   6  -2    2.44    0.37   4
   0  -6   1   94.84    1.40   1
   0  -6   1   93.21    1.76   2
   0  -6   1   95.00    1.76   3
   0   6  -1   93.76    1.40   1
   0   6  -1   95.90    1.75   2
   0   6  -1   95.85    1.79   3
   0   6  -1   93.59    1.21   4
   0  -6   0    0.72    0.30   1
   0  -6   0    0.11    0.34   2
   0  -6   0    0.28    0.38   3
   0  -6   0    0.29    0.16   4
   0   6   0   -0.14    0.31   1
   0   6   0    0.37    0.34   2
   0   6   0    0.24    0.35   3
   0   6   0   -0.08    0.16   4
   0  -6  -1    0.17    0.30   1
   0  -6  -1    0.18    0.32   2
   0  -6  -1   -0.50    0.32   3
   0   6   1    0.20    0.32   1
   0   6   1    0.62    0.30   2
   0   6   1   -0.12    0.32   3
   0  -6  -2    2.54    0.46   1
   0  -6  -2    2.33    0.43   2
   0  -6  -2    3.21    0.50   3
   0   6   2    2.67    0.49   1
   0   6   2    2.16    0.41   2
   0   6   2    3.02    0.49   3
   0  -6  -3   29.11    1.07   1
   0  -6  -3   27.49    1.05   3
   0   6   3   27.21    1.01   1
   0   6   3   28.16    1.03   2
   0   6   3   28.90    1.00   2
   0   6   3   26.92    1.07   3
   0  -6  -4   58.71    1.49   1
   0  -6  -4   61.67    1.50   3
   0   6   4   57.40    1.46   1
   0   6   4   61.94    1.48   2
   0   6   4   59.26    1.44   2
   0   6   4   59.53    1.50   3
   0  -6  -5    0.68    0.48   1
   0  -6  -5   -0.13    0.51   3
   0   6   5    0.46    0.39   2
   0   6   5    0.24    0.44   2
   0   6   5    0.39    0.41   3
   0  -6  -6   43.93    1.45   1
   0  -6  -6   43.09    1.46   3
   0  -6  -6   30.48    0.59   4
   0  -6  -6   45.11    0.70   4
   0   6   6   44.89    1.41   2
   0   6   6   45.37    1.42   2
   0   6   6   42.86    1.38   3
   0  -6  -7    5.55    0.85   1
   0  -6  -7    4.61    0.54   4
   0   6   7    4.97    0.76   2
   0   6   7    4.47    0.71   3
   0  -6  -8    1.30    0.67   1
   0  -6  -8   -0.24    0.39   4
   0   6   8    0.29    0.58   2
   0   6   8    0.60    0.64   3
   0   6   8    0.04    0.37   4
   0  -6  -9    1.60    0.73   1
   0  -6  -9   -0.28    0.51   4
   0   6   9    1.36    0.76   3
   0   6   9    1.55    0.54   4
   0  -6 -10    0.34    0.83   1
   0  -6 -10   -0.36    0.62   4
   0   6  10   -1.50    0.78   2
   0   6  10    0.74    0.80   3
   0  -6 -11    0.70    1.02   1
   0  -6 -11    0.14    0.81   4
   0   6  11   -0.25    1.02   2
   0   6  11    0.34    0.98   3
   0  -6 -12   -0.71    1.15   1
   0   6  12   -2.31    1.08   2
   0   6  12    2.33    1.25   3
   0  -7  10   -0.38    1.24   2
   0   7 -10    0.75    1.20   4
   0  -7   9    1.91    1.09   2
   0   7  -9    0.45    0.98   3
   0   7  -9   -0.08    1.02   4
   0  -7   8    7.10    1.12   2
   0   7  -8    6.13    1.10   3
   0   7  -8    7.05    1.13   4
   0  -7   7    2.70    0.83   2
   0   7  -7    2.28    0.86   3
   0   7  -7    2.42    0.78   4
   0  -7   6    4.48    0.87   2
   0   7  -6    5.25    0.91   3
   0   7  -6    4.78    0.76   4
   0  -7   5    0.68    0.60   2
   0   7  -5    1.67    0.57   4
   0  -7   4    7.48    0.46   1
   0  -7   4    9.94    0.99   2
   0  -7   4   11.19    0.94   4
   0   7  -4    8.98    0.49   1
   0   7  -4    9.74    1.00   3
   0   7  -4    9.30    0.84   4
   0  -7   3   90.00    1.26   1
   0  -7   3  124.22    2.38   2
   0  -7   3   92.98    1.64   4
   0   7  -3  119.90    1.46   1
   0   7  -3  125.66    2.34   3
   0   7  -3  118.96    1.86   4
   0  -7   2   19.61    0.78   1
   0  -7   2   18.14    1.09   2
   0  -7   2   13.69    0.73   4
   0   7  -2   18.56    0.82   1
   0   7  -2   17.06    1.00   3
   0   7  -2   17.43    0.80   4
   0  -7   1   63.46    1.31   1
   0  -7   1   64.79    1.68   2
   0  -7   1   50.72    0.96   4
   0   7  -1   62.79    1.34   1
   0   7  -1   61.71    1.65   3
   0   7  -1   59.44    1.06   4
   0  -7   0   34.37    1.06   1
   0  -7   0   34.85    1.26   2
   0  -7   0   25.08    0.57   4
   0   7   0   34.29    1.11   1
   0   7   0   31.34    1.19   3
   0   7   0   34.96    0.66   4
   0  -7  -1    5.56    0.67   1
   0  -7  -1    4.79    0.63   2
   0   7   1    6.37    0.70   1
   0   7   1    3.69    0.53   2
   0   7   1    5.89    0.70   3
   0  -7  -2    5.82    0.66   1
   0  -7  -2    5.60    0.65   2
   0   7   2    6.25    0.70   1
   0   7   2    4.19    0.58   2
   0   7   2    4.44    0.63   3
   0  -7  -3    1.65    0.45   1
   0   7   3    1.83    0.48   2
   0   7   3    1.72    0.58   3
   0  -7  -4    0.47    0.45   1
   0   7   4    0.69    0.52   2
   0   7   4    0.62    0.49   3
   0  -7  -5   36.13    1.40   1
   0   7   5   38.72    1.37   2
   0   7   5   36.84    1.36   3
   0   7   6   29.90    1.36   2
   0   7   6   29.69    1.37   3
   0  -7  -7   16.96    1.19   1
   0   7   7   18.03    1.27   2
   0   7   7   17.58    1.25   3
   0  -7  -8    0.25    0.75   1
   0  -7  -9   10.39    1.24   1
   0   7   9    9.57    1.18   2
   0   7   9    8.28    1.12   3
   0  -7 -10   -0.63    0.87   1
   0   7  10    0.19    0.99   2
   0   7  10    0.87    0.98   3
   0  -7 -11    0.98    1.20   1
   0   7  11    0.21    1.15   2
   0   7  11    0.32    1.07   3
   0  -8   9    3.80    1.29   2
   0   8  -9    2.80    1.25   4
   0  -8   8    7.38    1.35   2
   0   8  -8    6.24    1.26   3
   0   8  -8    5.72    1.16   4
   0  -8   7    3.60    1.03   2
   0   8  -7    3.21    0.95   3
   0   8  -7    1.66    0.90   4
   0  -8   6    7.79    1.09   2
   0   8  -6    6.91    1.02   3
   0  -8   5    2.77    0.96   2
   0   8  -5    2.51    0.81   3
   0   8  -5    2.08    0.71   4
   0  -8   4   19.94    0.71   1
   0  -8   4   26.35    1.40   2
   0  -8   4   27.10    1.31   4
   0   8  -4   26.54    1.43   3
   0   8  -4   27.03    1.26   4
   0  -8   3   14.19    0.74   1
   0  -8   3   21.47    1.34   2
   0  -8   3   13.60    0.98   4
   0   8  -3   17.39    0.88   1
   0   8  -3   21.63    1.26   3
   0   8  -3   20.33    1.03   4
   0  -8   2    0.06    0.40   1
   0  -8   2    0.50    0.40   4
   0   8  -2    0.67    0.53   1
   0   8  -2   -0.22    0.38   4
   0  -8   1   -0.24    0.41   1
   0  -8   1    0.29    0.49   2
   0  -8   1   -0.10    0.29   4
   0   8  -1    0.11    0.54   1
   0   8  -1    0.34    0.58   3
   0   8  -1    0.12    0.31   4
   0  -8   0   67.64    1.59   1
   0  -8   0   70.09    1.87   2
   0   8   0   66.56    1.63   1
   0   8   0   68.16    1.87   3
   0   8   0   68.36    0.88   4
   0  -8  -1   13.33    0.98   1
   0  -8  -1   10.99    1.04   2
   0   8   1   11.67    1.10   1
   0   8   1   11.40    0.99   3
   0  -8  -2   23.57    1.17   1
   0  -8  -2   21.25    1.23   2
   0   8   2   20.07    1.14   3
   0  -8  -3    1.47    0.57   1
   0   8   3    2.01    0.66   2
   0   8   3    2.39    0.73   3
   0  -8  -4   14.46    1.14   1
   0   8   4   14.95    1.12   2
   0   8   4   13.32    1.17   3
   0  -8  -5    1.96    0.67   1
   0   8   5    1.64    0.66   2
   0   8   5    1.52    0.63   3
   0  -8  -6    1.38    0.68   1
   0  -8  -7    0.10    0.73   1
   0   8   7    0.47    0.68   2
   0   8   7    0.43    0.68   3
   0  -8  -8    3.52    0.91   1
   0   8   8    4.90    0.99   2
   0   8   8    2.48    0.87   3
   0  -8  -9    1.88    1.08   1
   0   8   9    1.00    1.02   2
   0   8   9    1.75    0.90   3
   0  -8 -10   -0.90    1.11   1
   0   8  10    0.43    1.13   2
   0   8  10    2.21    1.14   3
   0  -9   7   -1.18    1.15   2
   0   9  -7    0.32    1.13   3
   0   9  -7    1.27    1.06   4
   0  -9   6    2.76    1.10   2
   0   9  -6    4.11    1.21   3
   0   9  -6    2.68    0.95   4
   0  -9   5   13.16    1.42   2
   0   9  -5   13.12    1.63   3
   0   9  -5   11.78    1.35   4
   0  -9   4   -0.11    0.75   2
   0   9  -4    0.13    0.70   3
   0   9  -4    0.23    0.65   4
   0  -9   3   12.36    0.87   1
   0  -9   3   13.97    1.40   2
   0   9  -3   14.78    1.44   3
   0   9  -3   15.12    1.09   4
   0  -9   2    1.07    0.51   1
   0  -9   2    2.68    0.80   2
   0   9  -2    3.24    0.70   1
   0   9  -2    1.27    0.71   3
   0   9  -2    1.22    0.49   4
   0  -9   1   12.05    1.01   1
   0  -9   1   13.23    1.22   2
   0   9  -1   13.79    1.28   1
   0   9  -1   12.99    1.23   3
   0   9  -1   14.13    0.73   4
   0  -9   0    6.48    0.80   1
   0  -9   0    6.24    0.84   2
   0   9   0    4.93    0.85   3
   0   9   0    5.82    0.40   4
   0   9   0    6.57    0.42   4
   0  -9  -1    0.44    0.59   1
   0  -9  -1    0.33    0.58   2
   0   9   1    0.18    0.62   3
   0  -9  -2    1.90    0.67   1
   0  -9  -2    2.41    0.68   2
   0   9   2    1.40    0.66   3
   0  -9  -3   33.19    1.57   1
   0   9   3   36.34    1.62   2
   0   9   3   36.77    1.69   3
   0  -9  -4    3.13    0.83   1
   0   9   4    0.41    0.65   2
   0   9   4    2.24    0.82   3
   0  -9  -5   16.31    1.44   1
   0   9   5   16.12    1.37   2
   0   9   5   13.73    1.37   3
   0  -9  -6    2.08    0.84   1
   0   9   6    1.63    0.84   2
   0   9   6    0.27    0.75   3
   0  -9  -7    2.89    0.95   1
   0   9   7    1.55    0.89   2
   0   9   7    1.73    0.95   3
   0  -9  -8    0.97    0.99   1
   0   9   8    1.09    0.99   2
   0   9   8   -0.81    0.92   3
   0  -9  -9   -1.36    1.15   1
   0   9   9   -1.23    1.11   2
   0   9   9   -0.45    1.18   3
   0 -10   6    0.82    1.13   2
   0  10  -6   -1.12    1.20   3
   0  10  -6   -1.34    1.03   4
   0 -10   5    1.36    1.01   2
   0  10  -5    1.91    1.19   3
   0 -10   4    3.56    0.98   2
   0  10  -4    4.41    1.21   3
   0  10  -4    5.46    0.92   4
   0 -10   3    3.31    1.04   2
   0  10  -3    1.52    1.07   3
   0  10  -3    1.26    0.70   4
   0 -10   2    2.46    0.70   1
   0 -10   2    2.09    0.85   2
   0  10  -2    3.29    0.99   3
   0  10  -2    4.18    0.65   4
   0 -10   1    2.42    0.71   1
   0 -10   1    2.90    0.95   2
   0  10  -1    2.12    0.87   3
   0 -10   0    7.06    0.97   1
   0 -10   0    5.54    1.01   2
   0  10   0    6.92    1.08   3
   0 -10  -1   -1.05    0.71   2
   0  10   1   -0.31    0.75   3
   0 -10  -2    1.86    0.81   1
   0  10   2    1.81    0.86   2
   0  10   2    1.18    0.79   3
   0 -10  -3    1.62    0.81   1
   0  10   3    0.95    0.76   2
   0  10   3   -0.58    0.83   3
   0 -10  -4    2.07    0.84   1
   0  10   4    0.74    0.83   2
   0  10   4    2.37    0.97   3
   0 -10  -5   -0.27    0.91   1
   0  10   5    0.25    0.88   2
   0  10   5    1.04    0.94   3
   0 -10  -6    7.79    1.32   1
   0  10   6    5.47    1.12   2
   0  10   6    5.21    1.11   3
   0 -10  -7   -0.81    1.16   1
   0  10   7    1.38    1.05   2
   0  10   7    0.74    1.09   3
   0 -10  -8    2.26    1.31   1
   0  10   8    3.54    1.34   2
   0  10   8    1.99    1.35   3
   0 -11   3    0.86    1.19   2
   0  11  -3    1.07    1.17   3
   0 -11   2   -0.47    1.07   2
   0  11  -2    0.51    1.14   3
   0 -11   1    0.38    0.83   1
   0 -11   1   -1.61    1.05   2
   0  11  -1   -0.30    1.07   3
   0 -11   0    2.94    0.93   1
   0 -11   0    3.90    1.13   2
   0  11   0    1.60    0.98   3
   0 -11  -1    0.04    0.88   1
   0 -11  -1   -0.91    0.98   2
   0  11   1    0.69    1.06   3
   0 -11  -2   14.18    1.67   1
   0  11   2   11.15    1.39   2
   0  11   2   15.78    1.86   3
   0 -11  -3    3.52    1.06   1
   0  11   3    5.62    1.22   2
   0  11   3    3.30    1.05   3
   0 -11  -4    0.14    1.07   1
   0  11   4    0.89    1.08   2
   0  11   4    1.23    1.09   3
   0 -11  -5   -0.87    1.12   1
   0  11   5    1.21    1.18   2
   0  11   5    0.31    1.15   3
   0 -11  -6    1.09    1.38   1
   0  11   6    0.48    1.16   2
   0  11   6    0.69    1.19   3
  -1  11   5    0.07    1.15   2
  -1  11   5    0.43    1.21   3
   1 -11  -5    2.04    1.36   1
  -1  11   4   -0.20    1.15   2
  -1  11   4   -0.92    1.13   3
   1 -11  -4    0.67    1.18   1
  -1  11   3    2.79    1.06   2
  -1  11   3    2.48    1.25   3
   1 -11  -3    1.51    1.16   1
  -1  11   2   -1.34    1.02   2
  -1  11   2   -1.31    1.05   3
   1 -11  -2    0.69    1.06   1
  -1  11   1    1.00    1.08   3
   1 -11  -1    0.58    1.03   1
   1 -11  -1    1.43    1.10   2
  -1  11   0   15.08    1.80   3
   1 -11   0   18.19    1.68   1
   1 -11   0   19.27    1.74   2
  -1  11  -1    1.71    1.09   3
   1 -11   1    1.94    1.06   1
   1 -11   1    1.26    1.00   2
  -1  11  -2    3.85    1.25   3
   1 -11   2    4.66    1.27   2
  -1  11  -3    7.62    1.35   3
   1 -11   3    8.06    1.46   2
  -1  10   7    0.36    1.06   2
  -1  10   7    0.41    1.15   3
   1 -10  -7    0.52    1.22   1
  -1  10   6    2.65    1.11   2
  -1  10   6    2.85    1.14   3
   1 -10  -6    4.47    1.18   1
  -1  10   5    4.85    1.16   2
  -1  10   5    3.27    1.03   3
   1 -10  -5    4.35    1.14   1
  -1  10   4   -0.63    0.90   2
  -1  10   4    0.03    0.90   3
   1 -10  -4   -0.09    0.92   1
  -1  10   3    0.95    0.92   2
  -1  10   3   -0.22    0.84   3
   1 -10  -3    1.09    0.85   1
  -1  10   2    1.28    0.91   2
  -1  10   2   -0.75    0.75   3
   1 -10  -2    1.95    0.82   1
  -1  10   1    7.30    1.12   3
   1 -10  -1    8.15    1.05   1
   1 -10  -1    7.84    1.11   2
  -1  10   0   -0.42    0.77   3
   1 -10   0   -0.06    0.81   2
  -1  10  -1    8.52    1.12   3
   1 -10   1   11.36    1.31   1
   1 -10   1    8.77    1.12   2
  -1  10  -2    2.08    0.91   3
   1 -10   2    1.37    0.72   1
   1 -10   2    1.29    0.86   2
  -1  10  -3   22.09    1.66   3
  -1  10  -3   19.24    1.23   4
   1 -10   3   21.01    1.36   1
   1 -10   3   24.93    1.82   2
  -1  10  -4    1.80    1.08   3
  -1  10  -4    4.81    0.85   4
   1 -10   4    4.19    1.14   2
  -1  10  -5    1.00    1.11   3
  -1  10  -5   -0.43    0.85   4
   1 -10   5   -0.94    0.97   2
  -1  10  -6    0.72    1.27   3
  -1  10  -6    0.42    1.05   4
   1 -10   6    3.14    1.22   2
  -1   9   8    4.08    1.20   2
  -1   9   8    4.25    1.32   3
   1  -9  -8    3.22    1.13   1
  -1   9   7    1.60    1.03   2
  -1   9   7    0.16    0.88   3
   1  -9  -7    1.60    1.05   1
  -1   9   6    3.21    0.93   2
  -1   9   6    3.59    1.01   3
   1  -9  -6    2.84    0.93   1
  -1   9   5    2.73    0.81   2
  -1   9   5    4.47    0.99   3
   1  -9  -5    5.15    0.99   1
  -1   9   4   -0.09    0.70   2
  -1   9   4   -0.22    0.72   3
   1  -9  -4    0.43    0.74   1
  -1   9   3   15.15    1.27   2
  -1   9   3   15.47    1.28   3
   1  -9  -3   16.37    1.27   1
  -1   9   2    1.23    0.70   3
   1  -9  -2    0.15    0.66   2
  -1   9   1    0.32    0.65   3
   1  -9  -1    0.42    0.57   1
   1  -9  -1    1.69    0.69   2
  -1   9   0    0.36    0.67   3
   1  -9   0   -0.04    0.57   1
   1  -9   0    0.73    0.63   2
  -1   9  -1   -0.53    0.67   3
  -1   9  -1   -0.54    0.33   4
   1  -9   1    0.11    0.53   1
   1  -9   1   -0.19    0.56   2
  -1   9  -2    4.00    0.82   1
  -1   9  -2    4.65    0.91   3
  -1   9  -2    5.09    0.58   4
   1  -9   2    3.63    0.68   1
   1  -9   2    4.82    0.89   2
  -1   9  -3    0.82    0.74   3
  -1   9  -3    0.74    0.53   4
   1  -9   3    1.17    0.54   1
   1  -9   3   -0.83    0.70   2
  -1   9  -4    3.59    0.92   3
  -1   9  -4    3.95    0.77   4
   1  -9   4    3.63    0.59   1
   1  -9   4    4.12    0.96   2
  -1   9  -5    4.10    1.00   3
  -1   9  -5    4.11    0.82   4
   1  -9   5    3.42    1.07   2
  -1   9  -6    2.41    1.00   3
  -1   9  -6    4.31    0.95   4
   1  -9   6    3.13    1.04   2
  -1   9  -7   -0.42    1.10   3
  -1   9  -7    1.51    1.01   4
   1  -9   7    0.46    1.16   2
  -1   8  10    0.38    1.28   2
  -1   8  10    2.45    1.29   3
   1  -8 -10    2.45    1.24   1
  -1   8   9    2.46    1.10   2
  -1   8   9    1.44    1.16   3
   1  -8  -9    3.11    1.23   1
  -1   8   8    1.17    0.94   2
  -1   8   8    1.54    0.94   3
   1  -8  -8    2.03    1.03   1
  -1   8   7   -0.70    0.76   2
  -1   8   7   -0.49    0.81   3
   1  -8  -7   -0.38    0.79   1
  -1   8   6    0.15    0.67   3
   1  -8  -6    0.67    0.69   1
  -1   8   5    2.42    0.65   2
  -1   8   5    2.29    0.78   3
   1  -8  -5    2.63    0.68   1
  -1   8   4    0.24    0.58   2
  -1   8   4    0.84    0.62   3
   1  -8  -4    1.40    0.65   1
  -1   8   3    2.32    0.58   2
   1  -8  -3    2.41    0.72   1
  -1   8   2    2.45    0.64   3
   1  -8  -2    4.19    0.71   1
   1  -8  -2    2.97    0.66   2
  -1   8   1    6.34    0.82   3
   1  -8  -1    6.73    0.80   1
   1  -8  -1    6.13    0.82   2
  -1   8   0   34.57    1.42   1
  -1   8   0   35.67    1.47   3
  -1   8   0   33.70    0.59   4
   1  -8   0   36.74    1.29   1
   1  -8   0   34.52    1.42   2
   1  -8   0   27.03    0.54   4
  -1   8  -1    2.90    0.69   1
  -1   8  -1    2.83    0.63   3
  -1   8  -1    2.39    0.37   4
   1  -8   1    2.45    0.57   1
   1  -8   1    2.78    0.67   2
   1  -8   1    1.62    0.36   4
  -1   8  -2    2.24    0.61   1
  -1   8  -2    1.53    0.42   4
   1  -8   2    1.47    0.49   1
   1  -8   2    1.34    0.41   4
  -1   8  -3    3.78    0.62   1
  -1   8  -3    3.37    0.71   3
  -1   8  -3    3.18    0.57   4
   1  -8   3    3.45    0.53   1
   1  -8   3    5.39    0.85   2
   1  -8   3    3.35    0.61   4
  -1   8  -4    0.49    0.48   1
  -1   8  -4    0.60    0.69   3
  -1   8  -4    0.63    0.56   4
   1  -8   4    0.04    0.38   1
   1  -8   4    0.83    0.71   2
   1  -8   4    0.68    0.61   4
  -1   8  -5   -0.27    0.67   3
  -1   8  -5   -0.12    0.62   4
   1  -8   5    0.49    0.75   2
  -1   8  -6    9.12    1.17   3
  -1   8  -6    6.50    0.98   4
   1  -8   6    7.69    1.04   2
  -1   8  -7   -0.75    0.93   3
  -1   8  -7    0.16    0.83   4
   1  -8   7    0.60    0.92   2
  -1   8  -8    4.71    1.15   3
  -1   8  -8    4.90    1.16   4
   1  -8   8    5.90    1.26   2
  -1   8  -9    2.22    1.26   3
  -1   8  -9   -0.83    1.12   4
   1  -8   9    4.16    1.26   2
  -1   7  10   -1.55    1.02   2
  -1   7  10   -0.95    1.02   3
   1  -7 -10   -0.46    0.97   1
  -1   7   9    0.09    0.90   2
  -1   7   9    0.64    0.97   3
   1  -7  -9    2.54    1.01   1
  -1   7   8    5.48    0.90   3
   1  -7  -8    5.56    0.89   1
  -1   7   7    1.82    0.66   2
  -1   7   7    2.00    0.79   3
   1  -7  -7    1.24    0.74   1
   1  -7  -7    0.98    0.29   4
  -1   7   6    8.06    1.01   2
  -1   7   6    7.51    0.98   3
   1  -7  -6    7.57    0.93   1
  -1   7   5   11.73    0.98   2
  -1   7   5   11.37    1.09   3
   1  -7  -5   10.85    1.06   1
  -1   7   4   16.12    1.04   2
  -1   7   4   17.17    1.10   3
   1  -7  -4   16.42    1.04   1
  -1   7   3   27.93    1.17   2
  -1   7   3   24.88    1.18   2
  -1   7   3   27.72    1.26   3
   1  -7  -3   28.04    1.22   1
  -1   7   2    3.19    0.60   1
  -1   7   2    3.14    0.56   2
  -1   7   2    3.75    0.64   3
   1  -7  -2    3.79    0.62   1
   1  -7  -2    2.86    0.56   2
  -1   7   1    9.16    0.87   1
  -1   7   1    8.93    0.91   2
  -1   7   1    7.75    0.78   3
   1  -7  -1   10.83    0.83   1
   1  -7  -1    7.30    0.78   2
  -1   7   0    0.29    0.46   1
  -1   7   0    1.00    0.49   3
  -1   7   0    0.77    0.20   4
   1  -7   0    1.60    0.47   1
   1  -7   0    1.16    0.47   2
   1  -7   0    0.99    0.21   4
  -1   7  -1   28.58    1.12   1
  -1   7  -1   28.87    1.24   3
  -1   7  -1   29.48    0.77   4
   1  -7   1   28.59    1.02   1
   1  -7   1   28.34    1.18   2
  -1   7  -2    1.22    0.45   1
  -1   7  -2    0.17    0.46   3
  -1   7  -2    0.42    0.34   4
   1  -7   2    1.11    0.38   1
   1  -7   2    1.07    0.50   2
   1  -7   2    0.84    0.34   4
  -1   7  -3   40.02    1.04   1
  -1   7  -3   37.49    1.44   3
  -1   7  -3   37.83    1.13   4
   1  -7   3   26.28    0.86   1
   1  -7   3   37.80    1.40   2
   1  -7   3   29.37    1.04   4
  -1   7  -4    6.10    0.58   1
  -1   7  -4    6.57    0.84   3
  -1   7  -4    5.71    0.67   4
   1  -7   4    4.48    0.54   1
   1  -7   4    6.56    0.85   2
   1  -7   4    6.45    0.70   4
  -1   7  -5    5.81    0.49   1
  -1   7  -5    5.44    0.82   3
  -1   7  -5    6.19    0.75   4
   1  -7   5    4.37    0.43   1
   1  -7   5    6.15    0.82   2
  -1   7  -6    0.92    0.65   3
  -1   7  -6    0.18    0.61   4
   1  -7   6    0.91    0.59   2
  -1   7  -7    2.28    0.78   3
  -1   7  -7    2.67    0.77   4
   1  -7   7    2.10    0.86   2
  -1   7  -8    3.87    0.93   3
  -1   7  -8    2.22    0.90   4
   1  -7   8    1.83    0.94   2
  -1   7  -9    6.37    1.17   3
  -1   7  -9    5.76    1.15   4
   1  -7   9    6.10    1.22   2
  -1   7 -10   -0.85    1.11   3
  -1   7 -10   -0.42    1.18   4
   1  -7  10   -1.70    1.11   2
  -1   6  11   -1.55    1.00   2
  -1   6  11    0.43    1.12   3
   1  -6 -11    0.62    1.11   1
  -1   6  10    1.30    0.93   2
  -1   6  10    0.02    0.91   3
   1  -6 -10    0.94    1.00   1
   1  -6 -10    0.96    0.73   4
  -1   6   9   -0.54    0.73   2
  -1   6   9    0.65    0.79   3
   1  -6  -9    1.31    0.83   1
   1  -6  -9   -0.14    0.56   4
  -1   6   8    1.22    0.67   2
   1  -6  -8    0.76    0.69   1
   1  -6  -8    0.57    0.46   4
  -1   6   7    0.26    0.56   2
  -1   6   7    0.29    0.61   3
   1  -6  -7    1.06    0.62   1
   1  -6  -7    0.32    0.35   4
   1  -6  -7    0.82    0.39   4
  -1   6   6    9.65    0.92   2
  -1   6   6    8.03    0.97   2
  -1   6   6    9.02    0.94   3
   1  -6  -6    8.43    0.88   1
   1  -6  -6    6.24    0.47   4
  -1   6   5    1.41    0.48   2
  -1   6   5    1.44    0.50   2
  -1   6   5    1.01    0.50   3
   1  -6  -5    0.49    0.47   1
   1  -6  -5    0.62    0.18   4
   1  -6  -5    1.07    0.21   4
  -1   6   4   61.13    1.47   2
  -1   6   4   64.08    1.48   2
  -1   6   4   59.40    1.56   3
   1  -6  -4   62.14    1.62   1
   1  -6  -4   56.33    1.51   3
  -1   6   3    0.32    0.37   1
  -1   6   3    0.14    0.37   2
  -1   6   3    0.52    0.40   2
  -1   6   3    0.68    0.45   3
   1  -6  -3    1.10    0.42   1
   1  -6  -3    0.63    0.43   3
  -1   6   2    0.64    0.43   1
  -1   6   2    0.37    0.36   2
  -1   6   2   -0.02    0.41   3
   1  -6  -2    0.42    0.37   1
   1  -6  -2    0.50    0.39   2
   1  -6  -2    0.36    0.38   3
  -1   6   1   35.16    1.07   1
  -1   6   1   35.67    1.12   2
  -1   6   1   37.83    1.22   3
   1  -6  -1   35.41    1.10   1
   1  -6  -1   37.70    1.14   2
   1  -6  -1   35.88    1.14   3
  -1   6   0   81.28    1.50   1
  -1   6   0   82.39    1.62   2
  -1   6   0   82.32    1.69   3
  -1   6   0   79.77    0.87   4
   1  -6   0   81.37    1.49   1
   1  -6   0   79.70    1.62   2
   1  -6   0   77.10    1.60   3
   1  -6   0   78.85    0.87   4
  -1   6  -1    8.14    0.66   1
  -1   6  -1    8.15    0.64   2
  -1   6  -1    7.66    0.68   3
  -1   6  -1    8.01    0.48   4
   1  -6   1    8.83    0.62   1
   1  -6   1    7.04    0.65   2
   1  -6   1    8.99    0.78   3
   1  -6   1    8.32    0.48   4
  -1   6  -2    6.14    0.56   1
  -1   6  -2    6.64    0.66   2
  -1   6  -2    6.28    0.73   3
  -1   6  -2    6.03    0.54   4
   1  -6   2    6.43    0.56   1
   1  -6   2    6.16    0.68   2
   1  -6   2    5.14    0.59   3
   1  -6   2    5.32    0.50   4
  -1   6  -3    1.12    0.31   1
  -1   6  -3    1.24    0.39   2
  -1   6  -3    0.94    0.46   3
  -1   6  -3    1.01    0.38   4
   1  -6   3    1.37    0.31   1
   1  -6   3    1.18    0.48   2
   1  -6   3    1.87    0.47   3
   1  -6   3    1.72    0.38   4
  -1   6  -4   45.88    0.85   1
  -1   6  -4   47.03    1.47   3
  -1   6  -4   46.68    1.28   4
   1  -6   4   47.03    1.44   2
   1  -6   4   45.76    1.26   4
  -1   6  -5   11.26    0.41   1
  -1   6  -5   12.58    0.97   3
  -1   6  -5   10.52    0.93   4
   1  -6   5    7.82    0.37   1
   1  -6   5   10.50    0.98   2
   1  -6   5   10.83    0.96   4
  -1   6  -6   66.13    1.77   3
  -1   6  -6   60.80    1.71   4
   1  -6   6   60.13    1.79   2
  -1   6  -7   -0.09    0.60   3
  -1   6  -7    0.10    0.58   4
   1  -6   7    0.56    0.58   2
  -1   6  -8    4.72    0.88   3
  -1   6  -8    4.02    0.82   4
   1  -6   8    5.07    0.90   2
  -1   6  -9   -0.26    0.79   3
  -1   6  -9    0.36    0.81   4
   1  -6   9    1.32    0.79   2
  -1   6 -10   -0.24    0.88   3
  -1   6 -10    1.99    1.05   4
   1  -6  10    0.87    1.01   2
  -1   6 -11    2.73    1.20   3
  -1   6 -11    4.67    1.28   4
   1  -6  11    2.10    1.30   2
  -1   5  12    0.66    1.17   2
  -1   5  12    0.60    1.23   3
   1  -5 -12    2.50    1.23   1
   1  -5 -12    1.08    1.20   4
  -1   5  11    1.52    0.97   2
  -1   5  11    0.88    1.01   3
   1  -5 -11    1.75    0.98   1
   1  -5 -11    0.57    0.89   4
  -1   5  10    0.27    0.79   3
   1  -5 -10    1.97    0.86   1
   1  -5 -10    2.36    0.75   4
  -1   5   9    6.23    0.88   2
  -1   5   9    5.81    0.76   4
   1  -5  -9    5.97    0.94   1
   1  -5  -9    3.23    0.69   4
  -1   5   8    3.11    0.70   2
  -1   5   8    2.87    0.71   3
  -1   5   8    2.90    0.53   4
   1  -5  -8    1.19    0.51   4
  -1   5   7    1.43    0.58   2
  -1   5   7    1.51    0.58   2
  -1   5   7    0.72    0.62   3
  -1   5   7    1.41    0.38   4
   1  -5  -7    1.45    0.53   1
   1  -5  -7    1.57    0.44   4
  -1   5   6   -0.13    0.41   2
  -1   5   6    0.25    0.44   2
  -1   5   6    0.08    0.48   3
   1  -5  -6   -0.17    0.46   1
   1  -5  -6   -0.39    0.49   3
   1  -5  -6    0.59    0.32   4
  -1   5   5    2.80    0.52   1
  -1   5   5    2.61    0.49   2
  -1   5   5    2.06    0.43   2
  -1   5   5    2.78    0.50   3
   1  -5  -5    2.91    0.55   1
   1  -5  -5    2.84    0.57   3
   1  -5  -5    3.26    0.38   4
  -1   5   4   17.81    0.87   1
  -1   5   4   20.59    0.84   2
  -1   5   4   20.78    0.84   2
  -1   5   4   19.24    0.93   3
   1  -5  -4   19.43    0.93   1
   1  -5  -4   20.56    0.94   3
   1  -5  -4   19.51    0.45   4
   1  -5  -4   19.68    0.45   4
  -1   5   3  129.91    1.95   1
  -1   5   3  135.24    1.85   2
  -1   5   3  134.64    1.81   2
  -1   5   3  134.66    2.01   3
   1  -5  -3  127.10    1.96   1
   1  -5  -3  135.76    1.97   3
   1  -5  -3  129.42    0.69   4
   1  -5  -3  133.67    0.69   4
  -1   5   2    0.39    0.29   1
  -1   5   2    0.18    0.30   2
  -1   5   2   -0.05    0.31   3
   1  -5  -2    0.03    0.29   1
   1  -5  -2    0.35    0.28   2
   1  -5  -2    0.45    0.33   3
  -1   5   1  287.91    2.60   1
  -1   5   1  292.55    2.61   2
  -1   5   1  291.65    2.80   3
  -1   5   1  294.12    1.09   4
   1  -5  -1  273.08    2.56   1
   1  -5  -1  295.77    2.65   2
   1  -5  -1  297.29    2.78   3
   1  -5  -1  280.76    1.07   4
  -1   5   0    0.00    0.28   1
  -1   5   0    0.36    0.29   2
  -1   5   0   -0.08    0.27   3
  -1   5   0    0.02    0.14   4
   1  -5   0    0.27    0.27   1
   1  -5   0    0.17    0.26   2
   1  -5   0    0.25    0.28   3
   1  -5   0    0.17    0.13   4
  -1   5  -1    7.06    0.52   1
  -1   5  -1    7.29    0.51   2
  -1   5  -1    5.72    0.58   3
   1  -5   1    6.51    0.49   1
   1  -5   1    6.72    0.56   2
   1  -5   1    6.39    0.58   3
   1  -5   1    6.64    0.39   4
  -1   5  -2   45.82    0.92   1
  -1   5  -2   47.05    1.15   2
  -1   5  -2   42.15    1.14   3
  -1   5  -2   44.01    0.93   4
   1  -5   2   44.17    0.90   1
   1  -5   2   45.19    1.19   2
   1  -5   2   46.85    1.19   3
   1  -5   2   44.41    0.90   4
  -1   5  -3   39.94    0.78   1
  -1   5  -3   40.88    1.15   2
  -1   5  -3   36.65    1.13   3
  -1   5  -3   37.16    0.98   4
   1  -5   3   38.60    0.80   1
   1  -5   3   37.40    1.13   2
   1  -5   3   39.77    1.14   3
   1  -5   3   38.66    0.97   4
  -1   5  -4   37.05    0.66   1
  -1   5  -4   36.22    1.16   2
  -1   5  -4   36.27    1.17   3
  -1   5  -4   35.65    1.13   3
  -1   5  -4   34.23    1.07   4
   1  -5   4   36.39    0.67   1
   1  -5   4   35.68    1.18   2
   1  -5   4   35.86    1.05   4
  -1   5  -5   28.61    1.11   3
  -1   5  -5   26.60    1.14   3
  -1   5  -5   24.08    1.03   4
   1  -5   5   19.48    0.38   1
   1  -5   5   25.34    1.07   2
   1  -5   5   26.16    1.06   4
  -1   5  -6   22.61    1.11   3
  -1   5  -6   21.03    1.27   3
  -1   5  -6   22.00    1.11   4
   1  -5   6   22.10    1.11   2
   1  -5   6   21.42    1.13   4
  -1   5  -7   38.58    1.40   3
  -1   5  -7   35.28    1.43   4
   1  -5   7   39.47    1.51   2
  -1   5  -8    4.66    0.78   3
   1  -5   8    4.13    0.78   2
  -1   5  -9   24.99    1.42   3
  -1   5  -9   25.37    1.56   4
   1  -5   9   27.21    1.48   2
  -1   5 -10    1.68    0.81   3
  -1   5 -10    0.66    0.89   4
   1  -5  10    1.44    0.83   2
  -1   5 -11    1.10    0.95   3
  -1   5 -11   -0.33    1.00   4
   1  -5  11   -0.15    0.88   2
  -1   4  12   -0.48    1.04   2
  -1   4  12    0.45    1.11   3
   1  -4 -12    0.40    1.05   1
   1  -4 -12    1.68    1.09   4
  -1   4  11   -1.09    0.82   2
  -1   4  11   -0.34    0.88   3
   1  -4 -11    0.49    0.83   1
   1  -4 -11    0.08    0.89   4
  -1   4  10    0.58    0.70   2
  -1   4  10    0.07    0.79   3
   1  -4 -10    1.14    0.76   1
   1  -4 -10   -1.17    0.64   4
  -1   4   9    2.43    0.67   2
  -1   4   9    2.66    0.74   3
  -1   4   9    1.74    0.63   4
   1  -4  -9    3.83    0.75   1
   1  -4  -9    3.70    0.71   4
  -1   4   8   13.17    1.07   2
  -1   4   8   13.75    1.04   3
  -1   4   8   10.64    0.86   4
   1  -4  -8   12.47    1.05   1
   1  -4  -8   11.26    1.03   2
   1  -4  -8   11.90    0.96   4
  -1   4   7   -0.09    0.45   2
  -1   4   7    0.57    0.48   3
  -1   4   7   -0.06    0.35   4
   1  -4  -7   -0.72    0.38   1
   1  -4  -7   -0.51    0.41   2
   1  -4  -7   -0.20    0.55   3
   1  -4  -7   -0.22    0.37   4
  -1   4   6   19.98    1.02   1
  -1   4   6   20.02    0.90   2
  -1   4   6   19.96    1.01   3
  -1   4   6   20.79    0.72   4
   1  -4  -6   19.01    0.97   1
   1  -4  -6   22.13    0.87   2
   1  -4  -6   20.51    1.05   3
   1  -4  -6   20.53    0.78   4
  -1   4   5   -0.37    0.31   1
  -1   4   5    0.13    0.28   2
  -1   4   5    0.53    0.30   2
  -1   4   5   -0.15    0.34   3
   1  -4  -5   -0.16    0.33   1
   1  -4  -5    0.15    0.38   3
   1  -4  -5    0.16    0.24   4
  -1   4   4    0.88    0.34   1
  -1   4   4    1.29    0.32   2
  -1   4   4    1.01    0.30   2
  -1   4   4    0.58    0.34   3
   1  -4  -4    1.33    0.39   1
   1  -4  -4    0.68    0.35   3
   1  -4  -4    1.22    0.21   4
   1  -4  -4    1.30    0.22   4
  -1   4   3   81.18    1.44   1
  -1   4   3   80.99    1.29   2
  -1   4   3   83.48    1.28   2
  -1   4   3   79.02    1.42   3
   1  -4  -3   76.82    1.43   1
   1  -4  -3   83.10    1.41   3
   1  -4  -3   79.18    0.77   4
   1  -4  -3   82.43    0.78   4
  -1   4   2   85.47    1.40   1
  -1   4   2   85.23    1.29   2
  -1   4   2   90.03    1.30   2
  -1   4   2   87.36    1.46   3
   1  -4  -2   84.04    1.42   1
   1  -4  -2   92.10    1.44   3
   1  -4  -2   87.54    0.63   4
   1  -4  -2   87.66    0.63   4
  -1   4   1   59.86    1.11   1
  -1   4   1   61.10    1.08   2
  -1   4   1   59.82    1.19   3
  -1   4   1   60.20    0.53   4
   1  -4  -1   56.23    1.10   1
   1  -4  -1   57.33    1.06   2
   1  -4  -1   57.82    1.14   3
   1  -4  -1   58.93    0.53   4
  -1   4   0  904.72    3.92   1
  -1   4   0  981.28    4.25   2
  -1   4   0  947.76    4.44   3
  -1   4   0  910.67    2.86   4
   1  -4   0  859.94    3.85   1
   1  -4   0  947.04    4.23   2
   1  -4   0  942.02    4.38   3
   1  -4   0  878.01    3.35   4
  -1   4  -1    1.53    0.29   2
  -1   4  -1    1.50    0.32   3
  -1   4  -1    1.66    0.22   4
   1  -4   1    1.55    0.27   1
   1  -4   1    1.71    0.33   2
   1  -4   1    1.83    0.33   3
   1  -4   1    1.48    0.21   4
  -1   4  -2  155.84    1.41   1
  -1   4  -2  161.48    1.89   2
  -1   4  -2  157.82    1.89   3
  -1   4  -2  148.85    1.51   4
   1  -4   2  153.67    1.89   2
   1  -4   2  158.61    1.86   3
  -1   4  -3    0.46    0.18   1
  -1   4  -3    0.87    0.27   2
  -1   4  -3    0.56    0.29   3
  -1   4  -3    0.74    0.28   4
   1  -4   3    0.73    0.20   1
   1  -4   3    0.52    0.29   2
   1  -4   3    0.35    0.26   3
   1  -4   3    0.38    0.23   4
  -1   4  -4   62.53    0.71   1
  -1   4  -4   59.29    1.29   2
  -1   4  -4   60.44    1.29   3
  -1   4  -4   64.88    1.31   3
  -1   4  -4   57.53    1.23   4
   1  -4   4   61.11    0.71   1
   1  -4   4   57.69    1.33   2
   1  -4   4   58.06    1.20   4
  -1   4  -5   31.28    1.05   2
  -1   4  -5   32.28    1.04   3
  -1   4  -5   31.77    1.04   3
  -1   4  -5   29.14    1.01   4
   1  -4   5   30.38    0.36   1
   1  -4   5   22.99    0.31   1
   1  -4   5   29.34    1.06   2
   1  -4   5   30.72    1.03   4
  -1   4  -6   27.24    1.07   2
  -1   4  -6   29.36    1.06   3
  -1   4  -6   31.58    1.09   3
  -1   4  -6   29.04    1.09   4
   1  -4   6   28.13    1.13   2
   1  -4   6   26.39    1.07   4
  -1   4  -7   12.38    0.92   3
  -1   4  -7   14.22    0.97   3
  -1   4  -7   16.28    1.03   4
   1  -4   7   14.57    0.99   2
  -1   4  -8   11.13    0.98   3
  -1   4  -8   10.06    1.05   4
   1  -4   8   11.54    1.05   2
  -1   4  -9    0.38    0.57   3
  -1   4  -9    0.57    0.62   4
   1  -4   9   -0.52    0.56   2
  -1   4 -10    8.40    1.14   4
   1  -4  10    7.58    1.00   2
  -1   4 -11    0.60    0.84   3
  -1   4 -11    0.67    0.91   4
   1  -4  11   -0.46    0.81   2
  -1   4 -12    4.85    1.20   3
  -1   4 -12    2.38    1.14   4
   1  -4  12    3.23    1.15   2
  -1   3  12   -0.04    0.94   2
  -1   3  12    0.39    1.04   3
   1  -3 -12    0.92    0.93   1
   1  -3 -12    0.11    1.09   4
  -1   3  11    5.43    0.97   2
  -1   3  11    6.40    1.05   3
   1  -3 -11    6.09    1.04   1
   1  -3 -11    4.89    1.03   4
  -1   3  10    3.03    0.76   2
   1  -3 -10    2.58    0.77   1
   1  -3 -10    4.32    0.84   4
  -1   3   9    0.87    0.57   2
  -1   3   9    1.24    0.64   3
   1  -3  -9    1.98    0.63   1
   1  -3  -9    1.13    0.61   4
  -1   3   8   -0.50    0.44   2
  -1   3   8    0.58    0.51   3
  -1   3   8   -0.09    0.44   4
   1  -3  -8   -0.20    0.44   1
   1  -3  -8    0.58    0.47   2
   1  -3  -8   -0.07    0.49   4
  -1   3   7    1.89    0.58   1
  -1   3   7    1.46    0.42   2
  -1   3   7    1.61    0.51   3
  -1   3   7    1.67    0.40   4
   1  -3  -7    1.54    0.49   1
   1  -3  -7    1.42    0.43   2
   1  -3  -7    0.75    0.45   3
   1  -3  -7    0.67    0.44   4
  -1   3   6    0.04    0.39   1
  -1   3   6   -0.06    0.30   2
  -1   3   6    0.67    0.37   3
  -1   3   6    0.13    0.27   4
   1  -3  -6    0.72    0.34   1
   1  -3  -6    0.29    0.31   2
   1  -3  -6    0.94    0.38   3
   1  -3  -6    0.08    0.30   4
  -1   3   5    1.08    0.33   1
  -1   3   5    0.86    0.30   2
  -1   3   5    1.14    0.39   3
  -1   3   5    0.75    0.24   4
   1  -3  -5    0.77    0.33   1
   1  -3  -5    0.98    0.30   2
   1  -3  -5    1.09    0.30   3
   1  -3  -5    1.18    0.29   4
  -1   3   4   33.13    0.91   1
  -1   3   4   33.32    0.82   2
  -1   3   4   33.58    0.96   3
  -1   3   4   33.20    0.69   4
   1  -3  -4   32.17    0.96   1
   1  -3  -4   33.07    0.80   2
   1  -3  -4   33.34    0.92   3
   1  -3  -4   32.04    0.73   4
  -1   3   3   10.57    0.53   1
  -1   3   3   10.62    0.48   2
  -1   3   3    9.76    0.56   3
   1  -3  -3    9.50    0.54   1
   1  -3  -3   11.76    0.55   3
   1  -3  -3   10.35    0.37   4
  -1   3   2    0.21    0.22   1
  -1   3   2    0.33    0.18   2
  -1   3   2    0.44    0.16   2
  -1   3   2    0.34    0.24   3
   1  -3  -2    0.67    0.26   1
   1  -3  -2    0.39    0.17   3
   1  -3  -2    0.46    0.11   4
   1  -3  -2    0.36    0.11   4
  -1   3   1    0.64    0.21   1
  -1   3   1    0.81    0.19   2
  -1   3   1    0.58    0.23   3
  -1   3   1    0.68    0.10   4
   1  -3  -1    0.41    0.23   1
   1  -3  -1    0.55    0.18   2
   1  -3  -1    0.58    0.19   3
   1  -3  -1    0.60    0.10   4
  -1   3   0   88.09    1.10   1
  -1   3   0   85.02    1.08   2
  -1   3   0   88.76    1.22   3
  -1   3   0   86.92    0.74   4
   1  -3   0   80.90    1.08   1
   1  -3   0   88.19    1.13   2
   1  -3   0   89.92    1.20   3
   1  -3   0   86.51    0.74   4
  -1   3  -1  100.33    1.08   1
  -1   3  -1  106.48    1.32   3
  -1   3  -1  101.52    0.99   4
   1  -3   1  102.53    1.10   1
   1  -3   1  100.60    1.26   2
   1  -3   1  105.18    1.30   3
   1  -3   1  101.02    0.98   4
  -1   3  -2    1.36    0.19   1
  -1   3  -2    1.35    0.23   2
  -1   3  -2    1.49    0.26   3
   1  -3   2    1.26    0.20   1
   1  -3   2    1.25    0.27   2
   1  -3   2    1.60    0.26   3
   1  -3   2    1.26    0.22   4
  -1   3  -3  440.23    1.80   1
  -1   3  -3  431.18    2.93   2
  -1   3  -3  442.47    2.84   3
  -1   3  -3  389.45    2.59   4
   1  -3   3  424.29    1.78   1
   1  -3   3  438.25    2.99   2
   1  -3   3  451.03    2.83   3
   1  -3   3  425.39    2.67   4
  -1   3  -4   76.01    0.66   1
  -1   3  -4   70.92    1.30   2
  -1   3  -4   74.08    1.26   3
  -1   3  -4   77.63    1.27   3
  -1   3  -4   71.49    1.29   4
   1  -3   4   73.35    0.67   1
   1  -3   4   71.23    1.35   2
   1  -3   4   74.26    1.28   4
  -1   3  -5   29.80    0.94   2
  -1   3  -5   31.49    0.93   3
  -1   3  -5   31.97    0.93   3
  -1   3  -5   27.75    0.93   4
   1  -3   5   30.80    0.38   1
   1  -3   5   31.63    0.38   1
   1  -3   5   30.81    1.01   2
   1  -3   5   31.30    0.94   4
  -1   3  -6    3.48    0.42   2
  -1   3  -6    5.03    0.59   3
  -1   3  -6    5.10    0.58   3
  -1   3  -6    4.42    0.56   4
   1  -3   6    4.58    0.58   2
   1  -3   6    4.89    0.52   4
  -1   3  -7   13.39    0.84   2
  -1   3  -7   14.75    0.85   3
  -1   3  -7   14.22    0.82   3
  -1   3  -7   12.86    0.84   4
   1  -3   7   15.36    0.93   2
   1  -3   7   10.65    0.84   4
  -1   3  -8   29.41    1.17   3
  -1   3  -8   25.34    1.16   3
  -1   3  -8   26.87    1.27   4
   1  -3   8   28.27    1.27   2
  -1   3  -9    8.67    0.97   3
   1  -3   9    8.66    1.03   2
  -1   3 -10    2.45    0.71   3
  -1   3 -10    2.59    0.72   4
   1  -3  10    3.64    0.74   2
  -1   3 -11    1.26    0.81   3
  -1   3 -11    0.19    0.77   4
   1  -3  11    1.00    0.80   2
  -1   3 -12    1.23    0.98   3
  -1   3 -12    1.09    0.97   4
   1  -3  12    1.33    0.94   2
  -1   2  12    6.37    1.20   2
  -1   2  12    4.06    1.13   3
   1  -2 -12    6.59    1.05   1
   1  -2 -12    4.80    1.25   4
  -1   2  11   -0.54    0.84   3
   1  -2 -11    1.23    0.76   1
   1  -2 -11    0.13    0.80   4
  -1   2  10    3.14    0.72   2
  -1   2  10    4.39    0.84   3
   1  -2 -10    2.58    0.68   1
  -1   2   9    0.79    0.73   1
  -1   2   9   -0.28    0.51   2
  -1   2   9    0.62    0.54   3
   1  -2  -9    0.35    0.52   1
   1  -2  -9   -0.55    0.54   2
   1  -2  -9    0.65    0.64   4
  -1   2   8   12.45    1.02   1
  -1   2   8   13.62    0.92   2
  -1   2   8   13.66    0.92   3
  -1   2   8   13.37    0.97   4
   1  -2  -8   14.76    0.90   1
   1  -2  -8   12.89    0.88   2
   1  -2  -8   11.33    1.00   3
   1  -2  -8   12.61    0.98   4
  -1   2   7    4.18    0.57   1
  -1   2   7    4.14    0.54   2
  -1   2   7    3.42    0.57   3
  -1   2   7    3.29    0.51   4
   1  -2  -7    3.49    0.52   1
   1  -2  -7    2.98    0.45   2
   1  -2  -7    3.12    0.57   3
   1  -2  -7    3.08    0.52   4
  -1   2   6   -0.17    0.33   1
  -1   2   6    0.05    0.30   2
  -1   2   6    0.44    0.35   3
  -1   2   6   -0.15    0.28   4
   1  -2  -6    0.53    0.32   1
   1  -2  -6    0.04    0.26   2
   1  -2  -6   -0.22    0.31   3
   1  -2  -6   -0.11    0.30   4
  -1   2   5   42.05    1.03   1
  -1   2   5   43.11    0.96   2
  -1   2   5   44.44    1.09   3
  -1   2   5   42.96    0.95   4
   1  -2  -5   40.15    1.01   1
   1  -2  -5   43.40    0.92   2
   1  -2  -5   45.13    1.06   3
   1  -2  -5   41.43    0.96   4
  -1   2   4   29.62    0.79   1
  -1   2   4   29.22    0.72   2
  -1   2   4   30.94    0.86   3
   1  -2  -4   30.65    0.85   1
   1  -2  -4   29.90    0.80   3
   1  -2  -4   29.64    0.72   4
  -1   2   3    0.79    0.22   1
  -1   2   3    0.56    0.16   2
  -1   2   3    0.84    0.24   3
  -1   2   3    1.07    0.18   4
   1  -2  -3    1.03    0.25   1
   1  -2  -3    0.77    0.16   2
   1  -2  -3    0.84    0.19   3
   1  -2  -3    0.89    0.18   4
  -1   2   2  115.40    1.34   1
  -1   2   2  121.19    1.09   2
  -1   2   2  123.57    1.10   2
  -1   2   2  118.00    1.32   3
   1  -2  -2  119.12    1.34   1
   1  -2  -2  122.73    1.34   3
   1  -2  -2  117.63    0.96   4
  -1   2   1   38.20    0.73   1
  -1   2   1   41.15    0.61   2
  -1   2   1   38.38    0.75   3
  -1   2   1   39.93    0.47   4
   1  -2  -1   38.96    0.78   1
   1  -2  -1   38.55    0.59   2
   1  -2  -1   40.31    0.73   3
   1  -2  -1   39.56    0.47   4
  -1   2   0  289.99    1.73   1
  -1   2   0  289.51    1.61   2
  -1   2   0  296.43    1.83   3
  -1   2   0  287.36    1.24   4
   1  -2   0  270.06    1.67   1
   1  -2   0  284.72    1.60   2
   1  -2   0  293.18    1.80   3
   1  -2   0  290.36    1.24   4
  -1   2  -1   47.30    0.65   1
  -1   2  -1   47.33    0.74   2
  -1   2  -1   46.80    0.74   3
  -1   2  -1   45.23    0.62   4
   1  -2   1   45.10    0.64   1
   1  -2   1   47.71    0.74   2
   1  -2   1   49.12    0.75   3
   1  -2   1   45.06    0.61   4
  -1   2  -2    0.48    0.11   1
  -1   2  -2    0.29    0.14   2
  -1   2  -2    0.41    0.14   3
  -1   2  -2    0.21    0.13   4
   1  -2   2    0.62    0.13   1
   1  -2   2    0.24    0.17   2
   1  -2   2    0.32    0.14   3
   1  -2   2    0.53    0.16   4
  -1   2  -3   32.13    0.45   1
  -1   2  -3   30.94    0.73   2
  -1   2  -3   29.73    0.69   3
  -1   2  -3   32.98    0.69   3
  -1   2  -3   28.56    0.71   4
   1  -2   3   32.36    0.45   1
   1  -2   3   30.96    0.77   2
  -1   2  -4    3.94    0.39   2
  -1   2  -4    3.49    0.37   3
  -1   2  -4    3.88    0.35   3
  -1   2  -4    3.31    0.39   4
   1  -2   4    3.94    0.21   1
   1  -2   4    3.84    0.20   1
   1  -2   4    3.26    0.39   2
   1  -2   4    3.36    0.33   4
  -1   2  -5    5.51    0.51   2
  -1   2  -5    5.32    0.45   3
  -1   2  -5    5.94    0.44   3
  -1   2  -5    5.12    0.55   4
   1  -2   5    5.64    0.25   1
   1  -2   5    5.75    0.26   1
   1  -2   5    5.39    0.54   2
   1  -2   5    5.22    0.50   4
  -1   2  -6   13.25    0.72   2
  -1   2  -6   14.31    0.65   3
   1  -2   6   14.90    0.39   1
   1  -2   6   13.39    0.39   1
   1  -2   6   14.88    0.80   2
   1  -2   6   13.51    0.71   4
  -1   2  -7   17.24    0.88   2
  -1   2  -7   20.61    0.85   3
  -1   2  -7   18.42    0.92   4
   1  -2   7   18.15    0.47   1
   1  -2   7   15.57    0.46   1
   1  -2   7   20.08    0.96   2
   1  -2   7   19.09    0.86   3
   1  -2   7   17.44    0.91   4
  -1   2  -8    0.10    0.41   3
  -1   2  -8    0.41    0.45   4
   1  -2   8    0.07    0.22   1
   1  -2   8    0.14    0.25   1
   1  -2   8    0.22    0.48   2
   1  -2   8    0.35    0.43   3
  -1   2  -9    1.34    0.57   3
  -1   2  -9    1.80    0.60   4
   1  -2   9    1.21    0.29   1
   1  -2   9    1.59    0.34   1
   1  -2   9    1.85    0.57   2
   1  -2   9    2.68    0.57   3
  -1   2 -10    6.06    0.91   4
   1  -2  10    4.87    0.48   1
   1  -2  10    5.13    0.78   2
   1  -2  10    6.80    0.82   3
  -1   2 -11    1.60    0.85   4
   1  -2  11    2.26    0.84   2
   1  -2  11    1.39    0.75   3
  -1   2 -12    0.18    0.82   3
  -1   2 -12   -0.55    0.93   4
   1  -2  12   -0.44    0.91   2
  -1   2 -13   -0.59    1.01   3
  -1   2 -13   -0.42    1.16   4
   1  -2  13    1.13    1.03   2
  -1   1  12    0.98    0.96   2
  -1   1  12   -1.15    0.94   3
   1  -1 -12    0.78    0.80   1
   1  -1 -12   -1.54    1.01   4
  -1   1  11    3.06    0.91   3
   1  -1 -11    2.82    0.72   1
   1  -1 -11    3.56    0.98   4
  -1   1  10    2.37    0.82   1
  -1   1  10    2.54    0.74   2
  -1   1  10    2.58    0.76   3
   1  -1 -10    2.24    0.61   1
   1  -1 -10    2.52    0.82   4
  -1   1   9   24.18    1.23   1
  -1   1   9   24.03    1.20   2
  -1   1   9   23.34    1.24   3
   1  -1  -9   24.56    1.10   1
   1  -1  -9   23.45    1.25   2
   1  -1  -9   23.19    1.34   4
  -1   1   8    0.18    0.51   1
  -1   1   8    0.63    0.44   2
  -1   1   8    0.99    0.48   3
   1  -1  -8    0.93    0.42   1
   1  -1  -8    1.14    0.48   2
   1  -1  -8    2.00    0.60   3
   1  -1  -8    0.64    0.51   4
  -1   1   7    0.48    0.38   1
  -1   1   7   -0.07    0.33   2
  -1   1   7    0.38    0.36   3
  -1   1   7   -0.52    0.40   4
   1  -1  -7    0.26    0.31   1
   1  -1  -7    0.22    0.33   2
   1  -1  -7    0.02    0.37   3
   1  -1  -7    0.46    0.41   4
  -1   1   6   -0.02    0.29   1
  -1   1   6   -0.07    0.28   2
  -1   1   6    0.31    0.31   3
  -1   1   6    0.00    0.32   4
   1  -1  -6    0.05    0.26   1
   1  -1  -6    0.00    0.25   2
   1  -1  -6   -0.20    0.29   3
   1  -1  -6    0.23    0.32   4
  -1   1   5    6.69    0.50   1
  -1   1   5    6.34    0.47   2
  -1   1   5    5.88    0.50   3
  -1   1   5    6.29    0.49   4
   1  -1  -5    5.86    0.46   1
   1  -1  -5    6.53    0.44   2
   1  -1  -5    6.14    0.49   3
  -1   1   4   39.46    0.84   1
  -1   1   4   37.81    0.77   2
  -1   1   4   37.18    0.87   3
  -1   1   4   39.26    0.84   4
   1  -1  -4   37.31    0.82   1
   1  -1  -4   40.78    0.77   2
   1  -1  -4   40.56    0.88   3
   1  -1  -4   39.23    0.87   4
  -1   1   3   99.32    1.16   1
  -1   1   3   99.07    1.00   2
  -1   1   3  102.90    1.26   3
  -1   1   3  101.02    1.14   4
   1  -1  -3   88.59    1.16   1
   1  -1  -3   98.24    0.99   2
  -1   1   2  299.96    1.82   1
  -1   1   2  293.98    1.41   2
  -1   1   2  298.45    1.88   3
  -1   1   2  304.68    1.66   4
   1  -1  -2  299.36    1.83   1
   1  -1  -2  297.21    1.41   2
   1  -1  -2  296.73    1.87   3
   1  -1  -2  302.13    1.67   4
  -1   1   1  238.53    1.46   1
  -1   1   1  236.11    1.02   2
  -1   1   1  243.86    1.03   2
  -1   1   1  231.84    1.46   3
   1  -1  -1  221.61    1.41   1
   1  -1  -1  226.51    1.43   3
   1  -1  -1  237.77    1.21   4
   1  -1  -1  232.75    1.19   4
  -1   1   0   18.61    0.39   1
  -1   1   0   18.10    0.29   2
  -1   1   0    0.13    0.05   4
   1  -1   0    7.74    0.28   1
   1  -1   0   19.03    0.40   3
   1  -1   0   18.43    0.31   4
  -1   1  -1   33.18    0.46   1
  -1   1  -1   34.60    0.50   2
  -1   1  -1   34.49    0.48   3
   1  -1   1   35.22    0.47   1
   1  -1   1   37.02    0.49   3
   1  -1   1   36.61    0.50   4
  -1   1  -2   28.63    0.41   1
  -1   1  -2   25.87    0.54   2
  -1   1  -2   28.66    0.47   3
  -1   1  -2   28.04    0.56   4
   1  -1   2   28.99    0.41   1
   1  -1   2   27.06    0.57   2
   1  -1   2   27.44    0.46   3
   1  -1   2   28.39    0.56   4
  -1   1  -3   11.79    0.45   2
  -1   1  -3   11.66    0.36   3
  -1   1  -3   12.03    0.36   3
  -1   1  -3   10.57    0.46   4
   1  -1   3   12.17    0.30   1
   1  -1   3   11.59    0.29   1
   1  -1   3   10.84    0.47   2
   1  -1   3   12.13    0.46   4
  -1   1  -4    3.77    0.22   1
  -1   1  -4    4.33    0.38   2
  -1   1  -4    3.84    0.29   3
  -1   1  -4    3.65    0.41   4
   1  -1   4    3.97    0.23   1
   1  -1   4    3.96    0.42   2
   1  -1   4    4.19    0.29   3
   1  -1   4    3.75    0.38   4
  -1   1  -5   12.95    0.38   1
  -1   1  -5   12.26    0.58   2
  -1   1  -5   11.50    0.63   4
   1  -1   5   12.65    0.40   1
   1  -1   5   12.50    0.65   2
   1  -1   5   12.39    0.52   3
   1  -1   5   12.91    0.61   4
  -1   1  -6    2.94    0.30   1
  -1   1  -6    4.14    0.47   2
  -1   1  -6    2.83    0.34   3
  -1   1  -6    2.51    0.42   4
   1  -1   6    3.05    0.33   1
   1  -1   6    3.34    0.48   2
   1  -1   6    2.91    0.37   3
   1  -1   6    2.85    0.40   4
  -1   1  -7    3.74    0.50   2
  -1   1  -7    4.04    0.48   3
  -1   1  -7    2.41    0.45   4
   1  -1   7    3.34    0.39   1
   1  -1   7    4.12    0.54   2
   1  -1   7    4.04    0.47   3
   1  -1   7    2.95    0.45   4
  -1   1  -8   17.99    0.64   1
  -1   1  -8   14.75    0.93   2
  -1   1  -8   17.33    0.85   3
  -1   1  -8   16.14    0.99   4
   1  -1   8   15.60    0.90   2
   1  -1   8   17.80    0.87   3
  -1   1  -9    0.33    0.29   1
  -1   1  -9    0.41    0.49   3
  -1   1  -9    1.32    0.52   4
   1  -1   9    0.11    0.36   1
   1  -1   9   -0.07    0.45   2
   1  -1   9    0.54    0.48   3
  -1   1 -10    8.46    0.70   1
  -1   1 -10    7.79    0.84   3
  -1   1 -10   10.28    1.12   4
   1  -1  10    9.36    0.82   1
   1  -1  10    8.40    0.95   2
   1  -1  10    8.65    0.97   3
  -1   1 -11    2.33    0.52   1
  -1   1 -11    1.58    0.79   4
   1  -1  11    1.78    0.78   2
   1  -1  11    3.07    0.74   3
  -1   1 -12   -1.79    0.82   4
   1  -1  12    1.02    0.82   2
   1  -1  12    0.63    0.78   3
  -1   1 -13    1.01    1.08   4
   1  -1  13    2.07    1.04   2
   1  -1  13    1.22    0.99   3
  -1   0  12    0.20    0.91   2
  -1   0  12    0.56    0.97   3
   1   0 -12   -1.12    1.04   4
  -1   0  11    0.18    0.77   2
  -1   0  11    0.15    0.79   3
   1   0 -11    0.42    0.58   1
   1   0 -11    0.58    0.82   4
  -1   0  10    2.16    0.69   1
  -1   0  10    0.37    0.64   2
  -1   0  10    0.38    0.66   3
   1   0 -10    1.16    0.52   1
   1   0 -10    1.55    0.78   4
  -1   0   9    0.71    0.53   1
  -1   0   9   -0.03    0.54   2
  -1   0   9    0.10    0.52   3
   1   0  -9    0.71    0.44   1
   1   0  -9    0.32    0.65   4
  -1   0   8    3.93    0.55   1
  -1   0   8    5.04    0.63   2
  -1   0   8    4.93    0.66   3
   1   0  -8    4.34    0.52   1
   1   0  -8    5.28    0.65   2
   1   0  -8    5.36    0.73   3
   1   0  -8    4.53    0.72   4
  -1   0   7   -0.55    0.31   1
  -1   0   7    0.17    0.35   2
  -1   0   7   -0.01    0.38   3
  -1   0   7    0.78    0.43   4
   1   0  -7    0.21    0.29   1
   1   0  -7   -0.18    0.34   2
   1   0  -7    0.22    0.38   3
   1   0  -7    0.31    0.42   4
  -1   0   6    0.64    0.30   1
  -1   0   6    0.05    0.28   2
  -1   0   6    0.35    0.36   3
  -1   0   6    1.32    0.34   4
   1   0  -6    0.92    0.28   1
   1   0  -6    0.75    0.29   2
   1   0  -6    0.48    0.29   3
   1   0  -6    0.83    0.34   4
  -1   0   5   33.90    0.84   1
  -1   0   5   32.04    0.83   2
  -1   0   5   35.45    0.96   3
  -1   0   5   35.28    0.91   4
   1   0  -5   32.99    0.75   1
   1   0  -5   34.42    0.83   2
   1   0  -5   35.29    0.92   3
   1   0  -5   33.33    0.96   4
  -1   0   4   -0.07    0.18   1
  -1   0   4   -0.14    0.18   2
  -1   0   4    0.56    0.23   3
  -1   0   4    0.30    0.18   4
   1   0  -4    0.07    0.16   1
   1   0  -4   -0.17    0.16   2
   1   0  -4    0.02    0.17   3
   1   0  -4    0.30    0.21   4
  -1   0   3    9.10    0.36   1
  -1   0   3    9.18    0.35   2
  -1   0   3    8.95    0.44   3
  -1   0   3    9.33    0.43   4
   1   0  -3    9.18    0.36   1
   1   0  -3    9.38    0.36   2
   1   0  -3    9.11    0.40   3
   1   0  -3    9.01    0.44   4
  -1   0   2  195.09    1.23   1
  -1   0   2  183.38    1.09   2
  -1   0   2  194.26    1.47   3
  -1   0   2  186.22    1.41   4
   1   0  -2  192.63    1.23   1
   1   0  -2  188.07    1.10   2
   1   0  -2  194.14    1.46   3
   1   0  -2  194.57    1.45   4
  -1   0   1  131.28    0.89   1
  -1   0   1   70.32    0.45   2
  -1   0   1  136.51    1.00   4
   1   0  -1  127.88    0.60   2
   1   0  -1  132.46    1.01   3
  -1   0  -2  378.67    1.51   1
  -1   0  -2  702.08    2.74   2
  -1   0  -2  736.47    2.88   3
  -1   0  -2  715.74    3.50   4
   1   0   2  742.27    3.08   1
   1   0   2  414.23    1.82   2
   1   0   2  739.72    2.86   3
   1   0   2  729.30    3.13   4
  -1   0  -3   16.86    0.39   1
  -1   0  -3   16.55    0.50   2
  -1   0  -3   17.02    0.35   3
  -1   0  -3   16.85    0.53   4
   1   0   3   17.32    0.41   1
   1   0   3   18.79    0.57   2
   1   0   3   16.41    0.34   3
   1   0   3   19.85    0.59   4
  -1   0  -4   21.07    0.49   1
  -1   0  -4   20.47    0.62   2
  -1   0  -4   21.38    0.47   3
  -1   0  -4   20.12    0.62   4
   1   0   4   22.85    0.51   1
   1   0   4   20.88    0.64   2
   1   0   4   21.07    0.47   3
  -1   0  -5    0.46    0.17   1
  -1   0  -5    0.00    0.18   2
  -1   0  -5    0.29    0.16   3
  -1   0  -5    0.09    0.23   4
   1   0   5    0.30    0.17   1
   1   0   5    0.24    0.26   2
   1   0   5    0.28    0.20   4
  -1   0  -6    8.46    0.46   1
  -1   0  -6    9.43    0.54   2
  -1   0  -6    8.47    0.47   3
  -1   0  -6    8.09    0.61   4
   1   0   6    8.93    0.63   2
   1   0   6    8.78    0.50   3
   1   0   6    9.31    0.56   4
  -1   0  -7    0.43    0.25   1
  -1   0  -7    0.33    0.29   2
  -1   0  -7    0.21    0.28   3
  -1   0  -7    0.13    0.34   4
   1   0   7    0.61    0.28   1
   1   0   7    0.53    0.35   2
   1   0   7    0.22    0.26   3
   1   0   7    0.00    0.30   4
  -1   0  -8    8.51    0.59   1
  -1   0  -8    7.62    0.76   2
  -1   0  -8    8.66    0.65   3
  -1   0  -8    8.26    0.79   4
   1   0   8    7.29    0.61   1
   1   0   8    8.27    0.79   2
   1   0   8    8.15    0.67   3
   1   0   8    6.32    0.68   4
  -1   0  -9    5.17    0.61   1
  -1   0  -9    3.57    0.57   3
  -1   0  -9    5.06    0.74   4
   1   0   9    4.77    0.57   1
   1   0   9    5.17    0.72   2
   1   0   9    5.14    0.61   3
  -1   0 -10   21.41    0.95   1
  -1   0 -10   20.90    1.19   3
  -1   0 -10   23.01    1.34   4
   1   0  10   16.22    1.02   1
   1   0  10   21.40    1.32   2
   1   0  10   22.39    1.12   3
  -1   0 -11    3.11    0.60   1
  -1   0 -11    1.77    0.84   4
   1   0  11    1.81    0.72   1
   1   0  11    1.88    0.76   2
   1   0  11    2.59    0.72   3
  -1   0 -12    1.64    0.66   1
  -1   0 -12    1.37    0.94   4
   1   0  12    1.01    0.87   2
   1   0  12    1.12    0.81   3
  -1   0 -13    1.14    1.15   4
   1   0  13   -0.92    1.03   2
   1   0  13   -0.07    0.92   3
  -1  -1  12    1.34    0.96   2
  -1  -1  12   -1.90    0.99   3
   1   1 -12   -0.59    1.09   4
  -1  -1  11   -0.56    0.73   2
  -1  -1  11    1.43    0.92   3
   1   1 -11    0.32    0.50   1
   1   1 -11    1.38    0.90   4
  -1  -1  10    0.35    0.63   2
   1   1 -10    0.62    0.42   1
   1   1 -10   -0.05    0.76   4
  -1  -1   9    0.14    0.45   1
  -1  -1   9    1.08    0.58   2
  -1  -1   9    1.21    0.62   3
   1   1  -9    1.17    0.39   1
  -1  -1   8   17.90    0.76   1
  -1  -1   8   26.04    1.13   2
  -1  -1   8   23.72    1.15   3
   1   1  -8   24.23    0.77   1
   1   1  -8   24.15    1.14   2
   1   1  -8   24.07    1.26   4
  -1  -1   7   49.69    1.29   2
  -1  -1   7   49.91    1.36   3
  -1  -1   7   47.78    1.35   4
   1   1  -7   48.26    0.91   1
   1   1  -7   48.64    1.28   2
   1   1  -7   49.74    1.34   3
   1   1  -7   50.45    1.46   4
  -1  -1   6    0.69    0.25   1
  -1  -1   6    0.12    0.31   2
  -1  -1   6    0.10    0.33   3
  -1  -1   6    0.21    0.34   4
   1   1  -6    0.31    0.29   2
   1   1  -6    0.13    0.28   3
   1   1  -6    0.46    0.34   4
  -1  -1   5    0.12    0.19   1
  -1  -1   5   -0.02    0.26   2
  -1  -1   5    0.02    0.27   3
  -1  -1   5    0.21    0.29   4
   1   1  -5   -0.27    0.15   1
   1   1  -5   -0.11    0.22   2
   1   1  -5    0.20    0.24   3
   1   1  -5   -0.30    0.29   4
  -1  -1   4   19.20    0.45   1
  -1  -1   4   19.39    0.63   2
  -1  -1   4   18.11    0.66   3
  -1  -1   4   19.85    0.70   4
   1   1  -4   18.63    0.44   1
   1   1  -4   18.28    0.60   2
   1   1  -4   19.67    0.65   3
   1   1  -4   17.94    0.68   4
  -1  -1   3   44.64    0.55   1
  -1  -1   3   41.91    0.77   2
  -1  -1   3   45.10    0.88   4
   1   1  -3   42.71    0.54   1
   1   1  -3   42.08    0.74   2
   1   1  -3   43.44    0.83   3
   1   1  -3   40.06    0.85   4
  -1  -1   2  191.45    0.96   1
  -1  -1   2  194.37    1.33   2
  -1  -1   2  189.92    1.54   3
  -1  -1   2  189.31    1.52   4
   1   1  -2  187.54    0.95   1
   1   1  -2  185.67    1.30   2
   1   1  -2  191.03    1.52   3
   1   1  -2  181.13    1.59   4
  -1  -1   1  101.99    0.65   1
  -1  -1   1  100.72    0.81   2
  -1  -1   1   94.75    0.93   3
  -1  -1   1   96.65    0.92   4
   1   1  -1  101.83    0.65   1
   1   1  -1   93.20    0.78   2
   1   1  -1   91.08    0.91   3
   1   1  -1   99.95    0.94   4
  -1  -1   0  116.14    0.81   1
  -1  -1   0   81.41    0.66   2
   1   1   0  153.90    0.86   1
   1   1   0  150.42    0.87   2
   1   1   0  148.42    0.94   3
   1   1   0    0.09    0.05   4
   1   1   0  154.53    0.94   4
  -1  -1  -1    0.10    0.06   1
  -1  -1  -1  363.96    1.70   2
   1   1   1  365.02    1.57   1
   1   1   1    0.00    0.05   2
   1   1   1    0.00    0.04   3
   1   1   1  357.02    1.30   4
  -1  -1  -2  124.15    1.03   1
  -1  -1  -2  126.04    1.05   2
  -1  -1  -2  130.05    0.68   3
  -1  -1  -2  118.42    0.88   4
   1   1   2  131.97    1.06   1
   1   1   2  130.50    1.07   2
   1   1   2  127.94    0.67   3
   1   1   2  123.54    0.90   4
  -1  -1  -3 3123.78   13.92   1
  -1  -1  -3 2952.67   13.90   2
  -1  -1  -3 3192.25   10.26   3
  -1  -1  -3 3173.26   13.28   4
   1   1   3 3029.51   11.78   1
   1   1   3 2957.29   10.16   3
   1   1   3 3224.74   13.25   4
  -1  -1  -4   35.70    0.78   2
  -1  -1  -4   34.13    0.58   3
  -1  -1  -4   32.12    0.71   4
   1   1   4   34.55    0.70   1
   1   1   4   33.61    0.77   2
   1   1   4   34.01    0.57   3
   1   1   4   34.85    0.71   4
  -1  -1  -5  584.10    3.02   1
  -1  -1  -5  598.32    3.35   2
  -1  -1  -5  600.26    2.69   3
  -1  -1  -5  569.55    3.18   4
   1   1   5  598.66    3.05   1
   1   1   5  583.75    3.36   2
   1   1   5  590.05    2.69   3
   1   1   5  586.21    3.19   4
  -1  -1  -6   41.25    0.92   1
  -1  -1  -6   42.62    1.01   2
  -1  -1  -6   43.25    0.86   3
  -1  -1  -6   39.81    1.01   4
   1   1   6   44.03    0.95   1
   1   1   6   40.43    1.04   2
   1   1   6   41.82    0.87   3
   1   1   6   42.56    1.00   4
  -1  -1  -7    8.33    0.56   1
  -1  -1  -7    7.73    0.62   2
  -1  -1  -7    8.80    0.56   3
  -1  -1  -7   10.05    0.69   4
   1   1   7    9.79    0.61   1
   1   1   7    8.22    0.68   2
   1   1   7    8.90    0.56   3
   1   1   7    9.17    0.61   4
  -1  -1  -8    0.38    0.31   1
  -1  -1  -8    0.53    0.40   2
  -1  -1  -8    0.45    0.35   3
  -1  -1  -8    0.67    0.41   4
   1   1   8    0.71    0.37   1
   1   1   8    0.14    0.44   2
   1   1   8    0.34    0.35   3
   1   1   8    0.43    0.42   4
  -1  -1  -9    7.37    0.70   1
  -1  -1  -9    5.72    0.64   3
  -1  -1  -9    7.92    0.89   4
   1   1   9    6.61    0.82   1
   1   1   9    7.41    0.80   2
   1   1   9    6.54    0.74   3
  -1  -1 -10    0.28    0.46   1
  -1  -1 -10   -0.93    0.58   3
  -1  -1 -10   -0.26    0.56   4
   1   1  10    0.72    0.61   1
   1   1  10   -0.38    0.52   2
   1   1  10    0.10    0.46   3
  -1  -1 -11    3.05    0.62   1
  -1  -1 -11    1.83    0.71   4
   1   1  11    2.88    0.80   1
   1   1  11    2.25    0.75   2
   1   1  11    2.76    0.68   3
  -1  -1 -12    0.24    0.67   1
  -1  -1 -12    0.27    0.90   4
   1   1  12    0.57    0.88   2
   1   1  12   -0.33    0.71   3
  -1  -1 -13    4.95    0.90   1
  -1  -1 -13    5.07    1.21   4
   1   1  13    6.40    1.23   2
   1   1  13    4.42    0.99   3
  -1  -2  12    0.69    1.02   2
  -1  -2  12    1.27    1.07   3
   1   2 -12   -0.93    1.15   4
  -1  -2  11    2.28    0.85   2
  -1  -2  11    1.93    0.89   3
   1   2 -11    1.71    0.93   4
  -1  -2  10    0.10    0.76   3
   1   2 -10   -0.58    0.28   1
   1   2 -10    0.20    0.74   4
  -1  -2   9    2.21    0.36   1
  -1  -2   9    3.39    0.70   2
  -1  -2   9    2.24    0.70   3
   1   2  -9    3.03    0.33   1
   1   2  -9    2.81    0.80   4
  -1  -2   8    2.79    0.33   1
  -1  -2   8    2.84    0.56   2
  -1  -2   8    2.68    0.65   3
   1   2  -8    3.04    0.30   1
   1   2  -8    3.53    0.67   2
   1   2  -8    1.82    0.63   4
  -1  -2   7    1.16    0.24   1
  -1  -2   7    1.22    0.45   2
  -1  -2   7    1.25    0.50   3
   1   2  -7    1.09    0.21   1
   1   2  -7    1.26    0.47   2
   1   2  -7    1.26    0.48   3
   1   2  -7    0.63    0.51   4
  -1  -2   6   17.13    0.42   1
  -1  -2   6   21.15    0.89   2
  -1  -2   6   23.55    0.99   3
  -1  -2   6   21.66    0.97   4
   1   2  -6   21.94    0.44   1
   1   2  -6   21.43    0.87   2
   1   2  -6   21.59    0.86   3
   1   2  -6   20.92    0.99   4
  -1  -2   5    6.59    0.25   1
  -1  -2   5    7.23    0.58   2
  -1  -2   5    6.56    0.61   3
  -1  -2   5    7.08    0.62   4
   1   2  -5    6.43    0.25   1
   1   2  -5    6.09    0.49   2
   1   2  -5    7.25    0.55   3
   1   2  -5    7.14    0.62   4
  -1  -2   4  418.03    1.27   1
  -1  -2   4  418.20    2.83   2
  -1  -2   4  418.01    3.02   3
  -1  -2   4  410.02    3.01   4
   1   2  -4  409.54    1.25   1
   1   2  -4  424.36    2.82   2
   1   2  -4  427.47    3.01   3
   1   2  -4  369.38    2.89   4
  -1  -2   3  218.89    0.80   1
  -1  -2   3  217.94    1.87   2
  -1  -2   3  218.33    2.01   3
  -1  -2   3  214.97    1.96   4
   1   2  -3  210.45    0.78   1
   1   2  -3  215.15    1.83   2
   1   2  -3  222.11    2.00   3
   1   2  -3  205.51    1.96   4
  -1  -2   2    8.89    0.43   3
  -1  -2   2   10.67    0.43   4
   1   2  -2   10.69    0.21   1
   1   2  -2   10.45    0.21   1
   1   2  -2   10.06    0.40   2
   1   2  -2   10.81    0.47   4
  -1  -2   1   49.34    0.50   1
  -1  -2   1   49.93    0.75   2
  -1  -2   1   46.19    0.77   3
  -1  -2   1   47.43    0.71   4
   1   2  -1   48.87    0.50   1
   1   2  -1   49.89    0.75   2
   1   2  -1   48.25    0.78   3
   1   2  -1   48.77    0.72   4
  -1  -2   0    3.04    0.19   1
  -1  -2   0    2.82    0.23   2
  -1  -2   0    3.00    0.19   4
   1   2   0    3.05    0.20   1
   1   2   0    3.02    0.24   2
   1   2   0    2.97    0.23   3
   1   2   0    3.34    0.25   3
   1   2   0    3.24    0.19   4
  -1  -2  -1   64.64    0.78   1
  -1  -2  -1   62.78    0.80   2
  -1  -2  -1   63.37    0.73   3
  -1  -2  -1   64.16    0.55   4
   1   2   1   65.21    0.79   1
   1   2   1   64.82    0.82   2
   1   2   1   65.05    0.74   3
   1   2   1   63.08    0.54   4
  -1  -2  -2   67.25    0.89   1
  -1  -2  -2   73.49    0.93   2
  -1  -2  -2   73.90    0.77   3
  -1  -2  -2   70.15    0.61   4
   1   2   2   71.72    0.93   1
   1   2   2   71.35    0.92   2
   1   2   2   72.48    0.77   3
   1   2   2   70.40    0.62   4
  -1  -2  -3   21.67    0.59   1
  -1  -2  -3   24.18    0.49   3
  -1  -2  -3   22.70    0.46   4
   1   2   3   23.95    0.61   1
   1   2   3   22.82    0.60   2
   1   2   3   22.90    0.48   3
   1   2   3   23.26    0.46   4
  -1  -2  -4  534.37    2.98   1
  -1  -2  -4  545.06    2.99   2
  -1  -2  -4  556.47    2.44   3
  -1  -2  -4  527.68    2.50   4
   1   2   4  532.67    2.94   1
   1   2   4  535.99    3.00   2
   1   2   4  525.66    2.39   3
   1   2   4  518.29    2.46   4
  -1  -2  -5   53.76    1.07   1
  -1  -2  -5   57.17    1.07   2
  -1  -2  -5   56.58    0.90   3
  -1  -2  -5   50.27    0.95   4
   1   2   5   56.90    1.07   1
   1   2   5   51.22    1.06   2
   1   2   5   52.22    0.91   3
   1   2   5   54.94    0.97   4
  -1  -2  -6  475.77    3.24   1
  -1  -2  -6  449.79    3.24   2
  -1  -2  -6  475.18    2.79   3
  -1  -2  -6  457.25    3.04   4
   1   2   6  465.30    3.18   1
   1   2   6  452.81    3.30   2
   1   2   6  460.53    2.77   3
   1   2   6  460.12    3.02   4
  -1  -2  -7    4.06    0.48   1
  -1  -2  -7    3.96    0.50   2
  -1  -2  -7    4.64    0.51   3
  -1  -2  -7    4.66    0.57   4
   1   2   7    4.80    0.57   1
   1   2   7    4.38    0.57   2
   1   2   7    3.70    0.44   3
   1   2   7    3.85    0.46   4
  -1  -2  -8    9.21    0.70   1
  -1  -2  -8    8.88    0.77   2
  -1  -2  -8   10.77    0.71   3
  -1  -2  -8    9.41    0.78   4
   1   2   8   11.57    0.83   1
   1   2   8    9.11    0.80   2
   1   2   8    9.79    0.69   3
   1   2   8   11.52    0.83   4
  -1  -2  -9    1.15    0.47   1
  -1  -2  -9    0.93    0.48   3
  -1  -2  -9    1.20    0.55   4
   1   2   9    1.85    0.60   1
   1   2   9    1.36    0.50   2
   1   2   9    0.85    0.42   3
   1   2   9    0.39    0.54   4
  -1  -2 -10    0.62    0.49   1
  -1  -2 -10   -0.01    0.60   3
  -1  -2 -10   -0.38    0.56   4
   1   2  10    0.57    0.67   1
   1   2  10    0.03    0.56   2
   1   2  10   -0.62    0.46   3
  -1  -2 -11    2.43    0.66   1
   1   2  11    1.29    0.76   2
   1   2  11    1.56    0.64   3
  -1  -2 -12    3.25    0.81   1
  -1  -2 -12    2.68    0.96   4
   1   2  12    3.45    0.88   2
   1   2  12    3.75    0.81   3
  -1  -2 -13    0.50    0.85   1
  -1  -2 -13    0.26    1.06   4
   1   2  13   -0.16    0.94   2
   1   2  13   -0.49    0.89   3
  -1  -3  12    5.89    1.27   2
  -1  -3  12    5.03    1.42   3
   1   3 -12    1.55    1.19   4
  -1  -3  11   -0.06    0.87   2
  -1  -3  11    0.28    0.93   3
   1   3 -11   -0.18    0.90   4
  -1  -3  10   12.76    1.29   2
  -1  -3  10   11.13    1.20   3
   1   3 -10    9.76    1.19   4
  -1  -3   9    9.39    1.01   2
   1   3  -9    7.96    1.01   4
  -1  -3   8   -0.01    0.55   2
  -1  -3   8   -0.01    0.53   3
   1   3  -8   -0.70    0.54   4
  -1  -3   7   13.88    0.94   2
  -1  -3   7   16.13    1.01   3
   1   3  -7   11.41    0.98   2
   1   3  -7   11.97    0.94   4
  -1  -3   6   -0.05    0.35   2
  -1  -3   6    0.65    0.41   3
  -1  -3   6    0.25    0.43   4
   1   3  -6    0.07    0.38   2
   1   3  -6    0.08    0.42   3
   1   3  -6    0.09    0.39   4
  -1  -3   5   54.60    1.25   2
  -1  -3   5   57.02    1.35   3
  -1  -3   5   55.50    1.31   4
   1   3  -5   54.70    1.26   2
   1   3  -5   51.83    1.23   3
   1   3  -5   51.45    1.30   4
  -1  -3   4    5.47    0.54   2
  -1  -3   4    6.08    0.54   3
  -1  -3   4    6.16    0.48   4
   1   3  -4    7.06    0.53   2
   1   3  -4    5.93    0.52   3
   1   3  -4    6.21    0.56   4
  -1  -3   3   43.42    0.99   2
  -1  -3   3   43.82    1.03   3
  -1  -3   3   47.08    0.99   4
   1   3  -3   48.58    1.00   2
   1   3  -3   47.69    1.03   3
   1   3  -3   43.72    1.00   4
  -1  -3   2   24.50    0.73   2
  -1  -3   2   23.69    0.65   4
   1   3  -2   24.58    0.37   1
   1   3  -2   25.11    0.69   2
   1   3  -2   23.30    0.71   3
   1   3  -2   26.59    0.74   3
   1   3  -2   23.56    0.67   4
  -1  -3   1  367.31    1.65   1
  -1  -3   1  342.74    2.32   2
  -1  -3   1  357.01    2.05   4
   1   3  -1  357.99    1.63   1
   1   3  -1  367.94    2.39   2
   1   3  -1  362.02    2.44   3
   1   3  -1  375.19    2.46   3
   1   3  -1  356.90    2.06   4
  -1  -3   0   49.30    0.71   1
  -1  -3   0   44.89    0.84   2
  -1  -3   0   51.00    0.87   3
  -1  -3   0   48.80    0.64   4
   1   3   0   48.08    0.71   1
   1   3   0   48.37    0.87   3
   1   3   0   46.79    0.64   4
  -1  -3  -1   66.13    0.96   1
  -1  -3  -1   67.65    1.02   2
  -1  -3  -1   68.79    0.96   3
   1   3   1   69.09    0.93   1
   1   3   1   68.40    1.04   2
   1   3   1   69.60    0.60   4
   1   3   1   69.05    0.60   4
  -1  -3  -2    3.52    0.28   3
  -1  -3  -2    3.51    0.15   4
   1   3   2    3.14    0.31   2
   1   3   2    3.35    0.16   4
  -1  -3  -3  132.06    1.54   1
  -1  -3  -3  145.31    1.57   2
  -1  -3  -3  142.00    1.37   3
  -1  -3  -3  138.79    0.94   4
   1   3   3  138.39    1.56   1
   1   3   3  132.27    1.52   2
   1   3   3  137.38    0.94   4
  -1  -3  -4    0.28    0.21   1
  -1  -3  -4   -0.14    0.17   2
  -1  -3  -4    0.17    0.18   3
  -1  -3  -4   -0.11    0.13   4
   1   3   4    0.13    0.20   1
   1   3   4    0.24    0.24   2
   1   3   4    0.13    0.20   3
   1   3   4   -0.04    0.13   4
  -1  -3  -5   69.41    1.32   1
  -1  -3  -5   71.08    1.11   3
  -1  -3  -5   67.81    1.02   4
   1   3   5   71.32    1.29   1
   1   3   5   63.31    1.23   2
   1   3   5   67.44    1.10   3
   1   3   5   69.22    1.01   4
  -1  -3  -6   32.27    1.01   1
  -1  -3  -6   33.36    0.98   2
  -1  -3  -6   34.15    0.88   3
  -1  -3  -6   30.49    0.84   4
   1   3   6   31.07    0.96   1
   1   3   6   32.08    1.03   2
   1   3   6   31.16    0.86   3
   1   3   6   30.30    0.80   4
  -1  -3  -7  193.02    2.40   1
  -1  -3  -7  199.68    2.43   2
  -1  -3  -7  200.17    2.10   3
  -1  -3  -7  191.56    2.12   4
   1   3   7  197.41    2.41   1
   1   3   7  198.83    2.46   2
   1   3   7  197.26    2.10   3
   1   3   7  200.12    2.13   4
  -1  -3  -8    0.17    0.39   1
  -1  -3  -8   -0.48    0.41   2
  -1  -3  -8   -0.07    0.39   3
  -1  -3  -8    0.53    0.39   4
   1   3   8    1.09    0.51   1
   1   3   8    0.05    0.41   2
   1   3   8   -0.31    0.34   3
   1   3   8   -0.44    0.38   4
  -1  -3  -9   56.80    1.56   1
  -1  -3  -9   49.77    1.35   3
  -1  -3  -9   55.20    1.53   4
   1   3   9   59.84    1.90   1
   1   3   9   55.93    1.63   2
   1   3   9   54.96    1.40   3
   1   3   9   57.72    1.55   4
  -1  -3 -10    4.37    0.73   1
  -1  -3 -10    3.99    0.73   3
  -1  -3 -10    3.79    0.74   4
   1   3  10    4.07    0.75   2
   1   3  10    3.71    0.66   3
  -1  -3 -11    0.47    0.63   1
  -1  -3 -11    0.42    0.73   4
   1   3  11    0.45    0.72   2
   1   3  11    0.25    0.62   3
  -1  -3 -12    0.24    0.74   1
  -1  -3 -12   -0.40    0.86   4
   1   3  12    0.48    0.86   2
   1   3  12   -1.22    0.73   3
  -1  -3 -13    0.27    0.92   1
  -1  -3 -13    0.31    1.12   4
   1   3  13    0.02    1.04   2
   1   3  13   -0.25    0.89   3
  -1  -4  11   -0.38    0.93   2
   1   4 -11    0.65    0.99   3
  -1  -4  10    4.68    0.95   2
   1   4 -10    5.13    1.01   3
   1   4 -10    6.20    1.02   4
  -1  -4   9   12.67    1.26   2
   1   4  -9   13.36    1.30   3
   1   4  -9   12.90    1.43   4
  -1  -4   8   16.73    1.17   2
   1   4  -8   18.69    1.26   3
   1   4  -8   17.63    1.32   4
  -1  -4   7   15.35    1.03   2
   1   4  -7   15.71    1.05   3
   1   4  -7   17.07    1.19   4
  -1  -4   6   45.39    1.36   2
   1   4  -6   43.75    1.38   2
   1   4  -6   46.77    1.43   3
   1   4  -6   45.58    1.47   4
  -1  -4   5    5.42    0.62   2
  -1  -4   5    5.73    0.69   4
   1   4  -5    5.64    0.68   2
   1   4  -5    3.85    0.54   3
   1   4  -5    4.88    0.59   3
   1   4  -5    5.65    0.71   4
  -1  -4   4   39.63    1.14   2
  -1  -4   4   41.40    1.12   4
   1   4  -4   40.45    1.09   2
   1   4  -4   41.57    1.20   3
   1   4  -4   43.50    1.18   3
   1   4  -4   38.41    1.11   4
  -1  -4   3   36.77    1.02   2
  -1  -4   3   38.91    0.99   4
   1   4  -3   39.90    0.39   1
   1   4  -3   38.12    0.39   1
   1   4  -3   38.33    0.99   2
   1   4  -3   37.93    1.05   3
   1   4  -3   40.08    1.07   3
   1   4  -3   35.89    0.98   4
  -1  -4   2   92.57    0.86   1
  -1  -4   2   88.89    1.46   2
  -1  -4   2   90.50    1.28   4
   1   4  -2   90.55    0.86   1
   1   4  -2   92.82    1.44   2
   1   4  -2   91.12    1.50   3
   1   4  -2   90.43    1.46   3
   1   4  -2   85.29    1.28   4
  -1  -4   1    0.48    0.16   1
  -1  -4   1    0.31    0.26   2
  -1  -4   1    0.93    0.19   4
   1   4  -1    0.49    0.18   1
   1   4  -1    0.57    0.23   2
   1   4  -1    0.51    0.26   3
   1   4  -1    0.71    0.27   3
   1   4  -1    0.48    0.20   4
  -1  -4   0    5.28    0.36   1
  -1  -4   0    5.77    0.46   2
  -1  -4   0    5.10    0.43   3
  -1  -4   0    5.41    0.29   4
   1   4   0    6.10    0.38   1
   1   4   0    5.18    0.41   2
   1   4   0    6.19    0.47   3
   1   4   0    5.80    0.31   4
  -1  -4  -1   47.39    0.91   1
  -1  -4  -1   45.11    0.96   2
  -1  -4  -1   50.70    0.98   3
   1   4   1   49.38    0.91   1
   1   4   1   50.00    1.01   2
   1   4   1   47.84    0.97   3
   1   4   1   48.52    0.55   4
   1   4   1   49.16    0.55   4
  -1  -4  -2  164.65    1.77   1
  -1  -4  -2  170.45    1.73   3
   1   4   2  158.26    1.71   1
   1   4   2  167.29    1.85   2
   1   4   2  171.05    1.83   2
   1   4   2  165.52    1.73   3
   1   4   2  167.96    0.72   4
   1   4   2  168.40    0.72   4
  -1  -4  -3    0.00    0.23   1
  -1  -4  -3   -0.02    0.19   3
  -1  -4  -3    0.20    0.08   4
   1   4   3    0.69    0.27   1
   1   4   3   -0.03    0.22   2
   1   4   3    0.05    0.22   2
   1   4   3    0.18    0.23   3
   1   4   3    0.28    0.10   4
  -1  -4  -4   29.20    0.92   1
  -1  -4  -4   31.34    0.82   3
  -1  -4  -4   29.97    0.51   4
   1   4   4   30.12    0.92   1
   1   4   4   30.53    0.90   2
   1   4   4   31.07    0.89   2
   1   4   4   30.57    0.85   3
   1   4   4   29.32    0.51   4
  -1  -4  -5    0.08    0.27   1
  -1  -4  -5    0.31    0.26   2
  -1  -4  -5   -0.07    0.26   3
  -1  -4  -5    0.01    0.16   4
   1   4   5    0.26    0.27   1
   1   4   5    0.16    0.29   2
   1   4   5    0.36    0.28   3
   1   4   5    0.05    0.16   4
  -1  -4  -6    2.89    0.47   1
  -1  -4  -6    2.84    0.45   2
  -1  -4  -6    2.45    0.40   3
  -1  -4  -6    2.82    0.34   4
   1   4   6    2.41    0.41   1
   1   4   6    1.99    0.43   2
   1   4   6    2.38    0.41   3
   1   4   6    2.44    0.33   4
  -1  -4  -7    1.92    0.51   1
  -1  -4  -7    1.60    0.44   2
  -1  -4  -7    1.77    0.45   3
  -1  -4  -7    1.39    0.36   4
   1   4   7    2.25    0.50   1
   1   4   7    1.97    0.48   2
   1   4   7    1.91    0.45   3
   1   4   7    1.54    0.34   4
  -1  -4  -8    0.37    0.48   1
  -1  -4  -8    0.59    0.48   2
  -1  -4  -8    1.20    0.52   3
  -1  -4  -8    0.49    0.41   4
   1   4   8    2.12    0.57   2
   1   4   8    0.97    0.44   3
   1   4   8    1.03    0.41   4
  -1  -4  -9    1.76    0.61   1
  -1  -4  -9    2.23    0.65   3
  -1  -4  -9    2.17    0.58   4
   1   4   9    2.00    0.59   2
   1   4   9    2.27    0.58   3
   1   4   9    2.27    0.56   4
  -1  -4 -10   17.27    1.22   1
  -1  -4 -10   18.55    1.32   3
  -1  -4 -10   16.09    1.19   4
   1   4  10   16.10    1.32   2
   1   4  10   18.68    1.19   3
  -1  -4 -11    3.18    0.86   1
  -1  -4 -11    2.54    0.82   4
   1   4  11    1.76    0.78   2
   1   4  11    1.49    0.70   3
  -1  -4 -12    4.50    0.99   1
  -1  -4 -12    1.96    0.98   4
   1   4  12    3.72    1.04   2
   1   4  12    4.20    0.92   3
  -1  -4 -13    2.24    1.05   1
  -1  -4 -13    0.77    1.15   4
   1   4  13    1.10    1.10   2
   1   4  13   -0.69    1.01   3
  -1  -5  11    1.42    1.15   2
   1   5 -11    2.17    1.20   3
   1   5 -11    0.52    1.17   4
  -1  -5  10    0.98    0.97   2
   1   5 -10   -0.68    0.99   3
   1   5 -10    0.62    1.00   4
  -1  -5   9    0.31    0.82   2
   1   5  -9    1.40    0.91   3
   1   5  -9    1.26    0.87   4
  -1  -5   8   -0.16    0.63   2
   1   5  -8    0.42    0.67   3
   1   5  -8    0.24    0.72   4
  -1  -5   7    0.03    0.51   2
   1   5  -7    0.79    0.66   3
   1   5  -7    0.14    0.62   4
  -1  -5   6   27.46    1.25   2
   1   5  -6   24.70    1.27   3
   1   5  -6   23.12    1.25   4
  -1  -5   5   91.13    1.90   2
  -1  -5   5   89.97    1.83   4
   1   5  -5   96.40    2.00   3
   1   5  -5   89.96    1.86   4
  -1  -5   4    0.76    0.41   2
  -1  -5   4    0.35    0.40   4
   1   5  -4    0.90    0.37   2
   1   5  -4    0.52    0.40   3
   1   5  -4    0.74    0.44   3
   1   5  -4    0.43    0.45   4
  -1  -5   3   33.65    0.51   1
  -1  -5   3   32.85    1.12   2
  -1  -5   3   32.02    0.98   4
   1   5  -3   32.38    0.52   1
   1   5  -3   33.65    1.05   2
   1   5  -3   34.63    1.13   3
   1   5  -3   30.54    1.00   4
  -1  -5   2    2.20    0.24   1
  -1  -5   2    2.03    0.43   2
  -1  -5   2    2.28    0.34   4
   1   5  -2    1.80    0.26   1
   1   5  -2    1.91    0.36   2
   1   5  -2    2.09    0.42   3
   1   5  -2    2.18    0.38   3
   1   5  -2    1.84    0.35   4
  -1  -5   1   10.78    0.47   1
  -1  -5   1   10.53    0.66   2
  -1  -5   1   11.13    0.64   3
  -1  -5   1   10.56    0.48   4
   1   5  -1   10.25    0.49   1
   1   5  -1   11.11    0.64   2
   1   5  -1   12.00    0.69   3
   1   5  -1   10.86    0.53   4
  -1  -5   0   10.56    0.54   1
  -1  -5   0   11.28    0.63   2
  -1  -5   0   10.95    0.63   3
  -1  -5   0   10.86    0.42   4
   1   5   0   10.87    0.55   1
   1   5   0   11.02    0.64   2
   1   5   0   10.23    0.66   3
   1   5   0   10.40    0.41   4
  -1  -5  -1   58.28    1.12   1
  -1  -5  -1   57.72    1.23   2
  -1  -5  -1   64.85    1.24   3
   1   5   1   61.15    1.14   1
   1   5   1   64.24    1.29   2
   1   5   1   63.31    1.27   3
   1   5   1   59.34    0.65   4
   1   5   1   60.78    0.65   4
  -1  -5  -2    3.88    0.48   1
  -1  -5  -2    3.05    0.44   2
  -1  -5  -2    3.77    0.44   3
   1   5   2    3.06    0.39   1
   1   5   2    4.03    0.49   2
   1   5   2    3.32    0.44   3
  -1  -5  -3    5.03    0.52   1
  -1  -5  -3    4.46    0.48   3
   1   5   3    4.24    0.49   1
   1   5   3    4.45    0.50   2
   1   5   3    4.41    0.44   2
   1   5   3    4.28    0.51   3
  -1  -5  -4   17.20    0.80   1
  -1  -5  -4   19.16    0.77   3
  -1  -5  -4   18.72    0.28   4
   1   5   4   18.31    0.81   1
   1   5   4   18.24    0.83   2
   1   5   4   21.41    0.84   2
   1   5   4   18.14    0.79   3
   1   5   4   18.30    0.29   4
  -1  -5  -5   27.28    0.92   3
  -1  -5  -5   25.84    0.51   4
   1   5   5   25.24    0.97   1
   1   5   5   25.06    0.99   2
   1   5   5   26.73    0.96   2
   1   5   5   24.45    0.91   3
   1   5   5   25.82    0.51   4
  -1  -5  -6    0.43    0.41   1
  -1  -5  -6   -0.05    0.35   2
  -1  -5  -6    0.41    0.43   3
   1   5   6    0.71    0.37   1
   1   5   6   -0.23    0.38   2
   1   5   6    0.05    0.33   3
   1   5   6    0.10    0.21   4
  -1  -5  -7    4.32    0.64   1
  -1  -5  -7    4.28    0.57   2
  -1  -5  -7    5.68    0.68   3
  -1  -5  -7    4.96    0.55   4
   1   5   7    5.65    0.67   2
   1   5   7    7.37    0.75   3
   1   5   7    6.35    0.55   4
  -1  -5  -8    0.47    0.52   1
  -1  -5  -8    0.42    0.53   3
  -1  -5  -8    0.48    0.38   4
   1   5   8    0.19    0.53   2
   1   5   8    0.22    0.49   3
   1   5   8    0.40    0.38   4
  -1  -5  -9    1.83    0.68   1
  -1  -5  -9    1.84    0.69   3
  -1  -5  -9    1.91    0.50   4
   1   5   9    2.20    0.73   2
   1   5   9    2.09    0.58   3
   1   5   9    2.32    0.55   4
  -1  -5 -10   -0.09    0.58   1
  -1  -5 -10    0.29    0.58   4
   1   5  10   -0.33    0.73   2
   1   5  10    1.59    0.66   3
   1   5  10    1.64    0.66   4
  -1  -5 -11    1.33    0.76   1
  -1  -5 -11    1.37    0.73   4
   1   5  11    0.00    0.83   2
   1   5  11    0.52    0.74   3
  -1  -5 -12    1.09    0.95   1
   1   5  12   -2.03    0.95   2
   1   5  12    0.08    0.88   3
  -1  -5 -13    3.15    1.26   1
  -1  -5 -13    3.87    1.19   4
   1   5  13    0.86    1.21   2
   1   5  13    3.61    1.17   3
  -1  -6  10    0.42    1.15   2
   1   6 -10    1.21    1.10   3
   1   6 -10    0.25    1.15   4
  -1  -6   9   -0.10    0.86   2
   1   6  -9    1.07    0.92   3
   1   6  -9    1.06    0.94   4
  -1  -6   8   11.52    1.24   2
   1   6  -8   12.50    1.40   3
   1   6  -8   12.31    1.49   4
  -1  -6   7    0.63    0.69   2
   1   6  -7   -0.97    0.64   3
   1   6  -7    0.28    0.64   4
  -1  -6   6    4.99    0.82   2
   1   6  -6    3.63    0.77   4
  -1  -6   5   14.47    1.03   2
   1   6  -5   12.68    0.99   3
   1   6  -5   13.30    1.02   4
  -1  -6   4    1.90    0.52   2
  -1  -6   4    1.58    0.47   4
   1   6  -4    1.39    0.50   3
   1   6  -4    1.27    0.48   4
  -1  -6   3   19.72    0.53   1
  -1  -6   3   22.65    1.06   2
  -1  -6   3   25.07    0.98   4
   1   6  -3   23.40    0.59   1
   1   6  -3   21.71    0.96   2
   1   6  -3   21.98    1.04   3
   1   6  -3   21.57    0.97   4
  -1  -6   2   26.03    0.69   1
  -1  -6   2   26.56    1.09   2
  -1  -6   2   27.17    0.85   4
   1   6  -2   24.71    0.79   1
   1   6  -2   26.38    0.99   2
   1   6  -2   26.11    1.05   3
   1   6  -2   25.62    1.02   3
   1   6  -2   24.42    0.88   4
  -1  -6   1    9.61    0.53   1
  -1  -6   1    9.44    0.76   2
  -1  -6   1   10.05    0.79   3
  -1  -6   1    8.96    0.50   4
   1   6  -1    9.27    0.59   1
   1   6  -1   10.74    0.76   2
   1   6  -1    8.31    0.57   4
  -1  -6   0   -0.11    0.27   1
  -1  -6   0    0.11    0.31   2
  -1  -6   0   -0.30    0.34   3
  -1  -6   0   -0.10    0.19   4
   1   6   0    0.21    0.31   1
   1   6   0    0.67    0.35   2
   1   6   0    0.05    0.34   3
   1   6   0    0.09    0.24   4
  -1  -6  -1    4.12    0.50   1
  -1  -6  -1    3.11    0.46   2
  -1  -6  -1    4.15    0.51   3
   1   6   1    3.07    0.44   1
   1   6   1    3.21    0.47   2
   1   6   1    3.25    0.47   3
   1   6   1    3.46    0.29   4
   1   6   1    3.93    0.26   4
  -1  -6  -2   29.11    0.97   1
  -1  -6  -2   28.43    1.06   2
  -1  -6  -2   29.59    1.03   3
   1   6   2   29.24    0.97   1
   1   6   2   30.16    1.03   2
   1   6   2   29.28    1.04   3
  -1  -6  -3    9.95    0.74   1
  -1  -6  -3   11.11    0.73   3
   1   6   3   10.37    0.72   1
   1   6   3   10.52    0.71   2
   1   6   3   11.65    0.69   2
   1   6   3    9.57    0.71   3
  -1  -6  -4    2.89    0.50   1
  -1  -6  -4    3.34    0.54   3
   1   6   4    3.24    0.43   1
   1   6   4    3.07    0.51   2
   1   6   4    2.70    0.43   2
   1   6   4    2.63    0.48   3
  -1  -6  -5   -0.15    0.37   1
  -1  -6  -5    0.65    0.41   3
   1   6   5   -0.63    0.42   1
   1   6   5    0.03    0.37   2
   1   6   5   -0.07    0.43   2
   1   6   5   -0.05    0.40   3
  -1  -6  -6   38.31    1.32   1
  -1  -6  -6   39.22    1.26   3
  -1  -6  -6   28.02    0.53   4
   1   6   6   40.84    1.38   2
   1   6   6   39.59    1.27   3
   1   6   6   38.88    0.61   4
  -1  -6  -7   11.19    1.02   1
  -1  -6  -7   11.35    1.00   3
  -1  -6  -7   10.63    0.56   4
   1   6   7   12.50    1.06   2
   1   6   7   12.63    0.94   3
   1   6   7   11.58    0.53   4
  -1  -6  -8    0.37    0.36   4
   1   6   8    0.05    0.60   2
   1   6   8    0.47    0.55   3
   1   6   8    0.58    0.34   4
  -1  -6  -9    3.18    0.76   1
  -1  -6  -9    2.34    0.53   4
   1   6   9    2.59    0.70   3
   1   6   9    2.88    0.51   4
  -1  -6 -10    0.73    0.71   1
  -1  -6 -10   -0.55    0.56   4
   1   6  10   -0.19    0.80   2
   1   6  10   -1.26    0.67   3
  -1  -6 -11    1.04    0.96   1
  -1  -6 -11   -0.17    0.73   4
   1   6  11    0.76    0.96   2
  -1  -6 -12   -1.20    1.02   1
   1   6  12   -0.73    1.02   2
   1   6  12    1.21    1.05   3
  -1  -7   9    1.86    1.14   2
   1   7  -9    0.50    1.05   3
   1   7  -9   -0.72    1.09   4
  -1  -7   8    3.55    0.92   2
   1   7  -8    3.40    0.99   3
   1   7  -8    1.15    0.99   4
  -1  -7   7    4.61    1.00   2
   1   7  -7    3.78    0.95   3
   1   7  -7    4.11    0.93   4
  -1  -7   6    5.64    0.89   2
   1   7  -6    4.12    0.85   3
  -1  -7   5   12.83    1.22   2
   1   7  -5   12.48    1.19   3
   1   7  -5   13.53    1.12   4
  -1  -7   4   11.86    1.12   2
  -1  -7   4   12.11    1.00   4
   1   7  -4   11.27    0.37   1
   1   7  -4   11.45    0.38   1
   1   7  -4   10.99    1.06   3
   1   7  -4   11.90    1.03   4
  -1  -7   3   23.98    0.70   1
  -1  -7   3   26.77    1.30   2
  -1  -7   3   25.30    1.03   4
   1   7  -3   24.89    0.74   1
   1   7  -3   26.96    1.30   3
   1   7  -3   25.01    1.08   4
  -1  -7   2   10.29    0.60   1
  -1  -7   2    9.74    0.91   2
  -1  -7   2    9.08    0.66   4
   1   7  -2    8.76    0.63   1
   1   7  -2   10.34    0.75   4
  -1  -7   1   42.40    1.06   1
  -1  -7   1   41.41    1.40   2
  -1  -7   1   30.87    0.84   4
   1   7  -1   41.56    1.10   1
   1   7  -1   43.80    1.44   3
   1   7  -1   40.65    0.99   4
  -1  -7   0   52.16    1.23   1
  -1  -7   0   51.94    1.50   2
   1   7   0   53.31    1.28   1
   1   7   0   52.41    1.50   3
   1   7   0   48.57    0.91   4
  -1  -7  -1    6.48    0.67   1
  -1  -7  -1    3.99    0.59   2
  -1  -7  -1    8.12    0.84   3
   1   7   1    6.05    0.75   1
   1   7   1    5.93    0.70   3
   1   7   1    5.84    0.33   4
   1   7   1    4.90    0.31   4
  -1  -7  -2   40.73    1.24   1
  -1  -7  -2   39.49    1.33   2
  -1  -7  -2   41.38    1.33   3
   1   7   2   40.29    1.26   1
   1   7   2   39.24    1.29   3
  -1  -7  -3   -0.13    0.40   1
  -1  -7  -3   -0.51    0.49   3
   1   7   3    1.84    0.52   1
   1   7   3   -0.53    0.39   2
   1   7   3    0.24    0.44   3
  -1  -7  -4    8.68    0.86   1
  -1  -7  -4    6.69    0.72   3
   1   7   4    6.91    0.79   2
   1   7   4    7.46    0.83   3
  -1  -7  -5    9.73    0.93   1
  -1  -7  -5   12.08    1.00   3
   1   7   5   10.82    0.95   2
   1   7   5    9.98    0.92   3
  -1  -7  -6    1.24    0.65   1
   1   7   6    0.34    0.53   2
   1   7   6    1.46    0.54   3
  -1  -7  -7   10.37    1.08   1
   1   7   7   11.40    1.12   2
   1   7   7    9.17    1.04   3
  -1  -7  -8    0.83    0.70   1
   1   7   8    0.46    0.74   2
   1   7   8    1.67    0.69   3
   1   7   8    0.43    0.30   4
  -1  -7  -9   11.34    1.33   1
  -1  -7  -9    7.61    0.74   4
   1   7   9    9.80    1.15   2
   1   7   9    9.81    1.16   3
  -1  -7 -10    2.40    0.87   1
   1   7  10    2.76    1.02   2
   1   7  10    2.82    0.97   3
  -1  -7 -11   -0.38    0.99   1
   1   7  11   -1.90    1.05   2
   1   7  11    2.21    1.01   3
  -1  -7 -12   -1.03    1.26   1
   1   7  12    0.49    1.29   2
   1   7  12    1.04    1.17   3
  -1  -8   8    1.56    1.11   2
   1   8  -8   -0.53    1.08   3
   1   8  -8    0.97    1.03   4
  -1  -8   7    2.80    1.11   2
   1   8  -7    1.92    1.04   3
   1   8  -7    1.54    0.96   4
  -1  -8   6    0.45    0.80   2
   1   8  -6    1.67    0.86   3
   1   8  -6   -0.31    0.75   4
  -1  -8   5   17.23    1.51   2
   1   8  -5   18.71    1.47   3
   1   8  -5   15.67    1.30   4
  -1  -8   4    6.58    0.95   2
   1   8  -4    4.81    0.48   1
   1   8  -4    5.56    0.93   3
   1   8  -4    4.42    0.76   4
  -1  -8   3    0.30    0.34   1
  -1  -8   3   -0.10    0.56   2
  -1  -8   3   -0.77    0.50   4
   1   8  -3    0.07    0.41   1
   1   8  -3   -0.08    0.57   3
   1   8  -3   -0.29    0.50   4
  -1  -8   2    3.72    0.51   1
  -1  -8   2    2.64    0.51   4
   1   8  -2    4.15    0.58   1
   1   8  -2    3.72    0.55   4
  -1  -8   1    4.88    0.57   1
  -1  -8   1    6.46    0.81   2
  -1  -8   1    4.47    0.48   4
   1   8  -1    4.94    0.64   1
   1   8  -1    4.92    0.77   3
   1   8  -1    6.72    0.65   4
  -1  -8   0   60.13    1.43   1
  -1  -8   0   56.54    1.68   2
   1   8   0   56.99    1.47   1
   1   8   0   57.32    1.74   3
   1   8   0   59.17    0.99   4
   1   8   0   58.60    0.98   4
  -1  -8  -1   -0.12    0.41   1
  -1  -8  -1   -0.09    0.52   2
   1   8   1    0.16    0.61   1
   1   8   1   -0.44    0.50   3
   1   8   1   -0.06    0.16   4
   1   8   1    0.29    0.17   4
  -1  -8  -2   46.11    1.45   1
  -1  -8  -2   45.86    1.58   2
   1   8   2   44.23    1.54   3
  -1  -8  -3   60.83    1.69   1
   1   8   3   63.43    1.82   2
   1   8   3   61.77    1.74   3
  -1  -8  -4    3.76    0.76   1
   1   8   4    2.80    0.61   2
   1   8   4    4.66    0.80   3
   1   8   5    0.44    0.61   2
   1   8   5    0.32    0.58   3
  -1  -8  -6    4.91    0.83   1
   1   8   6    6.97    0.89   2
   1   8   6    5.90    0.85   3
  -1  -8  -7    6.62    1.02   1
   1   8   7    4.51    0.82   2
   1   8   7    5.66    0.86   3
  -1  -8  -8    0.74    0.71   1
   1   8   8    0.84    0.75   2
   1   8   8    0.78    0.77   3
  -1  -8  -9    3.06    0.99   1
   1   8   9    0.92    0.97   2
   1   8   9    1.87    0.94   3
  -1  -8 -10   10.99    1.34   1
   1   8  10   12.89    1.47   2
   1   8  10   11.08    1.36   3
  -1  -8 -11    2.39    1.27   1
   1   8  11    0.75    1.29   2
   1   8  11   -0.45    1.09   3
  -1  -9   7   -0.22    1.12   2
   1   9  -7   -0.19    1.13   3
   1   9  -7    0.23    1.07   4
  -1  -9   6    7.50    1.30   2
   1   9  -6    7.44    1.32   3
   1   9  -6    7.75    1.14   4
  -1  -9   5    1.36    0.95   2
   1   9  -5    1.84    0.96   3
  -1  -9   4    0.79    0.86   2
   1   9  -4    1.57    0.89   3
   1   9  -4    1.45    0.71   4
  -1  -9   3    8.12    0.77   1
  -1  -9   3    6.62    1.04   2
   1   9  -3    9.20    1.18   3
   1   9  -3    8.08    0.87   4
  -1  -9   2   13.89    0.93   1
  -1  -9   2   20.78    1.35   2
   1   9  -2   18.29    1.15   1
   1   9  -2   17.69    1.37   3
   1   9  -2   18.38    1.04   4
  -1  -9   1    1.27    0.52   1
  -1  -9   1    0.24    0.65   2
   1   9  -1    1.72    0.68   1
   1   9  -1    1.63    0.75   3
   1   9  -1    1.46    0.45   4
  -1  -9   0    1.84    0.57   1
  -1  -9   0    1.27    0.69   2
   1   9   0    1.49    0.73   1
   1   9   0    1.25    0.66   3
   1   9   0    1.09    0.34   4
  -1  -9  -1   11.51    0.98   1
  -1  -9  -1   12.15    1.11   2
   1   9   1    9.92    1.06   3
  -1  -9  -2    8.55    1.02   1
  -1  -9  -2    6.44    0.91   2
   1   9   2    6.43    0.91   3
  -1  -9  -3   19.22    1.30   1
   1   9   3   19.25    1.32   2
   1   9   3   17.86    1.30   3
  -1  -9  -4    2.57    0.80   1
   1   9   4    1.65    0.73   2
   1   9   4    2.26    0.80   3
  -1  -9  -5   15.98    1.40   1
   1   9   5   14.62    1.32   2
   1   9   5   15.10    1.34   3
  -1  -9  -6   13.91    1.40   1
   1   9   6   14.90    1.40   2
   1   9   6   13.20    1.37   3
  -1  -9  -7    1.79    0.92   1
   1   9   7    0.34    0.85   2
   1   9   7   -0.85    0.74   3
  -1  -9  -8   -0.57    0.94   1
   1   9   8    0.61    0.90   2
   1   9   8    0.91    0.93   3
  -1  -9  -9    3.82    1.10   1
   1   9   9    1.36    1.12   2
   1   9   9    2.70    1.11   3
  -1  -9 -10    2.97    1.25   1
   1   9  10    3.23    1.31   2
   1   9  10    3.87    1.22   3
  -1 -10   5    1.63    1.13   2
   1  10  -5    4.53    1.25   3
   1  10  -5    2.15    1.00   4
  -1 -10   4   -0.65    1.01   2
   1  10  -4    0.14    1.04   3
   1  10  -4    1.48    0.84   4
  -1 -10   3    4.47    1.03   2
   1  10  -3    4.74    1.16   3
   1  10  -3    4.22    0.84   4
  -1 -10   2    8.08    1.00   1
  -1 -10   2    9.97    1.22   2
   1  10  -2    8.81    1.18   3
   1  10  -2    9.45    1.08   4
  -1 -10   1    1.40    0.66   1
  -1 -10   1    0.91    0.86   2
   1  10  -1    1.15    0.91   3
   1  10  -1    1.19    0.50   4
  -1 -10   0   20.70    1.32   1
  -1 -10   0   19.16    1.55   2
   1  10   0   19.50    1.57   3
  -1 -10  -1   10.03    1.18   1
  -1 -10  -1   10.46    1.22   2
   1  10   1   10.51    1.21   3
  -1 -10  -2    5.62    0.93   1
   1  10   2    4.28    0.94   2
   1  10   2    4.85    0.96   3
  -1 -10  -3    1.02    0.70   1
   1  10   3    0.48    0.74   2
   1  10   3    0.83    0.75   3
  -1 -10  -4    2.80    0.85   1
   1  10   4    3.07    0.88   2
   1  10   4    2.20    0.98   3
  -1 -10  -5    0.10    0.85   1
   1  10   5   -0.26    0.86   2
   1  10   5    0.08    0.83   3
  -1 -10  -6   11.03    1.33   1
   1  10   6    9.40    1.15   2
   1  10   6   10.49    1.27   3
  -1 -10  -7    0.25    1.00   1
   1  10   7    1.89    1.05   2
   1  10   7   -0.48    0.98   3
  -1 -10  -8    7.09    1.39   1
   1  10   8    5.56    1.31   2
   1  10   8    5.42    1.21   3
  -1 -11   3    1.34    1.19   2
   1  11  -3    0.97    1.08   3
  -1 -11   2    8.34    1.39   2
   1  11  -2    5.65    1.22   3
  -1 -11   1   -0.56    1.05   2
   1  11  -1    1.22    0.97   3
  -1 -11   0    1.87    1.04   2
   1  11   0    1.25    1.06   3
  -1 -11  -1   10.49    1.20   1
  -1 -11  -1   10.14    1.40   2
   1  11   1    9.55    1.31   3
  -1 -11  -2    0.46    0.90   1
   1  11   2    0.98    1.04   2
   1  11   2    0.60    0.95   3
  -1 -11  -3    4.90    1.08   1
   1  11   3    4.53    1.07   2
   1  11   3    5.72    1.25   3
  -1 -11  -4    2.37    1.04   1
   1  11   4    1.92    1.07   2
   1  11   4    0.60    1.06   3
  -1 -11  -5    1.73    1.07   1
   1  11   5    1.38    1.02   2
   1  11   5    0.56    1.19   3
  -1 -11  -6    2.37    1.13   1
   1  11   6    1.15    1.08   2
   1  11   6    1.10    1.26   3
  -2  11   3    1.29    1.20   2
  -2  11   3    0.27    1.24   3
   2 -11  -3    2.82    1.21   1
  -2  11   2   -2.02    1.04   2
  -2  11   2   -0.68    1.21   3
   2 -11  -2    1.53    1.10   1
  -2  11   1    2.89    1.22   3
   2 -11  -1    5.49    1.17   1
   2 -11  -1    3.27    1.20   2
  -2  11   0   -0.67    1.12   3
   2 -11   0    1.45    1.06   1
   2 -11   0    1.46    1.09   2
  -2  11  -1    0.37    1.04   3
   2 -11   1    0.15    0.95   1
   2 -11   1   -2.82    1.05   2
  -2  11  -2    0.51    1.16   3
   2 -11   2    1.01    1.11   2
   2 -11   3   11.09    1.56   2
  -2  10   6    1.27    1.15   2
  -2  10   6    0.87    1.24   3
   2 -10  -6    1.05    1.16   1
  -2  10   5    0.84    1.04   2
  -2  10   5    0.32    1.13   3
   2 -10  -5   -0.35    1.03   1
  -2  10   4   -0.08    0.98   2
  -2  10   4    1.03    0.97   3
   2 -10  -4    0.98    0.97   1
  -2  10   3   -0.02    0.92   2
  -2  10   3    0.04    0.94   3
   2 -10  -3    1.98    0.88   1
  -2  10   2    3.08    0.95   2
  -2  10   2    3.57    1.10   3
   2 -10  -2    1.71    0.85   1
  -2  10   1    0.26    0.88   3
   2 -10  -1    0.13    0.81   1
   2 -10  -1    0.37    0.84   2
  -2  10   0    1.92    0.97   3
   2 -10   0    1.00    0.77   1
   2 -10   0   -0.55    0.85   2
  -2  10  -1    1.52    0.91   3
   2 -10   1    2.84    0.87   1
   2 -10   1    2.50    0.97   2
  -2  10  -2    5.52    1.16   3
   2 -10   2    3.27    0.83   1
   2 -10   2    4.93    1.06   2
  -2  10  -3    1.77    1.00   3
   2 -10   3    1.75    0.79   1
   2 -10   3    3.41    0.93   2
  -2  10  -4    2.08    1.06   3
   2 -10   4    0.81    1.07   2
  -2  10  -5    5.05    1.22   3
  -2  10  -5    3.37    1.01   4
   2 -10   5    5.53    1.18   2
   2 -10   6   11.39    1.63   2
  -2   9   8    0.90    1.23   2
  -2   9   8    2.47    1.21   3
   2  -9  -8    3.87    1.24   1
  -2   9   7    3.21    1.13   2
  -2   9   7    0.99    1.08   3
   2  -9  -7    3.27    1.12   1
  -2   9   6    0.23    0.89   2
  -2   9   6    2.87    1.05   3
   2  -9  -6    0.54    0.92   1
  -2   9   5    0.37    0.81   2
  -2   9   5   -0.11    0.90   3
   2  -9  -5   -0.81    0.87   1
  -2   9   4    1.69    0.83   2
  -2   9   4    2.80    0.90   3
   2  -9  -4    3.40    0.85   1
  -2   9   3    1.46    0.78   2
  -2   9   3   -1.02    0.70   3
   2  -9  -3    1.21    0.77   1
  -2   9   2    0.82    0.75   2
  -2   9   2    0.52    0.80   3
   2  -9  -2    1.32    0.69   1
  -2   9   1   -0.66    0.70   3
   2  -9  -1    0.89    0.69   1
   2  -9  -1    0.49    0.69   2
  -2   9   0    3.14    0.78   3
   2  -9   0    2.86    0.76   1
   2  -9   0    2.59    0.77   2
  -2   9  -1    3.65    0.89   3
  -2   9  -1    3.51    0.43   4
   2  -9   1    5.03    0.80   1
   2  -9   1    4.16    0.84   2
  -2   9  -2    0.62    0.77   3
  -2   9  -2    0.56    0.44   4
   2  -9   2    0.71    0.63   1
   2  -9   2    1.45    0.75   2
  -2   9  -3    0.29    0.78   3
  -2   9  -3    0.34    0.51   4
   2  -9   3    0.60    0.56   1
   2  -9   3   -0.41    0.74   2
  -2   9  -4   20.90    1.65   3
  -2   9  -4   19.36    1.27   4
   2  -9   4   15.34    1.07   1
   2  -9   4   21.56    1.65   2
  -2   9  -5    2.41    0.92   3
  -2   9  -5    4.79    0.87   4
   2  -9   5    4.44    1.08   2
  -2   9  -6    5.50    1.21   3
  -2   9  -6    6.18    1.03   4
   2  -9   6    7.54    1.33   2
  -2   9  -7   -0.17    1.10   3
  -2   9  -7    0.68    1.01   4
   2  -9   7    1.97    1.22   2
  -2   8   9   -0.14    1.13   2
  -2   8   9    0.76    1.20   3
   2  -8  -9    2.64    1.25   1
  -2   8   8    2.52    1.00   2
  -2   8   8    4.82    1.18   3
   2  -8  -8    3.05    0.99   1
  -2   8   7    1.61    0.88   2
  -2   8   7    1.89    1.01   3
   2  -8  -7    1.91    0.92   1
  -2   8   6    1.88    0.87   2
  -2   8   6    1.98    0.89   3
   2  -8  -6    2.81    0.93   1
  -2   8   5   17.56    1.27   2
  -2   8   5   17.00    1.33   3
   2  -8  -5   19.12    1.40   1
  -2   8   4    6.06    0.84   2
  -2   8   4    6.07    0.96   3
   2  -8  -4    6.84    0.97   1
  -2   8   3   -0.04    0.55   2
  -2   8   3    0.05    0.57   3
   2  -8  -3    0.81    0.63   1
  -2   8   2    3.04    0.79   3
   2  -8  -2    3.80    0.78   1
   2  -8  -2    2.77    0.66   2
  -2   8   1    8.34    0.99   3
   2  -8  -1    7.82    0.97   1
   2  -8  -1    8.73    0.96   2
  -2   8   0    0.25    0.57   3
  -2   8   0   -0.10    0.22   4
   2  -8   0   -0.03    0.51   1
   2  -8   0    0.56    0.58   2
   2  -8   0    0.25    0.24   4
  -2   8  -1    0.28    0.69   1
  -2   8  -1    0.74    0.54   3
  -2   8  -1    0.84    0.33   4
   2  -8   1    0.84    0.55   1
   2  -8   1    1.06    0.55   2
   2  -8   1    0.88    0.36   4
  -2   8  -2    0.33    0.60   1
  -2   8  -2    0.82    0.63   3
  -2   8  -2   -0.06    0.37   4
   2  -8   2   -0.01    0.50   1
   2  -8   2    0.28    0.44   4
  -2   8  -3    0.56    0.59   1
  -2   8  -3    0.54    0.67   3
  -2   8  -3    1.05    0.50   4
   2  -8   3    1.12    0.50   1
   2  -8   3    0.64    0.59   2
   2  -8   3    0.72    0.55   4
  -2   8  -4   -0.01    0.55   1
  -2   8  -4    0.05    0.60   3
  -2   8  -4    0.87    0.52   4
   2  -8   4    0.55    0.48   1
   2  -8   4    1.25    0.74   2
   2  -8   4   -0.64    0.61   4
  -2   8  -5    3.28    0.80   3
  -2   8  -5    3.78    0.76   4
   2  -8   5    4.14    0.54   1
   2  -8   5    3.59    0.87   2
  -2   8  -6   -0.46    0.76   3
  -2   8  -6   -0.50    0.72   4
   2  -8   6    0.46    0.77   2
  -2   8  -7   13.67    1.37   3
  -2   8  -7   13.94    1.46   4
   2  -8   7   14.74    1.47   2
  -2   8  -8   -1.40    0.99   3
  -2   8  -8    0.72    0.95   4
   2  -8   8    2.48    0.98   2
  -2   8  -9    2.47    1.22   3
  -2   8  -9    4.21    1.27   4
   2  -8   9    2.29    1.18   2
  -2   7  10    3.82    1.19   2
  -2   7  10    3.42    1.34   3
   2  -7 -10    2.08    1.24   1
  -2   7   9   -1.04    0.93   2
  -2   7   9    1.38    1.07   3
   2  -7  -9    0.84    1.06   1
  -2   7   8    0.71    0.81   2
  -2   7   8    0.80    0.91   3
   2  -7  -8    0.80    0.85   1
  -2   7   7    1.59    0.75   2
  -2   7   7    1.16    0.84   3
   2  -7  -7    0.78    0.76   1
  -2   7   6    1.69    0.68   2
  -2   7   6    1.90    0.67   3
   2  -7  -6    1.09    0.69   1
   2  -7  -6   -0.08    0.29   4
  -2   7   5    6.32    0.80   2
  -2   7   5    4.61    0.80   3
   2  -7  -5    4.26    0.77   1
  -2   7   4    4.47    0.67   2
  -2   7   4    4.28    0.75   2
  -2   7   4    4.77    0.81   3
   2  -7  -4    5.65    0.80   1
  -2   7   3    1.15    0.52   2
  -2   7   3    0.71    0.58   2
  -2   7   3    1.09    0.54   3
   2  -7  -3    2.38    0.62   1
  -2   7   2   15.06    1.06   2
  -2   7   2   15.18    1.12   3
   2  -7  -2   18.44    1.07   1
   2  -7  -2   16.42    0.99   2
  -2   7   1    1.40    0.60   2
  -2   7   1    1.16    0.57   3
   2  -7  -1    1.22    0.50   1
   2  -7  -1    1.34    0.50   2
   2  -7  -1    1.08    0.19   4
  -2   7   0   10.19    0.95   1
  -2   7   0    9.01    0.91   3
  -2   7   0    9.91    0.44   4
   2  -7   0    8.91    0.84   1
   2  -7   0    8.74    0.82   2
   2  -7   0    8.10    0.45   4
  -2   7  -1    1.15    0.57   1
  -2   7  -1   -0.14    0.47   3
  -2   7  -1    0.95    0.30   4
   2  -7   1    1.07    0.48   1
   2  -7   1    0.87    0.46   2
   2  -7   1    0.78    0.29   4
  -2   7  -2   18.43    0.96   1
  -2   7  -2   19.36    1.14   3
  -2   7  -2   19.43    0.78   4
   2  -7   2   18.35    0.94   1
   2  -7   2   19.78    1.13   2
   2  -7   2   14.67    0.74   4
  -2   7  -3   14.10    0.87   1
  -2   7  -3   13.32    0.98   3
  -2   7  -3   12.36    0.82   4
   2  -7   3   13.83    0.83   1
   2  -7   3   12.81    1.07   2
   2  -7   3    9.71    0.80   4
  -2   7  -4    8.29    0.74   1
  -2   7  -4    7.90    0.99   3
  -2   7  -4    7.78    0.76   4
   2  -7   4    6.63    0.68   1
   2  -7   4   10.72    1.05   2
   2  -7   4    7.68    0.91   4
  -2   7  -5    0.73    0.41   1
  -2   7  -5    0.73    0.61   3
  -2   7  -5   -0.15    0.50   4
   2  -7   5    0.60    0.38   1
   2  -7   5    1.28    0.62   2
   2  -7   5    0.12    0.65   4
  -2   7  -6    0.75    0.35   1
  -2   7  -6    0.53    0.68   3
  -2   7  -6    1.40    0.65   4
   2  -7   6    1.29    0.70   2
  -2   7  -7    0.40    0.73   3
   2  -7   7    0.73    0.73   2
  -2   7  -8    5.10    1.06   3
  -2   7  -8    3.86    0.95   4
   2  -7   8    4.30    0.96   2
  -2   7  -9    0.31    0.97   3
  -2   7  -9    0.68    0.95   4
   2  -7   9    1.80    0.96   2
  -2   7 -10    1.38    1.21   3
  -2   7 -10    3.49    1.26   4
   2  -7  10    4.77    1.23   2
  -2   6  10    0.63    0.97   2
  -2   6  10    1.41    1.19   3
   2  -6 -10    1.72    0.99   1
  -2   6   9   -0.19    0.83   2
  -2   6   9   -0.28    0.89   3
   2  -6  -9   -1.42    0.81   1
   2  -6  -9   -1.30    0.66   4
  -2   6   8    0.93    0.74   2
  -2   6   8    1.94    0.81   3
   2  -6  -8    1.15    0.78   1
   2  -6  -8    1.87    0.59   4
  -2   6   7   -0.09    0.58   2
  -2   6   7   -0.36    0.70   3
   2  -6  -7    0.20    0.66   1
   2  -6  -7    0.11    0.44   4
   2  -6  -7    0.40    0.46   4
  -2   6   6    0.49    0.53   2
  -2   6   6    0.46    0.56   2
  -2   6   6    0.65    0.64   3
   2  -6  -6    0.45    0.56   1
   2  -6  -6   -0.05    0.34   4
   2  -6  -6   -0.82    0.34   4
  -2   6   5   22.86    1.07   2
  -2   6   5   21.20    1.07   2
  -2   6   5   22.56    1.26   3
   2  -6  -5   21.83    1.21   1
   2  -6  -5   16.02    0.61   4
  -2   6   4    6.15    0.76   2
  -2   6   4    6.87    0.83   2
  -2   6   4    5.28    0.73   3
   2  -6  -4    5.23    0.71   1
   2  -6  -4    3.73    0.35   4
   2  -6  -4    5.43    0.38   4
  -2   6   3    6.51    0.71   2
  -2   6   3    7.51    0.76   2
  -2   6   3    7.77    0.82   3
   2  -6  -3    7.42    0.82   1
   2  -6  -3    5.47    0.29   4
   2  -6  -3    4.91    0.30   4
  -2   6   2   19.92    0.93   2
  -2   6   2   19.71    1.06   3
   2  -6  -2   18.94    0.97   1
   2  -6  -2   19.33    0.91   2
   2  -6  -2   14.80    0.36   4
   2  -6  -2   14.73    0.38   4
  -2   6   1    0.27    0.48   1
  -2   6   1    0.46    0.38   2
  -2   6   1    0.56    0.39   3
  -2   6   1    0.50    0.16   4
   2  -6  -1    0.38    0.38   1
   2  -6  -1    0.29    0.35   2
   2  -6  -1    1.07    0.46   3
   2  -6  -1    0.50    0.19   4
  -2   6   0    6.29    0.74   1
  -2   6   0    5.84    0.71   2
  -2   6   0    7.17    0.74   3
  -2   6   0    6.67    0.40   4
   2  -6   0    6.52    0.66   1
   2  -6   0    6.89    0.68   2
   2  -6   0    5.50    0.62   3
   2  -6   0    6.09    0.41   4
  -2   6  -1    4.65    0.56   1
  -2   6  -1    4.55    0.56   2
  -2   6  -1    5.07    0.62   3
  -2   6  -1    3.64    0.42   4
   2  -6   1    4.51    0.53   1
   2  -6   1    3.96    0.55   2
   2  -6   1    4.07    0.57   3
  -2   6  -2    2.61    0.45   1
  -2   6  -2    2.60    0.53   2
  -2   6  -2    2.42    0.56   3
  -2   6  -2    2.04    0.36   4
   2  -6   2    2.57    0.42   1
   2  -6   2    2.05    0.51   2
   2  -6   2    2.92    0.55   3
   2  -6   2    1.63    0.35   4
  -2   6  -3    9.31    0.65   1
  -2   6  -3    8.62    0.80   2
  -2   6  -3    9.79    0.86   3
  -2   6  -3   10.48    0.70   4
   2  -6   3   10.64    0.68   1
   2  -6   3   10.21    0.88   2
   2  -6   3   10.08    0.91   3
   2  -6   3    9.40    0.69   4
  -2   6  -4    5.41    0.54   1
  -2   6  -4    5.46    0.71   3
  -2   6  -4    4.18    0.58   4
   2  -6   4    4.45    0.46   1
   2  -6   4    4.13    0.61   2
   2  -6   4    4.86    0.59   4
  -2   6  -5    0.08    0.47   3
  -2   6  -5    0.27    0.48   4
   2  -6   5    0.54    0.30   1
   2  -6   5    0.32    0.46   2
   2  -6   5    0.89    0.52   4
  -2   6  -6   32.89    0.70   1
  -2   6  -6   32.63    1.38   3
  -2   6  -6   31.88    1.34   4
   2  -6   6   23.85    0.64   1
  -2   6  -7   -0.78    0.57   3
  -2   6  -7    0.46    0.58   4
   2  -6   7   -0.94    0.58   2
  -2   6  -8    0.96    0.73   3
  -2   6  -8    0.74    0.72   4
   2  -6   8    0.58    0.67   2
  -2   6  -9    0.44    0.81   3
  -2   6  -9    1.45    0.89   4
   2  -6   9    1.00    0.75   2
  -2   6 -10    0.66    0.94   3
  -2   6 -10    0.89    1.04   4
   2  -6  10    1.31    0.97   2
  -2   6 -11    2.09    1.17   3
  -2   6 -11   -0.59    1.22   4
   2  -6  11    2.66    1.11   2
  -2   5  11    0.41    1.01   2
  -2   5  11   -1.44    1.16   3
   2  -5 -11    0.60    1.12   1
   2  -5 -11   -1.17    1.04   4
  -2   5  10    3.25    0.92   2
  -2   5  10    6.07    1.20   3
   2  -5 -10    7.06    1.16   1
   2  -5 -10    4.29    0.91   4
  -2   5   9   -0.38    0.71   2
  -2   5   9    0.44    0.82   3
   2  -5  -9    1.97    0.74   1
   2  -5  -9   -0.21    0.63   4
  -2   5   8   -0.06    0.59   2
  -2   5   8   -0.25    0.66   3
   2  -5  -8    1.30    0.71   1
   2  -5  -8   -0.46    0.52   4
   2  -5  -8    0.51    0.68   4
  -2   5   7    0.56    0.54   2
  -2   5   7    0.22    0.58   2
  -2   5   7    1.00    0.67   3
   2  -5  -7    0.36    0.46   4
   2  -5  -7    0.04    0.49   4
  -2   5   6    0.32    0.42   2
  -2   5   6    0.60    0.47   2
  -2   5   6    1.36    0.58   3
   2  -5  -6    1.75    0.62   1
   2  -5  -6    0.55    0.36   4
   2  -5  -6    2.12    0.43   4
  -2   5   5    2.53    0.48   2
  -2   5   5    3.41    0.49   2
  -2   5   5    2.13    0.60   3
   2  -5  -5    3.23    0.62   1
   2  -5  -5    2.46    0.37   4
   2  -5  -5    2.22    0.36   4
  -2   5   4    6.68    0.71   1
  -2   5   4    9.32    0.66   2
  -2   5   4    9.40    0.68   2
  -2   5   4    9.39    0.83   3
   2  -5  -4    8.60    0.78   1
   2  -5  -4    8.11    0.79   3
   2  -5  -4    8.81    0.53   4
   2  -5  -4    7.18    0.44   4
  -2   5   3    3.12    0.51   1
  -2   5   3    2.72    0.42   2
  -2   5   3    2.91    0.43   2
  -2   5   3    3.15    0.56   3
   2  -5  -3    2.34    0.48   1
   2  -5  -3    2.88    0.49   3
   2  -5  -3    2.72    0.30   4
   2  -5  -3    2.72    0.33   4
  -2   5   2   29.07    0.96   1
  -2   5   2   32.27    0.95   2
  -2   5   2   31.60    1.11   3
   2  -5  -2   31.54    1.08   1
   2  -5  -2   33.50    1.10   3
   2  -5  -2   31.17    0.55   4
   2  -5  -2   30.95    0.56   4
  -2   5   1    5.26    0.54   1
  -2   5   1    5.73    0.56   2
  -2   5   1    5.90    0.66   3
  -2   5   1    6.30    0.33   4
   2  -5  -1    5.45    0.61   1
   2  -5  -1    5.73    0.54   2
   2  -5  -1    5.53    0.64   3
   2  -5  -1    4.96    0.33   4
  -2   5   0    0.71    0.34   1
  -2   5   0    0.81    0.32   2
  -2   5   0    0.77    0.34   3
  -2   5   0    0.71    0.18   4
   2  -5   0    0.16    0.33   1
   2  -5   0    0.84    0.34   2
   2  -5   0    0.21    0.30   3
   2  -5   0    0.69    0.19   4
  -2   5  -1   -0.24    0.30   1
  -2   5  -1    0.13    0.28   2
  -2   5  -1   -0.20    0.31   3
  -2   5  -1   -0.02    0.20   4
   2  -5   1    0.13    0.29   1
   2  -5   1    0.15    0.30   2
   2  -5   1   -0.42    0.28   3
   2  -5   1    0.12    0.22   4
  -2   5  -2    2.27    0.36   1
  -2   5  -2    1.90    0.40   2
  -2   5  -2    1.36    0.37   3
  -2   5  -2    1.85    0.32   4
   2  -5   2    2.13    0.37   1
   2  -5   2    2.04    0.42   2
   2  -5   2    1.63    0.37   3
   2  -5   2    1.53    0.30   4
  -2   5  -3   30.26    0.82   1
  -2   5  -3   32.05    1.04   2
  -2   5  -3   30.34    1.02   3
  -2   5  -3   29.10    0.89   4
   2  -5   3   29.92    0.83   1
   2  -5   3   29.65    1.04   2
   2  -5   3   31.88    1.06   3
   2  -5   3   30.82    0.91   4
  -2   5  -4   12.77    0.55   1
  -2   5  -4   11.41    0.76   2
  -2   5  -4   11.53    0.78   3
  -2   5  -4   12.27    0.74   4
   2  -5   4   11.75    0.57   1
   2  -5   4   11.78    0.81   2
   2  -5   4   13.19    0.83   3
   2  -5   4   11.29    0.74   4
  -2   5  -5    0.96    0.26   1
  -2   5  -5    0.64    0.47   3
  -2   5  -5    0.59    0.48   3
  -2   5  -5    0.70    0.44   4
   2  -5   5    0.75    0.45   2
   2  -5   5    0.18    0.42   4
  -2   5  -6    0.94    0.49   3
  -2   5  -6    2.47    0.63   3
  -2   5  -6    0.11    0.50   4
   2  -5   6    0.88    0.27   1
   2  -5   6    0.91    0.25   1
   2  -5   6    1.17    0.50   2
   2  -5   6    0.82    0.54   4
  -2   5  -7   28.82    1.26   3
  -2   5  -7   26.50    1.32   4
   2  -5   7   26.52    1.31   2
  -2   5  -8    1.69    0.61   3
   2  -5   8    0.29    0.55   2
  -2   5  -9   32.48    1.48   3
  -2   5  -9   31.53    1.66   4
   2  -5   9   31.70    1.64   2
  -2   5 -10    0.75    0.84   3
  -2   5 -10    1.19    0.89   4
   2  -5  10    0.53    0.76   2
  -2   5 -11    0.14    0.94   3
  -2   5 -11    0.85    1.00   4
   2  -5  11    0.31    0.98   2
  -2   5 -12    0.42    1.06   3
  -2   5 -12    0.95    1.32   4
   2  -5  12   -0.11    1.14   2
  -2   4  11    0.93    0.93   2
  -2   4  11    1.22    1.11   3
   2  -4 -11    2.39    1.05   1
   2  -4 -11    1.82    1.05   4
  -2   4  10    1.14    0.77   2
  -2   4  10    2.80    0.97   3
   2  -4 -10    2.20    0.86   1
  -2   4   9    4.67    0.78   2
  -2   4   9    8.20    1.06   3
   2  -4  -9    6.92    0.92   1
   2  -4  -9    6.96    0.89   4
  -2   4   8    1.18    0.57   2
  -2   4   8    0.60    0.70   3
  -2   4   8    1.60    0.59   4
   2  -4  -8    1.81    0.65   1
   2  -4  -8    1.81    0.60   2
   2  -4  -8    1.44    0.59   4
  -2   4   7    9.08    0.85   2
  -2   4   7    9.48    0.98   3
  -2   4   7   11.16    0.85   4
   2  -4  -7   10.51    0.95   1
   2  -4  -7    8.90    0.83   2
   2  -4  -7    9.64    0.84   4
  -2   4   6    0.80    0.41   2
  -2   4   6    1.08    0.41   2
  -2   4   6    0.29    0.46   3
   2  -4  -6    1.21    0.50   1
   2  -4  -6    0.45    0.35   4
   2  -4  -6    0.02    0.39   4
  -2   4   5    1.82    0.45   1
  -2   4   5    2.36    0.42   2
  -2   4   5    1.95    0.39   2
  -2   4   5    1.67    0.48   3
   2  -4  -5    2.41    0.51   1
   2  -4  -5    1.32    0.50   3
   2  -4  -5    1.96    0.36   4
   2  -4  -5    1.65    0.36   4
  -2   4   4    7.17    0.68   1
  -2   4   4    9.52    0.59   2
  -2   4   4    8.25    0.56   2
  -2   4   4    8.91    0.69   3
   2  -4  -4    8.33    0.74   1
   2  -4  -4    8.83    0.67   3
   2  -4  -4    7.69    0.49   4
   2  -4  -4    8.47    0.49   4
  -2   4   3   -0.67    0.30   1
  -2   4   3    0.19    0.25   2
  -2   4   3    0.29    0.24   2
  -2   4   3    0.22    0.29   3
   2  -4  -3    0.20    0.31   1
   2  -4  -3   -0.71    0.29   3
   2  -4  -3    0.40    0.19   4
  -2   4   2    3.48    0.45   1
  -2   4   2    3.43    0.39   2
  -2   4   2    3.63    0.42   2
  -2   4   2    3.54    0.46   3
   2  -4  -2    4.12    0.51   1
   2  -4  -2    3.11    0.39   3
   2  -4  -2    3.66    0.28   4
   2  -4  -2    2.88    0.30   4
  -2   4   1   -0.14    0.27   1
  -2   4   1    0.22    0.22   2
  -2   4   1    0.55    0.31   3
  -2   4   1    0.24    0.14   4
   2  -4  -1   -0.07    0.27   1
   2  -4  -1    0.13    0.21   2
   2  -4  -1    0.51    0.28   3
   2  -4  -1    0.12    0.15   4
  -2   4   0   63.49    1.19   1
  -2   4   0   63.71    1.11   2
  -2   4   0   60.27    1.24   3
  -2   4   0   63.04    0.83   4
   2  -4   0   58.00    1.15   1
   2  -4   0   61.63    1.11   2
   2  -4   0   65.47    1.25   3
   2  -4   0   62.16    0.83   4
  -2   4  -1   17.13    0.66   1
  -2   4  -1   16.67    0.64   2
  -2   4  -1   17.46    0.75   3
   2  -4   1   16.92    0.68   1
   2  -4   1   18.09    0.70   2
   2  -4   1   17.13    0.67   3
   2  -4   1   16.38    0.53   4
  -2   4  -2  164.75    1.67   1
  -2   4  -2  160.54    1.89   2
  -2   4  -2  153.16    1.90   3
  -2   4  -2  156.23    1.60   4
   2  -4   2  156.85    1.66   1
   2  -4   2  160.65    1.92   2
   2  -4   2  163.06    1.92   3
   2  -4   2  154.33    1.58   4
  -2   4  -3    3.64    0.44   2
  -2   4  -3    3.37    0.44   3
  -2   4  -3    2.55    0.35   4
   2  -4   3    3.01    0.34   1
   2  -4   3    2.61    0.41   2
   2  -4   3    2.95    0.37   3
   2  -4   3    3.65    0.39   4
  -2   4  -4    1.36    0.26   1
  -2   4  -4    1.48    0.29   2
  -2   4  -4    1.53    0.35   3
  -2   4  -4    1.46    0.38   4
   2  -4   4    1.34    0.27   1
   2  -4   4    1.51    0.36   2
   2  -4   4    1.76    0.38   3
   2  -4   4    1.14    0.31   4
  -2   4  -5   12.80    0.48   1
  -2   4  -5   10.95    0.73   2
  -2   4  -5   12.56    0.75   3
  -2   4  -5   12.93    0.75   3
  -2   4  -5   10.84    0.76   4
   2  -4   5   11.94    0.49   1
   2  -4   5   11.62    0.78   2
   2  -4   5   10.75    0.73   4
  -2   4  -6   19.64    0.93   2
  -2   4  -6   20.86    0.93   3
  -2   4  -6   21.40    0.95   3
  -2   4  -6   18.48    0.98   4
   2  -4   6   13.78    0.47   1
   2  -4   6   14.66    0.47   1
   2  -4   6   19.03    0.95   2
   2  -4   6   16.83    0.96   4
  -2   4  -7    5.24    0.66   3
  -2   4  -7    5.52    0.67   3
  -2   4  -7    4.47    0.69   4
   2  -4   7    2.80    0.31   1
   2  -4   7    3.76    0.33   1
   2  -4   7    4.16    0.68   2
  -2   4  -8   11.47    0.93   3
  -2   4  -8   11.07    0.99   3
  -2   4  -8   10.77    1.10   4
   2  -4   8   12.09    1.01   2
  -2   4  -9    3.37    0.68   3
  -2   4  -9    4.44    0.81   4
   2  -4   9    3.45    0.72   2
  -2   4 -10   25.17    1.43   3
  -2   4 -10   24.04    1.60   4
   2  -4  10   25.18    1.57   2
  -2   4 -11    0.65    0.80   3
  -2   4 -11    0.75    0.86   4
   2  -4  11   -0.47    0.80   2
  -2   4 -12    6.35    1.11   3
  -2   4 -12    9.83    1.31   4
   2  -4  12    9.04    1.37   2
  -2   3  12    0.69    1.17   2
  -2   3  12    0.39    1.22   3
   2  -3 -12   -0.73    1.11   1
   2  -3 -12   -0.75    1.17   4
  -2   3  11    0.91    1.03   3
   2  -3 -11   -0.35    0.92   1
   2  -3 -11    1.07    1.01   4
  -2   3  10    2.31    0.78   2
  -2   3  10    3.47    0.96   3
   2  -3 -10    4.14    0.83   1
   2  -3 -10    1.74    0.82   4
  -2   3   9    0.60    0.60   2
  -2   3   9   -0.02    0.72   3
   2  -3  -9    1.60    0.63   1
   2  -3  -9    1.74    0.69   2
   2  -3  -9    0.68    0.71   4
  -2   3   8    2.55    0.55   2
  -2   3   8    2.31    0.71   3
  -2   3   8    2.37    0.60   4
   2  -3  -8    2.12    0.60   1
   2  -3  -8    3.19    0.58   2
   2  -3  -8    2.56    0.60   4
  -2   3   7   -0.18    0.39   2
  -2   3   7    0.10    0.54   3
  -2   3   7    0.38    0.43   4
   2  -3  -7    0.77    0.49   1
   2  -3  -7    1.24    0.44   2
   2  -3  -7    0.71    0.45   4
  -2   3   6    8.38    0.86   1
  -2   3   6    9.00    0.68   2
  -2   3   6   10.23    0.83   3
  -2   3   6    9.33    0.69   4
   2  -3  -6   10.12    0.82   1
   2  -3  -6    8.68    0.65   2
   2  -3  -6    7.24    0.77   3
   2  -3  -6    8.45    0.70   4
  -2   3   5   97.61    1.76   1
  -2   3   5   97.59    1.42   2
  -2   3   5   98.00    1.81   3
  -2   3   5   98.86    1.48   4
   2  -3  -5   90.31    1.69   1
   2  -3  -5  100.46    1.41   2
   2  -3  -5   99.85    1.76   3
   2  -3  -5   89.95    1.43   4
  -2   3   4   40.22    1.10   1
  -2   3   4   40.49    0.88   2
  -2   3   4   42.48    0.87   2
  -2   3   4   39.32    1.11   3
   2  -3  -4   39.50    1.11   1
   2  -3  -4   40.77    1.08   3
   2  -3  -4   39.05    0.88   4
   2  -3  -4   40.99    0.90   4
  -2   3   3    1.44    0.32   1
  -2   3   3    1.50    0.25   2
  -2   3   3    1.64    0.25   2
  -2   3   3    1.85    0.37   3
   2  -3  -3    1.28    0.37   1
   2  -3  -3    1.47    0.33   3
   2  -3  -3    1.25    0.24   4
   2  -3  -3    1.58    0.24   4
  -2   3   2    2.02    0.35   1
  -2   3   2    2.11    0.25   2
  -2   3   2    2.06    0.38   3
   2  -3  -2    2.10    0.38   1
   2  -3  -2    2.19    0.36   3
   2  -3  -2    1.96    0.22   4
   2  -3  -2    1.88    0.22   4
  -2   3   1    4.98    0.44   1
  -2   3   1    4.85    0.33   2
  -2   3   1    4.47    0.43   3
  -2   3   1    4.91    0.29   4
   2  -3  -1    4.34    0.44   1
   2  -3  -1    4.52    0.40   3
   2  -3  -1    4.53    0.29   4
  -2   3   0   88.50    1.25   1
  -2   3   0   94.98    1.14   2
  -2   3   0   88.71    1.32   3
  -2   3   0   92.51    0.98   4
   2  -3   0   87.11    1.28   1
   2  -3   0   84.62    1.11   2
   2  -3   0   94.47    1.32   3
   2  -3   0   93.41    0.98   4
  -2   3  -1   42.83    0.87   1
  -2   3  -1   42.78    0.92   3
  -2   3  -1   43.53    0.74   4
   2  -3   1   39.35    0.84   1
   2  -3   1   39.59    0.82   2
   2  -3   1   43.91    0.90   3
   2  -3   1   42.54    0.73   4
  -2   3  -2   33.90    0.73   1
  -2   3  -2   31.12    0.77   2
  -2   3  -2   32.22    0.81   3
  -2   3  -2   31.07    0.72   4
   2  -3   2   31.91    0.73   1
   2  -3   2   31.04    0.81   2
   2  -3   2   32.11    0.78   3
   2  -3   2   31.57    0.74   4
  -2   3  -3  608.86    2.75   1
  -2   3  -3  604.33    3.49   2
  -2   3  -3  607.09    3.31   3
  -2   3  -3  583.10    3.23   4
   2  -3   3  572.16    3.43   2
   2  -3   3  595.64    3.25   3
   2  -3   3  592.26    3.22   4
  -2   3  -4   19.85    0.53   1
  -2   3  -4   17.15    0.70   2
  -2   3  -4   19.28    0.69   3
  -2   3  -4   18.74    0.77   4
   2  -3   4   19.10    0.54   1
   2  -3   4   17.16    0.74   2
   2  -3   4   17.92    0.68   3
   2  -3   4   16.76    0.68   4
  -2   3  -5   64.25    1.33   2
  -2   3  -5   69.84    1.26   3
  -2   3  -5   71.32    1.26   3
  -2   3  -5   66.57    1.39   4
   2  -3   5   68.98    0.89   1
   2  -3   5   70.55    0.89   1
   2  -3   5   69.02    1.44   2
  -2   3  -6    7.73    0.63   2
  -2   3  -6    9.69    0.62   3
  -2   3  -6    9.35    0.66   3
  -2   3  -6    8.17    0.74   4
   2  -3   6    9.99    0.42   1
   2  -3   6    9.72    0.41   1
   2  -3   6   10.02    0.76   2
  -2   3  -7   -0.03    0.38   2
  -2   3  -7    0.10    0.32   3
  -2   3  -7    0.47    0.37   3
  -2   3  -7    0.23    0.40   4
   2  -3   7   -0.06    0.20   1
   2  -3   7   -0.02    0.21   1
   2  -3   7    0.00    0.42   2
   2  -3   7   -0.70    0.40   4
  -2   3  -8    0.22    0.41   3
  -2   3  -8    0.99    0.47   3
  -2   3  -8    1.53    0.56   4
   2  -3   8    0.47    0.22   1
   2  -3   8    1.05    0.26   1
   2  -3   8    1.26    0.50   2
  -2   3  -9    8.17    0.90   3
  -2   3  -9    7.32    0.80   3
   2  -3   9    4.92    0.39   1
   2  -3   9    5.65    0.45   1
   2  -3   9    8.44    0.99   2
  -2   3 -10    3.15    0.71   3
  -2   3 -10    1.85    0.77   4
   2  -3  10    2.59    0.75   2
  -2   3 -11    8.45    0.98   3
  -2   3 -11    6.97    1.06   4
   2  -3  11    6.89    1.04   2
  -2   3 -12    0.01    0.84   3
  -2   3 -12    1.85    0.99   4
   2  -3  12    0.17    0.91   2
  -2   3 -13   -0.67    1.01   3
  -2   3 -13    4.95    1.37   4
   2  -3  13    6.03    1.25   2
  -2   2  12   -0.19    1.01   2
  -2   2  12   -0.49    1.21   3
   2  -2 -12    1.66    1.04   1
   2  -2 -12    0.84    1.17   4
  -2   2  11   -0.51    0.95   3
   2  -2 -11   -0.57    1.01   4
  -2   2  10    3.34    0.78   2
  -2   2  10    4.83    0.92   3
   2  -2 -10    5.89    0.90   1
   2  -2 -10    4.22    0.94   4
  -2   2   9    1.36    0.55   2
   2  -2  -9    1.14    0.57   1
   2  -2  -9    0.48    0.63   2
   2  -2  -9    0.68    0.69   4
  -2   2   8   10.12    1.22   1
  -2   2   8   10.77    0.88   2
  -2   2   8   11.28    1.04   3
   2  -2  -8   10.19    0.90   1
   2  -2  -8    9.93    0.85   2
   2  -2  -8   12.29    1.05   4
  -2   2   7    7.31    0.78   1
  -2   2   7    8.25    0.73   2
  -2   2   7    6.99    0.84   3
  -2   2   7    6.70    0.77   4
   2  -2  -7    7.21    0.79   1
   2  -2  -7    6.85    0.68   2
   2  -2  -7    6.64    0.80   4
  -2   2   6    2.30    0.54   1
  -2   2   6    0.87    0.34   2
  -2   2   6    1.48    0.48   3
  -2   2   6    1.02    0.37   4
   2  -2  -6    1.08    0.38   1
   2  -2  -6    1.35    0.34   2
   2  -2  -6    2.07    0.46   3
   2  -2  -6    1.23    0.39   4
  -2   2   5   20.53    0.86   1
  -2   2   5   19.92    0.69   2
  -2   2   5   19.66    0.88   3
  -2   2   5   20.20    0.76   4
   2  -2  -5   19.24    0.81   1
   2  -2  -5   21.10    0.67   2
   2  -2  -5   20.04    0.79   3
   2  -2  -5   20.26    0.80   4
  -2   2   4    5.16    0.54   1
  -2   2   4    5.07    0.40   2
  -2   2   4    5.70    0.57   3
  -2   2   4    5.66    0.44   4
   2  -2  -4    5.14    0.54   1
   2  -2  -4    6.18    0.38   2
   2  -2  -4    5.11    0.49   3
   2  -2  -4    5.78    0.48   4
  -2   2   3   16.51    0.65   1
  -2   2   3   16.59    0.46   2
  -2   2   3   16.30    0.72   3
   2  -2  -3   15.98    0.66   1
   2  -2  -3   18.28    0.48   2
   2  -2  -3   17.06    0.65   3
   2  -2  -3   16.46    0.57   4
   2  -2  -3   17.29    0.60   4
  -2   2   2  301.39    2.33   1
  -2   2   2  301.66    1.62   2
  -2   2   2  306.11    1.62   2
   2  -2  -2  291.34    2.32   1
   2  -2  -2  303.13    2.36   3
   2  -2  -2  301.32    1.93   4
  -2   2   1   51.01    0.94   1
  -2   2   1   51.70    0.65   2
  -2   2   1   49.71    0.94   3
  -2   2   1   50.65    0.75   4
   2  -2  -1   48.41    0.92   1
   2  -2  -1   52.67    0.66   2
   2  -2  -1   52.37    0.94   3
   2  -2  -1   51.63    0.74   4
  -2   2   0  223.27    1.79   1
  -2   2   0  224.68    1.40   2
  -2   2   0  206.81    1.72   3
  -2   2   0  228.34    1.49   4
   2  -2   0  218.32    1.79   1
   2  -2   0  227.64    1.41   2
   2  -2   0  224.23    1.77   3
   2  -2   0  218.23    1.46   4
  -2   2  -1  124.87    1.26   1
  -2   2  -1  123.67    1.16   2
  -2   2  -1  123.19    1.15   4
   2  -2   1  127.05    1.18   2
   2  -2   1  125.82    1.27   3
   2  -2   1  125.15    1.16   4
  -2   2  -2   36.55    0.67   1
  -2   2  -2   35.91    0.71   2
   2  -2   2   37.35    0.69   1
   2  -2   2   35.54    0.74   2
   2  -2   2   37.09    0.69   3
   2  -2   2   37.29    0.72   4
  -2   2  -3   56.07    0.80   1
  -2   2  -3   54.84    0.97   2
  -2   2  -3   52.54    0.97   4
   2  -2   3   56.85    0.82   1
   2  -2   3   54.67    1.00   2
   2  -2   3   59.09    0.89   3
   2  -2   3   53.50    0.94   4
  -2   2  -4   79.71    0.93   1
  -2   2  -4   75.97    1.25   2
  -2   2  -4   77.20    1.08   3
  -2   2  -4   79.17    1.08   3
   2  -2   4   79.38    0.94   1
   2  -2   4   72.31    1.25   2
   2  -2   4   82.50    1.28   4
  -2   2  -5   19.72    0.76   2
  -2   2  -5   19.53    0.64   3
  -2   2  -5   21.77    0.64   3
  -2   2  -5   19.65    0.81   4
   2  -2   5   20.57    0.53   1
   2  -2   5   20.58    0.52   1
   2  -2   5   19.42    0.81   2
   2  -2   5   19.43    0.74   4
  -2   2  -6  348.77    3.11   2
  -2   2  -6  369.32    2.65   3
  -2   2  -6  367.91    2.62   3
  -2   2  -6  334.08    3.08   4
   2  -2   6  371.34    2.06   1
   2  -2   6  374.84    2.07   1
   2  -2   6  352.53    3.18   2
   2  -2   6  328.28    2.99   4
  -2   2  -7    1.01    0.36   2
  -2   2  -7    0.84    0.33   3
  -2   2  -7    1.18    0.32   3
  -2   2  -7    1.16    0.46   4
   2  -2   7    0.59    0.26   1
   2  -2   7    1.13    0.26   1
   2  -2   7    0.81    0.44   2
   2  -2   7    0.38    0.35   4
  -2   2  -8    9.88    0.74   3
  -2   2  -8    9.81    0.73   3
  -2   2  -8   11.04    0.93   4
   2  -2   8    8.83    0.51   1
   2  -2   8    7.01    0.50   1
   2  -2   8   11.05    0.91   2
  -2   2  -9   19.63    0.97   3
  -2   2  -9   18.24    0.97   3
  -2   2  -9   19.45    1.15   4
   2  -2   9   13.96    0.61   1
   2  -2   9   20.18    1.21   2
  -2   2 -10    1.87    0.60   3
  -2   2 -10    1.53    0.63   3
  -2   2 -10    2.47    0.70   4
   2  -2  10    0.75    0.34   1
   2  -2  10    0.72    0.46   1
   2  -2  10    0.97    0.65   2
  -2   2 -11    1.32    0.66   3
  -2   2 -11    1.62    0.82   4
   2  -2  11    1.51    0.40   1
   2  -2  11    1.65    0.71   2
  -2   2 -12    1.71    0.80   3
  -2   2 -12    1.00    0.89   4
   2  -2  12    1.02    0.85   2
  -2   2 -13    0.07    1.01   3
  -2   2 -13    1.88    1.20   4
   2  -2  13   -0.83    1.02   2
  -2   1  12    0.73    1.04   2
  -2   1  12   -0.82    0.98   3
   2  -1 -12   -0.53    1.15   4
  -2   1  11    1.06    0.98   3
   2  -1 -11   -0.52    0.71   1
   2  -1 -11    0.16    0.99   4
  -2   1  10    4.24    0.81   2
  -2   1  10    5.31    0.97   3
   2  -1 -10    5.10    0.76   1
   2  -1 -10    3.08    0.92   4
  -2   1   9    1.86    0.77   1
  -2   1   9    2.80    0.63   2
  -2   1   9    2.42    0.76   3
   2  -1  -9    2.13    0.61   1
   2  -1  -9    0.94    0.63   2
  -2   1   8    8.78    1.00   1
  -2   1   8    7.90    0.85   2
  -2   1   8    8.53    1.00   3
   2  -1  -8    6.79    0.76   1
   2  -1  -8    6.69    0.69   2
   2  -1  -8    9.12    0.98   4
  -2   1   7   36.15    1.20   1
  -2   1   7   35.07    1.07   2
  -2   1   7   36.10    1.25   3
  -2   1   7   33.36    1.19   4
   2  -1  -7   35.63    1.10   1
   2  -1  -7   35.22    1.05   2
   2  -1  -7   34.65    1.25   4
  -2   1   6    1.65    0.44   1
  -2   1   6    0.85    0.31   2
  -2   1   6    1.24    0.40   3
  -2   1   6    0.79    0.35   4
   2  -1  -6    0.76    0.35   1
   2  -1  -6    1.04    0.32   2
   2  -1  -6    0.90    0.42   3
   2  -1  -6    0.88    0.37   4
  -2   1   5   31.81    0.95   1
  -2   1   5   29.20    0.77   2
  -2   1   5   30.20    1.02   3
  -2   1   5   29.31    0.92   4
   2  -1  -5   30.27    0.89   1
   2  -1  -5   31.03    0.76   2
   2  -1  -5   31.05    0.97   3
   2  -1  -5   27.63    0.93   4
  -2   1   4   13.29    0.62   1
  -2   1   4   11.98    0.66   3
  -2   1   4   12.27    0.58   4
   2  -1  -4   11.62    0.59   1
   2  -1  -4   11.74    0.45   2
   2  -1  -4   13.01    0.63   3
   2  -1  -4   10.83    0.58   4
  -2   1   3   16.80    0.60   1
  -2   1   3   17.16    0.43   2
  -2   1   3   16.87    0.66   3
  -2   1   3   17.73    0.59   4
   2  -1  -3   17.57    0.65   1
   2  -1  -3   16.66    0.42   2
   2  -1  -3   18.03    0.66   3
   2  -1  -3   16.17    0.60   4
  -2   1   2   20.26    0.36   2
  -2   1   2   19.13    0.62   3
   2  -1  -2   18.88    0.60   1
   2  -1  -2   20.77    0.36   2
   2  -1  -2   20.26    0.61   3
   2  -1  -2   19.94    0.57   4
   2  -1  -2   20.16    0.55   4
  -2   1   1   19.61    0.55   1
  -2   1   1   16.89    0.25   2
  -2   1   1   19.08    0.27   2
  -2   1   1   17.55    0.57   3
  -2   1   1   17.42    0.47   4
   2  -1  -1   18.77    0.54   3
   2  -1  -1   19.76    0.49   4
  -2   1   0  214.06    1.58   1
  -2   1   0  213.73    0.94   2
  -2   1   0  208.89    1.51   3
  -2   1   0  216.72    1.46   4
   2  -1   0  218.64    1.62   1
   2  -1   0  215.35    0.95   2
   2  -1   0  215.45    1.53   3
   2  -1   0  215.70    1.45   4
  -2   1  -1 1164.61    6.03   1
  -2   1  -1 1060.47    4.56   2
  -2   1  -1 1138.98    6.24   3
  -2   1  -1 1124.98    5.78   4
   2  -1   1 1137.48    5.43   1
   2  -1   1 1113.72    5.08   2
   2  -1   1 1149.97    3.82   3
   2  -1   1 1147.06    5.32   4
  -2   1  -2   64.99    0.82   1
  -2   1  -2   62.39    0.82   2
  -2   1  -2   63.52    0.71   3
  -2   1  -2   61.29    0.87   4
   2  -1   2   65.68    0.84   1
   2  -1   2   62.54    0.83   2
   2  -1   2   63.07    0.71   3
   2  -1   2   64.94    0.89   4
  -2   1  -3   12.98    0.40   1
  -2   1  -3   11.95    0.45   2
  -2   1  -3   12.75    0.36   3
  -2   1  -3   13.04    0.51   4
   2  -1   3   12.18    0.39   1
   2  -1   3   12.43    0.48   2
   2  -1   3   12.81    0.35   3
   2  -1   3   12.17    0.47   4
  -2   1  -4   76.19    1.17   2
  -2   1  -4   79.39    0.89   3
  -2   1  -4   79.92    0.89   3
  -2   1  -4   76.86    1.22   4
   2  -1   4   80.23    0.96   1
   2  -1   4   80.44    0.95   1
   2  -1   4   75.00    1.20   2
  -2   1  -5   38.33    0.93   2
  -2   1  -5   37.27    0.71   3
  -2   1  -5   39.70    0.72   3
  -2   1  -5   36.27    0.98   4
   2  -1   5   38.59    0.72   1
   2  -1   5   39.47    0.73   1
   2  -1   5   35.96    0.97   2
   2  -1   5   38.16    0.96   4
  -2   1  -6    9.69    0.60   2
  -2   1  -6    9.33    0.48   3
  -2   1  -6    7.47    0.64   4
   2  -1   6    9.55    0.44   1
   2  -1   6    9.30    0.45   1
   2  -1   6    9.02    0.66   2
   2  -1   6    9.56    0.62   4
  -2   1  -7   32.18    1.05   2
  -2   1  -7   31.01    0.82   3
  -2   1  -7   31.62    1.12   4
   2  -1   7   31.66    0.76   1
   2  -1   7   29.37    1.06   2
   2  -1   7   29.78    1.04   4
  -2   1  -8    0.43    0.40   2
  -2   1  -8    2.34    0.38   3
  -2   1  -8    2.38    0.55   4
   2  -1   8    2.07    0.39   1
   2  -1   8    3.14    0.59   2
   2  -1   8    2.31    0.41   3
   2  -1   8    0.69    0.44   4
  -2   1  -9   30.38    1.03   3
  -2   1  -9   36.06    1.36   4
   2  -1   9   27.22    0.91   1
   2  -1   9   38.93    1.44   2
   2  -1   9   39.04    1.14   3
  -2   1 -10    0.71    0.54   3
   2  -1  10    0.70    0.39   1
   2  -1  10    0.66    0.49   1
   2  -1  10    1.10    0.63   2
   2  -1  10    1.22    0.54   3
  -2   1 -11    0.74    0.68   3
  -2   1 -11    1.30    0.81   4
   2  -1  11    0.04    0.46   1
   2  -1  11    0.43    0.72   2
   2  -1  11    0.53    0.58   3
  -2   1 -12    0.90    0.71   3
  -2   1 -12    0.78    0.90   4
   2  -1  12    1.04    0.61   1
   2  -1  12    1.23    0.89   2
  -2   1 -13   -0.97    0.85   3
  -2   1 -13    0.09    1.06   4
   2  -1  13    0.43    1.06   2
  -2   0  12   -1.37    0.98   2
  -2   0  12    0.19    1.08   3
   2   0 -12    1.71    1.22   4
  -2   0  11   -0.49    0.80   2
  -2   0  11    0.30    0.92   3
   2   0 -11    0.60    0.66   1
   2   0 -11    0.79    0.92   4
  -2   0  10    0.39    0.64   2
  -2   0  10    0.64    0.77   3
   2   0 -10    0.50    0.57   1
   2   0 -10    1.03    0.86   4
  -2   0   9   -0.26    0.60   1
  -2   0   9    0.18    0.54   2
  -2   0   9    0.00    0.64   3
   2   0  -9    0.32    0.48   1
   2   0  -9   -0.77    0.60   2
   2   0  -9    0.49    0.66   4
  -2   0   8   15.27    0.97   1
  -2   0   8   20.38    1.04   2
  -2   0   8   22.40    1.21   3
   2   0  -8   20.67    0.91   1
   2   0  -8   19.53    1.05   2
   2   0  -8   20.93    1.22   4
  -2   0   7   25.98    0.95   1
  -2   0   7   33.46    1.08   2
  -2   0   7   32.97    1.26   3
   2   0  -7   34.10    1.00   1
   2   0  -7   33.23    1.05   2
   2   0  -7   32.54    1.24   3
   2   0  -7   34.37    1.30   4
  -2   0   6   52.41    1.13   1
  -2   0   6   49.10    1.11   2
  -2   0   6   48.99    1.31   3
  -2   0   6   50.02    1.29   4
   2   0  -6   51.03    1.09   1
   2   0  -6   51.47    1.10   2
   2   0  -6   53.40    1.36   3
   2   0  -6   49.06    1.33   4
  -2   0   5    2.32    0.36   1
  -2   0   5    1.93    0.33   2
  -2   0   5    2.14    0.39   3
  -2   0   5    0.93    0.26   4
   2   0  -5    1.80    0.33   1
   2   0  -5    2.20    0.33   2
   2   0  -5    2.92    0.40   3
   2   0  -5    1.63    0.41   4
  -2   0   4   24.37    0.70   1
  -2   0   4   25.74    0.86   3
  -2   0   4   24.93    0.78   4
   2   0  -4   24.64    0.69   1
   2   0  -4   26.82    0.64   2
   2   0  -4   27.06    0.83   3
   2   0  -4   25.19    0.83   4
  -2   0   3    0.17    0.18   1
  -2   0   3    0.15    0.13   2
  -2   0   3   -0.19    0.18   3
  -2   0   3    0.02    0.17   4
   2   0  -3    0.17    0.19   1
   2   0  -3    0.02    0.12   2
   2   0  -3    0.18    0.19   3
   2   0  -3   -0.11    0.20   4
  -2   0   2   60.38    0.87   1
  -2   0   2   56.45    0.58   2
  -2   0   2   54.47    0.96   3
   2   0  -2   55.54    0.85   1
   2   0  -2   54.51    0.56   2
   2   0  -2   55.95    0.97   3
   2   0  -2   57.26    0.95   4
  -2   0   1    0.80    0.17   1
  -2   0   1    0.02    0.03   2
  -2   0   1    0.79    0.18   3
   2   0  -1    0.78    0.18   1
   2   0  -1    0.94    0.08   2
   2   0  -1    0.96    0.20   3
   2   0  -1    0.71    0.17   4
   2   0  -1    0.64    0.16   4
  -2   0   0  112.97    1.06   1
  -2   0   0  111.26    0.44   2
  -2   0   0  110.05    1.00   3
  -2   0   0  110.58    1.06   4
   2   0   0  106.62    1.04   1
   2   0   0  108.80    0.44   2
   2   0   0  111.47    1.00   3
   2   0   0  110.81    1.06   4
  -2   0  -1  168.45    1.27   1
  -2   0  -1  163.21    0.93   2
  -2   0  -1  156.59    0.96   3
  -2   0  -1  158.89    1.24   4
   2   0   1  159.59    1.24   1
   2   0   1  154.64    0.91   2
   2   0   1  159.70    0.97   3
   2   0   1  151.12    1.20   4
  -2   0  -2  103.57    1.02   1
  -2   0  -2  100.29    0.95   2
  -2   0  -2   92.79    0.56   3
  -2   0  -2  102.40    1.06   4
   2   0   2  106.15    1.04   1
   2   0   2   98.71    0.95   2
   2   0   2  107.69    0.60   3
   2   0   2  102.03    1.05   4
  -2   0  -3  179.68    1.50   2
  -2   0  -3  136.90    0.67   3
  -2   0  -3  184.04    0.77   3
   2   0   3  181.91    1.41   1
   2   0   3  175.87    1.38   1
   2   0   3  184.34    1.55   4
  -2   0  -4  117.99    1.28   1
  -2   0  -4  115.72    1.38   2
  -2   0  -4  119.67    0.83   3
  -2   0  -4  117.16    0.81   3
  -2   0  -4  121.01    1.43   4
   2   0   4  115.91    1.20   1
   2   0   4  102.26    1.32   2
   2   0   4  117.04    1.38   4
  -2   0  -5   14.53    0.51   1
  -2   0  -5   16.22    0.63   2
  -2   0  -5   15.10    0.40   3
  -2   0  -5   14.89    0.64   4
   2   0   5   16.10    0.53   1
   2   0   5   13.28    0.62   2
   2   0   5   15.50    0.40   3
   2   0   5   14.74    0.62   4
  -2   0  -6    0.85    0.25   1
  -2   0  -6    0.57    0.24   2
  -2   0  -6    0.74    0.18   3
  -2   0  -6    0.80    0.32   4
   2   0   6    0.99    0.27   1
   2   0   6    0.47    0.32   2
   2   0   6    0.71    0.20   3
   2   0   6    0.93    0.24   4
  -2   0  -7    5.11    0.47   1
  -2   0  -7    5.25    0.55   2
  -2   0  -7    4.67    0.40   3
  -2   0  -7    4.19    0.54   4
   2   0   7    4.08    0.48   1
   2   0   7    3.93    0.52   2
   2   0   7    4.07    0.43   3
   2   0   7    4.43    0.47   4
  -2   0  -8    2.58    0.40   1
  -2   0  -8    1.66    0.39   2
  -2   0  -8    1.59    0.32   3
  -2   0  -8    1.80    0.48   4
   2   0   8    2.65    0.42   1
   2   0   8    1.45    0.41   2
   2   0   8    1.89    0.37   3
   2   0   8    0.84    0.41   4
  -2   0  -9    4.83    0.59   1
  -2   0  -9    3.85    0.51   3
  -2   0  -9    3.53    0.60   4
   2   0   9    3.78    0.55   1
   2   0   9    3.35    0.60   2
   2   0   9    3.76    0.49   3
  -2   0 -10    7.56    0.74   1
  -2   0 -10    5.66    0.69   3
  -2   0 -10    7.70    0.95   4
   2   0  10    5.10    0.67   1
   2   0  10    7.39    0.87   2
   2   0  10    6.68    0.77   3
  -2   0 -11    1.19    0.50   1
  -2   0 -11    2.19    0.70   3
  -2   0 -11    1.65    0.79   4
   2   0  11    1.16    0.67   1
   2   0  11    1.28    0.74   2
   2   0  11    1.51    0.59   3
  -2   0 -12   -0.13    0.59   1
  -2   0 -12   -0.34    0.82   4
   2   0  12    1.76    0.92   2
   2   0  12    0.70    0.63   3
  -2   0 -13    2.47    0.76   1
  -2   0 -13    2.48    1.07   4
   2   0  13    2.57    1.03   2
   2   0  13    2.84    0.91   3
  -2   0 -14    0.55    1.27   4
   2   0  14   -1.13    1.20   2
  -2  -1  12    0.56    1.03   2
  -2  -1  12   -0.38    1.19   3
   2   1 -12    0.65    1.24   4
  -2  -1  11    5.05    0.98   2
  -2  -1  11    2.16    0.99   3
   2   1 -11    2.68    1.13   4
  -2  -1  10    0.78    0.69   2
  -2  -1  10    0.83    0.79   3
   2   1 -10    0.34    0.48   1
   2   1 -10   -0.81    0.73   4
  -2  -1   9    0.35    0.53   1
  -2  -1   9   -0.15    0.54   2
   2   1  -9    0.67    0.43   1
   2   1  -9    0.65    0.71   4
  -2  -1   8    8.88    0.72   1
  -2  -1   8   10.18    0.91   2
  -2  -1   8   10.93    1.00   3
   2   1  -8   10.76    0.69   1
   2   1  -8   11.32    0.96   2
   2   1  -8   10.25    1.09   4
  -2  -1   7    2.94    0.43   1
  -2  -1   7    2.34    0.49   2
  -2  -1   7    3.38    0.61   3
   2   1  -7    3.25    0.40   1
   2   1  -7    3.11    0.56   2
   2   1  -7    2.71    0.57   4
  -2  -1   6    0.16    0.28   1
  -2  -1   6   -0.06    0.28   2
  -2  -1   6    0.06    0.38   3
  -2  -1   6    0.60    0.37   4
   2   1  -6    0.63    0.28   1
   2   1  -6    0.37    0.34   2
   2   1  -6   -0.22    0.38   3
   2   1  -6    0.33    0.36   4
  -2  -1   5   80.69    1.10   1
  -2  -1   5   77.24    1.26   2
  -2  -1   5   76.80    1.52   3
  -2  -1   5   72.96    1.45   4
   2   1  -5   73.70    1.06   1
   2   1  -5   75.77    1.25   2
   2   1  -5   78.76    1.47   3
  -2  -1   4   22.54    0.59   1
  -2  -1   4   21.98    0.66   2
  -2  -1   4   21.21    0.79   3
  -2  -1   4   21.03    0.77   4
   2   1  -4   23.58    0.79   3
   2   1  -4   20.03    0.77   4
  -2  -1   3   37.13    0.67   1
  -2  -1   3   36.19    0.69   2
  -2  -1   3   35.35    0.90   3
  -2  -1   3   37.55    0.89   4
   2   1  -3   36.29    0.67   1
   2   1  -3   36.42    0.69   2
   2   1  -3   36.91    0.89   3
   2   1  -3   35.58    0.90   4
  -2  -1   2   29.57    0.56   1
  -2  -1   2   28.42    0.53   2
  -2  -1   2   27.77    0.72   3
  -2  -1   2   30.02    0.72   4
   2   1  -2   28.57    0.56   1
   2   1  -2   29.50    0.53   2
   2   1  -2   28.78    0.73   4
  -2  -1   1   21.57    0.47   1
  -2  -1   1   20.74    0.38   2
  -2  -1   1   21.84    0.56   4
   2   1  -1   21.19    0.46   1
   2   1  -1   20.62    0.38   2
   2   1  -1   21.36    0.55   3
  -2  -1   0   23.74    0.49   1
  -2  -1   0   24.49    0.39   2
  -2  -1   0   24.49    0.50   3
  -2  -1   0   23.83    0.53   4
   2   1   0   24.41    0.50   1
   2   1   0   24.08    0.39   2
   2   1   0   24.27    0.50   3
   2   1   0   24.55    0.54   4
  -2  -1  -1  841.61    4.11   2
  -2  -1  -1  804.86    3.15   3
  -2  -1  -1  830.34    2.79   4
   2   1   1  819.88    2.82   1
   2   1   1  848.87    3.78   1
   2   1   1  826.70    4.32   2
   2   1   1  797.56    3.99   3
   2   1   1  829.56    2.77   4
  -2  -1  -2   31.88    0.61   1
  -2  -1  -2   30.26    0.55   2
  -2  -1  -2   29.14    0.56   4
   2   1   2   29.75    0.56   2
   2   1   2   31.48    0.31   3
   2   1   2   30.57    0.30   3
   2   1   2   31.39    0.58   4
  -2  -1  -3  171.24    1.48   2
  -2  -1  -3  177.98    1.45   4
   2   1   3  187.99    1.54   1
   2   1   3  182.97    1.47   4
  -2  -1  -4   60.46    0.97   1
  -2  -1  -4   60.86    1.00   2
  -2  -1  -4   60.45    0.50   3
  -2  -1  -4   58.05    0.96   4
   2   1   4   60.91    0.99   1
   2   1   4   59.85    1.03   2
   2   1   4   60.80    0.50   3
  -2  -1  -5   56.51    1.01   1
  -2  -1  -5   55.68    1.07   2
  -2  -1  -5   58.49    0.67   3
  -2  -1  -5   59.06    1.09   4
   2   1   5   60.01    1.03   1
   2   1   5   56.76    1.13   2
   2   1   5   58.87    0.67   3
   2   1   5   57.60    1.04   4
  -2  -1  -6   28.04    0.80   1
  -2  -1  -6   30.50    0.89   2
  -2  -1  -6   28.05    0.60   3
  -2  -1  -6   28.14    0.90   4
   2   1   6   29.93    0.82   1
   2   1   6   28.23    0.93   2
   2   1   6   28.64    0.59   3
   2   1   6   26.93    0.82   4
  -2  -1  -7   22.68    0.78   1
  -2  -1  -7   21.81    0.84   2
  -2  -1  -7   22.54    0.65   3
  -2  -1  -7   23.21    0.92   4
   2   1   7   24.54    0.82   1
   2   1   7   22.13    0.92   2
   2   1   7   23.58    0.66   3
   2   1   7   21.89    0.83   4
  -2  -1  -8    0.28    0.32   1
  -2  -1  -8   -0.28    0.35   2
  -2  -1  -8    0.57    0.29   3
  -2  -1  -8    0.24    0.40   4
   2   1   8   -0.08    0.39   1
   2   1   8    0.03    0.40   2
   2   1   8    0.23    0.27   3
   2   1   8    0.05    0.35   4
  -2  -1  -9   -0.20    0.37   1
  -2  -1  -9   -0.05    0.38   3
  -2  -1  -9   -0.13    0.48   4
   2   1   9   -0.09    0.49   1
   2   1   9    0.12    0.42   2
   2   1   9   -0.09    0.33   3
  -2  -1 -10    0.87    0.51   1
  -2  -1 -10    0.93    0.51   3
  -2  -1 -10    0.48    0.60   4
   2   1  10    0.53    0.60   1
   2   1  10    0.86    0.57   2
   2   1  10    0.81    0.43   3
  -2  -1 -11    3.68    0.68   1
  -2  -1 -11    3.69    0.71   3
  -2  -1 -11    1.83    0.77   4
   2   1  11    1.15    0.78   1
   2   1  11    3.24    0.80   2
   2   1  11    2.43    0.59   3
  -2  -1 -12   -0.18    0.65   1
  -2  -1 -12    0.26    0.89   4
   2   1  12    0.57    0.80   2
   2   1  12    0.00    0.64   3
  -2  -1 -13    0.52    0.77   1
  -2  -1 -13   -0.08    1.00   4
   2   1  13    1.24    1.03   2
   2   1  13    0.05    0.79   3
  -2  -1 -14    0.25    1.30   4
   2   1  14    2.40    1.28   2
  -2  -2  11   -0.23    0.85   2
  -2  -2  11   -1.03    0.93   3
   2   2 -11   -1.25    1.11   4
  -2  -2  10    0.39    0.80   3
   2   2 -10    0.65    0.90   4
  -2  -2   9    1.81    0.65   2
  -2  -2   9    3.19    0.82   3
   2   2  -9    2.25    0.39   1
   2   2  -9    2.25    0.80   4
  -2  -2   8   10.27    0.58   1
  -2  -2   8   13.66    1.03   2
  -2  -2   8   12.80    1.12   3
   2   2  -8   13.31    0.61   1
   2   2  -8   12.85    1.10   2
  -2  -2   7    3.35    0.36   1
  -2  -2   7    4.24    0.60   2
  -2  -2   7    4.87    0.69   3
   2   2  -7    4.06    0.62   2
   2   2  -7    4.13    0.66   4
  -2  -2   6    0.60    0.22   1
  -2  -2   6    0.33    0.34   2
  -2  -2   6    0.09    0.39   3
  -2  -2   6    0.42    0.40   4
   2   2  -6    0.61    0.23   1
   2   2  -6    0.38    0.40   2
   2   2  -6    0.73    0.42   3
   2   2  -6    0.35    0.41   4
  -2  -2   5    1.17    0.22   1
  -2  -2   5    0.92    0.32   2
  -2  -2   5    1.35    0.42   3
  -2  -2   5    1.55    0.35   4
   2   2  -5    1.20    0.23   1
   2   2  -5    0.97    0.33   2
   2   2  -5    1.15    0.31   3
   2   2  -5    0.91    0.36   4
  -2  -2   4    0.35    0.16   1
  -2  -2   4    0.05    0.25   2
  -2  -2   4   -0.14    0.29   3
  -2  -2   4    0.12    0.25   4
   2   2  -4    0.06    0.17   1
   2   2  -4   -0.27    0.21   2
   2   2  -4   -0.43    0.24   3
   2   2  -4    0.19    0.28   4
  -2  -2   3   55.92    0.71   1
  -2  -2   3   52.63    0.96   2
  -2  -2   3   54.68    1.15   3
  -2  -2   3   54.39    1.11   4
   2   2  -3   55.99    0.72   1
   2   2  -3   53.60    0.95   2
   2   2  -3   54.04    1.10   3
   2   2  -3   51.19    1.10   4
  -2  -2   2   28.45    0.51   1
  -2  -2   2   26.50    0.76   3
  -2  -2   2   27.94    0.73   4
   2   2  -2   28.14    0.51   1
   2   2  -2   27.39    0.63   2
   2   2  -2   28.65    0.76   3
   2   2  -2   25.87    0.75   4
  -2  -2   1   14.16    0.43   2
  -2  -2   1   14.18    0.53   3
  -2  -2   1   15.57    0.51   4
   2   2  -1   14.67    0.39   1
   2   2  -1   14.07    0.38   1
   2   2  -1   15.55    0.45   2
   2   2  -1   13.33    0.50   4
  -2  -2   0    0.15    0.11   2
  -2  -2   0    0.11    0.13   3
   2   2   0    0.02    0.11   1
   2   2   0    0.16    0.11   1
   2   2   0   -0.02    0.11   2
   2   2   0    0.16    0.13   3
   2   2   0    0.12    0.12   4
   2   2   0    0.11    0.12   4
  -2  -2  -1  104.51    1.09   1
  -2  -2  -1  100.68    1.00   4
   2   2   1  109.95    1.11   1
   2   2   1  102.43    1.06   2
   2   2   1  105.77    1.07   2
   2   2   1  103.05    0.99   3
   2   2   1  104.09    0.98   3
   2   2   1  105.56    1.01   4
  -2  -2  -2   35.17    0.68   2
  -2  -2  -2   35.48    0.52   3
  -2  -2  -2   34.74    0.59   4
   2   2   2   35.42    0.71   1
   2   2   2   32.20    0.68   2
   2   2   2   34.40    0.51   3
   2   2   2   33.91    0.58   4
  -2  -2  -3   43.06    0.83   1
  -2  -2  -3   44.03    0.53   3
  -2  -2  -3   42.49    0.69   4
   2   2   3   41.26    0.81   2
   2   2   3   42.22    0.52   3
   2   2   3   41.89    0.68   4
  -2  -2  -4   32.88    0.79   1
  -2  -2  -4   35.63    0.51   3
   2   2   4   35.50    0.80   1
   2   2   4   32.48    0.80   2
   2   2   4   35.27    0.51   3
   2   2   4   35.13    0.72   4
  -2  -2  -5    4.86    0.44   1
  -2  -2  -5    4.29    0.39   2
  -2  -2  -5    4.52    0.30   3
  -2  -2  -5    3.63    0.42   4
   2   2   5    4.93    0.44   1
   2   2   5    3.92    0.44   2
   2   2   5    4.48    0.29   3
   2   2   5    4.77    0.42   4
  -2  -2  -6  649.39    3.81   1
  -2  -2  -6  631.76    3.91   2
  -2  -2  -6  649.45    2.72   3
  -2  -2  -6  643.13    3.62   4
   2   2   6  658.47    3.79   1
   2   2   6  638.16    3.99   2
   2   2   6  642.43    2.72   3
   2   2   6  636.57    3.56   4
  -2  -2  -7   14.08    0.71   1
  -2  -2  -7   12.95    0.67   2
  -2  -2  -7   14.28    0.76   4
   2   2   7   16.44    0.78   1
   2   2   7   13.31    0.78   2
   2   2   7   14.76    0.56   3
   2   2   7   14.17    0.72   4
  -2  -2  -8   60.53    1.38   1
  -2  -2  -8   59.90    1.44   2
  -2  -2  -8   55.06    1.06   3
  -2  -2  -8   60.67    1.44   4
   2   2   8   61.08    1.40   1
   2   2   8   59.41    1.51   2
   2   2   8   60.98    1.12   3
   2   2   8   60.01    1.39   4
  -2  -2  -9    9.89    0.82   1
  -2  -2  -9    7.92    0.70   3
  -2  -2  -9    8.59    0.88   4
   2   2   9    8.05    0.95   1
   2   2   9    9.72    0.91   2
   2   2   9    8.46    0.70   3
   2   2   9    9.57    0.90   4
  -2  -2 -10    4.00    0.65   1
  -2  -2 -10    2.82    0.55   3
  -2  -2 -10    3.20    0.68   4
   2   2  10    3.27    0.75   1
   2   2  10    3.61    0.74   2
   2   2  10    3.11    0.52   3
  -2  -2 -11   -0.02    0.54   1
  -2  -2 -11    0.82    0.63   3
  -2  -2 -11   -0.68    0.66   4
   2   2  11    0.47    0.62   2
   2   2  11   -0.10    0.48   3
  -2  -2 -12   -0.58    0.64   1
  -2  -2 -12    0.61    0.86   4
   2   2  12   -0.40    0.69   2
   2   2  12   -0.46    0.60   3
  -2  -2 -13   -0.50    0.95   4
   2   2  13   -0.85    0.86   2
   2   2  13   -0.88    0.73   3
  -2  -2 -14    0.87    1.04   1
  -2  -2 -14    1.76    1.29   4
   2   2  14    2.24    1.32   2
  -2  -3  11    2.23    1.01   2
  -2  -3  11    2.14    1.17   3
   2   3 -11    1.41    1.18   4
  -2  -3  10    5.28    0.94   2
  -2  -3  10    8.00    1.17   3
   2   3 -10    4.98    1.11   4
  -2  -3   9   -0.45    0.63   2
  -2  -3   9   -0.37    0.71   3
   2   3  -9   -0.67    0.72   4
  -2  -3   8   13.42    1.08   2
   2   3  -8   11.97    1.20   4
  -2  -3   7   11.47    0.92   2
  -2  -3   7   12.10    1.04   3
   2   3  -7   12.35    1.06   2
   2   3  -7   12.41    1.06   4
  -2  -3   6   11.38    0.82   2
  -2  -3   6   11.49    0.86   3
   2   3  -6   11.03    0.82   2
   2   3  -6    9.31    0.90   4
  -2  -3   5   19.39    0.86   2
  -2  -3   5   19.61    0.97   3
  -2  -3   5   19.17    0.88   4
   2   3  -5   18.45    0.35   1
   2   3  -5   19.64    0.35   1
   2   3  -5   19.01    0.87   2
   2   3  -5   19.16    0.91   3
   2   3  -5   17.21    0.90   4
  -2  -3   4   21.90    0.80   2
  -2  -3   4   21.73    0.92   3
  -2  -3   4   21.56    0.81   4
   2   3  -4   21.91    0.40   1
   2   3  -4   22.87    0.39   1
   2   3  -4   23.59    0.81   2
   2   3  -4   21.65    0.84   3
   2   3  -4   21.53    0.90   4
  -2  -3   3  112.72    1.54   2
  -2  -3   3  115.66    1.73   3
  -2  -3   3  117.24    1.66   4
   2   3  -3  118.48    0.91   1
   2   3  -3  120.83    0.91   1
   2   3  -3  119.65    1.56   2
   2   3  -3  117.99    1.71   3
   2   3  -3  110.67    1.64   4
  -2  -3   2    9.55    0.53   2
  -2  -3   2    9.84    0.56   3
  -2  -3   2    9.93    0.50   4
   2   3  -2    9.81    0.34   1
   2   3  -2   10.05    0.34   1
   2   3  -2    9.66    0.50   2
   2   3  -2    9.69    0.52   3
   2   3  -2    9.95    0.55   4
  -2  -3   1  169.07    1.66   2
  -2  -3   1  164.56    1.76   3
  -2  -3   1  175.30    1.66   4
   2   3  -1  171.50    1.30   1
   2   3  -1  173.90    1.30   1
   2   3  -1  176.26    1.67   2
   2   3  -1  171.00    1.77   3
   2   3  -1  159.00    1.61   4
  -2  -3   0   47.11    0.75   1
  -2  -3   0   42.66    0.83   2
   2   3   0   47.48    0.76   1
   2   3   0   43.37    0.87   3
   2   3   0   46.23    0.87   3
   2   3   0   46.37    0.78   4
  -2  -3  -1    2.33    0.27   1
  -2  -3  -1    2.29    0.29   2
   2   3   1    2.39    0.27   1
   2   3   1    2.37    0.29   3
   2   3   1    2.37    0.27   3
   2   3   1    2.71    0.24   4
   2   3   1    2.19    0.23   4
  -2  -3  -2   46.52    0.76   3
  -2  -3  -2   46.16    0.66   4
   2   3   2   45.46    0.88   1
   2   3   2   47.44    0.91   2
   2   3   2   48.66    0.91   2
   2   3   2   47.12    0.77   3
   2   3   2   47.07    0.67   4
  -2  -3  -3    0.22    0.19   1
  -2  -3  -3    0.76    0.19   2
  -2  -3  -3    0.47    0.15   3
  -2  -3  -3    0.08    0.12   4
   2   3   3    0.55    0.24   1
   2   3   3    0.58    0.21   2
   2   3   3    0.42    0.16   3
   2   3   3    0.22    0.14   4
  -2  -3  -4    3.39    0.40   1
  -2  -3  -4    3.50    0.39   2
  -2  -3  -4    3.87    0.30   3
  -2  -3  -4    3.17    0.29   4
   2   3   4    3.18    0.39   1
   2   3   4    3.54    0.40   2
   2   3   4    3.25    0.31   3
   2   3   4    4.02    0.34   4
  -2  -3  -5    2.31    0.37   1
  -2  -3  -5    2.29    0.33   2
  -2  -3  -5    2.66    0.33   3
  -2  -3  -5    2.40    0.30   4
   2   3   5    2.64    0.36   1
   2   3   5    2.47    0.38   2
   2   3   5    3.00    0.31   3
  -2  -3  -6    6.38    0.58   1
  -2  -3  -6    7.50    0.57   2
  -2  -3  -6    7.54    0.45   3
  -2  -3  -6    6.55    0.51   4
   2   3   6    8.55    0.58   1
   2   3   6    7.58    0.66   2
   2   3   6    6.99    0.46   3
   2   3   6    6.82    0.52   4
  -2  -3  -7   10.17    0.70   1
  -2  -3  -7   10.12    0.69   2
  -2  -3  -7   10.64    0.57   3
  -2  -3  -7   11.02    0.68   4
   2   3   7   12.20    0.83   2
   2   3   7   11.19    0.57   3
   2   3   7   10.52    0.64   4
  -2  -3  -8    1.03    0.47   1
  -2  -3  -8    0.10    0.39   2
  -2  -3  -8    0.53    0.35   3
  -2  -3  -8    0.27    0.35   4
   2   3   8    0.35    0.45   1
   2   3   8    0.40    0.47   2
   2   3   8    0.33    0.31   3
   2   3   8    0.83    0.41   4
  -2  -3  -9  147.45    2.35   1
  -2  -3  -9  112.56    1.70   3
  -2  -3  -9  141.99    2.23   4
   2   3   9  137.84    2.31   1
   2   3   9  145.30    2.49   2
   2   3   9  142.09    1.86   3
   2   3   9  138.49    2.16   4
  -2  -3 -10   -0.05    0.51   1
  -2  -3 -10   -0.16    0.51   3
  -2  -3 -10    0.20    0.57   4
   2   3  10   -0.09    0.62   2
   2   3  10    0.19    0.43   3
  -2  -3 -11    6.71    0.88   1
  -2  -3 -11    6.06    0.83   3
  -2  -3 -11    6.46    0.91   4
   2   3  11    6.40    0.86   2
   2   3  11    6.86    0.78   3
  -2  -3 -12    1.05    0.75   1
  -2  -3 -12    1.21    0.84   4
   2   3  12    0.66    0.77   2
   2   3  12    0.29    0.66   3
  -2  -3 -13   -0.26    0.85   1
  -2  -3 -13    0.96    1.02   4
   2   3  13   -2.00    0.95   2
   2   3  13   -0.70    0.76   3
  -2  -3 -14   -0.31    1.08   1
  -2  -3 -14    2.42    1.23   4
   2   3  14    1.04    1.15   2
  -2  -4  11    0.23    1.09   2
  -2  -4  11    0.31    1.20   3
   2   4 -11    0.50    1.21   4
  -2  -4  10    8.12    1.14   2
  -2  -4  10    6.39    1.25   3
   2   4 -10    6.93    1.21   4
  -2  -4   9    5.03    0.90   2
  -2  -4   9    3.06    0.93   3
   2   4  -9    3.62    0.97   4
  -2  -4   8    1.01    0.69   2
  -2  -4   8    0.78    0.66   3
   2   4  -8    0.93    0.70   4
  -2  -4   7   18.72    1.15   2
  -2  -4   7   19.76    1.27   3
  -2  -4   6    8.55    0.85   2
  -2  -4   6    9.63    0.95   3
   2   4  -6    8.42    0.94   2
   2   4  -6   11.17    0.97   4
  -2  -4   5   11.29    0.82   2
  -2  -4   5   11.02    0.82   3
  -2  -4   5   11.08    0.78   4
   2   4  -5    9.84    0.79   2
   2   4  -5    8.58    0.82   4
  -2  -4   4    0.44    0.37   2
  -2  -4   4    1.28    0.47   3
  -2  -4   4    1.10    0.37   4
   2   4  -4    0.74    0.35   2
   2   4  -4    0.26    0.34   3
   2   4  -4    0.42    0.36   4
  -2  -4   3    2.70    0.41   2
  -2  -4   3    3.67    0.46   4
   2   4  -3    3.66    0.25   1
   2   4  -3    3.11    0.25   1
   2   4  -3    4.67    0.52   2
   2   4  -3    3.14    0.47   3
   2   4  -3    3.81    0.49   3
   2   4  -3    2.97    0.40   4
  -2  -4   2   13.54    0.70   2
  -2  -4   2   13.34    0.62   4
   2   4  -2   14.04    0.42   1
   2   4  -2   13.64    0.43   1
   2   4  -2   13.52    0.65   2
   2   4  -2   14.41    0.73   3
   2   4  -2   14.45    0.71   3
   2   4  -2   13.70    0.66   4
  -2  -4   1  106.63    1.13   1
  -2  -4   1  102.09    1.50   2
  -2  -4   1  108.44    1.38   4
   2   4  -1  106.10    1.13   1
   2   4  -1  104.38    1.48   2
   2   4  -1  104.33    1.58   3
   2   4  -1  110.41    1.59   3
   2   4  -1  103.93    1.38   4
  -2  -4   0  258.97    1.91   1
  -2  -4   0  248.68    2.25   2
   2   4   0  269.02    1.94   1
   2   4   0  276.35    2.34   2
   2   4   0  263.87    2.33   3
   2   4   0  262.37    2.28   3
   2   4   0  258.54    1.91   4
   2   4   0  266.59    1.92   4
  -2  -4  -1   13.59    0.55   1
  -2  -4  -1   14.07    0.60   2
  -2  -4  -1   14.31    0.57   3
   2   4   1   14.63    0.56   1
   2   4   1   14.13    0.57   2
   2   4   1   14.44    0.60   3
   2   4   1   14.09    0.43   4
   2   4   1   14.05    0.44   4
  -2  -4  -2  133.14    1.60   1
  -2  -4  -2  133.27    1.50   3
   2   4   2  135.13    1.60   1
   2   4   2  127.31    1.64   2
   2   4   2  132.00    1.64   2
   2   4   2  134.03    1.53   3
   2   4   2  133.56    1.10   4
  -2  -4  -3   41.47    0.99   1
  -2  -4  -3   42.56    0.87   3
  -2  -4  -3   40.95    0.62   4
   2   4   3   42.64    0.98   1
   2   4   3   40.89    0.99   2
   2   4   3   43.14    1.02   2
   2   4   3   39.62    0.85   3
   2   4   3   42.53    0.63   4
  -2  -4  -4   10.33    0.60   1
  -2  -4  -4   11.25    0.61   2
  -2  -4  -4   11.32    0.49   3
  -2  -4  -4   10.97    0.39   4
   2   4   4   11.26    0.64   2
   2   4   4   11.18    0.53   3
   2   4   4   10.69    0.41   4
  -2  -4  -5    4.58    0.53   1
  -2  -4  -5    4.85    0.50   2
  -2  -4  -5    4.39    0.43   3
   2   4   5    4.97    0.55   1
   2   4   5    4.81    0.52   2
   2   4   5    3.62    0.42   3
   2   4   5    3.80    0.39   4
  -2  -4  -6   39.66    1.15   1
  -2  -4  -6   41.62    1.15   2
  -2  -4  -6   42.55    0.94   3
  -2  -4  -6   40.35    0.88   4
   2   4   6   43.03    1.17   1
   2   4   6   40.89    1.22   2
   2   4   6   40.22    0.93   3
   2   4   6   40.60    0.88   4
  -2  -4  -7    0.14    0.35   1
  -2  -4  -7    0.20    0.40   2
  -2  -4  -7   -0.15    0.31   3
  -2  -4  -7   -0.19    0.29   4
   2   4   7    0.65    0.39   1
   2   4   7    0.27    0.38   2
   2   4   7    0.25    0.28   3
   2   4   7    0.26    0.29   4
  -2  -4  -8   17.94    1.00   1
  -2  -4  -8   12.69    0.74   3
  -2  -4  -8   17.78    0.87   4
   2   4   8   17.70    1.07   2
   2   4   8   17.60    0.81   3
   2   4   8   17.24    0.83   4
  -2  -4  -9   16.68    1.02   1
  -2  -4  -9   11.59    0.88   3
  -2  -4  -9   15.21    0.96   4
   2   4   9   14.81    1.13   2
   2   4   9   16.17    0.90   3
   2   4   9   15.08    0.96   4
  -2  -4 -10   27.65    1.37   1
  -2  -4 -10   17.03    1.13   3
  -2  -4 -10   29.14    1.27   4
   2   4  10   25.92    1.12   3
   2   4  10   24.38    1.32   4
  -2  -4 -11   -0.01    0.68   1
  -2  -4 -11   -0.81    0.74   3
  -2  -4 -11    0.71    0.66   4
   2   4  11   -0.80    0.61   2
   2   4  11    0.40    0.57   3
  -2  -4 -12   23.95    1.59   1
  -2  -4 -12   26.46    1.63   4
   2   4  12   23.64    1.72   2
   2   4  12   24.80    1.41   3
  -2  -4 -13   -1.36    0.96   1
  -2  -4 -13    0.40    1.05   4
   2   4  13    0.25    1.00   2
   2   4  13   -0.53    0.80   3
  -2  -5  10    4.50    1.11   2
   2   5 -10    2.31    1.22   3
   2   5 -10    4.04    1.30   4
  -2  -5   9    2.06    0.85   2
   2   5  -9    0.63    0.87   3
   2   5  -9    0.97    0.98   4
  -2  -5   8    2.07    0.79   2
   2   5  -8    1.26    0.83   3
   2   5  -8    1.14    0.83   4
  -2  -5   7   34.25    1.50   2
   2   5  -7   31.91    1.57   3
   2   5  -7   30.85    1.47   4
  -2  -5   6    9.30    0.99   2
   2   5  -6   11.01    1.07   3
   2   5  -6   12.31    1.11   4
  -2  -5   5   13.37    0.98   2
   2   5  -5   12.93    1.03   3
   2   5  -5   11.56    0.94   4
  -2  -5   4   31.67    1.18   2
  -2  -5   4   32.33    1.15   4
   2   5  -4   32.02    1.16   2
   2   5  -4   35.52    1.29   3
   2   5  -4   29.65    1.14   4
  -2  -5   3   80.61    1.66   2
  -2  -5   3   77.77    1.50   4
   2   5  -3   80.85    0.83   1
   2   5  -3   78.55    0.82   1
   2   5  -3   82.81    1.63   2
   2   5  -3   81.11    1.73   3
   2   5  -3   81.01    1.69   3
   2   5  -3   75.09    1.52   4
  -2  -5   2   37.65    1.14   2
  -2  -5   2   36.21    0.98   4
   2   5  -2   36.70    0.71   1
   2   5  -2   37.05    1.08   2
   2   5  -2   38.31    1.17   3
   2   5  -2   35.86    1.09   3
   2   5  -2   34.35    0.99   4
  -2  -5   1   16.06    0.57   1
  -2  -5   1   13.68    0.71   2
  -2  -5   1   17.60    0.67   4
   2   5  -1   15.85    0.58   1
   2   5  -1   17.00    0.76   2
   2   5  -1   14.98    0.75   3
   2   5  -1   16.40    0.75   3
   2   5  -1   14.45    0.64   4
  -2  -5   0   24.82    0.71   1
  -2  -5   0   24.27    0.89   2
   2   5   0   24.23    0.72   1
   2   5   0   24.46    0.82   2
   2   5   0   24.60    0.89   3
   2   5   0   25.15    0.86   3
   2   5   0   24.53    0.68   4
  -2  -5  -1   21.01    0.72   1
  -2  -5  -1   21.90    0.82   2
  -2  -5  -1   23.63    0.82   3
   2   5   1   24.35    0.76   1
   2   5   1   22.41    0.80   2
   2   5   1   23.52    0.57   4
   2   5   1   23.31    0.57   4
  -2  -5  -2   34.02    0.94   1
  -2  -5  -2   35.81    0.95   3
   2   5   2   34.96    0.93   1
   2   5   2   36.60    1.02   2
   2   5   2   32.97    0.92   3
   2   5   2   34.76    0.59   4
   2   5   2   35.51    0.60   4
  -2  -5  -3  169.33    2.08   1
  -2  -5  -3  175.56    1.94   3
   2   5   3  168.58    2.04   1
   2   5   3  165.46    2.12   2
   2   5   3  170.07    2.11   2
   2   5   3  167.19    1.92   3
   2   5   3  169.32    1.15   4
  -2  -5  -4   11.72    0.71   1
  -2  -5  -4   12.79    0.63   3
  -2  -5  -4   12.82    0.38   4
   2   5   4   11.61    0.63   1
   2   5   4   12.69    0.74   2
   2   5   4   13.08    0.73   2
   2   5   4   12.44    0.64   3
   2   5   4   12.62    0.40   4
  -2  -5  -5   14.76    0.82   1
  -2  -5  -5   15.37    0.71   3
  -2  -5  -5   14.21    0.47   4
   2   5   5   15.14    0.79   1
   2   5   5   15.38    0.81   2
   2   5   5   15.40    0.77   2
   2   5   5   13.62    0.68   3
   2   5   5   14.29    0.50   4
  -2  -5  -6    0.04    0.35   1
  -2  -5  -6    0.33    0.38   2
  -2  -5  -6    0.63    0.33   3
  -2  -5  -6    0.26    0.23   4
   2   5   6    0.13    0.39   1
   2   5   6    0.71    0.42   2
   2   5   6    0.31    0.33   3
   2   5   6    0.03    0.23   4
  -2  -5  -7    5.48    0.66   1
  -2  -5  -7    6.01    0.69   3
  -2  -5  -7    5.21    0.55   4
   2   5   7    5.28    0.67   2
   2   5   7    5.12    0.57   3
   2   5   7    5.14    0.52   4
  -2  -5  -8    0.97    0.47   1
  -2  -5  -8   -0.17    0.46   3
  -2  -5  -8    0.07    0.35   4
   2   5   8    0.46    0.51   2
   2   5   8    0.64    0.43   3
   2   5   8    0.43    0.38   4
  -2  -5  -9    3.45    0.71   1
  -2  -5  -9    2.63    0.63   3
  -2  -5  -9    2.99    0.53   4
   2   5   9    3.79    0.79   2
   2   5   9    3.91    0.59   3
   2   5   9    4.08    0.63   4
  -2  -5 -10   -0.39    0.55   1
  -2  -5 -10    0.11    0.68   3
  -2  -5 -10   -1.03    0.53   4
   2   5  10    0.09    0.64   2
   2   5  10   -0.13    0.56   3
   2   5  10    0.72    0.60   4
  -2  -5 -11    5.82    0.98   1
  -2  -5 -11    3.18    0.80   4
   2   5  11    4.72    1.02   2
   2   5  11    5.02    0.80   3
  -2  -5 -12    4.38    0.98   1
  -2  -5 -12    2.85    0.90   4
   2   5  12    1.54    0.95   2
   2   5  12    2.97    0.87   3
  -2  -5 -13    5.05    1.23   1
  -2  -5 -13    1.94    1.11   4
   2   5  13    3.79    1.16   2
   2   5  13    4.86    1.04   3
  -2  -6   9    3.88    1.09   2
   2   6  -9    3.34    1.22   3
   2   6  -9    4.36    1.17   4
  -2  -6   8    6.29    1.02   2
   2   6  -8    4.78    1.05   3
   2   6  -8    5.58    1.09   4
  -2  -6   7    1.08    0.71   2
   2   6  -7    1.29    0.80   3
   2   6  -7    0.56    0.78   4
   2   6  -6   -0.19    0.60   3
  -2  -6   5    8.38    1.02   2
   2   6  -5    9.18    1.00   4
  -2  -6   4   33.12    1.38   2
  -2  -6   4   27.55    1.16   4
   2   6  -4   33.71    1.33   3
   2   6  -4   27.79    1.21   4
  -2  -6   3    7.22    0.76   2
  -2  -6   3    6.92    0.72   4
   2   6  -3    7.34    0.40   1
   2   6  -3    5.92    0.43   1
   2   6  -3    5.24    0.68   3
   2   6  -3    6.52    0.73   4
  -2  -6   2  178.06    1.61   1
  -2  -6   2  178.18    2.51   2
  -2  -6   2  180.89    2.15   4
   2   6  -2  176.34    1.66   1
   2   6  -2  168.24    2.37   2
   2   6  -2  168.58    2.48   3
   2   6  -2  167.23    2.44   3
   2   6  -2  166.08    2.10   4
  -2  -6   1   12.04    0.59   1
  -2  -6   1   11.54    0.77   2
  -2  -6   1   12.66    0.66   4
   2   6  -1   13.55    0.64   1
   2   6  -1   13.14    0.75   2
   2   6  -1   11.58    0.85   3
   2   6  -1   10.76    0.80   3
   2   6  -1   11.98    0.66   4
  -2  -6   0   78.68    1.32   1
  -2  -6   0   80.12    1.65   2
   2   6   0   78.16    1.32   1
   2   6   0   80.21    1.61   2
   2   6   0   77.80    1.60   3
   2   6   0   79.31    1.57   3
   2   6   0   74.83    1.16   4
   2   6   0   77.51    1.17   4
  -2  -6  -1    1.33    0.34   1
  -2  -6  -1    1.22    0.39   2
  -2  -6  -1    1.76    0.42   3
   2   6   1    1.30    0.35   1
   2   6   1    1.55    0.38   2
   2   6   1    1.50    0.40   3
   2   6   1    1.51    0.25   4
  -2  -6  -2   26.13    0.92   1
  -2  -6  -2   26.05    1.03   2
  -2  -6  -2   28.40    1.02   3
   2   6   2   29.50    0.97   1
   2   6   2   29.14    1.05   2
   2   6   2   29.75    1.02   3
   2   6   2   27.96    0.55   4
   2   6   2   27.73    0.55   4
  -2  -6  -3    2.52    0.43   1
  -2  -6  -3    2.50    0.47   3
   2   6   3    3.47    0.51   1
   2   6   3    2.31    0.46   2
   2   6   3    2.58    0.44   2
   2   6   3    2.47    0.47   3
   2   6   3    3.21    0.23   4
   2   6   3    2.48    0.24   4
  -2  -6  -4    9.28    0.75   1
  -2  -6  -4    9.64    0.71   3
   2   6   4    9.72    0.73   1
   2   6   4    8.70    0.74   2
   2   6   4   10.52    0.77   2
   2   6   4    9.77    0.72   3
   2   6   4    9.25    0.27   4
   2   6   4    9.25    0.30   4
  -2  -6  -5   20.09    1.00   1
  -2  -6  -5   17.90    0.87   3
  -2  -6  -5   12.74    0.37   4
   2   6   5   16.64    0.90   2
   2   6   5   19.76    0.98   2
   2   6   5   17.74    0.87   3
   2   6   5   17.10    0.42   4
  -2  -6  -6   44.89    1.44   1
  -2  -6  -6   46.32    1.24   3
  -2  -6  -6   32.48    0.64   4
   2   6   6   45.07    1.44   2
   2   6   6   45.03    1.24   3
   2   6   6   43.46    0.73   4
  -2  -6  -7    6.39    0.80   1
  -2  -6  -7    7.56    0.84   3
  -2  -6  -7    4.82    0.48   4
   2   6   7    6.89    0.82   2
   2   6   7    6.81    0.81   3
  -2  -6  -8    1.93    0.62   1
  -2  -6  -8    3.15    0.63   3
  -2  -6  -8    1.55    0.38   4
   2   6   8    1.47    0.65   2
   2   6   8    1.97    0.58   3
   2   6   8    2.95    0.43   4
  -2  -6  -9   -0.45    0.55   1
  -2  -6  -9    0.22    0.67   3
  -2  -6  -9    0.20    0.43   4
   2   6   9    1.31    0.68   2
   2   6   9    0.16    0.59   3
   2   6   9    0.33    0.45   4
  -2  -6 -10    5.39    0.90   1
  -2  -6 -10    2.99    0.60   4
   2   6  10    3.00    0.87   2
   2   6  10    5.96    0.83   3
   2   6  10    4.38    0.67   4
  -2  -6 -11   -0.01    0.87   1
  -2  -6 -11    0.01    0.65   4
   2   6  11    0.06    0.85   2
   2   6  11    0.79    0.76   3
  -2  -6 -12    2.35    1.15   1
  -2  -6 -12    0.97    0.87   4
   2   6  12    0.69    1.16   2
   2   6  12    1.65    0.92   3
  -2  -6 -13    0.42    1.18   1
   2   6  13   -2.48    1.15   2
  -2  -7   9    1.11    1.19   2
   2   7  -9   -0.80    1.13   3
   2   7  -9    1.92    1.35   4
  -2  -7   8    4.67    1.19   2
   2   7  -8    1.61    1.00   3
   2   7  -8    4.24    1.22   4
  -2  -7   7    1.70    0.92   2
   2   7  -7   -0.02    0.84   3
   2   7  -7    1.28    0.97   4
  -2  -7   6    0.12    0.72   2
   2   7  -6    0.09    0.75   3
   2   7  -6   -0.55    0.73   4
  -2  -7   5   17.73    1.36   2
   2   7  -5   17.72    1.32   3
   2   7  -5   14.72    1.25   4
  -2  -7   4    0.72    0.60   2
   2   7  -4    0.58    0.55   3
   2   7  -4    0.84    0.59   4
  -2  -7   3    0.32    0.57   2
  -2  -7   3    1.21    0.53   4
   2   7  -3    1.77    0.34   1
   2   7  -3    1.31    0.55   3
   2   7  -3    1.03    0.50   4
  -2  -7   2   53.21    1.04   1
  -2  -7   2   69.48    1.79   2
  -2  -7   2   49.89    1.30   4
   2   7  -2   67.46    1.19   1
   2   7  -2   69.25    1.81   3
   2   7  -2   65.75    1.45   4
  -2  -7   1   23.93    0.85   1
  -2  -7   1   23.85    1.11   2
  -2  -7   1   19.33    0.83   4
   2   7  -1   23.51    0.89   1
   2   7  -1   24.16    1.13   3
   2   7  -1   23.96    0.90   4
  -2  -7   0   10.06    0.70   1
  -2  -7   0   10.95    0.91   2
   2   7   0   10.93    0.78   1
   2   7   0   10.40    0.87   3
   2   7   0    9.57    0.58   4
   2   7   0   10.14    0.59   4
  -2  -7  -1   95.10    1.67   1
  -2  -7  -1   95.81    1.97   2
  -2  -7  -1   90.31    1.86   3
   2   7   1   93.26    1.69   1
   2   7   1   94.85    1.90   3
   2   7   1   93.28    1.14   4
  -2  -7  -2    0.07    0.37   1
  -2  -7  -2    0.22    0.45   2
  -2  -7  -2    0.29    0.47   3
   2   7   2    0.31    0.44   1
   2   7   2    0.51    0.43   3
   2   7   2    0.26    0.18   4
   2   7   2    0.26    0.19   4
  -2  -7  -3   20.70    0.98   1
  -2  -7  -3   22.44    1.06   3
   2   7   3   19.11    0.98   1
   2   7   3   21.57    1.08   2
   2   7   3   20.29    1.02   3
  -2  -7  -4   -0.09    0.42   1
  -2  -7  -4    0.04    0.49   3
   2   7   4    0.30    0.43   2
   2   7   4    0.28    0.43   3
  -2  -7  -5   17.75    1.06   1
  -2  -7  -5   15.51    1.01   3
   2   7   5   18.27    1.07   2
   2   7   5   18.10    1.02   3
  -2  -7  -6   -0.41    0.48   1
  -2  -7  -6    0.33    0.54   3
   2   7   6    0.13    0.50   2
   2   7   6   -0.06    0.49   3
  -2  -7  -7    0.79    0.63   3
  -2  -7  -7    0.28    0.21   4
   2   7   7    0.71    0.64   2
   2   7   7   -0.08    0.55   3
   2   7   7    0.74    0.24   4
  -2  -7  -8    4.53    0.81   1
  -2  -7  -8    4.40    0.54   4
   2   7   8    4.96    0.89   2
   2   7   8    5.19    0.76   3
   2   7   8    5.05    0.53   4
  -2  -7  -9   -0.45    0.70   1
  -2  -7  -9   -0.51    0.39   4
   2   7   9   -0.81    0.69   2
   2   7   9    1.00    0.68   3
  -2  -7 -10    1.29    0.89   1
  -2  -7 -10    0.32    0.54   4
   2   7  10    0.02    0.91   2
   2   7  10    1.14    0.77   3
  -2  -7 -11    0.67    0.96   1
   2   7  11    0.55    1.02   2
   2   7  11    0.19    0.82   3
  -2  -7 -12    1.04    1.18   1
   2   7  12   -0.34    1.20   2
   2   7  12    1.79    1.07   3
  -2  -8   8    1.60    1.31   2
   2   8  -8   -0.25    1.19   3
   2   8  -8    0.72    1.16   4
  -2  -8   7    3.19    1.09   2
   2   8  -7    2.20    1.14   3
   2   8  -7    3.82    1.11   4
  -2  -8   6   -0.13    0.86   2
   2   8  -6    0.70    0.89   3
   2   8  -6    0.53    0.82   4
  -2  -8   5    0.00    0.77   2
   2   8  -5    0.30    0.80   3
  -2  -8   4    4.21    0.89   2
   2   8  -4    4.17    0.87   3
   2   8  -4    4.69    0.80   4
  -2  -8   3   10.21    1.18   2
  -2  -8   3    9.10    1.05   4
   2   8  -3   11.15    1.21   3
   2   8  -3   10.02    1.03   4
  -2  -8   2   29.44    0.95   1
  -2  -8   2   43.64    1.72   2
  -2  -8   2   38.49    1.26   4
   2   8  -2   39.52    1.14   1
   2   8  -2   40.47    1.62   3
   2   8  -2   38.38    1.27   4
  -2  -8   1    3.36    0.51   1
  -2  -8   1    3.79    0.65   2
   2   8  -1    5.82    0.68   1
   2   8  -1    5.14    0.83   3
   2   8  -1    4.22    0.56   4
   2   8  -1    4.89    0.59   4
  -2  -8   0    2.39    0.51   1
  -2  -8   0    2.38    0.67   2
   2   8   0    2.63    0.62   1
   2   8   0    2.11    0.67   3
   2   8   0    2.16    0.42   4
   2   8   0    2.90    0.41   4
  -2  -8  -1   46.16    1.33   1
  -2  -8  -1   47.35    1.62   2
   2   8   1   42.02    1.41   1
   2   8   1   45.84    1.56   3
   2   8   1   43.38    0.84   4
  -2  -8  -2   18.59    1.04   1
  -2  -8  -2   17.79    1.17   2
   2   8   2   14.95    1.16   1
   2   8   2   17.77    1.13   3
   2   8   2   17.23    0.41   4
   2   8   2   18.92    0.42   4
  -2  -8  -3    9.14    0.92   1
   2   8   3    8.16    0.88   2
   2   8   3    8.58    0.92   3
  -2  -8  -4   16.36    1.09   1
   2   8   4   15.08    1.12   2
   2   8   4   14.42    1.06   3
  -2  -8  -5   22.83    1.27   1
   2   8   5   22.60    1.26   3
  -2  -8  -6   11.19    1.07   1
   2   8   6   14.63    1.19   2
   2   8   6   13.73    1.17   3
  -2  -8  -7    1.06    0.73   1
   2   8   7   -0.14    0.66   2
   2   8   7    1.52    0.66   3
  -2  -8  -8    1.81    0.76   1
   2   8   8    2.20    0.81   2
   2   8   8    1.64    0.71   3
  -2  -8  -9    0.82    0.81   1
   2   8   9    0.37    0.84   2
   2   8   9    1.49    0.82   3
  -2  -8 -10    0.01    1.05   1
   2   8  10   -0.72    1.02   2
   2   8  10    0.18    0.85   3
  -2  -8 -11    1.53    1.16   1
   2   8  11   -1.04    1.13   2
   2   8  11    2.10    1.04   3
  -2  -9   6   -0.86    0.99   2
   2   9  -6    0.29    1.00   3
   2   9  -6   -2.05    0.91   4
  -2  -9   5   -0.52    0.90   2
   2   9  -5    1.05    1.01   3
   2   9  -5    0.35    0.83   4
  -2  -9   4    1.12    0.92   2
   2   9  -4    1.41    0.90   3
   2   9  -4    2.62    0.80   4
  -2  -9   3    6.23    0.99   2
   2   9  -3    8.30    1.10   3
   2   9  -3    8.24    0.90   4
  -2  -9   2    0.43    0.48   1
  -2  -9   2    0.45    0.69   2
   2   9  -2    0.75    0.77   3
   2   9  -2    0.68    0.57   4
  -2  -9   1    0.12    0.51   1
  -2  -9   1    1.36    0.70   2
   2   9  -1    0.97    0.71   1
   2   9  -1    1.61    0.76   3
   2   9  -1    1.53    0.52   4
   2   9  -1    0.70    0.52   4
  -2  -9   0    7.30    0.77   1
  -2  -9   0    6.83    0.96   2
   2   9   0    6.88    0.91   1
   2   9   0    7.40    0.96   3
   2   9   0    5.84    0.70   4
   2   9   0    6.26    0.71   4
  -2  -9  -1    8.56    0.93   1
  -2  -9  -1    7.09    0.94   2
   2   9   1    6.23    0.89   3
   2   9   1    7.88    0.55   4
  -2  -9  -2   15.33    1.08   1
   2   9   2   13.20    1.14   3
  -2  -9  -3   26.55    1.37   1
   2   9   3   24.14    1.40   2
  -2  -9  -4    3.85    0.80   1
   2   9   4    3.82    0.78   2
  -2  -9  -5    8.05    1.05   1
   2   9   5    5.58    0.89   2
  -2  -9  -6   11.36    1.26   1
   2   9   6    9.67    1.12   2
  -2  -9  -7   -0.13    0.81   1
   2   9   7    1.09    0.83   2
   2   9   7    1.53    0.78   3
  -2  -9  -8    7.63    1.21   1
   2   9   8    7.86    1.17   2
   2   9   8    8.48    1.11   3
  -2  -9  -9    1.16    1.10   1
   2   9   9    2.95    1.18   2
   2   9   9    1.70    0.96   3
  -2  -9 -10    1.61    1.32   1
   2   9  10   -1.96    1.05   2
   2   9  10   -0.04    1.09   3
  -2 -10   5   -0.08    1.11   2
   2  10  -5    0.54    1.16   3
   2  10  -5    3.88    1.12   4
  -2 -10   4    2.46    1.13   2
   2  10  -4    0.25    1.10   3
   2  10  -4    1.32    0.91   4
  -2 -10   3    3.01    1.03   2
   2  10  -3    1.85    1.12   3
   2  10  -3    3.13    0.82   4
  -2 -10   2    1.56    0.93   2
   2  10  -2    2.27    1.01   3
   2  10  -2    2.52    0.72   4
  -2 -10   1    4.39    0.75   1
  -2 -10   1    6.17    0.98   2
   2  10  -1    4.69    1.02   3
   2  10  -1    5.14    0.69   4
  -2 -10   0    3.47    0.75   1
  -2 -10   0    3.44    0.98   2
   2  10   0    3.16    0.93   3
   2  10   0    3.32    0.52   4
  -2 -10  -1    0.68    0.70   1
  -2 -10  -1    0.69    0.83   2
   2  10   1    1.53    0.81   3
   2  10   2    4.26    1.00   2
   2  10   2    2.32    0.85   3
  -2 -10  -3   10.44    1.23   1
   2  10   3    8.98    1.12   2
   2  10   3   10.35    1.29   3
  -2 -10  -4    0.46    0.79   1
   2  10   4    0.55    0.78   2
   2  10   4   -0.98    0.75   3
  -2 -10  -5    0.61    0.86   1
   2  10   5    0.55    0.79   2
   2  10   5   -2.30    0.81   3
  -2 -10  -6    8.15    1.20   1
   2  10   6    6.52    1.13   2
   2  10   6    8.65    1.18   3
  -2 -10  -7   -0.64    0.99   1
   2  10   7    0.33    1.05   2
   2  10   7   -0.70    0.87   3
  -2 -10  -8    2.17    1.11   1
   2  10   8    2.74    1.25   2
   2  10   8    2.43    1.10   3
  -2 -10  -9    3.30    1.33   1
   2  10   9    5.36    1.45   2
   2  10   9    4.62    1.28   3
  -2 -11   3    2.50    1.32   2
   2  11  -3   -0.18    1.29   3
  -2 -11   2    1.47    1.08   2
   2  11  -2   -1.15    1.13   3
  -2 -11   1   -1.42    1.09   2
   2  11  -1    0.68    1.02   3
  -2 -11   0    4.65    0.93   1
  -2 -11   0    3.79    1.14   2
   2  11   0    3.96    1.17   3
  -2 -11  -1    0.60    0.91   1
  -2 -11  -1    2.16    1.04   2
   2  11   1    2.33    1.10   3
  -2 -11  -2    2.52    0.88   1
   2  11   2    1.39    1.07   2
   2  11   2    0.32    1.02   3
  -2 -11  -3    1.44    0.92   1
   2  11   3    0.59    0.91   2
   2  11   3    0.17    1.00   3
  -2 -11  -4    0.71    0.93   1
   2  11   4   -0.29    0.97   2
   2  11   4    0.13    1.05   3
  -2 -11  -5    7.52    1.21   1
   2  11   5    7.99    1.27   2
   2  11   5    5.56    1.29   3
  -2 -11  -6    4.78    1.25   1
   2  11   6    1.89    1.05   2
   2  11   6    2.74    1.25   3
  -2 -11  -7    1.73    1.31   1
   2  11   7    0.64    1.27   2
   2  11   7    0.13    1.19   3
  -3  11   0    2.60    1.19   3
   3 -11   0    2.62    1.30   2
   3 -11   1   -2.30    1.18   2
  -3  10   5    5.47    1.24   2
  -3  10   5    6.57    1.47   3
   3 -10  -5    5.79    1.35   1
  -3  10   4    0.42    1.09   2
  -3  10   4    1.02    1.05   3
   3 -10  -4   -0.09    1.05   1
  -3  10   3    1.26    1.05   2
  -3  10   3    1.57    1.09   3
   3 -10  -3    1.69    1.01   1
  -3  10   2   -2.53    0.92   2
  -3  10   2   -0.77    0.91   3
   3 -10  -2    0.36    0.97   1
  -3  10   1    0.84    1.03   3
   3 -10  -1    2.65    0.99   1
   3 -10  -1   -0.23    0.92   2
  -3  10   0    1.15    0.97   3
   3 -10   0    2.20    0.94   1
   3 -10   0    2.81    0.99   2
  -3  10  -1    5.02    1.19   3
   3 -10   1    5.53    1.06   1
   3 -10   1    6.40    1.12   2
  -3  10  -2    3.77    1.07   3
   3 -10   2    4.38    0.97   1
   3 -10   2    2.36    1.03   2
  -3  10  -3    0.32    0.97   3
   3 -10   3    2.83    1.05   2
  -3  10  -4   -0.77    1.01   3
   3 -10   4    1.50    1.08   2
  -3  10  -5   -0.20    1.16   3
   3 -10   5   -0.93    1.07   2
  -3   9   7    0.34    1.18   2
  -3   9   7    1.57    1.29   3
  -3   9   6    0.02    0.97   2
  -3   9   6    1.21    1.10   3
   3  -9  -6   -0.76    1.04   1
  -3   9   5    3.62    1.01   2
  -3   9   5    3.23    0.99   3
   3  -9  -5    5.44    1.14   1
  -3   9   4   13.39    1.49   2
  -3   9   4   12.77    1.50   3
   3  -9  -4   15.60    1.58   1
  -3   9   3    1.03    0.81   2
  -3   9   3    0.37    0.73   3
   3  -9  -3    0.37    0.86   1
  -3   9   2    3.32    0.91   2
  -3   9   2    6.32    1.00   3
   3  -9  -2    5.71    0.92   1
  -3   9   1    0.29    0.81   3
   3  -9  -1    1.36    0.79   1
   3  -9  -1   -0.79    0.71   2
  -3   9   0    3.09    0.95   3
   3  -9   0    4.71    0.89   1
   3  -9   0    2.60    0.81   2
  -3   9  -1   -0.09    0.82   3
  -3   9  -1    0.17    0.40   4
   3  -9   1    0.45    0.67   2
  -3   9  -2    0.07    0.72   3
  -3   9  -2    0.37    0.49   4
   3  -9   2    0.21    0.67   1
   3  -9   2   -0.28    0.79   2
  -3   9  -3    6.24    1.03   3
  -3   9  -3    7.66    0.96   4
   3  -9   3    8.04    0.94   1
   3  -9   3    7.57    1.09   2
  -3   9  -4    1.58    0.86   3
  -3   9  -4    2.32    0.72   4
   3  -9   4    2.16    0.75   1
   3  -9   4    2.53    1.00   2
  -3   9  -5    1.45    1.04   3
  -3   9  -5    1.94    0.79   4
   3  -9   5    1.66    1.01   2
  -3   9  -6    1.25    1.05   3
  -3   9  -6    0.43    0.85   4
   3  -9   6    1.03    1.07   2
  -3   9  -7    4.41    1.29   3
  -3   9  -7    3.53    1.10   4
   3  -9   7    4.73    1.29   2
  -3   8   8    2.35    1.21   2
  -3   8   8    0.23    1.23   3
   3  -8  -8    1.09    1.10   1
  -3   8   7    4.95    1.06   2
  -3   8   7    6.30    1.24   3
   3  -8  -7    4.16    1.16   1
  -3   8   6    7.03    1.01   2
  -3   8   6    9.46    1.29   3
   3  -8  -6    9.96    1.27   1
  -3   8   5    0.61    0.73   2
  -3   8   5    0.28    0.85   3
   3  -8  -5    1.55    0.81   1
  -3   8   4    0.32    0.69   2
  -3   8   4   -0.54    0.68   3
   3  -8  -4    0.50    0.73   1
  -3   8   3    1.85    0.67   2
  -3   8   3    1.99    0.81   3
   3  -8  -3    3.42    0.77   1
  -3   8   2   11.11    1.11   2
  -3   8   2   10.36    1.09   3
   3  -8  -2   11.08    1.18   1
  -3   8   1    9.90    1.21   3
   3  -8  -1    9.40    1.03   2
   3  -8  -1    6.05    0.39   4
   3  -8  -1    6.55    0.43   4
  -3   8   0   -0.57    0.63   3
   3  -8   0   -0.03    0.59   1
   3  -8   0    1.00    0.61   2
   3  -8   0    0.04    0.32   4
  -3   8  -1   -0.60    0.64   3
  -3   8  -1   -0.21    0.34   4
   3  -8   1   -0.09    0.53   1
   3  -8   1   -0.05    0.57   2
   3  -8   1   -0.52    0.38   4
  -3   8  -2    0.37    0.67   3
  -3   8  -2   -0.09    0.40   4
   3  -8   2    0.75    0.57   1
   3  -8   2    0.83    0.50   4
  -3   8  -3    0.47    0.71   1
  -3   8  -3   -0.21    0.60   3
  -3   8  -3    0.14    0.46   4
   3  -8   3    0.30    0.54   1
   3  -8   3    0.56    0.68   2
   3  -8   3    0.02    0.53   4
  -3   8  -4    1.30    0.69   1
  -3   8  -4    0.56    0.71   3
  -3   8  -4    0.21    0.55   4
   3  -8   4    0.77    0.54   1
   3  -8   4    0.98    0.80   2
   3  -8   4    1.29    0.66   4
  -3   8  -5    4.67    0.95   3
  -3   8  -5    4.23    0.76   4
   3  -8   5    4.22    0.66   1
   3  -8   5    4.70    0.95   2
  -3   8  -6    8.24    1.13   3
  -3   8  -6    9.35    1.03   4
   3  -8   6   10.90    1.28   2
  -3   8  -7    1.39    0.93   3
  -3   8  -7    0.86    0.83   4
   3  -8   7    2.64    0.90   2
  -3   8  -8    1.74    1.02   3
  -3   8  -8    2.04    1.01   4
   3  -8   8    3.22    1.12   2
  -3   8  -9   -0.43    1.16   3
  -3   8  -9    0.99    1.16   4
   3  -8   9    2.79    1.30   2
  -3   7   9    0.98    1.28   3
   3  -7  -9    2.26    1.17   1
  -3   7   8    2.05    0.92   2
  -3   7   8    4.13    1.18   3
   3  -7  -8    3.51    1.06   1
  -3   7   7    0.02    0.72   2
  -3   7   7    1.58    0.99   3
   3  -7  -7    0.87    0.89   1
  -3   7   6    4.95    0.80   2
  -3   7   6    6.94    1.09   3
   3  -7  -6    5.09    0.92   1
   3  -7  -6    3.81    0.59   4
  -3   7   5   10.42    1.09   2
  -3   7   5   13.59    1.29   3
   3  -7  -5   14.05    1.29   1
   3  -7  -5    7.21    0.60   4
  -3   7   4    2.00    0.60   2
  -3   7   4    1.67    0.69   2
  -3   7   4    1.72    0.72   3
   3  -7  -4    1.92    0.72   1
   3  -7  -4    1.57    0.29   4
   3  -7  -4    1.48    0.32   4
  -3   7   3   22.94    1.17   2
  -3   7   3   21.21    1.21   2
  -3   7   3   23.62    1.38   3
   3  -7  -3   16.94    0.52   4
   3  -7  -3   15.59    0.54   4
  -3   7   2    3.83    0.66   2
  -3   7   2    3.25    0.75   2
  -3   7   2    2.61    0.68   3
   3  -7  -2    3.52    0.74   1
   3  -7  -2    2.96    0.36   4
   3  -7  -2    2.61    0.32   4
  -3   7   1    0.26    0.65   2
  -3   7   1    0.35    0.59   3
   3  -7  -1    0.70    0.50   1
   3  -7  -1    1.28    0.49   2
   3  -7  -1    0.96    0.28   4
  -3   7   0    7.49    0.88   3
  -3   7   0    7.48    0.53   4
   3  -7   0    8.18    0.88   1
   3  -7   0    9.11    0.87   2
  -3   7  -1   20.18    1.16   1
  -3   7  -1   21.13    1.23   3
  -3   7  -1   18.25    0.72   4
   3  -7   1   20.78    1.09   1
   3  -7   1   20.26    1.10   2
   3  -7   1   14.75    0.74   4
  -3   7  -2    0.86    0.61   1
  -3   7  -2    0.19    0.54   3
  -3   7  -2    0.08    0.32   4
   3  -7   2    0.33    0.45   1
   3  -7   2   -0.17    0.53   2
   3  -7   2    0.01    0.37   4
  -3   7  -3    0.05    0.53   1
  -3   7  -3   -0.28    0.51   3
  -3   7  -3    0.64    0.41   4
   3  -7   3    1.02    0.49   1
   3  -7   3   -0.07    0.55   2
   3  -7   3    0.09    0.47   4
  -3   7  -4    0.46    0.54   1
  -3   7  -4    0.42    0.52   3
  -3   7  -4    0.26    0.48   4
   3  -7   4    0.46    0.44   1
   3  -7   4    0.55    0.61   2
   3  -7   4    0.16    0.55   4
  -3   7  -5   -0.53    0.48   1
  -3   7  -5   -0.20    0.60   3
  -3   7  -5   -0.28    0.51   4
   3  -7   5   -0.59    0.43   1
   3  -7   5   -0.08    0.61   2
  -3   7  -6    2.05    0.54   1
  -3   7  -6    2.06    0.73   3
  -3   7  -6    2.11    0.64   4
   3  -7   6    1.67    0.47   1
   3  -7   6    1.64    0.73   2
  -3   7  -7    4.47    0.93   3
  -3   7  -7    2.07    0.79   4
   3  -7   7    4.91    0.98   2
  -3   7  -8    3.06    0.91   3
  -3   7  -8    1.71    0.84   4
   3  -7   8    1.65    0.87   2
  -3   7  -9    1.06    1.03   3
  -3   7  -9    2.10    1.03   4
   3  -7   9    1.84    0.93   2
  -3   7 -10    2.98    1.14   3
  -3   7 -10    3.77    1.27   4
   3  -7  10    4.02    1.18   2
  -3   6  10    0.02    1.31   3
   3  -6 -10    1.05    1.15   1
  -3   6   9   -0.66    0.85   2
  -3   6   9   -0.14    1.00   3
   3  -6  -9   -1.05    1.06   1
  -3   6   8    3.29    0.81   2
  -3   6   8    8.71    1.25   3
   3  -6  -8    6.87    1.08   1
   3  -6  -8    4.32    0.78   4
  -3   6   7    5.34    0.81   2
  -3   6   7    8.18    1.09   3
   3  -6  -7    7.26    0.99   1
   3  -6  -7    5.10    0.69   4
  -3   6   6   -0.18    0.53   2
  -3   6   6    0.62    0.62   2
  -3   6   6    1.16    0.72   3
   3  -6  -6    0.89    0.63   1
   3  -6  -6    0.30    0.42   4
   3  -6  -6    0.56    0.48   4
  -3   6   5    3.78    0.61   2
  -3   6   5    3.28    0.64   2
  -3   6   5    4.08    0.83   3
   3  -6  -5    3.26    0.74   1
   3  -6  -5    3.17    0.44   4
   3  -6  -5    4.72    0.49   4
  -3   6   4    6.69    0.69   2
  -3   6   4    6.11    0.72   2
  -3   6   4    6.16    0.83   3
   3  -6  -4    7.08    0.85   1
   3  -6  -4    6.39    0.56   4
   3  -6  -4    4.46    0.55   4
  -3   6   3    1.09    0.47   2
  -3   6   3    0.99    0.48   2
  -3   6   3    1.43    0.55   3
   3  -6  -3    1.09    0.53   1
   3  -6  -3    0.62    0.29   4
   3  -6  -3    1.07    0.31   4
  -3   6   2   52.67    1.33   2
  -3   6   2   49.21    1.33   2
  -3   6   2   52.89    1.60   3
   3  -6  -2   50.35    1.53   1
   3  -6  -2   33.85    0.74   4
  -3   6   1    1.64    0.47   2
  -3   6   1    1.92    0.56   3
  -3   6   1    1.39    0.28   4
   3  -6  -1    0.88    0.44   1
   3  -6  -1    0.72    0.42   2
   3  -6  -1    0.68    0.26   4
  -3   6   0    5.02    0.71   1
  -3   6   0    6.35    0.73   2
  -3   6   0    4.93    0.65   3
  -3   6   0    5.60    0.47   4
   3  -6   0    3.81    0.57   1
   3  -6   0    5.96    0.63   2
   3  -6   0    4.03    0.42   4
  -3   6  -1   13.08    0.86   1
  -3   6  -1   13.95    0.88   2
  -3   6  -1   14.45    0.90   3
  -3   6  -1   13.16    0.63   4
   3  -6   1   11.72    0.85   1
   3  -6   1   12.41    0.85   2
   3  -6   1    8.38    0.59   4
  -3   6  -2    3.46    0.58   1
  -3   6  -2    1.39    0.53   2
  -3   6  -2    2.73    0.59   3
  -3   6  -2    1.98    0.37   4
   3  -6   2    1.99    0.49   1
   3  -6   2    2.41    0.58   2
   3  -6   2    0.60    0.38   4
  -3   6  -3   41.17    1.18   1
  -3   6  -3   40.21    1.52   2
  -3   6  -3   41.29    1.39   3
  -3   6  -3   38.81    1.10   4
   3  -6   3   40.56    1.17   1
   3  -6   3   43.16    1.39   2
   3  -6   3   36.87    1.12   4
  -3   6  -4   19.82    0.89   1
  -3   6  -4   20.10    1.12   3
  -3   6  -4   19.57    0.98   4
   3  -6   4   18.68    0.88   1
   3  -6   4   20.63    1.13   2
   3  -6   4   18.57    1.00   4
  -3   6  -5   19.20    0.86   1
  -3   6  -5   21.46    1.16   3
  -3   6  -5   18.88    1.08   4
   3  -6   5   14.48    0.79   1
   3  -6   5   19.83    1.17   2
   3  -6   5   17.79    1.13   4
  -3   6  -6    0.16    0.41   1
  -3   6  -6    0.00    0.56   3
  -3   6  -6   -0.56    0.48   4
   3  -6   6   -0.04    0.35   1
  -3   6  -7    1.01    0.69   3
  -3   6  -7    0.44    0.59   4
   3  -6   7    0.30    0.37   1
   3  -6   7    1.21    0.41   1
   3  -6   7   -0.03    0.56   2
  -3   6  -8   -0.41    0.64   4
   3  -6   8    0.25    0.66   2
  -3   6  -9    3.04    0.87   3
  -3   6  -9    1.78    0.88   4
   3  -6   9    1.52    0.80   2
  -3   6 -10    3.12    1.02   3
  -3   6 -10    0.67    0.99   4
   3  -6  10   -0.08    0.82   2
  -3   6 -11   -0.26    1.13   3
  -3   6 -11    3.41    1.30   4
   3  -6  11    2.29    1.15   2
  -3   5  10    4.44    1.35   3
   3  -5 -10    3.53    1.11   1
   3  -5 -10    2.82    1.07   4
  -3   5   9    0.65    0.78   2
  -3   5   9    1.76    1.05   3
   3  -5  -9    0.07    0.89   1
   3  -5  -9    0.38    0.83   4
  -3   5   8   -0.41    0.62   2
  -3   5   8    1.55    0.86   3
   3  -5  -8    2.78    0.85   1
   3  -5  -8    1.03    0.65   4
  -3   5   7    2.88    0.62   2
  -3   5   7    4.51    0.70   2
  -3   5   7    4.54    0.89   3
   3  -5  -7    4.74    0.80   1
   3  -5  -7    4.10    0.63   4
   3  -5  -7    4.75    0.71   4
  -3   5   6    0.93    0.48   2
  -3   5   6    0.77    0.48   2
   3  -5  -6    0.17    0.42   4
   3  -5  -6    0.53    0.48   4
  -3   5   5   25.54    1.00   2
  -3   5   5   17.83    0.89   2
  -3   5   5   24.41    1.22   3
   3  -5  -5   24.89    1.27   1
   3  -5  -5   18.39    0.83   4
   3  -5  -5   17.92    0.83   4
  -3   5   4    4.09    0.51   2
  -3   5   4    3.56    0.51   2
  -3   5   4    3.76    0.65   3
   3  -5  -4    2.93    0.58   1
   3  -5  -4    3.92    0.45   4
   3  -5  -4    2.84    0.40   4
  -3   5   3    0.61    0.33   2
  -3   5   3    0.82    0.38   2
  -3   5   3    0.90    0.47   3
   3  -5  -3    0.98    0.46   1
   3  -5  -3    0.91    0.31   4
   3  -5  -3    0.46    0.28   4
  -3   5   2    7.59    0.77   1
  -3   5   2    7.53    0.61   2
  -3   5   2    7.49    0.62   2
  -3   5   2    6.58    0.73   3
   3  -5  -2    6.27    0.73   1
   3  -5  -2    6.49    0.78   3
   3  -5  -2    7.83    0.48   4
  -3   5   1    4.08    0.57   1
  -3   5   1    5.06    0.58   2
  -3   5   1    3.03    0.51   3
  -3   5   1    3.51    0.40   4
   3  -5  -1    4.45    0.60   1
   3  -5  -1    3.49    0.43   2
   3  -5  -1    2.59    0.49   3
   3  -5  -1    4.02    0.47   4
  -3   5   0   31.46    1.08   1
  -3   5   0   32.11    0.96   2
  -3   5   0   31.80    1.14   3
  -3   5   0   31.16    0.77   4
   3  -5   0   30.92    1.06   1
   3  -5   0   32.21    0.98   2
   3  -5   0   32.90    1.10   3
   3  -5   0   29.70    0.80   4
  -3   5  -1  114.46    1.80   1
  -3   5  -1  119.44    1.77   2
  -3   5  -1  111.90    1.89   3
  -3   5  -1  111.60    1.42   4
   3  -5   1  110.93    1.80   1
   3  -5   1  113.56    1.75   2
   3  -5   1  116.81    1.91   3
   3  -5   1  114.65    1.43   4
  -3   5  -2    4.28    0.51   1
  -3   5  -2    4.63    0.53   2
  -3   5  -2    5.28    0.66   3
  -3   5  -2    4.09    0.43   4
   3  -5   2    4.85    0.58   1
   3  -5   2    4.53    0.54   2
   3  -5   2    4.79    0.58   3
   3  -5   2    4.73    0.54   4
  -3   5  -3    1.51    0.39   1
  -3   5  -3    1.03    0.37   2
  -3   5  -3    0.68    0.38   3
  -3   5  -3    1.60    0.38   4
   3  -5   3    1.65    0.37   1
   3  -5   3    1.10    0.40   2
   3  -5   3    1.38    0.41   3
   3  -5   3    2.04    0.41   4
  -3   5  -4    5.44    0.57   1
  -3   5  -4    6.46    0.68   2
  -3   5  -4    5.05    0.62   3
  -3   5  -4    5.68    0.66   4
   3  -5   4    5.63    0.59   1
   3  -5   4    4.62    0.59   2
   3  -5   4    6.13    0.76   3
   3  -5   4    5.55    0.68   4
  -3   5  -5    5.41    0.57   1
  -3   5  -5    5.99    0.75   3
  -3   5  -5    5.87    0.64   4
   3  -5   5    5.28    0.58   1
   3  -5   5    5.42    0.68   2
   3  -5   5    4.54    0.60   3
   3  -5   5    4.84    0.61   4
  -3   5  -6   39.53    0.94   1
  -3   5  -6   39.52    1.31   3
  -3   5  -6   37.85    1.29   3
  -3   5  -6   38.57    1.38   4
   3  -5   6   29.67    0.85   1
   3  -5   6   40.17    1.45   2
  -3   5  -7    6.50    0.76   3
  -3   5  -7    5.93    0.79   4
   3  -5   7    6.31    0.57   1
   3  -5   7    6.88    0.89   2
  -3   5  -8    0.80    0.62   3
   3  -5   8    0.99    0.37   1
   3  -5   8    0.61    0.33   1
   3  -5   8    1.32    0.61   2
  -3   5  -9    6.23    0.91   3
  -3   5  -9    6.12    0.95   4
   3  -5   9    6.64    0.92   2
  -3   5 -10    0.80    0.79   4
   3  -5  10    1.63    0.81   2
  -3   5 -11    0.38    0.91   3
  -3   5 -11    1.23    1.01   4
   3  -5  11    1.47    0.96   2
  -3   5 -12    1.65    1.10   3
  -3   5 -12    3.17    1.23   4
   3  -5  12    3.52    1.22   2
  -3   4  11    2.27    1.34   3
   3  -4 -11   -0.12    1.15   1
   3  -4 -11   -1.34    1.18   4
  -3   4  10    2.50    0.87   2
  -3   4  10    2.21    1.05   3
   3  -4 -10    3.20    0.96   1
   3  -4 -10    2.51    1.08   4
  -3   4   9    3.43    0.78   2
  -3   4   9    5.39    1.10   3
   3  -4  -9    3.94    0.89   1
   3  -4  -9    4.88    0.92   4
  -3   4   8    5.71    0.73   2
  -3   4   8    7.72    0.85   2
  -3   4   8    8.29    1.07   3
   3  -4  -8    6.71    0.93   1
   3  -4  -8    7.59    0.85   4
  -3   4   7    6.24    0.67   2
  -3   4   7    7.13    0.74   2
   3  -4  -7   11.72    1.13   1
   3  -4  -7    9.50    0.94   4
   3  -4  -7    8.89    1.09   4
  -3   4   6    0.54    0.43   2
  -3   4   6    2.39    0.47   2
  -3   4   6    1.51    0.57   3
   3  -4  -6    1.37    0.59   1
   3  -4  -6    1.60    0.46   4
   3  -4  -6    1.37    0.52   4
  -3   4   5    0.34    0.34   2
  -3   4   5    0.25    0.33   2
  -3   4   5    0.58    0.48   3
   3  -4  -5   -0.43    0.41   1
   3  -4  -5    0.24    0.33   4
   3  -4  -5    0.50    0.39   4
  -3   4   4    2.14    0.45   1
  -3   4   4    3.09    0.40   2
  -3   4   4    2.60    0.38   2
  -3   4   4    2.82    0.56   3
   3  -4  -4    2.43    0.47   1
   3  -4  -4    1.94    0.48   3
   3  -4  -4    2.69    0.41   4
   3  -4  -4    2.62    0.40   4
  -3   4   3   34.07    1.11   1
  -3   4   3   33.48    0.84   2
  -3   4   3   34.39    0.85   2
  -3   4   3   31.66    1.12   3
   3  -4  -3   33.72    1.17   1
   3  -4  -3   33.30    1.17   3
   3  -4  -3   33.93    0.86   4
   3  -4  -3   33.89    0.85   4
  -3   4   2   21.89    0.93   1
  -3   4   2   22.45    0.70   2
  -3   4   2   23.22    0.70   2
  -3   4   2   21.87    0.94   3
   3  -4  -2   21.21    0.91   1
   3  -4  -2   20.72    0.84   3
   3  -4  -2   20.55    0.66   4
   3  -4  -2   21.72    0.68   4
  -3   4   1    0.15    0.31   1
  -3   4   1    0.13    0.24   2
  -3   4   1    0.07    0.32   3
  -3   4   1    0.01    0.19   4
   3  -4  -1   -0.29    0.31   1
   3  -4  -1    0.11    0.23   2
   3  -4  -1    0.02    0.27   3
  -3   4   0    5.91    0.53   1
  -3   4   0    5.98    0.48   2
  -3   4   0    5.70    0.57   3
  -3   4   0    5.41    0.41   4
   3  -4   0    5.30    0.57   1
   3  -4   0    5.17    0.45   2
   3  -4   0    5.23    0.50   3
  -3   4  -1   45.81    1.09   1
  -3   4  -1   46.04    1.00   2
  -3   4  -1   45.33    1.16   3
  -3   4  -1   43.75    0.90   4
   3  -4   1   44.33    1.10   1
   3  -4   1   45.01    1.01   2
   3  -4   1   46.01    1.11   3
   3  -4   1   46.06    0.92   4
  -3   4  -2    0.26    0.26   1
  -3   4  -2    0.35    0.27   2
  -3   4  -2    0.16    0.26   3
  -3   4  -2   -0.12    0.23   4
   3  -4   2    0.08    0.28   1
   3  -4   2    0.18    0.29   2
   3  -4   2   -0.21    0.29   3
   3  -4   2    0.00    0.24   4
  -3   4  -3   40.06    0.95   1
  -3   4  -3   36.55    1.02   2
  -3   4  -3   37.52    0.97   4
   3  -4   3   36.71    0.95   1
   3  -4   3   36.86    1.05   2
   3  -4   3   38.80    1.04   3
   3  -4   3   37.57    0.97   4
  -3   4  -4   28.01    0.80   1
  -3   4  -4   27.09    0.95   2
  -3   4  -4   26.32    0.93   3
  -3   4  -4   26.35    0.94   4
   3  -4   4   27.29    0.82   1
   3  -4   4   28.11    0.99   2
   3  -4   4   27.47    0.93   3
   3  -4   4   29.29    0.95   4
  -3   4  -5   15.19    0.65   1
  -3   4  -5   13.69    0.79   2
  -3   4  -5   15.29    0.78   3
  -3   4  -5   13.93    0.84   4
   3  -4   5   14.56    0.65   1
   3  -4   5   15.47    0.88   2
   3  -4   5   16.56    0.82   3
   3  -4   5   13.16    0.79   4
  -3   4  -6    0.75    0.30   1
  -3   4  -6    0.68    0.41   3
  -3   4  -6    0.27    0.37   3
  -3   4  -6    0.15    0.37   4
   3  -4   6   -0.11    0.29   1
   3  -4   6   -0.39    0.38   2
   3  -4   6    0.63    0.45   4
  -3   4  -7    1.58    0.51   3
  -3   4  -7    3.02    0.54   3
  -3   4  -7    1.46    0.55   4
   3  -4   7    0.93    0.32   1
   3  -4   7    0.76    0.49   2
  -3   4  -8    3.20    0.60   3
  -3   4  -8    2.94    0.65   3
  -3   4  -8    3.01    0.71   4
   3  -4   8    2.61    0.39   1
   3  -4   8    1.83    0.36   1
   3  -4   8    2.81    0.68   2
  -3   4  -9   13.70    1.06   3
  -3   4  -9   11.87    1.11   4
   3  -4   9    9.77    0.58   1
   3  -4   9    8.53    0.59   1
   3  -4   9   13.33    1.21   2
  -3   4 -10    0.83    0.68   3
  -3   4 -10    1.64    0.78   4
   3  -4  10    0.47    0.72   2
  -3   4 -11    1.12    0.80   3
  -3   4 -11    0.16    0.90   4
   3  -4  11   -0.54    0.83   2
  -3   4 -12    8.99    1.14   3
  -3   4 -12   10.21    1.50   4
   3  -4  12   10.58    1.44   2
  -3   3  11   -1.31    1.22   3
   3  -3 -11    2.23    1.03   1
   3  -3 -11   -0.04    1.14   4
  -3   3  10    2.05    0.80   2
  -3   3  10    4.66    1.12   3
   3  -3 -10    4.61    0.93   1
   3  -3 -10    1.52    1.00   4
  -3   3   9    0.74    0.60   2
  -3   3   9   -0.32    0.79   3
   3  -3  -9    0.03    0.69   1
  -3   3   8    8.28    0.90   2
  -3   3   8   13.62    1.21   3
   3  -3  -8   13.34    1.15   1
   3  -3  -8   11.77    0.99   2
   3  -3  -8   13.98    1.18   4
  -3   3   7   18.02    0.92   2
  -3   3   7   25.89    1.37   3
   3  -3  -7   25.58    1.26   1
   3  -3  -7   26.94    0.99   2
   3  -3  -7   25.07    1.20   4
  -3   3   6   28.00    0.92   2
  -3   3   6   29.82    1.23   3
   3  -3  -6   31.55    1.27   1
   3  -3  -6   31.81    0.94   2
   3  -3  -6   28.84    1.12   4
   3  -3  -6   30.23    1.16   4
  -3   3   5   14.31    0.99   1
  -3   3   5   13.39    0.66   2
  -3   3   5   10.82    0.59   2
  -3   3   5   14.18    0.89   3
   3  -3  -5   14.45    0.89   1
   3  -3  -5   13.23    0.77   4
   3  -3  -5   14.05    0.85   4
  -3   3   4   11.95    0.82   1
  -3   3   4   12.80    0.57   2
  -3   3   4   13.46    0.88   3
   3  -3  -4   11.88    0.77   1
   3  -3  -4   12.09    0.77   3
   3  -3  -4   12.41    0.68   4
   3  -3  -4   14.39    0.73   4
  -3   3   3    1.63    0.36   1
  -3   3   3    1.97    0.25   2
  -3   3   3    1.97    0.44   3
   3  -3  -3    1.73    0.43   1
   3  -3  -3    1.54    0.39   3
   3  -3  -3    1.63    0.32   4
   3  -3  -3    2.11    0.33   4
  -3   3   2   -0.07    0.29   1
  -3   3   2    0.28    0.16   2
  -3   3   2   -0.09    0.17   2
  -3   3   2    0.08    0.28   3
   3  -3  -2   -0.07    0.29   1
   3  -3  -2   -0.58    0.28   3
   3  -3  -2   -0.13    0.21   4
   3  -3  -2    0.04    0.19   4
  -3   3   1    0.18    0.28   1
  -3   3   1    0.16    0.17   2
  -3   3   1   -0.08    0.23   3
  -3   3   1    0.02    0.20   4
   3  -3  -1   -0.19    0.29   1
   3  -3  -1    0.04    0.16   2
   3  -3  -1   -0.27    0.27   3
  -3   3   0   79.20    1.34   1
  -3   3   0   74.23    1.01   2
  -3   3   0   75.33    1.34   3
  -3   3   0   71.74    1.07   4
   3  -3   0   73.58    1.34   1
   3  -3   0   75.20    1.29   3
  -3   3  -1  126.69    1.61   1
  -3   3  -1  120.26    1.61   3
  -3   3  -1  122.51    1.40   4
   3  -3   1  119.73    1.61   1
   3  -3   1  120.32    1.38   2
   3  -3   1  124.49    1.59   3
   3  -3   1  127.00    1.43   4
  -3   3  -2    4.33    0.43   1
  -3   3  -2    4.41    0.42   2
  -3   3  -2    5.90    0.51   3
  -3   3  -2    4.46    0.42   4
   3  -3   2    4.61    0.48   1
   3  -3   2    3.96    0.43   2
   3  -3   2    5.42    0.46   3
   3  -3   2    4.95    0.42   4
  -3   3  -3   30.63    0.78   1
  -3   3  -3   29.65    0.84   2
  -3   3  -3   28.44    0.82   3
  -3   3  -3   28.83    0.83   4
   3  -3   3   28.81    0.80   1
   3  -3   3   28.40    0.85   2
   3  -3   3   29.61    0.81   3
   3  -3   3   28.61    0.82   4
  -3   3  -4   32.45    0.80   1
  -3   3  -4   32.07    0.94   2
  -3   3  -4   31.40    0.85   3
  -3   3  -4   31.58    0.94   4
   3  -3   4   31.11    0.80   1
   3  -3   4   29.93    0.95   2
   3  -3   4   31.79    0.84   3
   3  -3   4   32.99    0.94   4
  -3   3  -5   50.94    0.95   1
  -3   3  -5   47.08    1.16   2
  -3   3  -5   49.26    1.08   3
  -3   3  -5   48.36    1.23   4
   3  -3   5   50.12    0.96   1
   3  -3   5   46.14    1.20   2
   3  -3   5   50.87    1.08   3
   3  -3   5   50.86    1.23   4
  -3   3  -6   20.22    0.90   2
  -3   3  -6   18.95    0.79   3
  -3   3  -6   20.32    0.80   3
  -3   3  -6   18.11    0.93   4
   3  -3   6   19.77    0.66   1
   3  -3   6   20.18    0.67   1
   3  -3   6   19.21    0.95   2
  -3   3  -7    2.89    0.46   3
  -3   3  -7    2.79    0.48   3
  -3   3  -7    3.17    0.58   4
   3  -3   7    2.57    0.36   1
   3  -3   7    2.30    0.34   1
   3  -3   7    2.29    0.56   2
   3  -3   7    1.35    0.45   4
  -3   3  -8    0.49    0.41   3
  -3   3  -8   -0.12    0.41   3
  -3   3  -8   -0.11    0.50   4
   3  -3   8   -0.02    0.29   1
   3  -3   8    0.16    0.31   1
   3  -3   8   -0.52    0.45   2
  -3   3  -9    0.07    0.45   3
  -3   3  -9    0.82    0.51   3
   3  -3   9    0.25    0.33   1
   3  -3   9   -0.31    0.36   1
  -3   3 -10    2.84    0.63   3
  -3   3 -10    2.95    0.71   3
  -3   3 -10    4.22    0.85   4
   3  -3  10    2.07    0.40   1
   3  -3  10    2.25    0.66   2
  -3   3 -11    5.99    0.82   3
  -3   3 -11    7.39    1.03   4
   3  -3  11    7.30    1.03   2
  -3   3 -12    0.73    0.76   3
  -3   3 -12    0.17    0.89   4
   3  -3  12    1.49    0.93   2
  -3   3 -13    5.42    1.40   4
   3  -3  13    5.97    1.24   2
  -3   2  11   -0.86    1.13   3
   3  -2 -11    1.47    1.02   1
   3  -2 -11   -0.10    1.16   4
  -3   2  10    1.34    0.76   2
  -3   2  10    1.55    0.92   3
   3  -2 -10    2.25    0.81   1
   3  -2 -10    1.68    0.95   4
  -3   2   9    1.41    0.62   2
  -3   2   9    0.25    0.82   3
   3  -2  -9    0.76    0.64   1
   3  -2  -9   -0.35    0.64   2
   3  -2  -9    0.37    0.70   4
  -3   2   8    0.68    0.49   2
  -3   2   8   -0.09    0.66   3
   3  -2  -8    1.40    0.61   1
   3  -2  -8   -0.20    0.49   2
   3  -2  -8    0.40    0.63   4
  -3   2   7    3.94    0.52   2
  -3   2   7    5.20    0.81   3
   3  -2  -7    5.30    0.67   1
   3  -2  -7    5.43    0.56   2
   3  -2  -7    4.71    0.66   4
  -3   2   6    1.14    0.61   1
  -3   2   6    0.89    0.37   2
  -3   2   6    1.25    0.51   3
  -3   2   6    1.31    0.49   4
   3  -2  -6    0.37    0.48   1
   3  -2  -6    1.22    0.33   2
   3  -2  -6    1.08    0.46   4
  -3   2   5   33.20    1.17   1
  -3   2   5   32.81    0.80   2
  -3   2   5   35.21    1.24   3
  -3   2   5   35.50    1.08   4
   3  -2  -5   31.68    1.10   1
   3  -2  -5   34.75    1.16   3
   3  -2  -5   33.47    1.07   4
  -3   2   4   24.07    0.96   1
  -3   2   4   23.71    0.61   2
  -3   2   4   23.27    0.97   3
   3  -2  -4   21.85    0.90   1
   3  -2  -4   24.24    0.59   2
   3  -2  -4   23.20    0.87   3
   3  -2  -4   22.22    0.86   4
   3  -2  -4   25.04    0.89   4
  -3   2   3  166.83    2.03   1
  -3   2   3  169.27    1.25   2
  -3   2   3  171.28    1.26   2
  -3   2   3  160.32    2.09   3
   3  -2  -3  162.93    2.06   1
   3  -2  -3  167.91    2.10   3
   3  -2  -3  165.82    1.87   4
   3  -2  -3  172.67    1.88   4
  -3   2   2    0.26    0.24   1
  -3   2   2    0.73    0.14   2
  -3   2   2    0.63    0.14   2
  -3   2   2    0.98    0.32   3
   3  -2  -2    0.44    0.31   1
   3  -2  -2    0.34    0.25   3
   3  -2  -2    0.25    0.21   4
   3  -2  -2    0.53    0.24   4
  -3   2   1   -0.16    0.24   1
  -3   2   1    0.21    0.11   2
  -3   2   1    0.21    0.12   2
  -3   2   1    0.39    0.26   3
  -3   2   1    0.44    0.21   4
   3  -2  -1    0.18    0.24   1
   3  -2  -1    0.48    0.21   3
   3  -2  -1    0.50    0.19   4
  -3   2   0   52.64    1.04   1
  -3   2   0   51.87    0.68   2
  -3   2   0   49.83    1.00   3
  -3   2   0   46.76    0.87   4
   3  -2   0   49.47    1.04   1
   3  -2   0   50.46    0.67   2
   3  -2   0   53.26    0.99   3
  -3   2  -1   10.62    0.50   1
  -3   2  -1   10.51    0.40   2
  -3   2  -1    9.87    0.50   3
  -3   2  -1   10.28    0.46   4
   3  -2   1   10.98    0.53   1
   3  -2   1   10.38    0.39   2
   3  -2   1   11.01    0.47   3
  -3   2  -2    8.82    0.45   1
  -3   2  -2    8.59    0.42   2
  -3   2  -2    8.38    0.47   3
  -3   2  -2    7.84    0.45   4
   3  -2   2    9.19    0.51   1
   3  -2   2    8.21    0.43   2
   3  -2   2    8.72    0.44   4
  -3   2  -3    1.78    0.28   1
  -3   2  -3    1.31    0.24   2
  -3   2  -3    1.33    0.26   3
  -3   2  -3    1.07    0.27   4
   3  -2   3    1.72    0.29   1
   3  -2   3    1.33    0.28   2
   3  -2   3    1.44    0.22   3
   3  -2   3    1.46    0.27   4
  -3   2  -4    0.59    0.23   1
  -3   2  -4    0.83    0.28   2
  -3   2  -4    0.75    0.23   3
  -3   2  -4    0.18    0.25   4
   3  -2   4    0.87    0.25   1
   3  -2   4    0.79    0.32   2
   3  -2   4    0.64    0.21   3
   3  -2   4    0.72    0.25   4
  -3   2  -5    0.19    0.25   2
  -3   2  -5    0.05    0.20   3
  -3   2  -5   -0.26    0.26   4
   3  -2   5    0.24    0.22   1
   3  -2   5    0.00    0.21   1
   3  -2   5   -0.02    0.31   2
   3  -2   5   -0.06    0.22   4
  -3   2  -6   54.78    1.29   2
  -3   2  -6   57.75    1.04   3
  -3   2  -6   61.45    1.06   3
  -3   2  -6   54.80    1.36   4
   3  -2   6   58.21    1.02   1
   3  -2   6   60.10    1.03   1
   3  -2   6   54.94    1.34   2
   3  -2   6   56.39    1.31   4
  -3   2  -7    1.49    0.43   2
  -3   2  -7    2.01    0.36   3
  -3   2  -7    1.83    0.34   3
  -3   2  -7    1.46    0.42   4
   3  -2   7    2.10    0.34   1
   3  -2   7    1.93    0.33   1
   3  -2   7    1.80    0.49   2
   3  -2   7    1.48    0.38   4
  -3   2  -8   49.46    1.13   3
  -3   2  -8   35.53    0.97   3
  -3   2  -8   46.10    1.44   4
   3  -2   8   50.36    1.02   1
   3  -2   8   35.85    0.92   1
   3  -2   8   48.43    1.50   2
  -3   2  -9    4.30    0.52   3
  -3   2  -9    3.89    0.53   3
  -3   2  -9    4.04    0.75   4
   3  -2   9    4.03    0.45   1
   3  -2   9    3.63    0.49   1
   3  -2   9    3.96    0.68   2
  -3   2 -10    0.64    0.49   3
  -3   2 -10    1.32    0.54   3
  -3   2 -10    1.43    0.70   4
   3  -2  10    0.76    0.38   1
   3  -2  10    2.21    0.51   1
   3  -2  10    1.28    0.65   2
  -3   2 -11   -0.40    0.55   3
  -3   2 -11    0.85    0.70   3
  -3   2 -11   -0.33    0.63   4
   3  -2  11    0.22    0.44   1
   3  -2  11    1.01    0.67   2
  -3   2 -12    1.24    0.73   3
  -3   2 -12    2.29    0.84   4
   3  -2  12    2.46    0.90   2
  -3   2 -13    1.23    1.08   4
   3  -2  13    0.04    0.91   2
  -3   1  11    1.88    0.90   2
  -3   1  11    1.96    1.22   3
   3  -1 -11    1.49    0.97   1
   3  -1 -11    0.68    1.07   4
  -3   1  10    4.00    0.82   2
  -3   1  10    4.99    1.03   3
   3  -1 -10    5.75    0.90   1
   3  -1 -10    4.02    1.11   4
  -3   1   9   -0.09    0.57   2
  -3   1   9    0.22    0.80   3
   3  -1  -9    0.13    0.61   1
   3  -1  -9   -0.47    0.61   2
   3  -1  -9    0.11    0.69   4
  -3   1   8   17.75    1.26   1
  -3   1   8   12.99    0.93   2
   3  -1  -8   19.17    1.10   1
   3  -1  -8   18.62    1.01   2
   3  -1  -8   17.04    1.24   4
  -3   1   7    4.25    0.70   1
  -3   1   7    3.96    0.53   2
  -3   1   7    4.93    0.77   3
   3  -1  -7    4.93    0.63   1
   3  -1  -7    5.19    0.55   2
   3  -1  -7    3.78    0.64   4
  -3   1   6    1.51    0.48   1
  -3   1   6    0.85    0.34   2
  -3   1   6    0.32    0.45   3
  -3   1   6    1.25    0.50   4
   3  -1  -6    1.05    0.41   1
   3  -1  -6    0.57    0.29   2
   3  -1  -6    0.33    0.39   4
  -3   1   5   10.71    0.76   1
  -3   1   5   10.08    0.53   2
  -3   1   5   10.02    0.75   3
  -3   1   5   10.14    0.74   4
   3  -1  -5    9.39    0.67   1
   3  -1  -5    9.01    0.68   3
   3  -1  -5    9.25    0.71   4
  -3   1   4   19.55    0.80   1
  -3   1   4   18.72    0.52   2
  -3   1   4   18.47    0.85   3
  -3   1   4   20.38    0.82   4
   3  -1  -4   18.54    0.80   1
   3  -1  -4   19.19    0.51   2
   3  -1  -4   19.34    0.84   3
   3  -1  -4   18.99    0.82   4
  -3   1   3   11.98    0.63   1
  -3   1   3    9.17    0.31   2
  -3   1   3    9.00    0.60   3
   3  -1  -3    9.89    0.61   1
   3  -1  -3   10.69    0.32   2
   3  -1  -3    9.49    0.58   3
   3  -1  -3    9.08    0.58   4
   3  -1  -3    9.94    0.58   4
  -3   1   2   25.26    0.74   1
  -3   1   2   23.83    0.31   2
  -3   1   2   24.82    0.31   2
  -3   1   2   22.72    0.77   3
   3  -1  -2   23.59    0.77   1
   3  -1  -2   26.24    0.80   3
   3  -1  -2   23.01    0.72   4
   3  -1  -2   25.21    0.73   4
  -3   1   1   -0.31    0.16   1
  -3   1   1    0.44    0.23   3
  -3   1   1    0.36    0.21   4
   3  -1  -1    0.36    0.25   1
   3  -1  -1    0.02    0.21   3
   3  -1  -1    0.18    0.16   4
  -3   1   0  229.22    1.95   1
  -3   1   0  220.78    0.93   2
  -3   1   0  219.70    1.83   3
  -3   1   0  220.29    1.82   4
   3  -1   0  225.51    1.96   1
   3  -1   0  229.13    0.94   2
  -3   1  -1    0.33    0.19   1
  -3   1  -1    0.52    0.13   2
  -3   1  -1    0.21    0.16   4
   3  -1   1    0.66    0.23   1
   3  -1   1    0.41    0.12   2
   3  -1   1    0.59    0.17   3
  -3   1  -2   71.89    0.91   2
  -3   1  -2   73.89    0.90   3
  -3   1  -2   73.04    1.09   4
   3  -1   2   74.04    1.09   1
   3  -1   2   73.31    0.92   2
   3  -1   2   74.11    0.89   3
   3  -1   2   69.41    1.08   4
  -3   1  -3   22.97    0.51   3
  -3   1  -3   22.79    0.69   4
   3  -1   3   24.14    0.66   1
   3  -1   3   23.19    0.65   2
   3  -1   3   24.80    0.51   3
   3  -1   3   24.47    0.68   4
  -3   1  -4   20.88    0.63   1
  -3   1  -4   20.39    0.65   2
  -3   1  -4   21.66    0.48   3
  -3   1  -4   19.41    0.70   4
   3  -1   4   20.77    0.63   1
   3  -1   4   20.18    0.70   2
   3  -1   4   21.36    0.48   3
   3  -1   4   21.79    0.71   4
  -3   1  -5    2.14    0.32   2
  -3   1  -5    2.29    0.24   3
  -3   1  -5    2.27    0.28   3
  -3   1  -5    2.15    0.39   4
   3  -1   5    3.03    0.36   1
   3  -1   5    2.36    0.31   1
   3  -1   5    1.74    0.35   2
   3  -1   5    2.43    0.32   4
  -3   1  -6   10.89    0.65   2
  -3   1  -6   11.01    0.46   3
  -3   1  -6   11.67    0.44   3
  -3   1  -6   10.54    0.68   4
   3  -1   6   11.49    0.55   1
   3  -1   6   11.48    0.55   1
   3  -1   6   10.04    0.68   2
   3  -1   6   10.48    0.66   4
  -3   1  -7   23.08    0.95   2
  -3   1  -7   23.92    0.67   3
   3  -1   7   24.74    0.77   1
   3  -1   7   24.06    0.76   1
   3  -1   7   22.02    0.98   2
   3  -1   7   22.40    0.90   4
  -3   1  -8   -0.48    0.38   2
  -3   1  -8    0.12    0.28   3
  -3   1  -8    0.38    0.28   3
  -3   1  -8    0.19    0.45   4
   3  -1   8    0.55    0.32   1
   3  -1   8    0.06    0.36   1
   3  -1   8   -0.01    0.39   2
   3  -1   8   -0.09    0.39   4
  -3   1  -9   50.39    1.13   3
  -3   1  -9   35.83    0.99   3
  -3   1  -9   50.38    1.61   4
   3  -1   9   51.20    1.17   1
   3  -1   9   37.38    1.07   1
   3  -1   9   49.97    1.60   2
  -3   1 -10    5.33    0.59   3
  -3   1 -10    5.58    0.62   3
   3  -1  10    5.99    0.59   1
   3  -1  10    5.50    0.66   1
  -3   1 -11   19.03    1.05   3
  -3   1 -11   17.14    1.08   3
  -3   1 -11   26.99    1.56   4
   3  -1  11   19.03    0.97   1
   3  -1  11   16.27    1.14   1
   3  -1  11   23.10    1.49   2
  -3   1 -12   -0.15    0.64   3
  -3   1 -12    0.47    0.81   4
   3  -1  12   -0.15    0.57   1
   3  -1  12   -0.38    0.69   2
  -3   1 -13    0.13    0.83   3
  -3   1 -13    2.06    1.10   4
   3  -1  13   -0.38    0.90   2
  -3   1 -14    2.52    1.33   4
   3  -1  14    2.39    1.19   2
  -3   0  11    4.56    1.28   3
   3   0 -11    2.99    1.24   4
  -3   0  10    1.17    0.70   2
  -3   0  10   -0.02    0.87   3
   3   0 -10    0.73    0.67   1
   3   0 -10    0.53    0.90   4
  -3   0   9    1.52    0.60   2
  -3   0   9    3.44    0.80   3
   3   0  -9    4.24    0.68   1
   3   0  -9    3.19    0.76   2
   3   0  -9    3.55    0.84   4
  -3   0   8    9.31    1.04   1
  -3   0   8    5.77    0.67   2
   3   0  -8    8.32    0.85   1
   3   0  -8   10.28    0.93   2
  -3   0   7    0.28    0.49   1
  -3   0   7   -0.13    0.39   2
  -3   0   7    0.19    0.57   3
   3   0  -7    0.07    0.38   1
   3   0  -7    0.35    0.41   2
   3   0  -7    0.44    0.50   4
  -3   0   6   30.52    1.03   1
  -3   0   6   28.28    0.87   2
  -3   0   6   29.86    1.23   3
  -3   0   6   26.22    1.12   4
   3   0  -6   27.77    0.95   1
   3   0  -6   28.61    0.86   2
   3   0  -6   26.47    1.15   4
  -3   0   5   30.70    0.95   1
  -3   0   5   27.76    0.75   2
  -3   0   5   28.16    1.07   3
  -3   0   5   28.39    0.99   4
   3   0  -5   28.53    0.91   1
   3   0  -5   28.89    0.75   2
   3   0  -5   27.49    1.02   3
   3   0  -5   27.43    1.04   4
  -3   0   4    2.03    0.38   1
  -3   0   4    1.58    0.23   2
  -3   0   4    1.74    0.38   3
  -3   0   4    1.82    0.34   4
   3   0  -4    1.55    0.34   1
   3   0  -4    1.56    0.22   2
   3   0  -4    1.35    0.35   3
   3   0  -4    1.33    0.40   4
  -3   0   3    9.87    0.55   1
  -3   0   3    9.46    0.34   2
  -3   0   3    9.20    0.61   3
  -3   0   3   10.26    0.57   4
   3   0  -3    9.59    0.55   1
   3   0  -3   10.09    0.34   2
   3   0  -3    9.47    0.58   3
   3   0  -3    9.11    0.56   4
  -3   0   2   68.96    1.11   1
  -3   0   2   70.06    0.56   2
  -3   0   2   63.91    1.18   3
   3   0  -2   67.13    1.12   1
   3   0  -2   68.93    0.55   2
   3   0  -2   69.79    1.20   3
   3   0  -2   68.47    1.20   4
   3   0  -2   68.76    1.18   4
  -3   0   1   34.39    0.76   1
  -3   0   1   33.30    0.80   3
   3   0  -1   33.11    0.78   1
   3   0  -1   33.88    0.78   3
   3   0  -1   31.86    0.78   4
   3   0  -1   32.75    0.77   4
  -3   0   0    2.36    0.28   3
  -3   0   0    1.94    0.27   4
   3   0   0    2.14    0.28   1
   3   0   0    2.35    0.11   2
   3   0   0    2.34    0.09   2
   3   0   0    2.11    0.25   3
  -3   0  -1   18.21    0.56   1
  -3   0  -1   18.80    0.36   2
  -3   0  -1   18.52    0.47   3
   3   0   1   20.59    0.61   1
   3   0   1   17.89    0.36   2
   3   0   1   18.59    0.46   3
   3   0   1   18.10    0.55   4
  -3   0  -2  408.10    2.50   1
  -3   0  -2  419.73    2.01   2
  -3   0  -2  402.98    1.72   3
  -3   0  -2  418.64    2.49   4
   3   0   2  403.27    2.43   1
   3   0   2  401.14    1.98   2
   3   0   2  423.00    1.75   3
  -3   0  -3  121.14    1.28   2
  -3   0  -3  121.88    0.77   3
   3   0   3  122.31    1.37   1
   3   0   3  116.42    1.30   2
   3   0   3  126.60    0.79   3
   3   0   3  124.83    1.42   4
  -3   0  -4   57.25    1.01   2
  -3   0  -4   57.52    0.49   3
  -3   0  -4   58.74    0.48   3
  -3   0  -4   55.48    1.06   4
   3   0   4   57.51    1.00   1
   3   0   4   59.44    0.99   1
   3   0   4   54.34    1.02   4
  -3   0  -5   34.97    0.88   2
  -3   0  -5   36.57    0.46   3
  -3   0  -5   35.89    0.45   3
  -3   0  -5   34.03    0.93   4
   3   0   5   34.08    0.81   1
   3   0   5   36.54    0.83   1
   3   0   5   34.93    0.95   2
   3   0   5   34.57    0.90   4
  -3   0  -6   31.81    0.94   2
  -3   0  -6   31.56    0.53   3
  -3   0  -6   31.99    0.53   3
  -3   0  -6   31.40    0.99   4
   3   0   6   30.85    0.83   1
   3   0   6   33.05    0.84   1
   3   0   6   29.65    0.95   2
   3   0   6   31.66    0.94   4
  -3   0  -7    0.08    0.27   1
  -3   0  -7   -0.35    0.28   2
  -3   0  -7    0.08    0.18   3
  -3   0  -7    0.11    0.16   3
  -3   0  -7    0.19    0.31   4
   3   0   7    0.39    0.31   1
   3   0   7    0.40    0.34   2
   3   0   7   -0.40    0.27   4
  -3   0  -8    1.08    0.35   1
  -3   0  -8    1.72    0.45   2
  -3   0  -8    1.69    0.29   3
  -3   0  -8    1.37    0.27   3
  -3   0  -8    2.03    0.49   4
   3   0   8    1.99    0.43   1
   3   0   8    1.03    0.46   2
   3   0   8    1.32    0.42   4
  -3   0  -9    3.35    0.51   1
  -3   0  -9    3.76    0.42   3
  -3   0  -9    2.75    0.41   3
  -3   0  -9    3.52    0.65   4
   3   0   9    3.69    0.57   1
   3   0   9    2.13    0.52   2
  -3   0 -10   13.15    0.86   1
  -3   0 -10    7.98    0.74   3
  -3   0 -10   14.03    1.17   4
   3   0  10   11.31    0.97   1
   3   0  10   14.13    1.12   2
  -3   0 -11    0.13    0.51   1
  -3   0 -11    0.24    0.46   3
  -3   0 -11   -0.10    0.54   3
  -3   0 -11    0.85    0.71   4
   3   0  11   -0.79    0.66   1
   3   0  11   -0.37    0.65   2
  -3   0 -12    9.30    1.02   3
  -3   0 -12   12.78    1.46   4
   3   0  12    8.53    0.87   1
   3   0  12    8.93    1.10   2
  -3   0 -13    1.10    1.08   4
   3   0  13    0.45    0.75   1
   3   0  13    0.72    0.94   2
  -3   0 -14    2.29    1.24   4
   3   0  14    2.24    1.18   2
  -3  -1  11    3.11    1.01   2
  -3  -1  11    2.85    1.23   3
   3   1 -11    2.65    1.21   4
  -3  -1  10    4.47    0.87   2
  -3  -1  10    6.29    1.16   3
   3   1 -10    4.35    0.75   1
   3   1 -10    3.48    0.98   4
  -3  -1   9    0.62    0.59   2
  -3  -1   9    2.18    0.81   3
   3   1  -9    1.63    0.53   1
   3   1  -9    1.52    0.79   4
  -3  -1   8    7.44    0.74   1
  -3  -1   8    8.88    0.94   2
  -3  -1   8    9.01    1.01   3
   3   1  -8    9.33    0.82   1
   3   1  -8   10.57    1.01   2
   3   1  -8    6.62    0.88   4
  -3  -1   7    4.05    0.57   1
  -3  -1   7    2.38    0.50   2
  -3  -1   7    4.48    0.75   3
   3   1  -7    4.06    0.52   1
   3   1  -7    4.68    0.57   2
   3   1  -7    3.26    0.68   4
  -3  -1   6    5.10    0.53   1
  -3  -1   6    6.09    0.63   2
  -3  -1   6    6.19    0.75   3
   3   1  -6    6.78    0.59   1
   3   1  -6    5.86    0.56   2
   3   1  -6    5.61    0.70   4
  -3  -1   5    1.23    0.35   1
  -3  -1   5    1.04    0.30   2
  -3  -1   5    1.22    0.47   3
  -3  -1   5    1.17    0.41   4
   3   1  -5    0.93    0.33   1
   3   1  -5    1.77    0.34   2
   3   1  -5    2.21    0.42   3
   3   1  -5    1.37    0.42   4
  -3  -1   4   18.32    0.66   1
  -3  -1   4   16.41    0.57   2
  -3  -1   4   16.65    0.84   3
  -3  -1   4   16.30    0.74   4
   3   1  -4   15.82    0.63   1
   3   1  -4   16.06    0.83   4
  -3  -1   3  296.75    2.17   1
  -3  -1   3  299.82    1.84   2
  -3  -1   3  290.12    2.69   3
  -3  -1   3  288.65    2.63   4
   3   1  -3  274.78    2.11   1
   3   1  -3  291.63    1.80   2
   3   1  -3  296.97    2.68   3
   3   1  -3  286.16    2.66   4
  -3  -1   2   77.02    0.82   2
  -3  -1   2   74.73    1.29   3
   3   1  -2   73.06    1.08   1
   3   1  -2   73.25    0.79   2
   3   1  -2   76.57    1.28   3
   3   1  -2   69.09    1.24   4
   3   1  -2   75.20    1.28   4
  -3  -1   1    0.61    0.20   1
  -3  -1   1    0.39    0.10   2
  -3  -1   1    0.40    0.21   3
   3   1  -1    0.36    0.19   1
   3   1  -1    0.47    0.11   2
   3   1  -1    0.69    0.19   3
   3   1  -1    0.69    0.23   4
   3   1  -1    0.35    0.19   4
  -3  -1   0   55.01    0.89   1
  -3  -1   0   47.30    0.83   3
  -3  -1   0   49.76    0.91   4
   3   1   0   49.95    0.87   1
   3   1   0   49.85    0.57   2
   3   1   0   50.99    0.57   2
   3   1   0   50.65    0.83   3
   3   1   0   49.38    0.89   4
  -3  -1  -1   55.34    0.90   1
  -3  -1  -1   52.31    0.65   2
  -3  -1  -1   49.24    0.72   3
  -3  -1  -1   50.77    0.89   4
   3   1   1   51.88    0.89   1
   3   1   1   51.93    0.65   2
   3   1   1   52.76    0.74   3
   3   1   1   50.96    0.91   4
  -3  -1  -2   10.29    0.36   2
  -3  -1  -2   10.31    0.29   3
   3   1   2   10.11    0.45   1
   3   1   2   10.49    0.36   2
   3   1   2    9.87    0.28   3
   3   1   2    9.48    0.42   4
  -3  -1  -3    8.06    0.37   2
  -3  -1  -3    1.95    0.10   3
  -3  -1  -3    8.13    0.43   4
   3   1   3    8.88    0.43   1
   3   1   3    8.95    0.44   1
   3   1   3    7.88    0.42   2
   3   1   3    8.19    0.17   3
  -3  -1  -4    3.06    0.34   1
  -3  -1  -4    2.60    0.30   2
  -3  -1  -4    2.68    0.33   4
   3   1   4    3.38    0.34   1
   3   1   4    3.18    0.39   2
   3   1   4    2.67    0.31   4
  -3  -1  -5    9.29    0.53   1
  -3  -1  -5    9.37    0.49   2
  -3  -1  -5    9.41    0.53   4
   3   1   5    9.57    0.52   1
   3   1   5    9.20    0.55   2
   3   1   5    9.92    0.52   4
  -3  -1  -6   -0.13    0.24   1
  -3  -1  -6   -0.01    0.24   2
  -3  -1  -6    0.09    0.11   3
  -3  -1  -6    0.10    0.28   4
   3   1   6   -0.16    0.28   1
   3   1   6   -0.05    0.28   2
   3   1   6    0.13    0.10   3
   3   1   6   -0.62    0.23   4
  -3  -1  -7    0.97    0.33   1
  -3  -1  -7    1.26    0.36   2
  -3  -1  -7    0.72    0.19   3
  -3  -1  -7    1.18    0.40   4
   3   1   7    1.22    0.39   1
   3   1   7    0.91    0.38   2
   3   1   7    0.96    0.18   3
   3   1   7    0.82    0.36   4
  -3  -1  -8   19.60    0.84   1
  -3  -1  -8   18.81    0.92   2
  -3  -1  -8   17.86    0.57   3
  -3  -1  -8   18.49    0.95   4
   3   1   8   18.92    0.90   1
   3   1   8   17.77    0.95   2
   3   1   8   19.79    0.58   3
  -3  -1  -9    8.53    0.72   1
  -3  -1  -9    6.74    0.53   3
  -3  -1  -9    7.95    0.86   4
   3   1   9    8.40    0.80   1
   3   1   9    7.58    0.84   2
   3   1   9    7.64    0.55   3
  -3  -1 -10    3.73    0.59   1
  -3  -1 -10    2.07    0.46   3
  -3  -1 -10    3.00    0.68   4
   3   1  10    3.53    0.71   1
   3   1  10    2.77    0.71   2
   3   1  10    3.04    0.46   3
  -3  -1 -11    9.81    0.94   1
  -3  -1 -11    7.07    0.70   3
  -3  -1 -11   10.32    1.18   4
   3   1  11    7.07    0.93   1
   3   1  11    9.91    1.04   2
   3   1  11    9.26    0.79   3
  -3  -1 -12    0.49    0.62   1
  -3  -1 -12    0.95    0.84   4
   3   1  12   -0.73    0.69   2
   3   1  12    0.07    0.54   3
  -3  -1 -13    3.29    0.87   1
  -3  -1 -13    3.70    1.02   4
   3   1  13    3.44    0.99   2
   3   1  13    3.10    0.75   3
  -3  -1 -14    1.41    1.14   4
   3   1  14    0.51    1.22   2
  -3  -2  11    0.64    0.98   2
  -3  -2  11   -1.64    1.18   3
   3   2 -11    0.43    1.23   4
  -3  -2  10    2.43    1.09   3
   3   2 -10    1.39    1.05   4
  -3  -2   9    2.48    0.71   2
  -3  -2   9    1.74    0.85   3
   3   2  -9    2.19    0.49   1
   3   2  -9    1.56    0.84   4
  -3  -2   8    5.78    0.69   1
  -3  -2   8    8.28    0.94   2
  -3  -2   8    6.81    0.91   3
   3   2  -8    7.63    0.65   1
   3   2  -8    5.04    0.81   2
   3   2  -8    6.42    0.91   4
  -3  -2   7   -0.77    0.34   1
  -3  -2   7    0.09    0.44   2
  -3  -2   7    0.12    0.57   3
   3   2  -7    0.22    0.31   1
   3   2  -7    1.24    0.53   2
   3   2  -7   -0.26    0.53   4
  -3  -2   6   10.25    0.60   1
  -3  -2   6   14.84    0.81   2
  -3  -2   6   14.15    1.03   3
   3   2  -6   15.54    0.65   1
   3   2  -6   14.98    0.86   2
   3   2  -6   14.22    0.94   4
  -3  -2   5    1.17    0.29   1
  -3  -2   5    1.56    0.36   2
  -3  -2   5    1.97    0.51   3
  -3  -2   5    0.95    0.44   4
   3   2  -5    1.14    0.29   1
   3   2  -5    1.25    0.38   2
   3   2  -5    0.92    0.41   3
   3   2  -5    1.62    0.48   4
  -3  -2   4    0.45    0.26   1
  -3  -2   4    0.63    0.27   2
  -3  -2   4    0.97    0.35   3
  -3  -2   4    0.90    0.37   4
   3   2  -4    0.48    0.25   1
   3   2  -4    0.75    0.26   2
   3   2  -4    1.15    0.36   3
   3   2  -4    0.55    0.34   4
  -3  -2   3    0.48    0.21   1
  -3  -2   3   -0.01    0.21   2
  -3  -2   3   -0.21    0.27   3
  -3  -2   3    0.75    0.31   4
   3   2  -3   -0.07    0.21   1
   3   2  -3    0.20    0.21   2
   3   2  -3    0.30    0.26   3
   3   2  -3    0.12    0.30   4
  -3  -2   2  118.25    1.27   1
  -3  -2   2  108.55    1.59   3
  -3  -2   2  115.44    1.61   4
   3   2  -2  110.35    1.29   1
   3   2  -2  115.41    1.23   2
   3   2  -2  112.64    1.58   3
   3   2  -2  111.50    1.61   4
  -3  -2   1   14.47    0.49   1
  -3  -2   1   14.10    0.45   2
  -3  -2   1   14.26    0.59   3
   3   2  -1   14.14    0.51   1
   3   2  -1   14.59    0.46   2
   3   2  -1   14.37    0.57   3
   3   2  -1   13.78    0.60   4
   3   2  -1   14.57    0.59   4
  -3  -2   0  464.05    2.25   2
  -3  -2   0  447.71    2.62   3
   3   2   0  442.86    2.48   1
   3   2   0  451.19    2.48   1
   3   2   0  455.81    2.21   2
   3   2   0  442.94    2.72   4
   3   2   0  467.15    2.76   4
  -3  -2  -1    5.55    0.32   3
  -3  -2  -1    4.78    0.37   4
   3   2   1    4.79    0.36   1
   3   2   1    5.57    0.30   2
   3   2   1    6.07    0.32   2
   3   2   1    5.39    0.30   3
  -3  -2  -2    8.55    0.43   1
  -3  -2  -2    9.41    0.40   2
  -3  -2  -2    8.95    0.33   3
  -3  -2  -2    8.71    0.41   4
   3   2   2    9.21    0.46   1
   3   2   2    8.52    0.42   2
   3   2   2    8.90    0.32   3
   3   2   2    8.77    0.41   4
  -3  -2  -3    0.22    0.20   1
  -3  -2  -3    0.14    0.15   2
  -3  -2  -3    0.12    0.18   4
   3   2   3   -0.13    0.17   1
   3   2   3    0.35    0.20   2
   3   2   3    0.05    0.10   3
   3   2   3   -0.02    0.09   3
  -3  -2  -4  116.66    1.53   1
  -3  -2  -4  119.79    1.49   2
  -3  -2  -4  118.20    1.41   4
   3   2   4  124.79    1.56   1
   3   2   4  113.67    1.49   2
   3   2   4  120.90    0.70   3
   3   2   4  120.81    0.70   3
   3   2   4  112.78    1.36   4
  -3  -2  -5    0.81    0.28   1
  -3  -2  -5    0.57    0.24   2
  -3  -2  -5    1.03    0.11   3
  -3  -2  -5    0.88    0.27   4
   3   2   5    1.61    0.32   1
   3   2   5    1.01    0.29   2
   3   2   5    1.01    0.12   3
   3   2   5    0.69    0.26   4
  -3  -2  -6    9.79    0.59   1
  -3  -2  -6    8.84    0.55   2
  -3  -2  -6   10.18    0.31   3
  -3  -2  -6    8.40    0.59   4
   3   2   6    9.09    0.64   1
   3   2   6    8.60    0.60   2
   3   2   6    9.34    0.28   3
   3   2   6    8.54    0.59   4
  -3  -2  -7    0.02    0.29   1
  -3  -2  -7   -0.28    0.31   2
  -3  -2  -7   -0.05    0.18   3
  -3  -2  -7   -0.11    0.31   4
   3   2   7   -0.17    0.38   1
   3   2   7    0.29    0.36   2
   3   2   7    0.16    0.16   3
   3   2   7   -0.34    0.30   4
  -3  -2  -8    3.40    0.56   1
  -3  -2  -8    1.34    0.40   2
  -3  -2  -8    2.64    0.31   3
  -3  -2  -8    2.60    0.52   4
   3   2   8    2.93    0.54   1
   3   2   8    3.12    0.55   2
   3   2   8    2.77    0.29   3
   3   2   8    2.60    0.52   4
  -3  -2  -9    9.01    0.81   1
  -3  -2  -9    5.41    0.56   3
  -3  -2  -9    7.11    0.87   4
   3   2   9    8.86    0.94   1
   3   2   9    9.09    0.94   2
   3   2   9    8.28    0.54   3
   3   2   9    8.65    0.90   4
  -3  -2 -10    3.16    0.59   1
  -3  -2 -10    1.83    0.41   3
  -3  -2 -10    2.64    0.65   4
   3   2  10    1.79    0.70   1
   3   2  10    1.62    0.61   2
   3   2  10    1.65    0.40   3
  -3  -2 -11    4.94    0.72   1
  -3  -2 -11    4.55    0.60   3
  -3  -2 -11    3.86    0.80   4
   3   2  11    4.29    0.81   2
   3   2  11    3.84    0.54   3
  -3  -2 -12    1.44    0.74   1
  -3  -2 -12    2.26    0.83   4
   3   2  12    1.98    0.88   2
   3   2  12    2.33    0.59   3
  -3  -2 -13   -0.47    0.88   4
   3   2  13   -0.71    0.87   2
   3   2  13    0.06    0.67   3
  -3  -2 -14    1.25    0.97   1
  -3  -2 -14   -1.42    1.16   4
   3   2  14    0.45    1.09   2
   3   3 -11    3.01    1.34   4
  -3  -3  10    1.61    0.94   2
  -3  -3  10   -0.11    1.01   3
   3   3 -10   -1.52    0.92   4
  -3  -3   9    2.93    0.84   2
  -3  -3   9    3.06    0.89   3
   3   3  -9    4.54    1.00   4
  -3  -3   8    3.38    0.75   2
  -3  -3   8    1.38    0.76   3
   3   3  -8    2.83    0.33   1
   3   3  -8    3.27    0.84   4
  -3  -3   7    4.60    0.48   1
  -3  -3   7    6.63    0.77   2
   3   3  -7    5.99    0.47   1
   3   3  -7    5.88    0.82   2
   3   3  -7    5.73    0.85   4
  -3  -3   6    0.16    0.25   1
  -3  -3   6    0.41    0.44   2
  -3  -3   6   -0.04    0.52   3
   3   3  -6   -0.30    0.25   1
   3   3  -6   -0.67    0.48   2
   3   3  -6    0.38    0.50   4
  -3  -3   5   14.74    0.53   1
  -3  -3   5   19.58    0.89   2
  -3  -3   5   18.70    1.06   3
   3   3  -5   18.52    0.58   1
   3   3  -5   18.05    0.89   2
   3   3  -5   17.68    0.99   4
  -3  -3   4    0.49    0.21   1
  -3  -3   4    0.38    0.31   2
  -3  -3   4    0.21    0.40   3
  -3  -3   4    0.68    0.33   4
   3   3  -4    0.62    0.23   1
   3   3  -4    0.60    0.32   2
   3   3  -4    0.41    0.37   3
   3   3  -4    0.42    0.37   4
  -3  -3   3   36.51    0.94   2
  -3  -3   3   36.67    1.10   3
  -3  -3   3   38.08    1.07   4
   3   3  -3   38.40    0.75   1
   3   3  -3   39.62    0.73   1
   3   3  -3   38.62    0.94   2
   3   3  -3   38.40    1.11   3
   3   3  -3   37.55    1.11   4
  -3  -3   2   37.70    0.89   2
  -3  -3   2   39.87    1.08   3
  -3  -3   2   40.35    1.01   4
   3   3  -2   40.78    0.75   1
   3   3  -2   39.17    0.88   2
   3   3  -2   38.79    1.01   3
   3   3  -2   38.17    1.04   4
  -3  -3   1    9.11    0.48   2
  -3  -3   1    8.83    0.55   3
   3   3  -1    9.87    0.45   1
   3   3  -1    9.88    0.44   1
   3   3  -1    9.65    0.47   2
   3   3  -1    9.93    0.54   3
   3   3  -1    8.72    0.55   4
   3   3  -1    9.69    0.53   4
  -3  -3   0   14.70    0.55   2
  -3  -3   0   15.29    0.61   3
   3   3   0   16.45    0.56   1
   3   3   0   15.78    0.56   2
   3   3   0   15.48    0.56   3
   3   3   0   15.95    0.60   4
   3   3   0   16.00    0.58   4
  -3  -3  -1  122.90    1.43   1
  -3  -3  -1  123.73    1.40   4
   3   3   1  126.02    1.43   1
   3   3   1  129.29    1.44   2
   3   3   1  120.69    1.39   3
   3   3   1  121.84    1.42   3
   3   3   1  125.94    1.46   4
  -3  -3  -2   28.53    0.76   1
  -3  -3  -2   27.97    0.68   4
   3   3   2   30.08    0.77   1
   3   3   2   25.78    0.70   2
   3   3   2   29.38    0.74   2
   3   3   2   29.90    0.65   3
   3   3   2   28.26    0.67   4
  -3  -3  -3  144.11    1.71   1
  -3  -3  -3  152.74    1.69   2
  -3  -3  -3  148.47    1.47   4
   3   3   3  154.54    1.75   1
   3   3   3  150.38    1.72   2
   3   3   3  154.74    1.30   3
   3   3   3  151.67    1.28   3
   3   3   3  149.37    1.46   4
  -3  -3  -4    1.63    0.33   1
  -3  -3  -4    1.43    0.26   2
  -3  -3  -4    1.55    0.20   3
  -3  -3  -4    1.29    0.24   4
   3   3   4    1.73    0.33   1
   3   3   4    1.15    0.29   2
   3   3   4    1.77    0.21   3
  -3  -3  -5    0.19    0.28   1
  -3  -3  -5    0.18    0.26   2
  -3  -3  -5    0.25    0.14   3
  -3  -3  -5    0.31    0.22   4
   3   3   5    0.93    0.34   1
   3   3   5    0.08    0.27   2
   3   3   5    0.54    0.17   3
   3   3   5    0.48    0.25   4
  -3  -3  -6    0.61    0.31   1
  -3  -3  -6    0.49    0.29   2
  -3  -3  -6    0.42    0.17   3
  -3  -3  -6    0.58    0.28   4
   3   3   6    0.63    0.33   1
   3   3   6    0.42    0.35   2
   3   3   6    0.44    0.18   3
   3   3   6    0.56    0.29   4
  -3  -3  -7    0.31    0.36   1
  -3  -3  -7   -0.01    0.32   2
  -3  -3  -7    0.09    0.20   3
  -3  -3  -7    0.20    0.30   4
   3   3   7    0.43    0.38   1
   3   3   7    0.03    0.38   2
   3   3   7    0.01    0.16   3
   3   3   7    0.38    0.33   4
  -3  -3  -8   10.06    0.77   1
  -3  -3  -8    7.11    0.74   2
  -3  -3  -8    7.69    0.50   3
  -3  -3  -8    9.76    0.73   4
   3   3   8    8.57    0.82   1
   3   3   8    9.18    0.79   2
   3   3   8    8.69    0.50   3
   3   3   8    8.16    0.77   4
  -3  -3  -9   24.92    1.11   1
  -3  -3  -9   19.19    0.73   3
  -3  -3  -9   24.19    1.13   4
   3   3   9   24.14    1.25   2
   3   3   9   24.94    0.79   3
   3   3   9   21.60    1.10   4
  -3  -3 -10    2.81    0.64   1
  -3  -3 -10    1.74    0.46   3
  -3  -3 -10    2.69    0.65   4
   3   3  10    1.65    0.60   2
   3   3  10    2.71    0.45   3
  -3  -3 -11    2.38    0.72   1
  -3  -3 -11    4.61    0.67   3
  -3  -3 -11    3.03    0.78   4
   3   3  11    2.62    0.73   2
   3   3  11    3.47    0.55   3
  -3  -3 -12    3.28    0.88   1
  -3  -3 -12    1.58    0.86   4
   3   3  12    2.95    0.89   2
   3   3  12    1.98    0.59   3
  -3  -3 -13    2.75    0.96   1
  -3  -3 -13   -0.52    0.95   4
   3   3  13    0.57    0.87   2
  -3  -3 -14   -0.69    1.04   1
  -3  -3 -14   -0.65    1.15   4
   3   3  14    0.47    1.14   2
  -3  -4  10    4.08    1.10   2
  -3  -4  10    1.52    1.24   3
   3   4 -10    0.99    1.06   4
  -3  -4   9    0.71    0.85   2
  -3  -4   9   -0.12    0.86   3
   3   4  -9   -0.45    0.90   4
  -3  -4   8    7.36    0.92   2
  -3  -4   8    6.06    1.00   3
   3   4  -8    6.58    1.00   4
  -3  -4   7    3.79    0.75   2
  -3  -4   7    3.58    0.79   3
   3   4  -7    2.53    0.75   4
  -3  -4   6   11.09    0.97   2
  -3  -4   6    9.47    1.03   3
   3   4  -6    9.53    1.03   2
   3   4  -6   10.29    1.05   4
  -3  -4   5    3.34    0.56   2
  -3  -4   5    4.39    0.69   3
   3   4  -5    3.10    0.32   1
   3   4  -5    2.91    0.30   1
   3   4  -5    2.96    0.56   2
   3   4  -5    3.16    0.57   4
  -3  -4   4   34.91    1.11   2
  -3  -4   4   34.30    1.21   3
  -3  -4   4   29.63    1.09   4
   3   4  -4   34.75    0.64   1
   3   4  -4   35.88    0.63   1
   3   4  -4   33.09    1.10   2
   3   4  -4   32.93    1.22   4
  -3  -4   3   22.67    0.91   2
  -3  -4   3   22.75    1.01   3
  -3  -4   3   24.57    0.96   4
   3   4  -3   24.31    0.59   1
   3   4  -3   23.85    0.59   1
   3   4  -3   24.14    0.88   2
   3   4  -3   24.20    0.97   3
   3   4  -3   20.73    0.93   4
  -3  -4   2   56.71    1.21   2
  -3  -4   2   55.71    1.32   3
  -3  -4   2   57.20    1.25   4
   3   4  -2   58.56    0.90   1
   3   4  -2   57.47    1.19   2
   3   4  -2   56.35    1.28   3
   3   4  -2   54.61    1.25   4
  -3  -4   1    0.37    0.27   2
   3   4  -1    0.46    0.22   1
   3   4  -1    0.20    0.28   2
   3   4  -1    0.22    0.26   3
   3   4  -1    0.50    0.27   3
   3   4  -1    0.33    0.27   4
   3   4  -1    0.40    0.26   4
  -3  -4   0    0.35    0.23   1
  -3  -4   0    0.56    0.27   2
   3   4   0    0.27    0.22   1
   3   4   0    0.52    0.25   2
   3   4   0    0.58    0.26   3
   3   4   0    0.20    0.23   3
   3   4   0    0.51    0.25   4
   3   4   0    0.68    0.23   4
  -3  -4  -1   17.70    0.66   1
  -3  -4  -1   17.91    0.70   2
   3   4   1   18.82    0.66   1
   3   4   1   17.88    0.66   2
   3   4   1   18.03    0.68   3
   3   4   1   19.63    0.68   3
   3   4   1   17.18    0.61   4
   3   4   1   19.20    0.61   4
  -3  -4  -2   39.15    0.96   1
  -3  -4  -2   39.01    0.80   4
   3   4   2   41.70    0.96   1
   3   4   2   38.67    0.98   2
   3   4   2   40.16    0.95   2
   3   4   2   39.18    0.89   3
   3   4   2   40.52    0.87   3
   3   4   2   40.33    0.83   4
  -3  -4  -3    0.15    0.25   1
  -3  -4  -3    0.35    0.20   3
  -3  -4  -3    0.47    0.19   4
   3   4   3    0.65    0.29   1
   3   4   3   -0.04    0.25   2
   3   4   3    0.09    0.24   2
   3   4   3    0.51    0.23   3
   3   4   3    0.54    0.20   4
  -3  -4  -4   19.46    0.76   1
  -3  -4  -4   20.53    0.76   2
  -3  -4  -4   19.98    0.62   3
  -3  -4  -4   20.53    0.62   4
   3   4   4   21.63    0.83   1
   3   4   4   20.59    0.82   2
   3   4   4   19.84    0.62   3
   3   4   4   19.99    0.62   4
  -3  -4  -5   43.53    1.15   1
  -3  -4  -5   46.29    1.15   2
  -3  -4  -5   46.10    0.84   3
  -3  -4  -5   46.21    0.92   4
   3   4   5   49.49    1.22   1
   3   4   5   46.72    1.22   2
   3   4   5   45.99    0.87   3
   3   4   5   48.61    0.94   4
  -3  -4  -6   27.84    1.01   1
  -3  -4  -6   28.41    0.99   2
  -3  -4  -6   29.48    0.80   3
  -3  -4  -6   28.99    0.83   4
   3   4   6   30.49    1.05   1
   3   4   6   28.40    1.04   2
   3   4   6   28.26    0.73   3
   3   4   6   28.20    0.82   4
  -3  -4  -7    3.26    0.57   1
  -3  -4  -7    2.89    0.50   2
  -3  -4  -7    2.89    0.35   3
  -3  -4  -7    2.37    0.39   4
   3   4   7    3.01    0.47   1
   3   4   7    3.32    0.55   2
   3   4   7    2.57    0.37   3
   3   4   7    3.33    0.49   4
  -3  -4  -8    0.05    0.43   1
  -3  -4  -8    0.27    0.34   3
  -3  -4  -8    0.44    0.40   4
   3   4   8    0.31    0.52   2
   3   4   8    0.23    0.29   3
   3   4   8    0.30    0.40   4
  -3  -4  -9    1.26    0.52   1
  -3  -4  -9    1.39    0.42   3
  -3  -4  -9    1.07    0.49   4
   3   4   9    1.06    0.60   2
   3   4   9    2.06    0.42   3
   3   4   9    1.03    0.53   4
  -3  -4 -10    2.17    0.70   1
  -3  -4 -10    0.90    0.50   3
  -3  -4 -10    2.00    0.59   4
   3   4  10    1.68    0.44   3
   3   4  10    2.49    0.71   4
  -3  -4 -11    3.38    0.74   1
  -3  -4 -11    5.24    0.80   4
   3   4  11    2.65    0.77   2
   3   4  11    4.28    0.62   3
  -3  -4 -12   12.54    1.39   1
  -3  -4 -12   12.75    1.44   4
   3   4  12   12.85    1.39   2
   3   4  12   11.60    1.08   3
  -3  -4 -13   -0.90    0.87   1
  -3  -4 -13    0.51    0.99   4
   3   4  13   -1.47    0.98   2
  -3  -4 -14    2.07    1.24   1
  -3  -4 -14    0.53    1.22   4
   3   4  14    0.91    1.26   2
  -3  -5  10    0.61    1.17   2
   3   5 -10   -0.85    1.23   4
  -3  -5   9    1.52    0.96   2
   3   5  -9    0.69    1.08   3
   3   5  -9    0.07    0.93   4
  -3  -5   8    0.30    0.77   2
  -3  -5   8   -0.61    0.87   3
   3   5  -8    0.01    0.75   4
  -3  -5   7   14.89    1.25   2
  -3  -5   7   12.87    1.41   3
   3   5  -7   10.59    1.28   4
  -3  -5   6    1.57    0.61   2
  -3  -5   6    1.57    0.65   3
   3   5  -6    1.60    0.67   4
  -3  -5   5    8.97    0.95   2
  -3  -5   5    8.95    0.97   3
   3   5  -5    7.28    0.86   4
  -3  -5   4   23.27    1.12   2
   3   5  -4   22.78    0.49   1
   3   5  -4   22.66    0.49   1
   3   5  -4   21.83    1.10   2
   3   5  -4   21.12    1.08   3
   3   5  -4   21.72    1.09   4
  -3  -5   3    3.95    0.56   2
  -3  -5   3    4.77    0.61   4
   3   5  -3    3.93    0.38   1
   3   5  -3    4.02    0.40   1
   3   5  -3    3.82    0.55   2
   3   5  -3    4.72    0.67   3
   3   5  -3    3.17    0.52   4
  -3  -5   2    1.78    0.43   2
  -3  -5   2    3.24    0.48   4
   3   5  -2    2.21    0.30   1
   3   5  -2    2.44    0.32   1
   3   5  -2    3.03    0.42   2
   3   5  -2    2.36    0.51   3
   3   5  -2    2.47    0.46   3
   3   5  -2    2.04    0.45   4
  -3  -5   1   14.05    0.77   2
   3   5  -1   12.71    0.55   1
   3   5  -1   13.59    0.60   1
   3   5  -1   13.40    0.74   2
   3   5  -1   13.92    0.77   3
   3   5  -1   14.57    0.75   3
   3   5  -1   12.52    0.70   4
   3   5  -1   13.02    0.69   4
  -3  -5   0    0.05    0.23   1
  -3  -5   0    0.41    0.31   2
   3   5   0    0.17    0.28   1
   3   5   0    0.16    0.26   2
   3   5   0   -0.16    0.31   3
   3   5   0    0.87    0.33   3
   3   5   0   -0.10    0.24   4
   3   5   0    0.78    0.27   4
  -3  -5  -1   -0.15    0.26   1
  -3  -5  -1    0.00    0.29   2
   3   5   1    0.56    0.28   1
   3   5   1    0.73    0.31   2
   3   5   1    0.41    0.29   3
   3   5   1    0.10    0.30   3
   3   5   1    0.03    0.23   4
   3   5   1   -0.10    0.22   4
  -3  -5  -2    3.01    0.41   1
   3   5   2    4.71    0.52   1
   3   5   2    3.77    0.47   2
   3   5   2    4.39    0.49   2
   3   5   2    3.46    0.44   3
   3   5   2    4.13    0.50   3
   3   5   2    3.77    0.40   4
  -3  -5  -3    9.80    0.63   1
  -3  -5  -3    9.72    0.56   3
  -3  -5  -3    9.67    0.47   4
   3   5   3    8.65    0.61   1
   3   5   3    8.77    0.62   2
   3   5   3    9.73    0.62   2
   3   5   3   10.06    0.58   3
   3   5   3   10.54    0.47   4
  -3  -5  -4    7.86    0.61   1
  -3  -5  -4    7.82    0.57   3
  -3  -5  -4    8.47    0.44   4
   3   5   4    9.17    0.60   1
   3   5   4    9.02    0.66   2
   3   5   4    9.56    0.67   2
   3   5   4    8.70    0.57   3
   3   5   4    8.75    0.46   4
  -3  -5  -5   46.00    1.28   1
  -3  -5  -5   48.11    1.02   3
  -3  -5  -5   45.92    0.88   4
   3   5   5   47.54    1.25   1
   3   5   5   46.35    1.29   2
   3   5   5   48.95    1.32   2
   3   5   5   45.17    1.01   3
  -3  -5  -6   11.83    0.78   1
  -3  -5  -6   13.88    0.84   2
  -3  -5  -6   12.09    0.65   3
  -3  -5  -6   13.07    0.59   4
   3   5   6   14.35    0.88   1
   3   5   6   12.55    0.90   2
   3   5   6   12.51    0.68   3
   3   5   6   12.53    0.62   4
  -3  -5  -7    2.34    0.55   1
  -3  -5  -7    1.63    0.37   3
  -3  -5  -7    1.39    0.34   4
   3   5   7    1.98    0.55   2
   3   5   7    1.87    0.38   3
   3   5   7    1.87    0.42   4
  -3  -5  -8   21.01    1.14   1
  -3  -5  -8   17.96    0.81   3
  -3  -5  -8   21.39    0.90   4
   3   5   8   17.88    1.07   2
   3   5   8   20.63    0.86   3
   3   5   8   19.37    0.91   4
  -3  -5  -9    0.36    0.56   1
  -3  -5  -9    0.35    0.44   3
  -3  -5  -9    0.15    0.46   4
   3   5   9    0.44    0.54   2
   3   5   9    1.09    0.43   3
   3   5   9    0.08    0.50   4
  -3  -5 -10   -0.24    0.61   1
  -3  -5 -10   -0.05    0.57   3
  -3  -5 -10   -0.20    0.52   4
   3   5  10   -0.08    0.63   2
   3   5  10   -0.16    0.46   3
   3   5  10   -0.25    0.60   4
  -3  -5 -11   -0.25    0.76   1
  -3  -5 -11    1.43    0.68   4
   3   5  11    1.30    0.87   2
   3   5  11    0.55    0.58   3
  -3  -5 -12    3.57    0.90   1
  -3  -5 -12    2.12    0.85   4
   3   5  12    1.54    0.94   2
   3   5  12    3.34    0.76   3
  -3  -5 -13    4.05    1.13   1
  -3  -5 -13    3.39    1.05   4
   3   5  13    2.10    1.16   2
  -3  -6   9   -0.78    1.09   2
   3   6  -9    0.70    1.20   3
   3   6  -9   -0.22    1.15   4
  -3  -6   8    0.11    0.93   2
   3   6  -8   -1.11    0.91   3
   3   6  -8   -0.65    0.95   4
  -3  -6   7    6.33    1.03   2
   3   6  -7    5.34    0.97   3
   3   6  -7    4.46    0.98   4
   3   6  -6    0.10    0.71   3
   3   6  -6    0.59    0.64   4
  -3  -6   5    0.24    0.64   2
   3   6  -5   -0.11    0.57   3
   3   6  -5    0.03    0.57   4
  -3  -6   4   27.16    1.29   2
   3   6  -4   27.48    0.47   1
   3   6  -4   27.90    0.48   1
   3   6  -4   28.12    1.39   3
   3   6  -4   26.57    1.25   4
  -3  -6   3   26.12    1.19   2
  -3  -6   3   25.77    1.16   4
   3   6  -3   25.17    0.66   1
   3   6  -3   27.80    1.30   3
   3   6  -3   24.69    1.11   4
  -3  -6   2    2.21    0.52   2
  -3  -6   2    2.75    0.52   4
   3   6  -2    2.51    0.36   1
   3   6  -2    1.99    0.36   1
   3   6  -2    2.11    0.53   2
   3   6  -2    1.95    0.49   3
   3   6  -2    1.12    0.43   4
  -3  -6   1   39.73    0.95   1
  -3  -6   1   37.11    1.20   2
   3   6  -1   39.70    0.96   1
   3   6  -1   36.88    1.18   2
   3   6  -1   37.35    1.23   3
   3   6  -1   38.84    1.27   3
   3   6  -1   37.40    1.09   4
   3   6  -1   41.40    1.13   4
  -3  -6   0   12.48    0.66   1
  -3  -6   0   11.93    0.82   2
   3   6   0   12.06    0.70   1
   3   6   0   11.67    0.80   2
   3   6   0   12.25    0.82   3
   3   6   0    9.18    0.82   3
   3   6   0   11.16    0.65   4
   3   6   0   12.89    0.69   4
  -3  -6  -1   35.75    1.02   1
  -3  -6  -1   33.61    1.16   2
   3   6   1   33.95    1.02   1
   3   6   1   35.01    1.14   2
   3   6   1   33.50    1.11   3
   3   6   1   33.65    1.10   3
   3   6   1   33.42    0.86   4
   3   6   1   35.16    0.86   4
  -3  -6  -2    1.90    0.40   1
  -3  -6  -2    2.10    0.47   3
   3   6   2    1.86    0.42   1
   3   6   2    1.75    0.39   2
   3   6   2    2.23    0.46   2
   3   6   2    2.34    0.44   3
   3   6   2    1.93    0.30   4
  -3  -6  -3   -0.11    0.32   1
  -3  -6  -3   -0.06    0.35   3
   3   6   3   -0.35    0.38   1
   3   6   3    0.36    0.38   2
   3   6   3   -0.23    0.37   2
   3   6   3    0.00    0.32   3
   3   6   3    0.27    0.21   4
  -3  -6  -4   22.85    1.01   1
  -3  -6  -4   25.12    0.93   3
  -3  -6  -4   21.93    0.67   4
   3   6   4   24.11    1.02   1
   3   6   4   23.19    1.02   2
   3   6   4   22.47    1.02   2
   3   6   4   23.54    0.90   3
   3   6   4   24.01    0.62   4
  -3  -6  -5    0.99    0.44   1
  -3  -6  -5    1.29    0.44   3
   3   6   5    1.02    0.41   1
   3   6   5    1.46    0.46   2
   3   6   5    2.06    0.57   2
   3   6   5    1.13    0.37   3
   3   6   5    1.34    0.28   4
  -3  -6  -6    7.43    0.81   1
  -3  -6  -6    5.61    0.70   3
  -3  -6  -6    4.81    0.46   4
   3   6   6    6.29    0.75   2
   3   6   6    6.52    0.69   3
  -3  -6  -7    2.56    0.59   1
  -3  -6  -7    2.52    0.52   3
  -3  -6  -7    2.88    0.40   4
   3   6   7    3.25    0.66   2
   3   6   7    3.91    0.53   3
   3   6   7    2.55    0.40   4
  -3  -6  -8   17.64    1.19   1
  -3  -6  -8   12.16    0.89   3
  -3  -6  -8   11.52    0.72   4
   3   6   8   14.72    1.10   2
   3   6   8   16.86    0.92   3
   3   6   8   14.91    0.81   4
  -3  -6  -9    5.73    0.82   1
  -3  -6  -9    3.11    0.64   3
  -3  -6  -9    4.04    0.56   4
   3   6   9    4.85    0.86   2
   3   6   9    6.75    0.71   3
   3   6   9    5.33    0.63   4
  -3  -6 -10    0.00    0.66   1
  -3  -6 -10    0.29    0.72   3
  -3  -6 -10   -0.14    0.52   4
   3   6  10   -0.29    0.69   2
   3   6  10    0.29    0.54   3
   3   6  10    0.90    0.63   4
  -3  -6 -11    0.16    0.90   1
  -3  -6 -11    1.19    0.70   4
   3   6  11   -1.40    0.84   2
   3   6  11    0.61    0.66   3
  -3  -6 -12   -1.36    0.95   1
  -3  -6 -12   -0.06    0.85   4
   3   6  12    0.51    0.99   2
   3   6  12   -0.55    0.76   3
  -3  -6 -13    1.15    1.15   1
   3   6  13   -1.61    1.07   2
  -3  -7   8    2.49    1.22   2
   3   7  -8   -0.33    1.06   3
   3   7  -8    0.44    1.11   4
  -3  -7   7    1.41    0.97   2
   3   7  -7    2.21    0.96   3
   3   7  -7   -0.59    0.89   4
  -3  -7   6    2.59    0.88   2
   3   7  -6    3.01    0.89   3
   3   7  -6    1.84    0.83   4
  -3  -7   5    3.05    0.84   2
   3   7  -5    3.79    0.84   3
   3   7  -5    3.92    0.83   4
   3   7  -4    7.58    0.95   3
   3   7  -4   10.69    1.07   4
  -3  -7   3    2.96    0.66   2
   3   7  -3    3.88    0.48   1
   3   7  -3    3.95    0.44   1
   3   7  -3    3.08    0.67   4
  -3  -7   2    1.31    0.53   2
  -3  -7   2    1.54    0.57   4
   3   7  -2    1.49    0.35   1
   3   7  -2    1.64    0.42   1
   3   7  -2    0.87    0.57   3
   3   7  -2    0.64    0.47   4
  -3  -7   1    5.94    0.63   1
  -3  -7   1    5.52    0.73   2
   3   7  -1    5.46    0.66   1
   3   7  -1    6.94    0.80   3
   3   7  -1    5.71    0.71   4
   3   7  -1    6.44    0.64   4
  -3  -7   0   52.85    1.25   1
  -3  -7   0   50.85    1.51   2
   3   7   0   54.96    1.30   1
   3   7   0   54.37    1.57   3
   3   7   0   50.08    1.17   4
   3   7   0   53.41    1.20   4
  -3  -7  -1   14.18    0.84   1
  -3  -7  -1   14.29    0.99   2
   3   7   1   12.77    0.87   1
   3   7   1   13.79    0.93   3
   3   7   1   15.23    0.99   3
   3   7   1   14.30    0.69   4
   3   7   1   15.00    0.70   4
  -3  -7  -2    3.41    0.55   1
  -3  -7  -2    3.54    0.60   3
   3   7   2    3.49    0.62   1
   3   7   2    3.84    0.65   2
   3   7   2    3.47    0.58   3
   3   7   2    4.22    0.45   4
   3   7   2    3.48    0.41   4
  -3  -7  -3   40.11    1.29   1
  -3  -7  -3   39.85    1.29   3
   3   7   3   39.27    1.30   1
   3   7   3   41.31    1.40   2
   3   7   3   38.27    1.25   3
   3   7   3   40.34    0.78   4
  -3  -7  -4    7.99    0.80   1
  -3  -7  -4    7.87    0.84   3
   3   7   4    7.52    0.78   2
   3   7   4    8.54    0.81   3
   3   7   4    8.15    0.40   4
   3   7   4    8.53    0.45   4
  -3  -7  -5    2.36    0.60   1
  -3  -7  -5    1.51    0.53   3
   3   7   5    1.09    0.44   2
   3   7   5    1.38    0.48   3
   3   7   5    1.41    0.24   4
   3   7   5    1.05    0.27   4
  -3  -7  -6    2.00    0.57   1
  -3  -7  -6    2.84    0.58   3
  -3  -7  -6    1.76    0.25   4
   3   7   6    1.57    0.54   2
   3   7   6    2.14    0.55   3
   3   7   6    1.90    0.31   4
  -3  -7  -7   36.88    1.30   3
  -3  -7  -7   33.02    0.81   4
   3   7   7   36.33    1.27   3
   3   7   7   34.76    0.80   4
  -3  -7  -8    5.44    0.88   1
  -3  -7  -8    5.34    0.75   3
  -3  -7  -8    3.66    0.45   4
   3   7   8    7.17    0.92   2
   3   7   8    5.11    0.71   3
   3   7   8    4.75    0.49   4
  -3  -7  -9    1.42    0.77   1
  -3  -7  -9    0.75    0.72   3
  -3  -7  -9    1.09    0.45   4
   3   7   9    0.46    0.78   2
   3   7   9    1.48    0.61   3
   3   7   9    0.94    0.54   4
  -3  -7 -10   -0.05    0.81   1
  -3  -7 -10    0.01    0.52   4
   3   7  10    0.15    0.86   2
   3   7  10   -0.33    0.67   3
  -3  -7 -11    6.00    1.10   1
   3   7  11    2.38    1.14   2
   3   7  11    3.38    0.83   3
  -3  -7 -12    0.17    1.11   1
   3   7  12    0.48    1.07   2
  -3  -8   7    1.36    1.11   2
   3   8  -7    2.58    1.21   3
   3   8  -7    1.92    1.19   4
  -3  -8   6    5.18    1.19   2
   3   8  -6    4.81    1.07   3
   3   8  -6    4.07    1.06   4
  -3  -8   5    9.99    1.24   2
   3   8  -5    9.66    1.19   3
   3   8  -5    9.41    1.15   4
  -3  -8   4   -0.37    0.75   2
   3   8  -4   -0.71    0.66   3
   3   8  -4    0.24    0.67   4
  -3  -8   3    1.05    0.68   2
   3   8  -3    1.40    0.37   1
   3   8  -3    1.84    0.71   3
   3   8  -3    1.18    0.61   4
  -3  -8   2   19.89    1.27   2
   3   8  -2   18.40    0.83   1
   3   8  -2   20.78    0.99   1
   3   8  -2   19.68    1.21   3
   3   8  -2   20.11    1.13   4
   3   8  -2   19.88    1.23   4
  -3  -8   1    2.55    0.52   1
   3   8  -1    4.19    0.65   1
   3   8  -1    4.04    0.62   4
   3   8  -1    3.36    0.59   4
  -3  -8   0    4.14    0.62   1
  -3  -8   0    2.38    0.67   2
   3   8   0    4.23    0.67   1
   3   8   0    5.35    0.81   3
   3   8   0    4.19    0.56   4
   3   8   0    4.07    0.55   4
  -3  -8  -1   11.36    0.89   1
  -3  -8  -1   11.51    1.10   2
   3   8   1   11.43    1.02   1
   3   8   1   12.85    1.09   3
   3   8   1   10.69    0.70   4
   3   8   1   10.94    0.70   4
  -3  -8  -2    3.12    0.59   1
   3   8   2    2.92    0.71   1
   3   8   2    2.92    0.68   2
   3   8   2    2.87    0.65   3
   3   8   2    2.90    0.37   4
  -3  -8  -3   45.90    1.48   1
   3   8   3   49.93    1.67   2
   3   8   3   47.76    1.54   3
   3   8   3   44.51    0.75   4
   3   8   3   46.77    0.77   4
  -3  -8  -4   13.16    1.02   1
   3   8   4   10.75    1.08   2
   3   8   4   13.04    1.07   3
   3   8   4   11.62    0.36   4
   3   8   4   12.16    0.38   4
  -3  -8  -5    1.52    0.64   1
   3   8   5   -0.01    0.60   2
   3   8   5   -0.17    0.53   3
  -3  -8  -6   17.83    1.24   1
   3   8   6   19.41    1.29   2
   3   8   6   17.17    1.12   3
  -3  -8  -7    0.90    0.67   1
   3   8   7    1.53    0.71   2
   3   8   7    1.09    0.65   3
  -3  -8  -8    5.76    0.95   1
   3   8   8    6.37    1.03   2
   3   8   8    5.47    0.85   3
  -3  -8  -9    0.56    0.82   1
   3   8   9   -0.24    0.85   2
   3   8   9    0.56    0.73   3
  -3  -8 -10    7.48    1.16   1
   3   8  10    5.26    1.13   2
   3   8  10    6.39    0.97   3
  -3  -8 -11    1.76    1.13   1
   3   8  11    0.97    1.17   2
   3   8  11    0.72    0.94   3
  -3  -9   6    4.44    1.28   2
   3   9  -6    3.57    1.20   3
   3   9  -6    5.29    1.31   4
  -3  -9   5    1.79    1.02   2
   3   9  -5   -0.50    1.06   3
   3   9  -5    0.75    0.97   4
  -3  -9   4    6.13    1.04   2
   3   9  -4    6.07    1.13   3
   3   9  -4    3.41    0.96   4
  -3  -9   3    0.79    0.82   2
   3   9  -3    2.21    0.84   3
   3   9  -3    0.80    0.75   4
  -3  -9   2    3.21    0.87   2
   3   9  -2    3.14    0.56   1
   3   9  -2    2.12    0.78   3
   3   9  -2    1.78    0.69   4
  -3  -9   1    4.75    0.68   1
  -3  -9   1    6.27    0.99   2
   3   9  -1    4.37    0.78   1
   3   9  -1    4.98    0.89   3
   3   9  -1    6.07    0.74   4
   3   9  -1    6.77    0.79   4
  -3  -9   0    0.14    0.55   1
  -3  -9   0    0.45    0.67   2
   3   9   0   -0.23    0.75   1
   3   9   0    1.15    0.73   3
   3   9   0   -0.39    0.46   4
   3   9   0    0.97    0.54   4
  -3  -9  -1   25.14    1.24   1
  -3  -9  -1   25.90    1.52   2
   3   9   1   24.64    1.47   3
   3   9   1   22.78    0.90   4
   3   9   1   25.94    0.94   4
  -3  -9  -2    2.42    0.62   1
   3   9   2    1.75    0.65   2
   3   9   2    2.11    0.70   3
   3   9   2    1.97    0.41   4
   3   9   2    2.13    0.39   4
  -3  -9  -3    2.10    0.66   1
   3   9   3    3.06    0.77   2
   3   9   4   18.97    1.36   2
   3   9   4   17.34    1.30   3
  -3  -9  -5    3.44    0.78   1
   3   9   5    2.23    0.71   2
   3   9   5    1.51    0.72   3
  -3  -9  -6    0.12    0.73   1
   3   9   6   -0.26    0.63   2
   3   9   6   -0.55    0.65   3
  -3  -9  -7   12.15    1.44   1
   3   9   7   13.35    1.47   2
   3   9   7   10.94    1.28   3
  -3  -9  -8    3.00    0.94   1
   3   9   8    2.10    0.99   2
  -3  -9  -9    5.02    1.12   1
   3   9   9    6.24    1.25   2
   3   9   9    5.28    1.00   3
  -3  -9 -10    1.40    1.15   1
   3   9  10   -1.93    1.09   2
   3   9  10    1.78    1.01   3
  -3 -10   4    2.63    1.13   2
   3  10  -4    3.18    1.22   3
   3  10  -4    3.42    1.05   4
  -3 -10   3    2.47    0.99   2
   3  10  -3    4.32    1.15   3
   3  10  -3    3.41    0.99   4
  -3 -10   2    1.00    0.95   2
   3  10  -2   -0.82    0.91   3
   3  10  -2    0.69    0.76   4
  -3 -10   1    0.76    0.67   1
  -3 -10   1    0.55    0.94   2
   3  10  -1    1.46    0.98   3
   3  10  -1    0.90    0.67   4
  -3 -10   0    1.06    0.72   1
  -3 -10   0    2.38    0.92   2
   3  10   0    1.72    0.91   3
   3  10   0    2.31    0.61   4
  -3 -10  -1   -0.10    0.67   1
  -3 -10  -1    0.04    0.85   2
   3  10   1    0.17    0.79   3
   3  10   1    0.04    0.46   4
   3  10   2    9.52    1.13   2
   3  10   2   10.42    1.19   3
  -3 -10  -3   -0.51    0.73   1
   3  10   3    0.10    0.74   2
   3  10   3    0.60    0.74   3
  -3 -10  -4    0.87    0.80   1
   3  10   4    1.23    0.79   2
   3  10   4    0.52    0.83   3
  -3 -10  -5    2.63    0.88   1
   3  10   5    0.95    0.83   2
   3  10   5    1.92    0.84   3
  -3 -10  -6    4.84    1.01   1
   3  10   6    2.93    0.94   2
   3  10   6    4.19    0.98   3
  -3 -10  -7    8.16    1.26   1
   3  10   7    5.37    1.18   2
   3  10   7    5.96    1.14   3
  -3 -10  -8    1.50    1.12   1
   3  10   8    0.49    1.02   2
   3  10   8    1.98    1.01   3
  -3 -10  -9    1.43    1.22   1
   3  10   9    1.37    1.22   2
   3  10   9    0.26    1.05   3
  -3 -11   2    4.20    1.40   2
   3  11  -2    7.17    1.50   3
  -3 -11   1    1.97    1.25   2
   3  11  -1    0.80    1.12   3
  -3 -11   0    0.03    0.88   1
  -3 -11   0   -0.26    1.06   2
   3  11   0    0.13    1.03   3
  -3 -11  -1    1.19    0.91   1
   3  11   1    0.57    1.01   2
   3  11   1   -1.98    0.98   3
  -3 -11  -2   -1.06    0.88   1
   3  11   2   -0.94    1.00   2
   3  11   2   -0.29    1.06   3
  -3 -11  -3    1.73    0.91   1
   3  11   3    0.65    1.01   2
   3  11   3    1.36    1.08   3
  -3 -11  -4    1.62    1.06   1
   3  11   4    0.66    0.98   2
   3  11   4    1.05    1.01   3
  -3 -11  -5    1.73    1.11   1
   3  11   5    1.01    1.06   2
   3  11   5    2.47    1.06   3
  -3 -11  -6    1.23    1.10   1
   3  11   6   -0.70    1.04   2
   3  11   6    0.10    1.09   3
  -3 -11  -7   -0.44    1.17   1
   3  11   7    0.06    1.20   2
   3  11   7    0.52    1.22   3
  -4  10   3    2.62    1.18   2
  -4  10   3    4.28    1.40   3
   4 -10  -3    9.64    1.55   1
  -4  10   2    2.79    1.12   2
  -4  10   2    3.47    1.25   3
   4 -10  -2    3.69    1.22   1
  -4  10   1    1.20    1.10   2
  -4  10   1    1.16    1.12   3
   4 -10  -1    0.78    1.10   1
  -4  10   0    0.73    1.04   3
   4 -10   0    3.47    1.13   1
   4 -10   0    0.93    1.03   2
  -4  10  -1    8.89    1.41   3
   4 -10   1    8.56    1.25   1
   4 -10   1    9.67    1.34   2
  -4  10  -2   -0.79    1.10   3
   4 -10   2   -0.81    0.96   1
   4 -10   2    1.39    1.01   2
  -4  10  -3    4.07    1.28   3
   4 -10   3    4.21    1.08   1
   4 -10   3    7.64    1.36   2
  -4  10  -4   -0.18    1.21   3
   4 -10   4   -0.16    1.17   2
  -4   9   5    0.68    1.00   2
  -4   9   5    1.12    1.18   3
   4  -9  -5    1.26    1.14   1
  -4   9   4    2.29    0.98   2
  -4   9   4    3.35    1.12   3
   4  -9  -4    4.50    1.11   1
  -4   9   3   -0.29    0.88   2
  -4   9   3    1.33    1.02   3
   4  -9  -3    2.88    1.01   1
  -4   9   2    3.94    0.93   2
  -4   9   2    3.30    0.99   3
   4  -9  -2    5.65    1.02   1
  -4   9   1    0.17    0.84   3
   4  -9  -1    0.35    0.87   1
   4  -9  -1   -0.88    0.77   2
  -4   9   0    7.96    1.18   3
   4  -9   0    9.10    1.15   1
   4  -9   0    6.51    0.98   2
  -4   9  -1    1.89    0.91   3
   4  -9   1    1.71    0.85   1
   4  -9   1    1.92    0.82   2
  -4   9  -2    3.44    1.01   3
  -4   9  -2    3.40    0.63   4
   4  -9   2    4.58    0.95   1
   4  -9   2    4.60    0.94   2
  -4   9  -3   -0.24    0.82   3
  -4   9  -3    0.89    0.66   4
   4  -9   3   -0.79    0.81   2
  -4   9  -4    7.83    1.16   3
  -4   9  -4    7.64    0.93   4
   4  -9   4    8.02    1.01   1
   4  -9   4    8.73    1.24   2
  -4   9  -5    3.09    1.08   3
  -4   9  -5    1.86    0.80   4
   4  -9   5    2.70    0.89   1
   4  -9   5    2.62    1.09   2
  -4   9  -6    5.90    1.28   3
  -4   9  -6    6.99    1.11   4
   4  -9   6    8.19    1.47   2
  -4   9  -7   -1.06    1.16   3
  -4   9  -7    0.51    1.02   4
   4  -9   7    2.74    1.24   2
  -4   8   7   12.05    1.72   3
   4  -8  -7   16.45    1.97   1
  -4   8   6    0.42    0.93   2
  -4   8   6    2.26    1.01   3
   4  -8  -6    0.81    1.00   1
  -4   8   5    1.24    0.83   2
  -4   8   5    3.63    1.08   3
   4  -8  -5    3.42    1.00   1
  -4   8   4    1.91    0.78   2
  -4   8   4    3.03    0.90   3
   4  -8  -4    3.76    0.95   1
  -4   8   3    2.11    0.74   2
  -4   8   3    3.85    0.96   3
   4  -8  -3    2.33    0.79   1
  -4   8   2    0.42    0.63   2
  -4   8   2   -1.09    0.69   3
   4  -8  -2   -0.10    0.76   1
  -4   8   1   14.49    1.26   3
   4  -8  -1   12.59    1.26   1
   4  -8  -1   12.70    1.22   2
   4  -8  -1    9.37    0.67   4
  -4   8   0    0.12    0.75   3
  -4   8   0   -0.38    0.37   4
   4  -8   0   -0.04    0.70   1
   4  -8   0   -0.20    0.57   2
  -4   8  -1   22.21    1.51   3
  -4   8  -1   22.66    0.95   4
   4  -8   1   19.46    1.30   2
  -4   8  -2    0.80    0.78   3
  -4   8  -2    1.74    0.51   4
   4  -8   2    1.98    0.71   1
  -4   8  -3   11.23    1.21   3
  -4   8  -3   12.27    1.01   4
   4  -8   3   12.18    1.19   1
   4  -8   3    9.82    1.23   2
  -4   8  -4   -0.21    0.75   3
  -4   8  -4    0.62    0.54   4
   4  -8   4    0.74    0.66   1
   4  -8   4    0.23    0.80   2
  -4   8  -5    8.42    1.06   3
  -4   8  -5    9.06    0.97   4
   4  -8   5    6.21    0.84   1
   4  -8   5   11.60    1.28   2
  -4   8  -6    0.28    0.87   3
   4  -8   6   -0.49    0.65   1
   4  -8   6    0.37    0.90   2
  -4   8  -7    1.69    0.98   3
  -4   8  -7    0.60    0.87   4
   4  -8   7    1.56    0.94   2
  -4   8  -8    2.97    1.14   3
  -4   8  -8    0.46    1.02   4
   4  -8   8    3.84    1.22   2
  -4   7   8    4.99    1.35   3
   4  -7  -8    8.21    1.38   1
  -4   7   7    6.52    1.36   3
   4  -7  -7    4.65    1.14   1
  -4   7   6   10.00    1.00   2
  -4   7   6   13.69    1.45   3
   4  -7  -6   17.50    1.65   1
  -4   7   5    2.30    0.72   2
  -4   7   5    2.81    0.99   3
   4  -7  -5    1.42    0.81   1
   4  -7  -5    1.57    0.52   4
  -4   7   4   24.39    1.22   2
  -4   7   4   33.61    1.53   2
  -4   7   4   30.40    1.57   3
   4  -7  -4   31.89    1.55   1
   4  -7  -4   23.03    0.88   4
  -4   7   3    2.47    0.62   2
  -4   7   3    2.73    0.73   2
  -4   7   3    2.92    0.85   3
   4  -7  -3    2.59    0.80   1
   4  -7  -3    1.51    0.42   4
  -4   7   2   -0.32    0.50   2
  -4   7   2   -0.47    0.68   2
  -4   7   2    0.85    0.67   3
   4  -7  -2    0.77    0.55   1
   4  -7  -2    0.25    0.35   4
   4  -7  -2    0.70    0.42   4
  -4   7   1    4.10    0.71   2
  -4   7   1    5.44    0.82   3
   4  -7  -1    4.74    0.66   2
   4  -7  -1    4.73    0.52   4
  -4   7   0    2.97    0.77   2
  -4   7   0    4.67    0.49   4
   4  -7   0    4.10    0.78   1
   4  -7   0    3.98    0.65   2
   4  -7   0    4.41    0.54   4
  -4   7  -1    1.27    0.40   4
   4  -7   1    0.84    0.59   1
   4  -7   1    2.19    0.57   2
   4  -7   1    0.33    0.45   4
  -4   7  -2   17.17    1.17   3
  -4   7  -2   19.46    0.93   4
   4  -7   2   18.57    1.16   1
   4  -7   2   17.52    1.16   2
   4  -7   2   12.70    0.96   4
  -4   7  -3    0.86    0.63   3
  -4   7  -3    0.00    0.43   4
   4  -7   3   -0.38    0.52   1
   4  -7   3   -0.33    0.56   2
   4  -7   3    0.37    0.54   4
  -4   7  -4    9.97    1.09   1
  -4   7  -4   11.49    0.99   4
   4  -7   4   11.61    0.98   1
   4  -7   4   10.41    1.11   2
   4  -7   4    9.21    1.11   4
  -4   7  -5    0.73    0.64   1
  -4   7  -5    1.10    0.59   4
   4  -7   5    1.01    0.55   1
   4  -7   5    1.28    0.67   2
  -4   7  -6    1.83    0.67   1
  -4   7  -6    1.50    0.75   3
  -4   7  -6    0.64    0.63   4
   4  -7   6    1.21    0.54   1
   4  -7   6    0.98    0.72   2
  -4   7  -7    0.84    0.80   3
  -4   7  -7    0.57    0.75   4
   4  -7   7   -0.81    0.55   1
   4  -7   7    0.91    0.83   2
  -4   7  -8    0.23    0.86   3
  -4   7  -8    0.95    0.85   4
   4  -7   8    1.16    0.89   2
  -4   7  -9    1.08    0.97   3
  -4   7  -9    2.88    1.12   4
   4  -7   9    2.76    1.03   2
  -4   7 -10    0.52    1.13   3
  -4   7 -10    0.72    1.17   4
   4  -7  10    1.78    1.17   2
  -4   6   9   -0.16    1.30   3
   4  -6  -9    1.42    1.22   1
  -4   6   8    1.64    1.04   3
   4  -6  -8   -1.07    1.01   1
  -4   6   7    4.33    0.80   2
  -4   6   7    6.07    1.12   3
   4  -6  -7    7.81    1.17   1
   4  -6  -7    4.78    0.78   4
  -4   6   6    1.90    0.67   2
  -4   6   6    3.77    0.94   3
   4  -6  -6    3.50    0.86   1
   4  -6  -6    2.36    0.61   4
  -4   6   5   21.46    1.12   2
  -4   6   5   21.00    1.15   2
  -4   6   5   26.58    1.48   3
   4  -6  -5   27.88    1.44   1
   4  -6  -5   21.08    0.99   4
  -4   6   4    5.03    0.62   2
  -4   6   4    4.96    0.68   2
  -4   6   4    6.21    0.93   3
   4  -6  -4    5.62    0.82   1
   4  -6  -4    5.21    0.56   4
   4  -6  -4    6.58    0.65   4
  -4   6   3   30.22    1.09   2
  -4   6   3   29.33    1.19   2
   4  -6  -3   29.74    0.95   4
   4  -6  -3   28.57    0.96   4
  -4   6   2    2.43    0.50   2
  -4   6   2    2.07    0.57   2
  -4   6   2    2.30    0.67   3
   4  -6  -2    1.24    0.57   1
   4  -6  -2    2.41    0.41   4
   4  -6  -2    1.43    0.41   4
  -4   6   1    9.40    0.84   2
  -4   6   1   15.19    1.12   3
  -4   6   1   12.55    0.70   4
   4  -6  -1   12.97    0.97   1
   4  -6  -1   13.76    0.87   2
   4  -6  -1   10.23    0.68   4
  -4   6   0   32.89    1.18   2
  -4   6   0   33.46    1.37   3
  -4   6   0   32.66    0.92   4
   4  -6   0   32.66    1.32   1
   4  -6   0   31.51    1.12   2
   4  -6   0   24.53    0.87   4
  -4   6  -1    2.81    0.59   2
  -4   6  -1    3.10    0.67   3
  -4   6  -1    2.83    0.42   4
   4  -6   1    2.29    0.56   1
   4  -6   1    2.69    0.54   2
   4  -6   1    1.91    0.45   4
  -4   6  -2    1.32    0.61   1
  -4   6  -2    1.38    0.53   2
  -4   6  -2    1.40    0.55   3
  -4   6  -2    1.67    0.43   4
   4  -6   2    1.65    0.55   1
   4  -6   2    1.84    0.53   2
   4  -6   2    1.21    0.42   4
  -4   6  -3    4.24    0.66   1
  -4   6  -3    6.55    0.78   3
  -4   6  -3    5.29    0.59   4
   4  -6   3    7.00    0.77   1
   4  -6   3    6.77    0.75   2
   4  -6   3    4.20    0.61   4
  -4   6  -4    2.68    0.57   1
  -4   6  -4    1.85    0.59   3
  -4   6  -4    2.47    0.51   4
   4  -6   4    2.51    0.57   1
   4  -6   4    3.06    0.65   2
   4  -6   4    1.18    0.59   4
  -4   6  -5    7.95    0.90   1
  -4   6  -5    9.61    1.03   3
  -4   6  -5    9.70    0.97   4
   4  -6   5    7.50    0.83   1
   4  -6   5    8.61    1.01   2
   4  -6   5    9.44    1.15   4
  -4   6  -6    2.01    0.59   1
  -4   6  -6    0.98    0.60   3
  -4   6  -6    2.38    0.67   4
   4  -6   6    2.38    0.55   1
  -4   6  -7   -0.18    0.52   1
  -4   6  -7   -0.31    0.59   3
  -4   6  -7    0.23    0.62   4
   4  -6   7   -0.11    0.46   1
   4  -6   7   -0.21    0.59   2
  -4   6  -8   -0.12    0.70   3
  -4   6  -8    1.18    0.77   4
   4  -6   8    0.19    0.49   1
   4  -6   8    0.69    0.75   2
  -4   6  -9   -0.07    0.78   3
  -4   6  -9    1.93    0.90   4
   4  -6   9    1.05    0.83   2
  -4   6 -10    1.20    0.95   3
  -4   6 -10    3.03    1.14   4
   4  -6  10    3.20    0.98   2
  -4   6 -11   -0.28    1.01   3
  -4   6 -11    0.27    1.21   4
   4  -6  11    0.92    1.06   2
  -4   5   9    1.39    1.21   3
   4  -5  -9    4.05    1.14   1
   4  -5  -9    0.37    0.96   4
  -4   5   8   -0.28    0.91   3
   4  -5  -8   -0.09    0.88   1
   4  -5  -8    0.58    0.77   4
  -4   5   7   -0.44    0.56   2
  -4   5   7    0.65    0.84   3
   4  -5  -7    0.27    0.74   1
   4  -5  -7    0.06    0.62   4
  -4   5   6    0.77    0.52   2
  -4   5   6   -0.39    0.73   3
   4  -5  -6    0.75    0.74   1
   4  -5  -6    0.20    0.52   4
   4  -5  -6    0.10    0.64   4
  -4   5   5    1.84    0.47   2
  -4   5   5    2.17    0.52   2
  -4   5   5    2.45    0.70   3
   4  -5  -5    2.97    0.73   1
   4  -5  -5    2.27    0.54   4
   4  -5  -5    2.33    0.54   4
  -4   5   4   11.16    0.77   2
  -4   5   4   11.15    0.77   2
  -4   5   4   14.55    1.16   3
   4  -5  -4   14.09    1.03   1
   4  -5  -4    9.31    0.78   4
   4  -5  -4   10.36    0.83   4
  -4   5   3    0.06    0.34   2
  -4   5   3   -0.57    0.37   2
  -4   5   3    0.55    0.51   3
   4  -5  -3   -0.20    0.44   1
   4  -5  -3   -0.12    0.35   4
   4  -5  -3   -0.37    0.39   4
  -4   5   2   25.75    0.87   2
  -4   5   2   18.94    0.83   2
  -4   5   2   24.16    1.14   3
   4  -5  -2   24.36    1.12   1
   4  -5  -2   24.14    0.84   4
   4  -5  -2   20.49    0.80   4
  -4   5   1   11.33    0.69   2
  -4   5   1   14.82    0.99   3
  -4   5   1   15.16    0.69   4
   4  -5  -1   13.73    0.97   1
   4  -5  -1   13.86    0.74   2
   4  -5  -1   10.07    0.64   4
  -4   5   0   17.33    1.01   1
  -4   5   0   19.91    0.84   2
  -4   5   0   20.77    1.04   3
  -4   5   0   18.54    0.75   4
   4  -5   0   17.79    1.00   1
   4  -5   0   18.74    0.81   2
   4  -5   0   17.23    0.99   3
   4  -5   0   13.07    0.67   4
  -4   5  -1   44.56    1.33   1
  -4   5  -1   45.82    1.17   2
  -4   5  -1   48.03    1.40   3
  -4   5  -1   46.24    1.08   4
   4  -5   1   45.20    1.30   1
   4  -5   1   44.85    1.17   2
   4  -5   1   46.20    1.37   3
   4  -5   1   46.11    1.09   4
  -4   5  -2    0.04    0.40   1
  -4   5  -2    0.39    0.40   2
  -4   5  -2    0.22    0.42   3
  -4   5  -2    0.41    0.32   4
   4  -5   2    0.21    0.37   1
   4  -5   2    0.30    0.39   2
   4  -5   2    0.02    0.43   3
   4  -5   2    0.19    0.38   4
  -4   5  -3   17.92    0.90   1
  -4   5  -3   18.41    0.95   2
  -4   5  -3   19.76    1.02   3
  -4   5  -3   18.92    0.85   4
   4  -5   3   18.62    0.91   1
   4  -5   3   19.01    0.97   2
   4  -5   3   18.34    0.97   3
   4  -5   3   19.53    0.91   4
  -4   5  -4    6.27    0.74   1
  -4   5  -4    5.45    0.65   2
  -4   5  -4    5.45    0.64   3
  -4   5  -4    5.08    0.60   4
   4  -5   4    6.73    0.70   1
   4  -5   4    6.28    0.76   2
   4  -5   4    5.68    0.66   3
   4  -5   4    5.89    0.67   4
  -4   5  -5    0.12    0.44   1
  -4   5  -5    0.45    0.48   3
  -4   5  -5    0.82    0.46   4
   4  -5   5    0.83    0.42   1
   4  -5   5   -0.34    0.44   2
   4  -5   5    0.43    0.53   3
   4  -5   5    0.31    0.53   4
  -4   5  -6    4.07    0.55   1
  -4   5  -6    2.83    0.62   3
  -4   5  -6    2.49    0.57   4
   4  -5   6    3.55    0.51   1
   4  -5   6    3.62    0.67   2
   4  -5   6    2.17    0.62   3
  -4   5  -7    4.01    0.67   3
  -4   5  -7    4.40    0.71   3
  -4   5  -7    4.10    0.76   4
   4  -5   7    3.72    0.54   1
  -4   5  -8    4.86    0.74   3
  -4   5  -8    4.58    0.79   4
   4  -5   8    4.06    0.54   1
   4  -5   8    4.97    0.60   1
   4  -5   8    3.80    0.77   2
  -4   5  -9    0.07    0.62   3
  -4   5  -9    0.21    0.69   4
   4  -5   9    0.61    0.45   1
   4  -5   9    1.14    0.70   2
  -4   5 -10    0.28    0.78   3
  -4   5 -10    0.54    0.89   4
   4  -5  10    2.09    0.84   2
  -4   5 -11   -0.68    0.84   3
  -4   5 -11    0.59    0.99   4
   4  -5  11    1.60    0.96   2
  -4   5 -12   -0.55    1.11   4
   4  -5  12    1.63    1.11   2
  -4   4  10   -0.12    1.30   3
   4  -4 -10   -0.50    1.12   1
   4  -4 -10    1.07    1.22   4
  -4   4   9   -1.09    1.10   3
   4  -4  -9    0.83    0.96   1
   4  -4  -9    1.39    0.94   4
  -4   4   8   -0.08    0.58   2
  -4   4   8    0.62    0.87   3
   4  -4  -8    1.40    0.81   1
   4  -4  -8    0.11    0.76   4
  -4   4   7    0.98    0.50   2
  -4   4   7    0.37    0.76   3
   4  -4  -7    0.95    0.69   1
   4  -4  -7    1.66    0.67   4
  -4   4   6    1.21    0.45   2
  -4   4   6    1.06    0.46   2
  -4   4   6    2.56    0.72   3
   4  -4  -6    2.27    0.57   4
   4  -4  -6    1.47    0.62   4
  -4   4   5    0.15    0.35   2
  -4   4   5    0.51    0.36   2
  -4   4   5    0.49    0.56   3
   4  -4  -5    0.50    0.54   1
   4  -4  -5    0.18    0.44   4
   4  -4  -5    0.00    0.48   4
  -4   4   4    8.78    0.59   2
  -4   4   4    9.93    0.63   2
  -4   4   4   12.10    1.06   3
   4  -4  -4   12.24    0.90   1
   4  -4  -4   13.11    0.82   4
   4  -4  -4   10.36    0.80   4
  -4   4   3    7.51    0.53   2
  -4   4   3    4.53    0.41   2
  -4   4   3    7.61    0.85   3
   4  -4  -3    6.17    0.75   1
   4  -4  -3    6.54    0.66   4
   4  -4  -3    7.37    0.68   4
  -4   4   2    4.36    0.57   1
  -4   4   2    5.62    0.47   2
  -4   4   2    4.48    0.47   2
  -4   4   2    7.31    0.80   3
   4  -4  -2    4.77    0.64   1
   4  -4  -2    5.23    0.65   3
   4  -4  -2    6.22    0.59   4
   4  -4  -2    6.03    0.63   4
  -4   4   1    0.02    0.24   2
  -4   4   1   -0.25    0.36   3
  -4   4   1    0.32    0.28   4
   4  -4  -1    0.17    0.37   1
   4  -4  -1   -0.08    0.24   2
   4  -4  -1   -0.25    0.36   3
   4  -4  -1   -0.04    0.27   4
  -4   4   0   24.44    0.96   1
  -4   4   0   22.52    0.73   2
  -4   4   0   22.04    0.97   3
  -4   4   0   21.68    0.76   4
   4  -4   0   21.78    0.92   1
   4  -4   0   22.73    0.74   2
   4  -4   0   22.15    0.93   3
   4  -4   0   24.07    0.79   4
  -4   4  -1    6.19    0.59   1
  -4   4  -1    7.52    0.54   2
  -4   4  -1    6.84    0.67   3
  -4   4  -1    6.26    0.53   4
   4  -4   1    7.14    0.67   1
   4  -4   1    6.77    0.57   2
   4  -4   1    6.65    0.65   3
   4  -4   1    7.06    0.56   4
  -4   4  -2    2.87    0.47   1
  -4   4  -2    2.85    0.38   2
  -4   4  -2    3.51    0.49   3
  -4   4  -2    3.94    0.48   4
   4  -4   2    3.27    0.51   1
   4  -4   2    3.12    0.41   2
   4  -4   2    3.92    0.53   3
   4  -4   2    3.67    0.43   4
  -4   4  -3    0.28    0.33   1
  -4   4  -3    0.54    0.33   2
  -4   4  -3   -0.02    0.35   3
  -4   4  -3    0.25    0.27   4
   4  -4   3    0.27    0.34   1
   4  -4   3    0.30    0.31   2
   4  -4   3    0.49    0.34   3
   4  -4   3    0.19    0.32   4
  -4   4  -4   93.10    1.56   1
  -4   4  -4   79.70    1.57   2
  -4   4  -4   89.60    1.60   3
  -4   4  -4   84.53    1.59   4
   4  -4   4   87.56    1.53   1
   4  -4   4   88.69    1.67   2
   4  -4   4   90.55    1.60   3
   4  -4   4   83.91    1.58   4
  -4   4  -5    1.20    0.39   1
  -4   4  -5    1.20    0.47   2
  -4   4  -5    1.33    0.41   3
  -4   4  -5    1.09    0.44   4
   4  -4   5    1.03    0.38   1
   4  -4   5    1.01    0.42   2
   4  -4   5    1.42    0.42   3
   4  -4   5    1.24    0.46   4
  -4   4  -6    2.11    0.43   1
  -4   4  -6    1.70    0.48   3
  -4   4  -6    1.34    0.49   4
   4  -4   6    1.57    0.42   1
   4  -4   6    1.51    0.48   2
   4  -4   6    2.19    0.50   3
   4  -4   6    1.39    0.56   4
  -4   4  -7   15.77    0.92   3
  -4   4  -7   16.30    0.92   3
  -4   4  -7   16.71    1.10   4
   4  -4   7   15.91    0.80   1
   4  -4   7   12.40    0.76   1
   4  -4   7   15.02    1.05   2
  -4   4  -8   -0.12    0.45   3
  -4   4  -8   -0.11    0.51   3
  -4   4  -8    0.07    0.58   4
   4  -4   8   -0.01    0.37   1
   4  -4   8   -1.06    0.43   1
  -4   4  -9    6.47    0.75   3
  -4   4  -9    5.84    0.81   3
  -4   4  -9    5.02    0.84   4
   4  -4   9    4.66    0.53   1
   4  -4   9    5.81    0.60   1
   4  -4   9    5.88    0.92   2
  -4   4 -10    1.54    0.64   3
  -4   4 -10    1.52    0.81   4
   4  -4  10    2.34    0.51   1
   4  -4  10    1.58    0.73   2
  -4   4 -11    1.79    0.79   3
  -4   4 -11    1.20    0.83   4
   4  -4  11    2.06    0.91   2
  -4   4 -12   -0.34    0.89   3
  -4   4 -12    0.20    1.09   4
   4  -4  12    0.94    1.01   2
  -4   3  10    0.09    1.18   3
   4  -3 -10   -2.38    1.00   1
   4  -3 -10    0.07    1.12   4
  -4   3   9    2.79    1.08   3
   4  -3  -9    3.27    0.98   1
   4  -3  -9    2.75    0.92   4
  -4   3   8    0.17    0.54   2
  -4   3   8    0.68    0.81   3
   4  -3  -8    1.26    0.75   1
  -4   3   7    2.61    0.48   2
  -4   3   7    3.61    0.56   2
  -4   3   7    3.51    0.75   3
   4  -3  -7    3.42    0.70   4
  -4   3   6    3.25    0.45   2
  -4   3   6    3.71    0.45   2
   4  -3  -6    4.39    0.72   1
   4  -3  -6    4.06    0.68   4
  -4   3   5   12.46    0.63   2
  -4   3   5   18.77    1.09   3
   4  -3  -5   16.30    0.98   1
   4  -3  -5   18.04    0.98   4
   4  -3  -5   17.13    1.02   4
  -4   3   4    4.74    0.42   2
  -4   3   4    6.19    0.75   3
   4  -3  -4    7.14    0.79   1
   4  -3  -4    6.02    0.67   4
   4  -3  -4    6.62    0.73   4
  -4   3   3    0.64    0.38   1
  -4   3   3   -0.02    0.17   2
  -4   3   3    0.10    0.19   2
  -4   3   3    0.37    0.40   3
   4  -3  -3   -0.23    0.41   1
   4  -3  -3   -0.07    0.38   3
   4  -3  -3    0.27    0.31   4
   4  -3  -3   -0.34    0.33   4
  -4   3   2   13.47    0.76   1
  -4   3   2   15.49    0.46   2
  -4   3   2   16.60    0.49   2
  -4   3   2   14.79    0.86   3
   4  -3  -2   15.33    0.82   1
   4  -3  -2   15.74    0.84   3
   4  -3  -2   15.16    0.71   4
   4  -3  -2   15.98    0.71   4
  -4   3   1   11.58    0.74   1
  -4   3   1   12.90    0.44   2
  -4   3   1   12.93    0.76   3
  -4   3   1   12.87    0.64   4
   4  -3  -1   12.77    0.76   1
   4  -3  -1   12.19    0.72   3
   4  -3  -1   13.05    0.65   4
  -4   3   0   -0.67    0.25   1
  -4   3   0    0.21    0.17   2
  -4   3   0   -0.14    0.27   3
  -4   3   0   -0.01    0.23   4
   4  -3   0   -0.16    0.30   1
   4  -3   0   -0.38    0.28   3
   4  -3   0    0.12    0.23   4
  -4   3  -1    0.19    0.30   1
  -4   3  -1    0.13    0.30   3
  -4   3  -1   -0.24    0.22   4
   4  -3   1    0.24    0.30   1
   4  -3   1    0.23    0.21   2
   4  -3   1    0.38    0.30   3
   4  -3   1    0.02    0.24   4
  -4   3  -2   32.19    0.95   1
  -4   3  -2   31.50    0.82   2
  -4   3  -2   29.65    0.92   3
  -4   3  -2   29.58    0.88   4
   4  -3   2   30.42    0.94   1
   4  -3   2   30.45    0.81   2
   4  -3   2   31.71    0.91   3
   4  -3   2   31.71    0.89   4
  -4   3  -3   40.90    1.03   1
  -4   3  -3   40.81    0.99   2
  -4   3  -3   38.47    0.99   3
  -4   3  -3   37.47    0.99   4
   4  -3   3   40.15    1.06   1
   4  -3   3   37.53    0.97   2
   4  -3   3   43.08    1.02   3
   4  -3   3   39.94    1.04   4
  -4   3  -4    4.26    0.52   1
  -4   3  -4    4.46    0.53   2
  -4   3  -4    5.00    0.52   3
  -4   3  -4    4.71    0.52   4
   4  -3   4    4.50    0.50   1
   4  -3   4    4.44    0.50   2
   4  -3   4    4.12    0.44   3
   4  -3   4    5.38    0.59   4
  -4   3  -5    0.62    0.33   1
  -4   3  -5   -0.15    0.35   2
  -4   3  -5   -0.34    0.29   3
  -4   3  -5    0.31    0.35   4
   4  -3   5    0.15    0.29   1
   4  -3   5    0.17    0.34   2
   4  -3   5    0.20    0.31   3
   4  -3   5    0.34    0.36   4
  -4   3  -6   21.89    0.83   1
  -4   3  -6   19.18    0.98   2
  -4   3  -6   20.59    0.81   3
  -4   3  -6   20.58    1.00   4
   4  -3   6   20.99    0.80   1
   4  -3   6   20.53    1.00   2
   4  -3   6   20.61    0.81   3
   4  -3   6   19.33    0.97   4
  -4   3  -7   25.48    0.90   3
  -4   3  -7   22.65    0.88   3
  -4   3  -7   26.37    1.18   4
   4  -3   7   26.30    0.90   1
   4  -3   7   18.75    0.80   1
   4  -3   7   23.25    1.12   2
  -4   3  -8   14.37    0.81   3
  -4   3  -8   13.32    0.81   3
  -4   3  -8   16.05    1.13   4
   4  -3   8   12.98    0.74   1
   4  -3   8   13.42    0.80   1
   4  -3   8   14.65    1.07   2
  -4   3  -9    0.20    0.45   3
  -4   3  -9   -0.32    0.48   3
   4  -3   9   -0.28    0.40   1
   4  -3   9   -0.75    0.43   1
   4  -3   9   -0.09    0.51   2
  -4   3 -10    8.48    0.94   3
  -4   3 -10   11.54    1.10   3
  -4   3 -10   11.95    1.32   4
   4  -3  10    8.80    0.77   1
   4  -3  10   10.10    1.20   2
  -4   3 -11    2.45    0.71   3
  -4   3 -11    2.47    0.90   4
   4  -3  11    1.27    0.53   1
   4  -3  11    1.98    0.85   2
  -4   3 -12    0.51    0.74   3
  -4   3 -12    1.01    1.04   4
   4  -3  12    0.94    0.89   2
  -4   3 -13    1.01    1.08   4
   4  -3  13    0.90    1.08   2
  -4   2  10    3.51    1.30   3
   4  -2 -10    0.81    0.94   1
   4  -2 -10    1.30    1.06   4
  -4   2   9    1.18    0.65   2
  -4   2   9    3.64    1.03   3
   4  -2  -9    1.76    0.83   1
   4  -2  -9    1.14    0.87   4
  -4   2   8   -0.07    0.50   2
  -4   2   8    1.60    0.90   3
   4  -2  -8    0.72    0.69   1
   4  -2  -8   -0.25    0.67   4
  -4   2   7   10.37    0.77   2
   4  -2  -7   13.27    1.08   1
   4  -2  -7   13.53    0.78   2
   4  -2  -7   12.80    1.14   4
  -4   2   6    5.39    0.58   2
  -4   2   6    7.57    0.93   3
   4  -2  -6    6.48    0.78   1
   4  -2  -6    7.57    0.56   2
   4  -2  -6    7.29    0.89   4
  -4   2   5    4.93    0.75   1
  -4   2   5    4.71    0.43   2
  -4   2   5    6.36    0.80   3
   4  -2  -5    5.25    0.64   1
   4  -2  -5    5.71    0.65   4
   4  -2  -5    5.46    0.69   4
  -4   2   4   49.00    1.41   1
  -4   2   4   34.60    0.61   2
  -4   2   4   35.45    0.62   2
  -4   2   4   47.32    1.42   3
   4  -2  -4   49.39    1.39   1
   4  -2  -4   45.81    1.35   3
   4  -2  -4   48.07    1.29   4
   4  -2  -4   48.98    1.30   4
  -4   2   3   60.80    1.41   1
  -4   2   3   55.77    0.61   2
  -4   2   3   43.47    0.55   2
  -4   2   3   57.91    1.46   3
   4  -2  -3   57.21    1.40   1
   4  -2  -3   55.34    1.35   3
   4  -2  -3   57.39    1.29   4
   4  -2  -3   58.74    1.29   4
  -4   2   2   79.32    1.50   1
  -4   2   2   76.08    0.59   2
  -4   2   2   76.81    0.60   2
  -4   2   2   75.97    1.54   3
   4  -2  -2   72.37    1.47   1
   4  -2  -2   74.75    1.47   3
   4  -2  -2   75.33    1.38   4
   4  -2  -2   76.35    1.36   4
  -4   2   1   22.35    0.81   1
  -4   2   1   23.62    0.38   2
  -4   2   1   23.19    0.38   2
  -4   2   1   22.24    0.85   3
  -4   2   1   21.77    0.77   4
   4  -2  -1   23.28    0.90   1
   4  -2  -1   23.76    0.82   3
   4  -2  -1   23.26    0.77   4
  -4   2   0   10.21    0.63   1
  -4   2   0    9.17    0.33   2
  -4   2   0    9.42    0.62   3
  -4   2   0    9.59    0.56   4
   4  -2   0    8.94    0.61   1
   4  -2   0    9.62    0.33   2
   4  -2   0    9.59    0.59   3
   4  -2   0   10.01    0.55   4
  -4   2  -1   14.45    0.46   2
  -4   2  -1   14.84    0.66   3
  -4   2  -1   13.97    0.61   4
   4  -2   1   14.24    0.72   1
   4  -2   1   13.96    0.44   2
   4  -2   1   14.57    0.64   3
   4  -2   1   15.55    0.63   4
  -4   2  -2   83.70    1.36   1
  -4   2  -2   80.11    1.09   2
  -4   2  -2   80.18    1.25   3
  -4   2  -2   79.39    1.33   4
   4  -2   2   82.05    1.40   1
   4  -2   2   78.78    1.10   2
   4  -2   2   83.07    1.24   3
   4  -2   2   79.95    1.30   4
  -4   2  -3   -0.02    0.26   1
  -4   2  -3    0.39    0.23   2
  -4   2  -3    0.22    0.24   3
  -4   2  -3    0.16    0.25   4
   4  -2   3    0.87    0.30   1
   4  -2   3    0.13    0.23   2
   4  -2   3    0.20    0.21   3
   4  -2   3    0.18    0.25   4
  -4   2  -4    4.84    0.48   1
  -4   2  -4    4.88    0.50   2
  -4   2  -4    4.92    0.45   3
  -4   2  -4    5.11    0.56   4
   4  -2   4    4.38    0.49   1
   4  -2   4    5.06    0.51   2
   4  -2   4    4.69    0.39   3
   4  -2   4    4.97    0.49   4
  -4   2  -5   14.50    0.67   1
  -4   2  -5   13.18    0.71   2
  -4   2  -5   13.66    0.56   3
  -4   2  -5   14.96    0.79   4
   4  -2   5   14.01    0.68   1
   4  -2   5   13.58    0.71   2
   4  -2   5   13.81    0.55   3
   4  -2   5   12.91    0.68   4
  -4   2  -6    0.93    0.37   2
  -4   2  -6    1.32    0.30   3
  -4   2  -6    1.40    0.28   3
  -4   2  -6    1.57    0.44   4
   4  -2   6    2.12    0.37   1
   4  -2   6    1.49    0.36   1
   4  -2   6    1.22    0.41   2
   4  -2   6    1.42    0.36   4
  -4   2  -7    2.35    0.46   2
  -4   2  -7    2.85    0.38   3
  -4   2  -7    2.13    0.35   3
  -4   2  -7    3.26    0.57   4
   4  -2   7    3.00    0.45   1
   4  -2   7    3.18    0.48   1
   4  -2   7    2.98    0.56   2
   4  -2   7    3.83    0.51   4
  -4   2  -8    6.25    0.60   3
  -4   2  -8    4.52    0.45   3
  -4   2  -8    5.14    0.73   4
   4  -2   8    7.23    0.65   1
   4  -2   8    5.05    0.56   1
   4  -2   8    6.59    0.78   2
  -4   2  -9   11.08    0.75   3
  -4   2  -9   10.43    0.75   3
  -4   2  -9   13.97    1.07   4
   4  -2   9   13.90    0.79   1
   4  -2   9   11.79    0.86   1
   4  -2   9   15.11    1.16   2
  -4   2 -10    2.15    0.49   3
  -4   2 -10    1.79    0.52   3
  -4   2 -10    2.08    0.71   4
   4  -2  10    2.20    0.50   1
   4  -2  10    2.21    0.59   1
   4  -2  10    2.38    0.73   2
  -4   2 -11    2.72    0.61   3
  -4   2 -11    3.13    0.84   4
   4  -2  11    3.37    0.59   1
   4  -2  11    2.86    0.80   2
  -4   2 -12    0.77    0.65   3
  -4   2 -12   -0.62    0.87   4
   4  -2  12   -0.45    0.79   2
  -4   2 -13    0.04    1.07   4
   4  -2  13    1.65    1.02   2
  -4   1  10    2.75    1.23   3
   4  -1 -10    3.04    0.98   1
   4  -1 -10    1.99    1.13   4
  -4   1   9    0.32    0.58   2
  -4   1   9    0.25    0.99   3
   4  -1  -9    1.12    0.73   1
   4  -1  -9    0.03    0.83   4
  -4   1   8   -1.08    0.46   2
  -4   1   8    0.84    0.74   3
   4  -1  -8    0.38    0.65   1
   4  -1  -8   -0.28    0.54   2
   4  -1  -8   -0.24    0.69   4
  -4   1   7    9.82    0.74   2
  -4   1   7   14.00    1.29   3
   4  -1  -7   12.33    1.03   1
   4  -1  -7   12.66    0.79   2
   4  -1  -7   11.66    1.15   4
  -4   1   6    1.27    0.65   1
  -4   1   6    0.20    0.30   2
  -4   1   6    0.49    0.53   3
   4  -1  -6    0.10    0.47   1
   4  -1  -6    0.23    0.29   2
   4  -1  -6    0.13    0.50   4
  -4   1   5    1.78    0.57   1
  -4   1   5    1.39    0.51   3
   4  -1  -5    1.01    0.48   1
   4  -1  -5    1.15    0.26   2
   4  -1  -5    1.27    0.49   4
   4  -1  -5    1.35    0.58   4
  -4   1   4   29.85    1.08   1
  -4   1   4   21.62    0.47   2
  -4   1   4   29.53    1.12   3
   4  -1  -4   27.45    1.02   1
   4  -1  -4   30.00    0.53   2
   4  -1  -4   30.94    1.13   3
   4  -1  -4   27.68    1.04   4
   4  -1  -4   29.62    1.06   4
  -4   1   3    5.47    0.60   1
  -4   1   3    4.79    0.18   2
  -4   1   3    4.49    0.18   2
  -4   1   3    4.16    0.53   3
   4  -1  -3    4.50    0.52   1
   4  -1  -3    5.37    0.58   3
   4  -1  -3    4.86    0.55   4
   4  -1  -3    5.66    0.61   4
  -4   1   2  122.02    1.75   1
  -4   1   2  118.86    1.82   3
   4  -1  -2  117.46    1.75   1
   4  -1  -2  120.42    1.78   3
   4  -1  -2  121.61    1.74   4
   4  -1  -2  125.10    1.74   4
  -4   1   1  218.67    2.24   1
  -4   1   1  211.59    2.23   3
  -4   1   1  212.34    2.17   4
   4  -1  -1  213.45    2.27   1
   4  -1  -1  211.68    2.18   3
   4  -1  -1  215.58    2.16   4
  -4   1   0  230.04    2.24   1
  -4   1   0  219.75    0.80   2
  -4   1   0  214.23    2.08   3
  -4   1   0  208.71    2.08   4
   4  -1   0  222.51    2.25   1
   4  -1   0  224.08    0.80   2
   4  -1   0  223.11    2.09   3
   4  -1   0  224.24    2.12   4
  -4   1  -1    6.80    0.50   1
  -4   1  -1    6.75    0.30   2
  -4   1  -1    7.15    0.48   3
  -4   1  -1    7.34    0.49   4
   4  -1   1    6.30    0.54   1
   4  -1   1    6.50    0.29   2
   4  -1   1    7.57    0.44   3
   4  -1   1    6.95    0.46   4
  -4   1  -2   43.25    0.98   1
  -4   1  -2   40.24    0.72   2
  -4   1  -2   40.29    0.81   3
  -4   1  -2   39.64    0.94   4
   4  -1   2   39.49    0.96   1
   4  -1   2   39.93    0.72   2
   4  -1   2   41.52    0.82   3
   4  -1   2   41.28    0.93   4
  -4   1  -3    3.43    0.40   1
  -4   1  -3    2.82    0.35   2
  -4   1  -3    3.00    0.29   3
  -4   1  -3    1.86    0.31   4
   4  -1   3    3.02    0.40   1
   4  -1   3    2.86    0.34   2
   4  -1   3    2.82    0.31   3
   4  -1   3    3.02    0.35   4
  -4   1  -4   -0.01    0.22   1
  -4   1  -4   -0.16    0.22   2
  -4   1  -4    0.19    0.18   3
  -4   1  -4    0.15    0.24   4
   4  -1   4   -0.05    0.24   1
   4  -1   4    0.26    0.26   2
   4  -1   4    0.13    0.16   3
   4  -1   4    0.09    0.25   4
  -4   1  -5    0.67    0.29   2
  -4   1  -5    0.34    0.17   3
  -4   1  -5    0.53    0.32   4
   4  -1   5    0.38    0.28   1
   4  -1   5    0.77    0.27   1
   4  -1   5    0.36    0.31   2
   4  -1   5    0.51    0.18   3
   4  -1   5    0.31    0.27   4
  -4   1  -6    1.75    0.39   2
  -4   1  -6    2.17    0.26   3
  -4   1  -6    2.04    0.24   3
  -4   1  -6    1.86    0.39   4
   4  -1   6    2.22    0.39   1
   4  -1   6    1.97    0.38   1
   4  -1   6    1.94    0.43   2
   4  -1   6    1.05    0.32   4
  -4   1  -7   -0.49    0.33   2
  -4   1  -7   -0.13    0.19   3
  -4   1  -7   -0.08    0.19   3
  -4   1  -7    0.43    0.38   4
   4  -1   7   -0.05    0.29   1
   4  -1   7    0.25    0.35   1
   4  -1   7   -0.14    0.35   2
   4  -1   7   -0.71    0.35   4
  -4   1  -8    6.19    0.48   3
  -4   1  -8    5.05    0.44   3
  -4   1  -8    7.29    0.83   4
   4  -1   8    7.64    0.67   1
   4  -1   8    6.51    0.68   1
   4  -1   8    6.30    0.74   2
  -4   1  -9    3.23    0.40   3
  -4   1  -9    3.09    0.40   3
  -4   1  -9    3.18    0.64   4
   4  -1   9    3.94    0.54   1
   4  -1   9    3.57    0.59   1
   4  -1   9    3.72    0.70   2
  -4   1 -10    5.29    0.65   3
  -4   1 -10    7.00    0.67   3
  -4   1 -10    8.01    1.00   4
   4  -1  10    6.27    0.75   1
   4  -1  10    5.41    0.73   1
   4  -1  10    4.86    0.80   2
  -4   1 -11    0.77    0.49   3
  -4   1 -11    0.62    0.79   4
   4  -1  11    1.09    0.56   1
   4  -1  11    1.65    0.73   1
   4  -1  11    1.02    0.72   2
  -4   1 -12    1.39    0.61   3
  -4   1 -12    0.85    0.81   4
   4  -1  12    0.53    0.62   1
   4  -1  12    1.67    0.81   2
  -4   1 -13    0.90    1.06   4
   4  -1  13   -1.92    0.90   2
  -4   1 -14    0.23    1.27   4
   4  -1  14    0.70    1.20   2
  -4   0  10    2.46    1.20   3
   4   0 -10    2.72    0.82   1
   4   0 -10    0.99    1.08   4
  -4   0   9    4.46    0.74   2
  -4   0   9    6.06    1.13   3
   4   0  -9    6.88    0.90   1
   4   0  -9    5.51    1.08   4
  -4   0   8    2.84    0.82   1
  -4   0   8    1.44    0.54   2
  -4   0   8    0.79    0.76   3
   4   0  -8    2.03    0.65   1
   4   0  -8   -0.19    0.59   2
   4   0  -8    0.95    0.70   4
  -4   0   7   29.41    1.33   1
  -4   0   7   20.63    0.89   2
  -4   0   7   29.91    1.55   3
   4   0  -7   29.53    1.22   1
   4   0  -7   28.01    1.01   2
  -4   0   6   17.31    1.05   1
  -4   0   6   12.12    0.67   2
  -4   0   6   16.86    1.15   3
   4   0  -6   16.25    0.94   1
   4   0  -6   17.70    0.73   2
   4   0  -6   15.99    1.09   4
  -4   0   5    4.65    0.60   1
  -4   0   5    3.72    0.44   2
  -4   0   5    5.92    0.74   3
   4   0  -5    5.33    0.62   1
   4   0  -5    5.04    0.46   2
   4   0  -5    5.52    0.71   4
  -4   0   4   20.79    0.89   1
  -4   0   4   19.30    0.50   2
  -4   0   4   18.99    0.93   3
   4   0  -4   19.81    0.84   1
   4   0  -4   21.64    0.53   2
   4   0  -4   20.91    0.97   3
   4   0  -4   18.57    0.95   4
   4   0  -4   22.21    1.01   4
  -4   0   3   14.67    0.73   1
  -4   0   3   14.93    0.34   2
  -4   0   3   14.64    0.82   3
   4   0  -3   12.62    0.71   1
   4   0  -3   15.42    0.34   2
   4   0  -3   16.29    0.81   3
   4   0  -3   14.35    0.79   4
   4   0  -3   15.45    0.77   4
  -4   0   2    0.20    0.27   1
  -4   0   2    0.66    0.34   3
   4   0  -2    0.28    0.29   1
   4   0  -2    0.45    0.28   3
   4   0  -2    0.45    0.32   4
   4   0  -2    0.31    0.26   4
  -4   0   1   38.24    0.93   1
  -4   0   1   37.04    0.97   3
   4   0  -1   35.63    0.95   1
   4   0  -1   36.96    0.93   3
   4   0  -1   35.58    0.97   4
   4   0  -1   36.66    0.95   4
  -4   0   0   24.61    0.75   1
  -4   0   0   22.27    0.71   3
  -4   0   0   23.61    0.77   4
   4   0   0   24.46    0.79   1
   4   0   0   24.78    0.72   3
   4   0   0   24.13    0.74   4
  -4   0  -1  250.79    2.21   1
  -4   0  -1  256.79    1.30   2
  -4   0  -1  241.59    1.92   3
  -4   0  -1  258.66    2.27   4
   4   0   1  251.11    2.24   1
   4   0   1  246.04    1.28   2
   4   0   1  255.24    2.23   4
  -4   0  -2  488.35    3.07   1
  -4   0  -2  470.53    2.21   2
  -4   0  -2  460.32    2.33   3
  -4   0  -2  468.86    3.04   4
   4   0   2  463.38    3.02   1
   4   0   2  447.67    2.18   2
   4   0   2  466.63    2.33   3
  -4   0  -3    6.51    0.45   1
  -4   0  -3    5.72    0.38   2
  -4   0  -3    6.22    0.29   3
  -4   0  -3    6.44    0.49   4
   4   0   3    6.75    0.50   1
   4   0   3    6.22    0.42   2
   4   0   3    6.49    0.32   3
   4   0   3    6.48    0.44   4
  -4   0  -4   38.13    0.87   2
  -4   0  -4   36.14    0.49   3
  -4   0  -4   35.93    0.96   4
   4   0   4   37.69    0.94   1
   4   0   4   38.93    0.93   1
   4   0   4   34.49    0.87   2
   4   0   4   38.27    0.51   3
   4   0   4   36.56    0.93   4
  -4   0  -5    6.82    0.50   2
  -4   0  -5    6.55    0.21   3
  -4   0  -5    7.10    0.22   3
  -4   0  -5    6.31    0.53   4
   4   0   5    6.64    0.51   1
   4   0   5    6.84    0.52   1
   4   0   5    6.42    0.56   2
  -4   0  -6   -0.17    0.27   2
  -4   0  -6    0.22    0.12   3
  -4   0  -6    0.23    0.10   3
  -4   0  -6    0.34    0.31   4
   4   0   6    0.36    0.29   1
   4   0   6    0.31    0.30   1
   4   0   6    0.17    0.34   2
   4   0   6    0.41    0.28   4
  -4   0  -7    0.93    0.36   2
  -4   0  -7    0.61    0.15   3
  -4   0  -7    0.58    0.14   3
  -4   0  -7    1.00    0.40   4
   4   0   7    0.66    0.33   1
   4   0   7    1.27    0.39   1
   4   0   7    0.19    0.35   2
   4   0   7   -0.37    0.33   4
  -4   0  -8   -0.16    0.40   2
  -4   0  -8    0.20    0.18   3
  -4   0  -8   -0.08    0.18   3
  -4   0  -8    0.23    0.42   4
   4   0   8    0.52    0.35   1
   4   0   8    0.92    0.45   1
   4   0   8   -0.39    0.39   2
   4   0   8   -0.74    0.41   4
  -4   0  -9    1.37    0.30   3
  -4   0  -9    1.67    0.53   4
   4   0   9    2.26    0.46   1
   4   0   9    1.99    0.59   1
   4   0   9    1.95    0.51   2
  -4   0 -10    0.62    0.32   3
  -4   0 -10    0.88    0.38   3
  -4   0 -10   -0.15    0.58   4
   4   0  10    0.56    0.48   1
   4   0  10    0.76    0.64   1
  -4   0 -11   -0.20    0.38   3
  -4   0 -11    0.49    0.44   3
  -4   0 -11   -0.08    0.65   4
   4   0  11    0.53    0.55   1
   4   0  11    0.43    0.74   1
   4   0  11    0.56    0.66   2
  -4   0 -12    6.26    0.66   3
  -4   0 -12    8.99    1.18   4
   4   0  12    8.79    1.08   1
   4   0  12    7.40    1.04   2
  -4   0 -13   -0.90    0.87   4
   4   0  13   -0.18    0.77   1
   4   0  13    1.77    1.02   2
  -4   0 -14    0.79    1.21   4
   4   0  14    2.36    1.16   2
  -4  -1  10   -0.33    1.09   3
   4   1 -10    0.57    1.08   4
  -4  -1   9    0.41    0.67   2
  -4  -1   9    1.23    0.94   3
   4   1  -9    0.38    0.64   1
   4   1  -9    0.92    0.89   4
  -4  -1   8   12.87    1.00   2
  -4  -1   8   13.34    1.37   3
   4   1  -8   17.46    1.06   1
   4   1  -8   12.14    1.15   2
   4   1  -8   14.21    1.39   4
  -4  -1   7    4.22    0.67   1
  -4  -1   7    4.91    0.58   2
  -4  -1   7    5.99    0.88   3
   4   1  -7    5.85    0.67   1
   4   1  -7    7.25    0.82   2
   4   1  -7    6.34    0.87   4
  -4  -1   6   -0.06    0.46   1
  -4  -1   6    1.15    0.39   2
  -4  -1   6    1.31    0.57   3
   4   1  -6    1.04    0.45   1
   4   1  -6    1.79    0.41   2
   4   1  -6    0.99    0.52   4
  -4  -1   5    1.44    0.45   1
  -4  -1   5    1.83    0.35   2
  -4  -1   5    1.54    0.53   3
   4   1  -5    1.10    0.42   1
   4   1  -5    1.04    0.34   2
   4   1  -5    1.89    0.49   4
  -4  -1   4   49.32    1.12   1
  -4  -1   4   47.52    0.87   2
  -4  -1   4   43.79    1.31   3
  -4  -1   4   48.38    1.32   4
   4   1  -4   46.74    1.11   1
   4   1  -4   47.68    0.85   2
   4   1  -4   48.46    1.34   3
   4   1  -4   48.78    1.38   4
  -4  -1   3   13.93    0.65   1
  -4  -1   3   12.89    0.43   2
  -4  -1   3   12.84    0.81   3
   4   1  -3   11.27    0.64   1
   4   1  -3   12.35    0.45   2
   4   1  -3   12.40    0.69   3
   4   1  -3   12.62    0.80   4
   4   1  -3   13.08    0.76   4
  -4  -1   2   15.85    0.64   1
  -4  -1   2   16.02    0.39   2
  -4  -1   2   15.87    0.77   3
   4   1  -2   16.08    0.68   1
   4   1  -2   16.08    0.39   2
   4   1  -2   15.67    0.70   3
   4   1  -2   15.62    0.73   4
   4   1  -2   16.42    0.75   4
  -4  -1   1    8.05    0.52   1
  -4  -1   1    8.01    0.55   3
   4   1  -1    8.93    0.54   1
   4   1  -1    8.57    0.27   2
   4   1  -1    8.03    0.27   2
   4   1  -1    8.54    0.48   3
   4   1  -1    8.15    0.59   4
   4   1  -1    8.32    0.54   4
  -4  -1   0   29.68    0.79   1
  -4  -1   0   29.38    0.79   3
  -4  -1   0   29.36    0.86   4
   4   1   0   30.82    0.84   1
   4   1   0   29.70    0.46   2
   4   1   0   29.39    0.46   2
   4   1   0   30.35    0.78   3
   4   1   0   30.12    0.85   4
  -4  -1  -1    0.89    0.23   1
  -4  -1  -1    0.87    0.22   3
  -4  -1  -1    0.73    0.25   4
   4   1   1    1.53    0.29   1
   4   1   1    1.13    0.16   2
   4   1   1    1.07    0.27   4
  -4  -1  -2    8.02    0.47   1
  -4  -1  -2    8.05    0.36   2
  -4  -1  -2    7.17    0.34   3
  -4  -1  -2    7.79    0.48   4
   4   1   2    7.83    0.50   1
   4   1   2    8.33    0.37   2
   4   1   2    7.80    0.36   3
   4   1   2    8.48    0.49   4
  -4  -1  -3    0.15    0.11   3
  -4  -1  -3    0.08    0.21   4
   4   1   3    0.08    0.22   1
   4   1   3   -0.16    0.18   1
   4   1   3    0.12    0.19   2
   4   1   3    0.11    0.12   3
   4   1   3    0.32    0.20   4
  -4  -1  -4  118.13    1.48   2
  -4  -1  -4    9.50    0.18   3
  -4  -1  -4  110.46    1.56   4
   4   1   4  118.21    1.62   1
   4   1   4  119.56    1.60   1
   4   1   4  110.80    1.47   2
   4   1   4  116.96    0.56   3
   4   1   4  116.26    1.57   4
  -4  -1  -5    0.50    0.24   2
  -4  -1  -5    0.22    0.28   4
   4   1   5    0.63    0.27   1
   4   1   5    0.64    0.26   1
   4   1   5    0.21    0.30   2
   4   1   5    0.67    0.24   4
  -4  -1  -6    0.52    0.26   2
  -4  -1  -6    0.40    0.33   4
   4   1   6    0.26    0.28   1
   4   1   6    0.75    0.32   1
   4   1   6    0.36    0.32   2
   4   1   6    0.62    0.27   4
  -4  -1  -7   83.21    1.54   1
  -4  -1  -7   82.60    1.58   2
  -4  -1  -7   86.37    1.66   4
   4   1   7   92.99    1.61   1
   4   1   7   83.75    1.68   2
   4   1   7   86.45    1.60   4
  -4  -1  -8    5.03    0.62   1
  -4  -1  -8    5.59    0.68   2
  -4  -1  -8    3.74    0.21   3
  -4  -1  -8    3.90    0.23   3
  -4  -1  -8    5.91    0.68   4
   4   1   8    6.42    0.74   1
   4   1   8    4.66    0.63   2
   4   1   8    6.69    0.75   4
  -4  -1  -9    0.31    0.41   1
  -4  -1  -9    0.14    0.19   3
  -4  -1  -9    0.11    0.22   3
  -4  -1  -9    0.25    0.40   4
   4   1   9    0.91    0.59   1
   4   1   9   -0.06    0.49   2
  -4  -1 -10    0.28    0.49   1
  -4  -1 -10    0.24    0.29   3
  -4  -1 -10   -0.55    0.54   4
   4   1  10   -0.66    0.67   1
   4   1  10   -0.43    0.51   2
  -4  -1 -11   -0.34    0.55   1
  -4  -1 -11   -0.38    0.35   3
  -4  -1 -11    0.77    0.41   3
  -4  -1 -11   -0.58    0.58   4
   4   1  11    0.54    0.67   2
  -4  -1 -12    0.55    0.66   1
  -4  -1 -12   -0.17    0.46   3
  -4  -1 -12   -0.86    0.73   4
   4   1  12   -0.84    0.63   2
  -4  -1 -13    0.77    0.93   4
   4   1  13    1.37    0.86   1
   4   1  13    1.93    0.99   2
  -4  -1 -14   -1.24    1.00   4
   4   1  14   -0.03    0.99   1
   4   1  14    1.36    0.99   2
  -4  -2  10    1.08    1.16   3
   4   2 -10    1.10    1.04   4
  -4  -2   9    1.52    0.76   2
  -4  -2   9    1.97    0.96   3
   4   2  -9    2.95    0.96   4
  -4  -2   8    0.20    0.60   2
  -4  -2   8    0.68    0.81   3
   4   2  -8    1.51    0.52   1
   4   2  -8    1.64    0.72   2
   4   2  -8    0.26    0.70   4
  -4  -2   7   14.34    0.91   1
  -4  -2   7   12.10    0.94   2
  -4  -2   7   17.04    1.22   3
   4   2  -7   17.60    0.90   1
   4   2  -7   19.25    1.14   2
   4   2  -7   18.78    1.29   4
  -4  -2   6    0.09    0.41   1
  -4  -2   6    0.52    0.39   2
  -4  -2   6   -0.04    0.54   3
   4   2  -6    0.29    0.38   1
   4   2  -6    0.85    0.45   2
   4   2  -6   -0.47    0.53   4
  -4  -2   5   23.58    0.87   1
  -4  -2   5   30.88    0.93   2
  -4  -2   5   27.03    1.19   3
   4   2  -5   28.40    0.91   1
   4   2  -5   30.43    0.94   2
   4   2  -5   28.00    1.22   4
  -4  -2   4   21.63    0.78   1
  -4  -2   4   20.94    0.73   2
  -4  -2   4   20.73    1.03   3
  -4  -2   4   22.13    1.06   4
   4   2  -4   20.80    0.78   1
   4   2  -4   20.82    0.73   2
   4   2  -4   19.66    0.99   3
   4   2  -4   19.33    1.01   4
  -4  -2   3    3.44    0.42   1
  -4  -2   3    2.84    0.34   2
  -4  -2   3    2.81    0.48   3
   4   2  -3    3.40    0.42   1
   4   2  -3    2.81    0.45   3
   4   2  -3    2.79    0.52   4
   4   2  -3    2.63    0.49   4
  -4  -2   2    6.88    0.49   1
  -4  -2   2    6.34    0.62   3
   4   2  -2    5.86    0.51   1
   4   2  -2    6.66    0.40   2
   4   2  -2    6.55    0.55   3
   4   2  -2    6.00    0.61   4
   4   2  -2    5.19    0.59   4
  -4  -2   1  202.31    1.94   1
  -4  -2   1  203.78    1.54   2
  -4  -2   1  199.51    2.17   3
   4   2  -1  203.89    1.96   1
   4   2  -1  201.99    1.52   2
   4   2  -1  204.05    2.15   3
   4   2  -1  180.94    2.13   4
   4   2  -1  202.79    2.22   4
  -4  -2   0    7.40    0.48   1
  -4  -2   0    7.27    0.49   3
   4   2   0    8.83    0.51   1
   4   2   0    7.99    0.36   2
   4   2   0    7.46    0.37   2
   4   2   0    7.91    0.47   3
   4   2   0    6.82    0.52   4
   4   2   0    7.50    0.49   4
  -4  -2  -1   36.86    0.82   3
  -4  -2  -1   36.76    0.92   4
   4   2   1   37.64    0.91   1
   4   2   1   37.86    0.88   1
   4   2   1   37.22    0.74   2
   4   2   1   39.11    0.72   2
   4   2   1   36.51    0.79   3
   4   2   1   37.19    0.89   4
  -4  -2  -2   31.15    0.73   2
  -4  -2  -2   32.08    0.68   3
  -4  -2  -2   31.51    0.84   4
   4   2   2   32.96    0.87   1
   4   2   2   35.29    0.88   1
   4   2   2   32.84    0.73   2
   4   2   2   31.54    0.65   3
   4   2   2   33.82    0.84   4
  -4  -2  -3   39.95    0.85   2
  -4  -2  -3   39.89    0.61   3
  -4  -2  -3   37.97    0.90   4
   4   2   3   37.28    0.93   1
   4   2   3   40.78    0.96   1
   4   2   3   37.65    0.86   2
   4   2   3   39.18    0.60   3
   4   2   3   40.95    0.91   4
  -4  -2  -4    5.08    0.42   2
  -4  -2  -4    4.86    0.45   4
   4   2   4    4.53    0.49   1
   4   2   4    5.98    0.49   1
   4   2   4    5.11    0.48   2
   4   2   4    4.69    0.21   3
   4   2   4    4.99    0.20   3
   4   2   4    5.71    0.46   4
  -4  -2  -5    5.69    0.53   1
  -4  -2  -5    4.90    0.46   2
  -4  -2  -5    4.65    0.45   4
   4   2   5    6.05    0.49   1
   4   2   5    4.88    0.53   2
   4   2   5    6.35    0.50   4
  -4  -2  -6   10.51    0.67   1
  -4  -2  -6   10.31    0.61   2
  -4  -2  -6   10.77    0.67   4
   4   2   6   11.02    0.64   1
   4   2   6   10.83    0.72   2
   4   2   6   12.09    0.67   4
  -4  -2  -7   30.55    1.02   1
  -4  -2  -7   32.87    1.07   2
  -4  -2  -7   32.85    1.07   4
   4   2   7   32.07    1.07   1
   4   2   7   32.01    1.12   2
   4   2   7   32.25    1.03   4
  -4  -2  -8   -0.09    0.34   1
  -4  -2  -8    0.02    0.41   2
  -4  -2  -8    0.27    0.39   4
   4   2   8    0.90    0.51   1
   4   2   8   -0.49    0.37   2
   4   2   8    0.27    0.40   4
  -4  -2  -9   -0.45    0.43   1
  -4  -2  -9    0.12    0.20   3
  -4  -2  -9   -0.14    0.47   4
   4   2   9    0.13    0.61   1
   4   2   9   -0.28    0.46   2
   4   2   9   -0.03    0.16   3
   4   2   9   -0.20    0.56   4
  -4  -2 -10    5.48    0.72   1
  -4  -2 -10    4.37    0.39   3
  -4  -2 -10    5.48    0.79   4
   4   2  10    5.65    0.84   2
   4   2  10    6.10    0.44   3
  -4  -2 -11    1.22    0.61   1
   4   2  11    0.07    0.60   2
   4   2  11    0.80    0.35   3
  -4  -2 -12    0.49    0.67   1
  -4  -2 -12    1.25    0.78   4
   4   2  12    0.49    0.81   2
  -4  -2 -13   -0.55    0.82   1
  -4  -2 -13    1.23    0.97   4
   4   2  13   -0.13    0.86   2
  -4  -2 -14    1.74    1.02   1
  -4  -2 -14    3.18    1.23   4
   4   2  14   -0.56    0.95   2
  -4  -3  10   -1.07    1.00   2
  -4  -3  10    0.84    1.21   3
   4   3 -10    0.01    1.20   4
  -4  -3   9    0.39    0.80   2
  -4  -3   9   -0.22    0.86   3
   4   3  -9    1.53    0.97   4
  -4  -3   8    1.86    0.69   2
  -4  -3   8    4.73    0.99   3
   4   3  -8    3.61    0.50   1
   4   3  -8    0.87    0.77   4
  -4  -3   7    1.97    0.62   2
  -4  -3   7    2.48    0.77   3
   4   3  -7    2.77    0.45   1
   4   3  -7    2.69    0.77   2
   4   3  -7    2.96    0.79   4
  -4  -3   6    5.67    0.66   1
  -4  -3   6    5.45    0.66   2
   4   3  -6    5.25    0.61   1
   4   3  -6    6.14    0.74   2
   4   3  -6    4.91    0.78   4
  -4  -3   5    8.81    0.61   1
  -4  -3   5   11.21    0.78   2
  -4  -3   5   10.61    1.02   3
   4   3  -5   10.59    0.63   1
   4   3  -5   10.24    0.80   2
   4   3  -5   11.95    1.00   4
  -4  -3   4    7.13    0.55   1
  -4  -3   4   10.49    0.69   2
  -4  -3   4    9.62    0.82   3
   4   3  -4    9.18    0.58   1
   4   3  -4    8.39    0.67   2
   4   3  -4    9.08    0.83   4
  -4  -3   3    5.19    0.50   1
  -4  -3   3    4.15    0.44   2
  -4  -3   3    3.59    0.53   3
  -4  -3   3    5.83    0.64   4
   4   3  -3    4.06    0.47   1
   4   3  -3    4.39    0.54   2
   4   3  -3    3.74    0.48   3
   4   3  -3    4.78    0.64   4
  -4  -3   2   -0.18    0.24   2
  -4  -3   2    0.28    0.36   3
   4   3  -2   -0.26    0.23   1
   4   3  -2   -0.04    0.25   1
   4   3  -2   -0.05    0.25   2
   4   3  -2   -0.21    0.27   3
   4   3  -2   -0.30    0.31   4
   4   3  -2   -0.52    0.30   4
  -4  -3   1   12.34    0.56   2
  -4  -3   1   12.44    0.68   3
   4   3  -1   11.91    0.58   1
   4   3  -1   12.56    0.57   1
   4   3  -1   12.05    0.54   2
   4   3  -1   11.04    0.58   3
   4   3  -1   11.46    0.68   4
   4   3  -1   11.52    0.61   4
  -4  -3   0    0.02    0.21   2
  -4  -3   0   -0.16    0.26   3
   4   3   0   -0.12    0.22   1
   4   3   0   -0.09    0.22   1
   4   3   0   -0.21    0.19   2
   4   3   0   -0.03    0.21   3
   4   3   0    0.13    0.25   4
   4   3   0    0.33    0.24   4
  -4  -3  -1   77.24    1.23   3
  -4  -3  -1   75.25    1.30   4
   4   3   1   76.74    1.26   1
   4   3   1   76.08    1.17   2
   4   3   1   75.79    1.15   2
   4   3   1   74.93    1.18   3
   4   3   1   78.47    1.30   4
  -4  -3  -2  124.36    1.59   4
   4   3   2  125.29    1.67   1
   4   3   2  126.67    1.64   1
   4   3   2  122.23    1.51   2
   4   3   2  126.99    1.52   2
   4   3   2  126.59    1.58   4
  -4  -3  -3   55.59    1.16   1
  -4  -3  -3   60.10    1.12   2
  -4  -3  -3   60.77    1.12   4
   4   3   3   60.46    1.19   1
   4   3   3   60.70    1.15   2
   4   3   3   60.42    0.89   3
   4   3   3   62.47    0.89   3
   4   3   3   63.76    1.13   4
  -4  -3  -4   -0.11    0.23   1
  -4  -3  -4    0.19    0.24   2
  -4  -3  -4   -0.02    0.25   4
   4   3   4   -0.01    0.27   1
   4   3   4    0.37    0.26   2
   4   3   4    0.10    0.15   3
   4   3   4    0.23    0.15   3
   4   3   4   -0.35    0.23   4
  -4  -3  -5    7.51    0.61   1
  -4  -3  -5    7.10    0.56   2
  -4  -3  -5    6.54    0.51   4
   4   3   5    6.98    0.57   1
   4   3   5    6.82    0.63   2
   4   3   5    7.61    0.30   3
   4   3   5    7.68    0.30   3
   4   3   5    7.54    0.55   4
  -4  -3  -6    6.48    0.65   1
  -4  -3  -6    4.62    0.55   2
  -4  -3  -6    4.81    0.54   4
   4   3   6    6.20    0.64   2
   4   3   6    5.46    0.25   3
   4   3   6    5.97    0.25   3
   4   3   6    5.88    0.57   4
  -4  -3  -7   52.75    1.36   1
  -4  -3  -7   52.89    1.37   2
  -4  -3  -7   39.00    0.49   3
  -4  -3  -7   51.58    1.26   4
   4   3   7   54.07    1.40   1
   4   3   7   54.07    1.44   2
   4   3   7   52.08    0.55   3
   4   3   7   52.09    1.27   4
  -4  -3  -8    4.99    0.66   1
  -4  -3  -8    3.34    0.29   3
  -4  -3  -8    4.54    0.57   4
   4   3   8    4.79    0.70   1
   4   3   8    3.52    0.58   2
   4   3   8    4.90    0.28   3
   4   3   8    5.45    0.63   4
  -4  -3  -9    2.98    0.61   1
  -4  -3  -9    3.99    0.38   3
  -4  -3  -9    2.77    0.58   4
   4   3   9    3.93    0.73   2
   4   3   9    3.85    0.34   3
   4   3   9    3.27    0.69   4
  -4  -3 -10    7.36    0.84   1
  -4  -3 -10    4.48    0.53   3
  -4  -3 -10    6.23    0.78   4
   4   3  10    7.09    0.47   3
  -4  -3 -11    0.80    0.64   1
  -4  -3 -11    1.28    0.64   4
   4   3  11    0.91    0.67   2
   4   3  11    1.41    0.38   3
  -4  -3 -12    2.18    0.78   1
  -4  -3 -12    3.08    0.86   4
   4   3  12    2.88    0.92   2
   4   3  12    2.53    0.51   3
  -4  -3 -13    2.68    0.94   1
  -4  -3 -13    1.64    0.97   4
   4   3  13    0.82    0.96   2
  -4  -3 -14    0.81    1.05   1
  -4  -3 -14    1.22    1.14   4
   4   3  14    0.88    1.18   2
  -4  -4   9    1.09    0.94   2
  -4  -4   9    0.13    1.09   3
   4   4  -9    0.06    1.00   4
  -4  -4   8    3.52    0.85   2
  -4  -4   8    1.41    0.90   3
   4   4  -8    2.28    0.89   4
  -4  -4   7    0.92    0.64   2
  -4  -4   7    1.82    0.82   3
   4   4  -7    1.42    0.30   1
   4   4  -7    1.65    0.77   4
  -4  -4   6   -0.11    0.53   2
  -4  -4   6   -0.31    0.59   3
   4   4  -6   -0.32    0.31   1
   4   4  -6   -0.63    0.62   2
   4   4  -6   -0.55    0.52   4
  -4  -4   5    8.42    0.89   2
  -4  -4   5    8.14    1.01   3
   4   4  -5    7.04    0.54   1
   4   4  -5    7.81    0.55   1
   4   4  -5    7.94    0.95   2
   4   4  -5    7.05    0.87   4
  -4  -4   4   18.57    0.94   2
  -4  -4   4   17.37    1.04   3
   4   4  -4   16.59    0.66   1
   4   4  -4   16.88    0.96   2
   4   4  -4   16.63    1.04   4
  -4  -4   3    7.38    0.66   2
  -4  -4   3    7.42    0.82   3
  -4  -4   3    8.25    0.83   4
   4   4  -3    8.03    0.53   1
   4   4  -3    7.42    0.53   1
   4   4  -3    8.59    0.67   2
   4   4  -3    7.60    0.80   4
  -4  -4   2   29.13    0.93   2
  -4  -4   2   29.98    1.13   3
   4   4  -2   29.60    0.80   1
   4   4  -2   28.49    0.80   1
   4   4  -2   30.31    0.94   2
   4   4  -2   30.07    1.04   3
   4   4  -2   29.09    1.05   4
   4   4  -2   30.63    1.11   4
  -4  -4   1    9.50    0.62   2
  -4  -4   1    9.80    0.71   3
   4   4  -1   10.67    0.57   1
   4   4  -1   10.85    0.56   1
   4   4  -1   10.03    0.61   2
   4   4  -1   10.59    0.63   3
   4   4  -1    9.75    0.68   4
   4   4  -1   11.07    0.70   4
  -4  -4   0   12.14    0.64   2
  -4  -4   0   12.35    0.71   3
   4   4   0   11.54    0.60   1
   4   4   0   12.69    0.63   1
   4   4   0   11.65    0.61   2
   4   4   0   12.36    0.65   3
   4   4   0   11.65    0.67   4
   4   4   0   12.70    0.66   4
   4   4   1   19.31    0.72   1
   4   4   1   19.42    0.74   1
   4   4   1   19.41    0.75   2
   4   4   1   20.04    0.73   2
   4   4   1   19.23    0.75   3
   4   4   1   20.01    0.74   3
   4   4   1   18.86    0.75   4
   4   4   1   20.34    0.73   4
  -4  -4  -2   34.60    0.96   1
  -4  -4  -2   35.52    0.91   4
   4   4   2   37.06    0.98   1
   4   4   2   34.11    0.94   2
   4   4   2   37.92    0.97   2
   4   4   2   36.34    0.89   3
   4   4   2   35.48    0.88   3
   4   4   2   38.27    0.93   4
  -4  -4  -3    2.52    0.38   1
  -4  -4  -3    2.84    0.36   4
   4   4   3    2.93    0.43   1
   4   4   3    2.24    0.36   2
   4   4   3    3.12    0.40   2
   4   4   3    2.48    0.32   3
   4   4   3    3.15    0.36   3
   4   4   3    2.76    0.35   4
  -4  -4  -4  117.91    1.84   1
  -4  -4  -4  123.25    1.80   2
  -4  -4  -4  114.40    1.51   4
   4   4   4  121.84    1.83   1
   4   4   4  111.47    1.74   2
   4   4   4  121.16    1.34   3
   4   4   4  118.38    1.35   3
   4   4   4  116.83    1.52   4
  -4  -4  -5    2.13    0.46   1
  -4  -4  -5    2.57    0.40   2
  -4  -4  -5    2.36    0.36   4
   4   4   5    3.10    0.49   1
   4   4   5    3.39    0.50   2
   4   4   5    2.60    0.29   3
   4   4   5    2.57    0.36   4
  -4  -4  -6   30.38    1.09   1
  -4  -4  -6   28.59    1.01   2
  -4  -4  -6   30.14    0.65   3
  -4  -4  -6   29.41    0.91   4
   4   4   6   28.19    1.06   2
   4   4   6   30.50    0.66   3
   4   4   6   30.55    0.94   4
  -4  -4  -7    5.89    0.69   1
  -4  -4  -7    5.56    0.67   2
  -4  -4  -7    5.58    0.40   3
  -4  -4  -7    5.31    0.55   4
   4   4   7    5.48    0.66   1
   4   4   7    6.29    0.72   2
   4   4   7    5.06    0.41   3
   4   4   7    5.97    0.67   4
  -4  -4  -8    4.83    0.70   1
  -4  -4  -8    3.05    0.32   3
  -4  -4  -8    4.26    0.56   4
   4   4   8    3.74    0.67   2
   4   4   8    4.53    0.39   3
   4   4   8    4.62    0.59   4
  -4  -4  -9    0.25    0.54   1
  -4  -4  -9    0.28    0.28   3
  -4  -4  -9   -0.06    0.47   4
   4   4   9   -0.54    0.51   2
   4   4   9    0.02    0.58   4
  -4  -4 -10    2.56    0.73   1
  -4  -4 -10    2.08    0.61   4
   4   4  10    1.49    0.65   2
   4   4  10    1.88    0.37   3
  -4  -4 -11    0.77    0.69   1
  -4  -4 -11   -0.31    0.64   4
   4   4  11   -0.29    0.74   2
   4   4  11   -0.37    0.37   3
  -4  -4 -12    2.91    0.88   1
  -4  -4 -12    2.37    0.80   4
   4   4  12   -0.62    0.87   2
   4   4  12    1.22    0.49   3
  -4  -4 -13   -1.35    0.92   1
  -4  -4 -13   -0.26    0.89   4
   4   4  13    1.24    1.01   2
  -4  -4 -14    2.47    1.16   1
  -4  -4 -14    0.99    1.18   4
   4   4  14    1.21    1.23   2
  -4  -5   9    0.24    1.08   2
  -4  -5   9    0.13    1.28   3
   4   5  -9    1.13    1.17   4
  -4  -5   8   -0.22    0.87   2
  -4  -5   8   -0.31    0.90   3
   4   5  -8   -1.01    0.93   4
  -4  -5   7    5.07    0.92   2
  -4  -5   7    4.89    1.05   3
   4   5  -7    3.61    1.00   4
  -4  -5   6    0.60    0.65   2
  -4  -5   6    0.93    0.71   3
   4   5  -6   -0.97    0.68   4
  -4  -5   5   20.52    1.23   2
  -4  -5   5   23.31    1.39   3
   4   5  -5   19.46    0.58   1
   4   5  -5   19.06    0.58   1
  -4  -5   4    5.70    0.72   2
  -4  -5   4    4.65    0.77   3
   4   5  -4    4.26    0.48   1
   4   5  -4    3.91    0.48   1
   4   5  -4    3.46    0.65   2
   4   5  -4    4.34    0.72   4
  -4  -5   3    5.02    0.63   2
  -4  -5   3    5.25    0.70   3
   4   5  -3    4.42    0.50   1
   4   5  -3    4.10    0.50   1
   4   5  -3    6.01    0.70   2
   4   5  -3    4.19    0.62   4
  -4  -5   2    3.18    0.51   2
   4   5  -2    2.79    0.38   1
   4   5  -2    3.55    0.41   1
   4   5  -2    2.52    0.49   2
   4   5  -2    2.81    0.56   3
   4   5  -2    2.51    0.51   4
   4   5  -2    4.09    0.60   4
  -4  -5   1   85.34    1.60   2
   4   5  -1   87.74    1.37   1
   4   5  -1   86.87    1.35   1
   4   5  -1   85.20    1.59   2
   4   5  -1   85.56    1.76   3
   4   5  -1   81.64    1.67   3
   4   5  -1   84.11    1.63   4
   4   5  -1   85.77    1.61   4
  -4  -5   0    1.11    0.39   2
   4   5   0    0.98    0.30   1
   4   5   0    0.76    0.35   1
   4   5   0    0.57    0.32   2
   4   5   0    0.50    0.37   3
   4   5   0    0.75    0.39   3
   4   5   0    0.61    0.36   4
   4   5   0    0.46    0.33   4
  -4  -5  -1   43.92    1.09   1
  -4  -5  -1   43.79    1.19   2
   4   5   1   44.98    1.11   1
   4   5   1   43.42    1.14   2
   4   5   1   44.49    1.17   3
   4   5   1   46.42    1.16   3
   4   5   1   45.07    1.08   4
   4   5   1   45.70    1.09   4
  -4  -5  -2   -0.07    0.26   1
   4   5   2   -0.26    0.32   1
   4   5   2   -0.15    0.30   2
   4   5   2    0.24    0.32   2
   4   5   2   -0.20    0.27   3
   4   5   2   -0.20    0.29   3
   4   5   2   -0.06    0.25   4
   4   5   2   -0.09    0.25   4
  -4  -5  -3    3.71    0.50   1
  -4  -5  -3    3.86    0.46   4
   4   5   3    4.62    0.56   1
   4   5   3    2.77    0.43   2
   4   5   3    4.57    0.52   2
   4   5   3    3.03    0.38   3
   4   5   3    3.60    0.42   3
   4   5   3    4.17    0.48   4
  -4  -5  -4   10.15    0.74   1
  -4  -5  -4    8.03    0.54   4
   4   5   4    9.97    0.74   1
   4   5   4    6.87    0.62   2
   4   5   4    8.59    0.66   2
   4   5   4    8.24    0.56   3
   4   5   4    8.20    0.55   3
   4   5   4    8.15    0.54   4
  -4  -5  -5    9.03    0.72   1
  -4  -5  -5    9.51    0.56   3
  -4  -5  -5    9.82    0.58   4
   4   5   5    9.00    0.70   1
   4   5   5    9.14    0.72   2
   4   5   5   10.13    0.78   2
   4   5   5   10.50    0.58   3
   4   5   5    9.32    0.60   4
  -4  -5  -6    3.31    0.60   1
  -4  -5  -6    3.87    0.55   2
  -4  -5  -6    2.17    0.36   3
  -4  -5  -6    2.60    0.39   4
   4   5   6    2.22    0.55   1
   4   5   6    4.12    0.63   2
   4   5   6    2.49    0.38   3
   4   5   6    3.29    0.46   4
  -4  -5  -7   59.96    1.64   1
  -4  -5  -7   53.27    1.02   3
  -4  -5  -7   57.78    1.25   4
   4   5   7   58.09    1.60   2
   4   5   7   58.84    1.08   3
   4   5   7   60.21    1.30   4
  -4  -5  -8    0.10    0.48   1
  -4  -5  -8    0.35    0.34   3
  -4  -5  -8    0.28    0.37   4
   4   5   8    0.36    0.53   2
   4   5   8    0.24    0.31   3
   4   5   8    0.04    0.48   4
  -4  -5  -9    3.89    0.76   1
  -4  -5  -9    4.37    0.49   3
  -4  -5  -9    5.09    0.65   4
   4   5   9    5.54    0.61   3
   4   5   9    5.75    0.78   4
  -4  -5 -10   -0.50    0.62   1
  -4  -5 -10   -0.37    0.42   3
  -4  -5 -10   -0.32    0.53   4
   4   5  10   -0.82    0.58   2
   4   5  10   -0.54    0.39   3
   4   5  10    0.04    0.66   4
  -4  -5 -11    1.56    0.78   1
  -4  -5 -11    1.14    0.71   4
   4   5  11    1.65    0.76   2
   4   5  11    0.63    0.47   3
  -4  -5 -12    0.39    0.93   1
   4   5  12    0.14    0.93   2
  -4  -5 -13    1.83    1.16   1
  -4  -5 -13   -1.50    0.96   4
   4   5  13   -1.50    1.03   2
  -4  -6   8    3.72    1.19   2
   4   6  -8    2.40    1.08   3
   4   6  -8    4.71    1.25   4
  -4  -6   7   -0.60    0.88   2
   4   6  -7    0.39    0.93   3
   4   6  -7   -0.95    0.90   4
  -4  -6   6    0.63    0.78   2
   4   6  -6    1.88    0.92   3
   4   6  -6    0.27    0.75   4
  -4  -6   5    2.38    0.71   2
   4   6  -5    1.99    0.82   3
   4   6  -5    1.46    0.69   4
  -4  -6   4   19.43    1.21   2
   4   6  -4   20.37    0.68   1
   4   6  -4   19.56    0.65   1
   4   6  -4   21.47    1.30   3
   4   6  -4   20.89    1.27   4
  -4  -6   3    0.61    0.51   2
   4   6  -3    0.23    0.31   1
   4   6  -3    0.45    0.35   1
   4   6  -3    0.88    0.53   3
   4   6  -3    0.13    0.52   4
  -4  -6   2   34.04    1.27   2
   4   6  -2   34.55    0.91   1
   4   6  -2   32.28    0.93   1
   4   6  -2   29.72    1.22   2
   4   6  -2   36.11    1.41   3
   4   6  -2   33.07    1.25   4
   4   6  -2   28.19    1.25   4
  -4  -6   1    1.40    0.48   2
   4   6  -1    1.68    0.39   1
   4   6  -1    1.39    0.41   1
   4   6  -1    1.61    0.49   2
   4   6  -1    1.60    0.49   3
   4   6  -1    1.03    0.47   4
   4   6  -1    1.59    0.49   4
  -4  -6   0    1.52    0.48   2
   4   6   0    1.52    0.41   1
   4   6   0    1.84    0.46   1
   4   6   0    2.62    0.52   2
   4   6   0    0.57    0.45   3
   4   6   0    2.13    0.52   3
   4   6   0    1.34    0.41   4
   4   6   0    1.90    0.44   4
  -4  -6  -1    4.32    0.54   1
  -4  -6  -1    4.34    0.60   2
   4   6   1    4.94    0.61   1
   4   6   1    4.50    0.60   2
   4   6   1    4.02    0.56   3
   4   6   1    4.84    0.64   3
   4   6   1    4.44    0.51   4
   4   6   1    4.70    0.51   4
  -4  -6  -2   31.18    1.06   1
   4   6   2   29.72    1.11   1
   4   6   2   29.98    1.09   2
   4   6   2   31.41    1.15   2
   4   6   2   30.79    1.07   3
   4   6   2   31.89    1.11   3
   4   6   2   31.07    0.92   4
   4   6   2   30.85    0.92   4
  -4  -6  -3    3.55    0.52   1
   4   6   3    3.36    0.56   1
   4   6   3    3.44    0.54   2
   4   6   3    3.80    0.53   2
   4   6   3    2.90    0.48   3
   4   6   3    3.70    0.54   3
   4   6   3    3.53    0.43   4
   4   6   3    4.65    0.53   4
  -4  -6  -4   15.00    0.92   1
  -4  -6  -4   14.63    0.65   4
   4   6   4   14.06    0.87   1
   4   6   4   14.79    0.92   2
   4   6   4   15.44    0.91   2
   4   6   4   14.85    0.77   3
   4   6   4   14.72    0.80   3
   4   6   4   15.44    0.67   4
  -4  -6  -5    1.15    0.47   1
  -4  -6  -5    0.49    0.39   3
  -4  -6  -5    1.16    0.32   4
   4   6   5    1.15    0.47   2
   4   6   5    1.17    0.39   3
   4   6   5    0.94    0.32   4
  -4  -6  -6    0.85    0.52   1
  -4  -6  -6    0.00    0.38   3
  -4  -6  -6    0.41    0.31   4
   4   6   6    0.93    0.49   2
   4   6   6    0.88    0.40   3
   4   6   6    1.00    0.37   4
  -4  -6  -7    1.75    0.57   1
  -4  -6  -7    2.14    0.47   3
  -4  -6  -7    1.19    0.38   4
   4   6   7    2.47    0.60   2
   4   6   7    1.46    0.44   3
   4   6   7    0.42    0.42   4
  -4  -6  -8    3.84    0.54   3
  -4  -6  -8    3.28    0.49   4
   4   6   8    4.13    0.53   3
   4   6   8    3.47    0.61   4
  -4  -6  -9    1.94    0.70   1
  -4  -6  -9    2.05    0.53   3
  -4  -6  -9    1.96    0.53   4
   4   6   9    3.21    0.79   2
   4   6   9    2.64    0.53   3
   4   6   9    2.43    0.62   4
  -4  -6 -10    3.65    0.90   1
  -4  -6 -10    1.03    0.56   4
   4   6  10    1.16    0.84   2
   4   6  10    1.87    0.54   3
   4   6  10    1.46    0.69   4
  -4  -6 -11    0.97    0.87   1
  -4  -6 -11    2.55    0.74   4
   4   6  11    0.30    0.90   2
   4   6  11    2.71    0.62   3
  -4  -6 -12   -0.96    0.98   1
  -4  -6 -12    1.04    0.85   4
   4   6  12    0.17    1.00   2
  -4  -6 -13    1.46    1.24   1
  -4  -6 -13    0.62    1.03   4
   4   6  13    0.15    1.10   2
  -4  -7   7    1.59    1.05   2
   4   7  -7    3.59    1.22   3
   4   7  -7    1.65    1.10   4
  -4  -7   6    1.01    0.92   2
   4   7  -6   -0.10    0.88   3
   4   7  -6    0.44    0.90   4
  -4  -7   5    6.43    0.99   2
   4   7  -5    8.17    1.16   3
   4   7  -5    6.97    1.04   4
   4   7  -4    0.85    0.30   1
   4   7  -4    0.09    0.76   3
   4   7  -4    0.31    0.70   4
  -4  -7   3    0.60    0.56   2
   4   7  -3    0.35    0.32   1
   4   7  -3   -0.40    0.40   1
   4   7  -3    0.97    0.65   3
   4   7  -3   -0.04    0.53   4
  -4  -7   2    5.48    0.78   2
   4   7  -2    4.73    0.51   1
   4   7  -2    5.22    0.58   1
   4   7  -2    4.18    0.73   4
  -4  -7   1   64.05    1.72   2
   4   7  -1   65.54    1.34   1
   4   7  -1   65.62    1.39   1
   4   7  -1   64.38    1.81   3
   4   7  -1   63.64    1.56   4
   4   7  -1   64.56    1.59   4
  -4  -7   0    1.38    0.46   1
  -4  -7   0    1.21    0.57   2
   4   7   0    1.76    0.52   1
   4   7   0    1.41    0.56   3
   4   7   0    1.17    0.45   4
   4   7   0    1.90    0.50   4
  -4  -7  -1    7.17    0.72   1
  -4  -7  -1    6.49    0.76   2
   4   7   1    7.40    0.86   1
   4   7   1    8.54    0.89   3
   4   7   1    6.92    0.69   4
   4   7   1    6.56    0.70   4
  -4  -7  -2   14.02    0.90   1
   4   7   2   14.99    1.00   1
   4   7   2   11.91    0.89   2
   4   7   2   15.68    0.97   3
   4   7   2   12.49    1.00   3
   4   7   2   13.71    0.75   4
   4   7   2   15.23    0.78   4
  -4  -7  -3    0.98    0.51   1
   4   7   3   -0.54    0.55   1
   4   7   3    0.14    0.45   2
   4   7   3    0.02    0.41   3
   4   7   3    1.25    0.55   3
   4   7   3    0.38    0.31   4
   4   7   3    0.19    0.34   4
  -4  -7  -4   12.60    0.95   1
   4   7   4   11.77    0.97   2
   4   7   4   13.26    0.92   3
   4   7   4   13.54    0.95   3
   4   7   4   12.51    0.65   4
   4   7   4   11.84    0.66   4
  -4  -7  -5    3.94    0.71   1
  -4  -7  -5    3.83    0.63   3
   4   7   5    2.45    0.56   2
   4   7   5    3.47    0.58   3
   4   7   5    3.93    0.45   4
  -4  -7  -6    6.13    0.78   1
  -4  -7  -6    6.05    0.69   3
  -4  -7  -6    5.22    0.47   4
   4   7   6    8.64    0.92   2
   4   7   6    7.93    0.83   3
   4   7   6    6.77    0.66   4
  -4  -7  -7    5.39    0.81   1
  -4  -7  -7    3.57    0.64   3
  -4  -7  -7    3.13    0.42   4
   4   7   7    2.86    0.72   2
   4   7   7    4.63    0.65   3
   4   7   7    5.88    0.73   4
  -4  -7  -8    4.21    0.82   1
  -4  -7  -8    4.29    0.70   3
  -4  -7  -8    2.61    0.47   4
   4   7   8    4.41    0.83   2
   4   7   8    4.28    0.65   3
   4   7   8    5.29    0.64   4
  -4  -7  -9    5.38    0.88   1
  -4  -7  -9    3.54    0.57   4
   4   7   9    3.49    0.87   2
   4   7   9    5.90    0.72   3
   4   7   9    5.20    0.68   4
  -4  -7 -10    1.11    0.78   1
  -4  -7 -10    0.29    0.57   4
   4   7  10    0.33    0.76   2
   4   7  10   -0.50    0.62   3
  -4  -7 -11    0.95    0.93   1
  -4  -7 -11    0.57    0.69   4
   4   7  11   -0.93    0.98   2
   4   7  11    1.16    0.70   3
  -4  -7 -12   -0.48    1.05   1
   4   7  12   -2.71    1.04   2
  -4  -8   6    0.16    1.05   2
   4   8  -6   -2.30    1.02   3
   4   8  -6    0.07    1.07   4
  -4  -8   5   -0.10    0.88   2
   4   8  -5    0.07    1.01   3
   4   8  -5   -0.49    0.86   4
  -4  -8   4    4.24    0.93   2
   4   8  -4    3.95    0.92   3
   4   8  -4    4.71    0.92   4
  -4  -8   3    5.03    0.89   2
   4   8  -3    5.41    0.53   1
   4   8  -3    4.71    0.93   3
   4   8  -3    3.47    0.78   4
  -4  -8   2   11.22    1.23   2
   4   8  -2   10.15    0.78   1
   4   8  -2    9.77    0.93   1
   4   8  -2   10.12    1.24   3
   4   8  -2    9.24    0.94   4
  -4  -8   1    0.77    0.62   2
   4   8  -1    1.60    0.48   1
   4   8  -1    1.41    0.61   1
   4   8  -1    1.13    0.67   3
   4   8  -1    1.03    0.56   4
   4   8  -1    0.48    0.63   4
  -4  -8   0    4.91    0.70   1
   4   8   0    5.09    0.73   1
   4   8   0    4.01    0.64   4
   4   8   0    4.93    0.70   4
  -4  -8  -1    8.07    0.86   1
  -4  -8  -1    6.93    0.93   2
   4   8   1    6.01    0.79   1
   4   8   1    7.89    0.91   3
   4   8   1    6.49    0.77   4
   4   8   1    7.90    0.69   4
  -4  -8  -2   36.10    1.36   1
   4   8   2   36.43    1.53   2
   4   8   2   39.44    1.48   3
   4   8   2   35.78    1.05   4
   4   8   2   37.48    1.06   4
  -4  -8  -3    8.68    0.97   1
   4   8   3    7.93    0.95   3
   4   8   3    6.23    0.64   4
   4   8   3    8.27    0.68   4
  -4  -8  -4    2.68    0.71   1
   4   8   4    2.73    0.62   3
   4   8   4    1.89    0.37   4
   4   8   4    2.11    0.40   4
  -4  -8  -5   11.17    1.10   1
   4   8   5   11.31    1.10   2
   4   8   5   11.24    1.04   3
   4   8   5   11.07    0.61   4
  -4  -8  -6   -0.11    0.55   1
   4   8   6    0.89    0.68   2
   4   8   6    0.69    0.57   3
   4   8   6    0.32    0.32   4
   4   8   6   -0.44    0.35   4
  -4  -8  -7    1.10    0.71   1
  -4  -8  -7   -0.22    0.33   4
   4   8   7    1.30    0.73   2
   4   8   7    1.01    0.63   3
  -4  -8  -8    2.25    0.84   1
  -4  -8  -8    1.46    0.39   4
   4   8   8    1.46    0.82   2
   4   8   8    2.58    0.68   3
  -4  -8  -9    2.53    0.90   1
   4   8   9    0.94    0.87   2
   4   8   9    1.28    0.71   3
  -4  -8 -10    1.44    0.90   1
   4   8  10    0.95    1.02   2
   4   8  10    2.05    0.84   3
  -4  -8 -11    1.48    1.12   1
   4   8  11    1.83    1.21   2
   4   8  12    2.50    1.41   2
  -4  -9   5    2.57    1.11   2
   4   9  -5   -1.25    1.05   3
   4   9  -5   -0.68    1.04   4
  -4  -9   4    3.93    1.07   2
   4   9  -4    4.01    1.13   3
   4   9  -4    4.25    1.07   4
  -4  -9   3    0.84    0.88   2
   4   9  -3    0.93    0.99   3
   4   9  -3    1.42    0.84   4
  -4  -9   2    4.41    0.92   2
   4   9  -2    4.27    0.62   1
   4   9  -2    5.02    0.95   3
   4   9  -2    6.91    0.92   4
  -4  -9   1    2.38    0.89   2
   4   9  -1    2.28    0.60   1
   4   9  -1    3.21    0.90   3
   4   9  -1    1.86    0.69   4
  -4  -9   0    4.54    0.75   1
  -4  -9   0    4.85    0.89   2
   4   9   0    5.34    0.90   1
   4   9   0    4.87    0.89   3
   4   9   0    5.13    0.68   4
   4   9   0    5.55    0.79   4
  -4  -9  -1    0.69    0.57   1
  -4  -9  -1   -1.00    0.65   2
   4   9   1   -0.24    0.68   3
   4   9   1   -0.35    0.46   4
   4   9   1    0.61    0.59   4
  -4  -9  -2    1.06    0.69   1
   4   9   2    1.04    0.68   2
   4   9   2    1.35    0.71   3
   4   9   2    2.11    0.48   4
   4   9   2    1.60    0.52   4
  -4  -9  -3    4.06    0.82   1
   4   9   3    3.28    0.77   2
   4   9   3    2.74    0.44   4
   4   9   3    2.97    0.51   4
  -4  -9  -4   28.55    1.48   1
   4   9   4   28.14    1.56   2
   4   9   4   27.32    1.44   3
  -4  -9  -5   24.64    1.49   1
   4   9   5   18.87    1.33   2
   4   9   5   20.42    1.34   3
   4   9   5   18.64    0.54   4
  -4  -9  -6   14.64    1.33   1
   4   9   6   14.68    1.39   2
   4   9   6   15.47    1.27   3
  -4  -9  -7    1.00    0.87   1
   4   9   7    0.30    0.82   2
   4   9   7    0.56    0.71   3
  -4  -9  -8    0.77    0.91   1
   4   9   8    1.17    0.90   2
   4   9   8   -0.46    0.73   3
  -4  -9  -9    1.82    1.00   1
   4   9   9    2.86    1.09   2
   4   9   9    2.48    0.89   3
  -4  -9 -10    1.84    1.11   1
   4   9  10   -0.97    1.15   2
   4   9  10    0.38    0.92   3
  -4 -10   3    5.19    1.25   2
   4  10  -3    4.83    1.32   3
   4  10  -3    4.04    1.09   4
  -4 -10   2   -0.96    0.99   2
   4  10  -2    0.27    1.03   3
   4  10  -2   -0.59    0.80   4
  -4 -10   1    2.05    1.05   2
   4  10  -1    1.39    0.70   1
   4  10  -1    1.65    0.99   3
   4  10  -1    1.27    0.77   4
  -4 -10   0    2.38    0.79   1
  -4 -10   0    2.43    1.05   2
   4  10   0    2.82    1.00   3
   4  10   0    2.41    0.70   4
  -4 -10  -1    6.35    0.89   1
   4  10   1    5.57    1.10   2
   4  10   1    4.99    0.95   3
   4  10   1    4.30    0.67   4
   4  10   2   -0.38    0.87   2
   4  10   2    0.37    0.80   3
  -4 -10  -3    2.05    0.86   1
   4  10   3    0.29    0.79   2
   4  10   3    0.18    0.79   3
  -4 -10  -4    4.10    0.98   1
   4  10   4    4.17    0.95   2
   4  10   4    4.07    0.92   3
  -4 -10  -5    0.57    0.86   1
   4  10   5   -0.28    0.80   2
   4  10   5   -1.73    0.75   3
  -4 -10  -6    0.55    0.88   1
   4  10   6   -1.03    0.82   2
   4  10   6    1.03    0.92   3
  -4 -10  -7   15.04    1.71   1
   4  10   7   11.96    1.36   2
   4  10   7   17.01    1.61   3
  -4 -10  -8    5.29    1.17   1
   4  10   8    5.30    1.25   2
   4  10   8    3.46    1.00   3
  -4 -10  -9    2.97    1.18   1
   4  10   9    0.89    1.20   2
   4  10   9    0.52    1.06   3
  -4 -11   1   -1.64    1.12   2
   4  11  -1   -0.60    1.31   3
  -4 -11   0    2.32    1.16   2
   4  11   0    2.98    1.23   3
  -4 -11  -1   -0.22    0.87   1
   4  11   1   -0.41    1.13   2
   4  11   1   -0.13    1.09   3
  -4 -11  -2    0.52    0.95   1
   4  11   2    1.27    1.01   2
   4  11   2    0.16    1.09   3
  -4 -11  -3    6.73    1.16   1
   4  11   3    3.48    1.09   2
   4  11   3    3.96    1.21   3
  -4 -11  -4    2.55    1.12   1
   4  11   4    2.09    1.04   2
   4  11   4    2.04    1.08   3
  -4 -11  -5   -1.36    0.99   1
   4  11   5    1.01    1.05   2
   4  11   5    0.70    1.01   3
  -4 -11  -6    0.05    1.07   1
   4  11   6   -0.06    1.11   2
   4  11   6   -0.51    1.10   3
  -4 -11  -7    1.56    1.30   1
   4  11   7    0.84    1.17   2
   4  11   7    0.64    1.18   3
  -5  10  -1   -1.23    1.16   3
   5 -10   1   -1.44    1.08   2
   5 -10   2    1.60    1.15   2
  -5   9   3   -1.27    1.14   3
   5  -9  -3   -0.61    1.09   1
  -5   9   2    1.07    1.00   2
  -5   9   2   -0.28    0.95   3
   5  -9  -2   -1.31    1.01   1
  -5   9   1    1.44    0.96   2
  -5   9   1    1.65    1.14   3
   5  -9  -1    2.61    1.07   1
  -5   9   0    0.63    0.94   3
   5  -9   0   -1.04    0.94   1
   5  -9   0   -0.10    0.86   2
  -5   9  -1    2.31    1.00   3
   5  -9   1    2.05    1.04   1
   5  -9   1    2.43    0.91   2
  -5   9  -2    0.64    1.02   3
   5  -9   2   -0.42    0.86   1
   5  -9   2    1.19    0.90   2
  -5   9  -3    7.71    1.19   3
   5  -9   3    6.77    1.11   1
   5  -9   3    7.03    1.13   2
  -5   9  -4    1.46    1.03   3
  -5   9  -4    1.42    0.84   4
   5  -9   4    0.43    0.92   1
   5  -9   4    1.33    0.99   2
  -5   9  -5    0.30    1.12   3
   5  -9   5   -0.50    0.94   1
   5  -9   5   -0.76    1.07   2
  -5   9  -6    5.07    1.28   3
  -5   9  -6    1.91    0.95   4
   5  -9   6    3.78    1.33   2
  -5   8   5    2.72    1.20   3
   5  -8  -5    1.68    1.07   1
  -5   8   4    2.14    1.07   3
   5  -8  -4    0.02    1.00   1
  -5   8   3    0.25    0.76   2
  -5   8   3    0.04    0.80   3
   5  -8  -3    1.27    0.89   1
  -5   8   2    1.06    0.73   2
  -5   8   2    1.06    0.82   3
   5  -8  -2    0.23    0.79   1
  -5   8   1    2.31    0.78   2
  -5   8   1    2.47    0.87   3
   5  -8  -1    1.89    0.89   1
  -5   8   0    3.28    0.88   3
  -5   8   0    3.51    0.59   4
   5  -8   0    3.00    0.91   1
   5  -8   0    3.24    0.79   2
  -5   8  -1    4.47    0.97   3
  -5   8  -1    4.42    0.64   4
   5  -8   1    3.34    0.92   1
   5  -8   1    4.00    0.82   2
  -5   8  -2    3.99    0.92   3
  -5   8  -2    5.06    0.69   4
   5  -8   2    3.77    0.93   1
   5  -8   2    3.88    0.81   2
  -5   8  -3    1.43    0.81   3
  -5   8  -3    0.93    0.65   4
   5  -8   3   -0.05    0.74   1
   5  -8   3    0.95    0.78   2
  -5   8  -4    1.81    0.89   3
  -5   8  -4    2.29    0.75   4
   5  -8   4    1.72    0.82   1
   5  -8   4    3.18    0.95   2
  -5   8  -5    1.75    0.94   3
  -5   8  -5    2.01    0.78   4
   5  -8   5    0.55    0.78   1
   5  -8   5    1.97    0.99   2
  -5   8  -6    0.42    0.89   3
  -5   8  -6   -1.17    0.79   4
   5  -8   6   -1.81    0.77   1
   5  -8   6   -0.33    0.94   2
  -5   8  -7   10.53    1.32   3
  -5   8  -7   11.64    1.27   4
   5  -8   7   11.13    1.42   2
  -5   8  -8    0.69    1.07   3
  -5   8  -8    0.60    1.08   4
   5  -8   8    2.25    1.19   2
  -5   7   7    2.24    1.35   3
   5  -7  -7    3.02    1.26   1
  -5   7   6    2.02    1.23   3
   5  -7  -6    1.72    1.05   1
  -5   7   5    0.88    1.07   3
   5  -7  -5    3.76    1.03   1
  -5   7   4   10.22    1.09   2
  -5   7   4   12.75    1.46   3
   5  -7  -4   12.53    1.46   1
  -5   7   3    2.24    0.61   2
  -5   7   3    2.41    0.92   3
   5  -7  -3    3.24    0.88   1
   5  -7  -3    1.53    0.54   4
  -5   7   2   14.12    1.10   2
  -5   7   2   19.24    1.37   3
   5  -7  -2   16.09    1.39   1
   5  -7  -2   13.88    0.92   4
  -5   7   1    0.82    0.70   2
  -5   7   1    0.34    0.77   3
   5  -7  -1    0.32    0.63   1
   5  -7  -1    0.49    0.50   4
  -5   7   0    1.07    0.68   2
  -5   7   0    0.92    0.71   3
  -5   7   0    1.26    0.47   4
   5  -7   0    1.84    0.66   1
   5  -7   0    1.04    0.58   2
   5  -7   0    1.44    0.58   4
  -5   7  -1   -0.08    0.61   3
  -5   7  -1    1.31    0.48   4
   5  -7   1    0.48    0.68   1
   5  -7   1    0.35    0.59   2
   5  -7   1   -0.06    0.57   4
  -5   7  -2   13.46    1.25   3
  -5   7  -2   11.64    0.92   4
   5  -7   2   12.02    1.14   1
   5  -7   2   11.59    1.05   2
   5  -7   2   12.23    1.11   4
  -5   7  -3    3.73    0.79   3
  -5   7  -3    3.39    0.64   4
   5  -7   3    3.19    0.74   1
   5  -7   3    4.15    0.80   2
   5  -7   3    2.80    0.71   4
  -5   7  -4   16.04    1.36   3
  -5   7  -4   15.67    1.11   4
   5  -7   4   16.62    1.23   1
  -5   7  -5    1.36    0.75   3
  -5   7  -5    1.68    0.60   4
   5  -7   5    1.51    0.68   1
   5  -7   5    1.79    0.74   2
  -5   7  -6   10.52    1.14   3
   5  -7   6    8.22    0.90   1
   5  -7   6   11.97    1.40   2
  -5   7  -7    2.46    0.89   3
  -5   7  -7    1.42    0.79   4
   5  -7   7    1.22    0.68   1
   5  -7   7    2.57    0.99   2
  -5   7  -8    6.99    1.12   3
  -5   7  -8    7.57    1.15   4
   5  -7   8    7.58    1.25   2
  -5   7  -9   -0.41    1.01   3
  -5   7  -9    0.55    1.06   4
   5  -7   9   -0.15    1.05   2
  -5   6   7    4.48    1.26   3
   5  -6  -7    3.45    1.10   1
  -5   6   6    1.16    0.96   3
   5  -6  -6   -0.35    0.88   1
   5  -6  -6   -1.01    0.67   4
  -5   6   5   14.97    1.05   2
  -5   6   5   20.56    1.71   3
   5  -6  -5   16.26    1.42   1
   5  -6  -5   11.48    1.10   4
  -5   6   4   13.75    0.98   2
  -5   6   4   16.38    1.45   3
   5  -6  -4   15.75    1.31   1
   5  -6  -4    8.12    0.95   4
  -5   6   3   18.87    0.96   2
  -5   6   3   18.11    0.99   2
  -5   6   3   24.24    1.55   3
   5  -6  -3   20.22    1.39   1
   5  -6  -3   16.19    1.02   4
   5  -6  -3   17.38    1.07   4
  -5   6   2   11.48    0.85   2
  -5   6   2   10.80    0.86   2
  -5   6   2   12.86    1.21   3
   5  -6  -2   14.82    1.19   1
   5  -6  -2   10.57    0.86   4
   5  -6  -2   11.09    0.92   4
  -5   6   1   38.14    1.26   2
  -5   6   1   52.46    1.87   3
   5  -6  -1   48.64    1.77   1
   5  -6  -1   54.08    1.35   2
   5  -6  -1   38.09    1.21   4
  -5   6   0    1.31    0.50   2
  -5   6   0    2.07    0.68   3
  -5   6   0    1.56    0.48   4
   5  -6   0    3.11    0.73   1
   5  -6   0    2.30    0.52   2
   5  -6   0    2.01    0.53   4
  -5   6  -1    8.84    0.90   2
  -5   6  -1    8.87    1.04   3
  -5   6  -1    8.54    0.76   4
   5  -6   1    7.56    0.90   1
   5  -6   1    8.38    0.83   2
   5  -6   1    4.59    0.65   4
  -5   6  -2    0.54    0.57   2
  -5   6  -2    0.59    0.55   3
  -5   6  -2   -0.35    0.40   4
   5  -6   2   -0.22    0.51   1
   5  -6   2   -0.12    0.47   2
   5  -6   2    0.23    0.51   4
  -5   6  -3    2.40    0.66   3
  -5   6  -3    1.49    0.53   4
   5  -6   3    1.61    0.62   1
   5  -6   3    1.25    0.60   2
   5  -6   3    1.75    0.61   4
  -5   6  -4    0.31    0.57   3
  -5   6  -4   -0.12    0.48   4
   5  -6   4    0.37    0.53   1
   5  -6   4    1.38    0.58   2
   5  -6   4   -0.30    0.61   4
  -5   6  -5   19.00    1.24   1
  -5   6  -5   21.07    1.27   3
  -5   6  -5   17.12    1.13   4
   5  -6   5   19.60    1.11   1
   5  -6   5   20.19    1.25   2
  -5   6  -6    0.01    0.66   1
  -5   6  -6   -0.27    0.56   3
  -5   6  -6    1.04    0.61   4
   5  -6   6    0.35    0.54   1
   5  -6   6    0.61    0.61   2
  -5   6  -7   23.74    1.33   1
  -5   6  -7   22.42    1.38   3
  -5   6  -7   24.01    1.43   4
   5  -6   7   16.40    1.09   1
   5  -6   7   21.90    1.45   2
  -5   6  -8    2.21    0.83   3
  -5   6  -8    3.66    0.92   4
   5  -6   8    1.65    0.63   1
   5  -6   8    2.33    0.82   2
  -5   6  -9    3.20    0.93   3
  -5   6  -9    3.79    1.05   4
   5  -6   9    3.02    1.03   2
  -5   6 -10    0.35    0.97   3
  -5   6 -10    0.29    1.08   4
   5  -6  10    0.34    1.02   2
  -5   6 -11    1.47    1.29   4
   5  -6  11    2.56    1.23   2
  -5   5   8    0.93    1.18   3
   5  -5  -8    0.79    0.98   4
  -5   5   7    1.11    1.01   3
   5  -5  -7    0.50    0.96   1
   5  -5  -7    1.48    0.82   4
  -5   5   6    0.33    0.77   3
   5  -5  -6   -1.00    0.73   1
   5  -5  -6    0.76    0.69   4
  -5   5   5    1.15    0.46   2
  -5   5   5    1.38    0.83   3
   5  -5  -5    2.44    0.74   1
   5  -5  -5    1.00    0.60   4
   5  -5  -5    1.87    0.73   4
  -5   5   4   13.44    0.77   2
  -5   5   4   19.50    0.88   2
  -5   5   4   18.39    1.30   3
   5  -5  -4   16.50    1.25   1
   5  -5  -4   19.50    1.08   4
   5  -5  -4   19.29    1.19   4
  -5   5   3    8.10    0.67   2
  -5   5   3   11.55    0.73   2
  -5   5   3   13.25    1.17   3
   5  -5  -3   12.48    1.13   1
   5  -5  -3    9.95    0.90   4
   5  -5  -3    8.89    0.81   4
  -5   5   2   92.91    1.41   2
  -5   5   2   70.06    1.25   2
  -5   5   2  125.79    2.45   3
   5  -5  -2  121.85    2.44   1
   5  -5  -2  126.44    1.92   4
   5  -5  -2   89.66    1.66   4
  -5   5   1   47.33    1.12   2
  -5   5   1   67.50    1.83   3
  -5   5   1   67.80    1.43   4
   5  -5  -1   64.75    1.82   1
   5  -5  -1   53.03    1.31   4
  -5   5   0   41.43    1.09   2
  -5   5   0   59.39    1.68   3
  -5   5   0   58.71    1.34   4
   5  -5   0   59.47    1.68   1
   5  -5   0   57.75    1.25   2
   5  -5   0   44.56    1.22   4
  -5   5  -1    2.99    0.52   2
  -5   5  -1    2.99    0.65   3
  -5   5  -1    3.23    0.49   4
   5  -5   1    4.20    0.68   1
   5  -5   1    2.82    0.48   2
   5  -5   1    2.87    0.52   4
  -5   5  -2   28.57    1.06   2
  -5   5  -2   33.90    1.26   3
  -5   5  -2   31.75    1.08   4
   5  -5   2   35.22    1.31   1
   5  -5   2   34.54    1.17   2
   5  -5   2   29.15    1.11   4
  -5   5  -3   26.99    1.21   1
  -5   5  -3   26.39    1.13   2
  -5   5  -3   28.20    1.21   3
  -5   5  -3   27.32    1.09   4
   5  -5   3   26.92    1.18   1
   5  -5   3   30.84    1.16   2
   5  -5   3   27.97    1.25   3
   5  -5   3   27.15    1.16   4
  -5   5  -4   -0.35    0.55   1
  -5   5  -4    0.24    0.56   2
  -5   5  -4    0.16    0.45   3
  -5   5  -4    0.88    0.44   4
   5  -5   4    0.48    0.49   1
   5  -5   4    0.30    0.48   2
   5  -5   4   -0.19    0.55   3
   5  -5   4    0.59    0.53   4
  -5   5  -5    0.04    0.56   1
  -5   5  -5    1.21    0.56   3
  -5   5  -5    1.56    0.51   4
   5  -5   5    1.25    0.53   1
   5  -5   5    0.69    0.52   2
   5  -5   5    1.12    0.63   3
  -5   5  -6   15.63    1.07   1
  -5   5  -6   13.93    1.04   3
  -5   5  -6   14.17    1.08   4
   5  -5   6   14.25    0.97   1
   5  -5   6   14.34    1.06   2
   5  -5   6   12.97    1.16   3
  -5   5  -7   -0.06    0.58   1
  -5   5  -7   -0.47    0.50   3
  -5   5  -7    0.44    0.64   4
   5  -5   7    0.24    0.51   1
  -5   5  -8   12.12    1.13   3
  -5   5  -8   15.14    1.32   4
   5  -5   8    9.18    0.95   1
   5  -5   8   13.06    1.15   1
   5  -5   8   12.64    1.29   2
  -5   5  -9    0.33    0.67   3
  -5   5  -9    0.99    0.85   4
   5  -5   9    0.56    0.57   1
   5  -5   9    2.04    0.79   2
  -5   5 -10    3.50    0.88   3
  -5   5 -10    5.45    1.16   4
   5  -5  10    5.06    1.00   2
  -5   5 -11    1.49    0.95   3
  -5   5 -11    0.05    1.06   4
   5  -5  11    1.66    1.06   2
  -5   4   9    3.86    1.37   3
   5  -4  -9    3.64    1.25   1
   5  -4  -9    2.48    1.20   4
  -5   4   8    2.52    1.18   3
   5  -4  -8    0.16    0.99   1
   5  -4  -8   -1.07    0.88   4
  -5   4   7    5.95    1.10   3
   5  -4  -7    5.97    1.04   1
  -5   4   6    1.52    0.43   2
  -5   4   6    1.31    0.76   3
   5  -4  -6    2.98    0.77   1
   5  -4  -6    1.13    0.67   4
  -5   4   5    0.96    0.38   2
  -5   4   5    1.57    0.40   2
  -5   4   5    2.10    0.67   3
   5  -4  -5    0.68    0.66   1
   5  -4  -5    0.99    0.62   4
  -5   4   4    1.40    0.34   2
  -5   4   4    2.85    0.78   3
   5  -4  -4    2.38    0.57   4
   5  -4  -4    2.86    0.62   4
  -5   4   3    0.91    0.29   2
  -5   4   3    1.37    0.61   3
   5  -4  -3    1.21    0.56   1
   5  -4  -3    1.04    0.46   4
   5  -4  -3    1.63    0.57   4
  -5   4   2    3.87    0.45   2
  -5   4   2    4.01    0.45   2
  -5   4   2    5.20    0.74   3
   5  -4  -2    5.09    0.76   1
   5  -4  -2    5.83    0.73   4
   5  -4  -2    3.25    0.56   4
  -5   4   1   54.51    0.97   2
  -5   4   1   57.78    1.61   3
  -5   4   1   54.89    1.30   4
   5  -4  -1   51.87    1.51   1
   5  -4  -1   57.23    1.36   4
  -5   4   0   -0.17    0.27   2
  -5   4   0    0.67    0.43   3
  -5   4   0    0.09    0.32   4
   5  -4   0    0.01    0.44   1
   5  -4   0    0.17    0.26   2
   5  -4   0    0.11    0.47   3
   5  -4   0   -0.11    0.37   4
  -5   4  -1  120.22    2.10   1
  -5   4  -1   96.30    1.42   2
  -5   4  -1  120.84    2.05   3
  -5   4  -1  121.32    1.83   4
   5  -4   1  126.72    2.15   1
   5  -4   1  125.22    1.60   2
   5  -4   1  126.07    2.08   3
   5  -4   1  127.06    1.87   4
  -5   4  -2  114.18    1.99   1
  -5   4  -2  113.11    1.65   2
  -5   4  -2  116.96    1.97   3
  -5   4  -2  114.93    1.83   4
   5  -4   2  110.70    1.98   1
   5  -4   2  116.12    1.67   2
   5  -4   2  115.03    1.95   3
   5  -4   2  115.95    1.84   4
  -5   4  -3   25.47    1.07   1
  -5   4  -3   24.80    0.98   2
  -5   4  -3   24.79    1.05   3
  -5   4  -3   26.06    1.03   4
   5  -4   3   24.82    1.06   1
   5  -4   3   26.22    0.98   2
   5  -4   3   26.47    1.04   3
   5  -4   3   24.97    1.04   4
  -5   4  -4   25.42    1.07   1
  -5   4  -4   24.71    1.02   2
  -5   4  -4   24.84    1.01   3
  -5   4  -4   23.77    1.02   4
   5  -4   4   23.73    1.06   1
   5  -4   4   26.60    1.04   2
   5  -4   4   24.07    0.99   3
   5  -4   4   25.12    1.12   4
  -5   4  -5    4.37    0.62   1
  -5   4  -5    3.81    0.64   2
  -5   4  -5    4.08    0.56   3
  -5   4  -5    3.88    0.60   4
   5  -4   5    2.96    0.55   1
   5  -4   5    3.85    0.58   2
   5  -4   5    3.54    0.56   3
   5  -4   5    3.80    0.63   4
  -5   4  -6   48.51    1.35   1
  -5   4  -6   47.66    1.29   3
  -5   4  -6   47.41    1.50   4
   5  -4   6   49.26    1.35   1
   5  -4   6   49.41    1.50   2
   5  -4   6   46.87    1.30   3
  -5   4  -7    2.65    0.59   1
  -5   4  -7    1.29    0.52   3
  -5   4  -7    1.95    0.61   4
   5  -4   7    1.54    0.52   1
   5  -4   7    2.11    0.58   2
   5  -4   7    2.45    0.56   3
  -5   4  -8    1.65    0.58   3
  -5   4  -8    1.96    0.64   3
   5  -4   8    1.74    0.53   1
   5  -4   8    1.27    0.55   1
   5  -4   8    2.24    0.65   2
  -5   4  -9    1.04    0.60   3
  -5   4  -9    0.83    0.66   3
  -5   4  -9    1.11    0.77   4
   5  -4   9    0.78    0.49   1
   5  -4   9    1.52    0.67   1
   5  -4   9    1.05    0.71   2
  -5   4 -10   -0.40    0.60   3
  -5   4 -10   -0.13    0.81   4
   5  -4  10   -0.29    0.54   1
   5  -4  10    0.02    0.74   2
  -5   4 -11   -1.02    0.70   3
  -5   4 -11    1.17    0.99   4
   5  -4  11    1.88    0.89   2
  -5   4 -12    1.15    1.15   4
   5  -4  12    1.13    1.00   2
  -5   3   9    3.22    1.29   3
   5  -3  -9    1.24    1.06   1
   5  -3  -9   -0.37    1.06   4
  -5   3   8    1.86    1.07   3
   5  -3  -8    0.65    0.93   1
   5  -3  -8    1.41    0.87   4
  -5   3   7   -0.16    0.83   3
   5  -3  -7   -0.73    0.69   1
   5  -3  -7    0.13    0.71   4
  -5   3   6    4.82    0.93   3
   5  -3  -6    4.16    0.81   1
   5  -3  -6    4.66    0.77   4
  -5   3   5   -0.12    0.23   2
  -5   3   5   -0.39    0.25   2
  -5   3   5   -0.51    0.64   3
   5  -3  -5    0.13    0.52   1
   5  -3  -5   -0.12    0.51   4
  -5   3   4    2.71    0.32   2
  -5   3   4    3.01    0.33   2
  -5   3   4    3.33    0.71   3
   5  -3  -4    3.09    0.64   1
   5  -3  -4    2.73    0.62   4
   5  -3  -4    1.79    0.62   4
  -5   3   3    4.07    0.28   2
  -5   3   3    3.66    0.29   2
  -5   3   3    3.98    0.66   3
   5  -3  -3    3.53    0.61   1
   5  -3  -3    3.49    0.56   4
   5  -3  -3    3.57    0.56   4
  -5   3   2   25.54    0.46   2
  -5   3   2   24.09    0.46   2
  -5   3   2   32.34    1.27   3
   5  -3  -2   30.14    1.16   1
   5  -3  -2   33.41    1.12   4
   5  -3  -2   31.39    1.10   4
  -5   3   1    8.78    0.81   1
  -5   3   1    6.96    0.34   2
  -5   3   1    6.44    0.35   2
  -5   3   1    8.91    0.80   3
  -5   3   1    8.13    0.68   4
   5  -3  -1    8.75    0.74   1
   5  -3  -1    7.87    0.80   3
   5  -3  -1    8.18    0.73   4
  -5   3   0   -0.04    0.39   1
  -5   3   0   -0.08    0.20   2
  -5   3   0   -0.19    0.38   3
  -5   3   0   -0.12    0.31   4
   5  -3   0   -0.35    0.35   1
   5  -3   0    0.24    0.19   2
   5  -3   0   -0.65    0.42   3
   5  -3   0   -0.25    0.37   4
  -5   3  -1   21.37    0.91   3
  -5   3  -1   20.75    0.87   4
   5  -3   1   21.54    0.98   1
   5  -3   1   22.03    0.67   2
   5  -3   1   21.28    0.91   3
   5  -3   1   21.99    0.90   4
  -5   3  -2   31.31    1.05   1
  -5   3  -2   27.29    0.78   2
  -5   3  -2   27.91    0.99   3
  -5   3  -2   27.38    0.97   4
   5  -3   2   27.74    1.05   1
   5  -3   2   29.49    0.82   2
   5  -3   2   28.49    0.98   3
   5  -3   2   29.93    1.01   4
  -5   3  -3    0.58    0.35   1
  -5   3  -3    1.28    0.36   2
  -5   3  -3    1.08    0.36   3
  -5   3  -3    0.69    0.35   4
   5  -3   3    1.03    0.42   1
   5  -3   3    0.44    0.29   2
   5  -3   3    0.64    0.38   3
   5  -3   3    0.60    0.35   4
  -5   3  -4   27.36    1.00   1
  -5   3  -4   26.73    0.97   2
  -5   3  -4   27.70    0.93   3
  -5   3  -4   27.79    1.02   4
   5  -3   4   28.53    1.03   1
   5  -3   4   25.83    0.94   2
   5  -3   4   28.79    0.93   3
   5  -3   4   26.81    1.02   4
  -5   3  -5    1.56    0.45   1
  -5   3  -5    0.25    0.40   2
  -5   3  -5    0.20    0.33   3
  -5   3  -5    0.58    0.43   4
   5  -3   5    0.60    0.38   1
   5  -3   5    0.78    0.40   2
   5  -3   5    1.04    0.39   3
   5  -3   5    1.06    0.49   4
  -5   3  -6   22.42    0.95   1
  -5   3  -6   19.47    1.05   2
  -5   3  -6   23.22    0.88   3
  -5   3  -6   22.30    1.10   4
   5  -3   6   24.86    1.01   1
   5  -3   6   21.92    1.02   2
   5  -3   6   21.71    0.87   3
  -5   3  -7   28.66    0.96   3
  -5   3  -7   20.22    0.86   3
  -5   3  -7   28.63    1.27   4
   5  -3   7   29.61    1.07   1
   5  -3   7   18.21    0.96   1
   5  -3   7   28.06    1.24   2
  -5   3  -8    1.01    0.44   3
  -5   3  -8    1.25    0.46   3
  -5   3  -8    1.24    0.55   4
   5  -3   8    1.17    0.49   1
   5  -3   8    0.43    0.51   1
   5  -3   8   -0.34    0.51   2
  -5   3  -9    4.58    0.61   3
  -5   3  -9    4.24    0.60   3
  -5   3  -9    6.20    0.88   4
   5  -3   9    4.54    0.63   1
   5  -3   9    3.92    0.68   1
   5  -3   9    4.64    0.78   2
  -5   3 -10    0.53    0.54   3
  -5   3 -10    0.17    0.73   4
   5  -3  10    0.36    0.53   1
   5  -3  10   -0.58    0.61   2
  -5   3 -11    1.77    0.65   3
  -5   3 -11    3.91    0.94   4
   5  -3  11    2.79    0.65   1
   5  -3  11    2.23    0.79   2
  -5   3 -12    1.17    1.01   4
   5  -3  12    2.28    0.99   2
  -5   3 -13    2.50    1.17   4
   5  -3  13    1.42    1.14   2
  -5   2   9    5.87    1.40   3
   5  -2  -9    7.00    1.18   1
   5  -2  -9    4.36    1.08   4
  -5   2   8    4.73    1.05   3
   5  -2  -8    4.04    0.90   1
   5  -2  -8    3.49    0.92   4
  -5   2   7    9.37    1.12   3
   5  -2  -7   14.06    1.28   1
   5  -2  -7   12.74    1.28   4
  -5   2   6    0.21    0.27   2
  -5   2   6    0.02    0.28   2
  -5   2   6    0.04    0.63   3
   5  -2  -6    0.20    0.57   1
   5  -2  -6   -0.62    0.57   4
  -5   2   5   -0.12    0.18   2
  -5   2   5    0.22    0.19   2
   5  -2  -5   -0.07    0.50   1
   5  -2  -5   -0.61    0.53   4
  -5   2   4   10.05    1.02   3
   5  -2  -4    8.75    0.91   1
   5  -2  -4    8.94    0.90   4
   5  -2  -4    8.14    0.92   4
  -5   2   3    2.12    0.62   1
  -5   2   3    2.48    0.56   3
   5  -2  -3    2.77    0.57   1
   5  -2  -3    3.59    0.57   4
   5  -2  -3    3.31    0.52   4
  -5   2   2    7.60    0.76   1
  -5   2   2    7.79    0.71   3
   5  -2  -2    7.70    0.74   1
   5  -2  -2    6.83    0.64   3
   5  -2  -2    8.34    0.74   4
   5  -2  -2    8.39    0.75   4
  -5   2   1    0.88    0.41   1
  -5   2   1    1.40    0.45   3
  -5   2   1    1.47    0.38   4
   5  -2  -1    1.69    0.48   1
   5  -2  -1    1.33    0.39   3
   5  -2  -1    1.25    0.38   4
  -5   2   0    7.13    0.64   1
  -5   2   0    6.71    0.28   2
  -5   2   0    5.25    0.62   3
  -5   2   0    6.33    0.60   4
   5  -2   0    5.75    0.61   1
   5  -2   0    5.80    0.25   2
   5  -2   0    5.02    0.55   3
   5  -2   0    5.33    0.61   4
  -5   2  -1   32.77    1.02   1
  -5   2  -1   32.28    0.63   2
  -5   2  -1   31.68    0.98   3
  -5   2  -1   31.45    0.98   4
   5  -2   1   33.08    1.07   1
   5  -2   1   32.85    0.63   2
   5  -2   1   34.70    1.00   3
   5  -2   1   32.38    0.98   4
  -5   2  -2   77.65    1.50   1
  -5   2  -2   76.24    1.34   3
  -5   2  -2   76.15    1.44   4
   5  -2   2   74.76    1.50   1
   5  -2   2   78.05    1.10   2
   5  -2   2   81.26    1.37   3
   5  -2   2   78.39    1.45   4
  -5   2  -3   74.15    1.47   1
  -5   2  -3   70.37    1.18   2
  -5   2  -3   69.66    1.24   3
  -5   2  -3   69.62    1.43   4
   5  -2   3   70.21    1.44   1
   5  -2   3   68.34    1.17   2
   5  -2   3   75.06    1.27   3
   5  -2   3   73.40    1.44   4
  -5   2  -4   51.80    1.24   1
  -5   2  -4   50.25    1.13   2
  -5   2  -4   48.69    1.02   3
  -5   2  -4   49.45    1.27   4
   5  -2   4   52.40    1.27   1
   5  -2   4   48.46    1.11   2
   5  -2   4   52.67    1.03   3
   5  -2   4   50.25    1.24   4
  -5   2  -5    2.13    0.44   1
  -5   2  -5    2.41    0.42   2
  -5   2  -5    2.32    0.36   3
  -5   2  -5    2.16    0.44   4
   5  -2   5    2.37    0.45   1
   5  -2   5    2.15    0.45   2
   5  -2   5    1.92    0.34   3
   5  -2   5    2.21    0.40   4
  -5   2  -6    8.54    0.75   1
  -5   2  -6    8.81    0.78   2
  -5   2  -6    7.75    0.55   3
  -5   2  -6    6.85    0.77   4
   5  -2   6    7.25    0.69   1
   5  -2   6    8.16    0.75   2
   5  -2   6    8.60    0.53   3
   5  -2   6    7.90    0.70   4
  -5   2  -7   12.53    0.98   2
  -5   2  -7   12.78    0.63   3
  -5   2  -7   10.27    0.58   3
  -5   2  -7   12.41    0.94   4
   5  -2   7   13.40    0.84   1
   5  -2   7   13.25    0.84   1
   5  -2   7   11.92    0.93   2
  -5   2  -8    0.85    0.35   3
  -5   2  -8    1.34    0.34   3
  -5   2  -8    0.51    0.53   4
   5  -2   8    0.88    0.45   1
   5  -2   8    0.07    0.51   1
   5  -2   8    0.68    0.51   2
  -5   2  -9    0.85    0.37   3
  -5   2  -9    1.05    0.38   3
   5  -2   9    1.09    0.49   1
   5  -2   9    1.40    0.58   1
   5  -2   9    1.28    0.64   2
  -5   2 -10    4.09    0.54   3
  -5   2 -10    4.38    0.55   3
  -5   2 -10    5.27    0.89   4
   5  -2  10    3.83    0.64   1
   5  -2  10    5.09    0.79   1
   5  -2  10    3.26    0.83   2
  -5   2 -11   10.72    0.91   3
  -5   2 -11   16.48    1.44   4
   5  -2  11    9.46    1.01   1
   5  -2  11   14.43    1.43   2
  -5   2 -12    1.67    0.89   4
   5  -2  12    1.74    0.70   1
   5  -2  12    2.84    0.95   2
  -5   2 -13    2.56    1.17   4
   5  -2  13    1.24    1.05   2
  -5   1   9   -1.03    1.17   3
   5  -1  -9    2.20    0.91   1
   5  -1  -9    0.72    1.00   4
  -5   1   8    0.08    0.97   3
   5  -1  -8    0.07    0.78   4
  -5   1   7    0.66    0.37   2
  -5   1   7    0.93    0.76   3
   5  -1  -7   -0.17    0.60   1
   5  -1  -7    1.02    0.72   4
  -5   1   6    1.18    0.28   2
  -5   1   6    2.07    0.69   3
   5  -1  -6    0.57    0.57   1
   5  -1  -6    1.71    0.31   2
   5  -1  -6    0.50    0.65   4
  -5   1   5   24.90    0.47   2
  -5   1   5   26.58    0.49   2
  -5   1   5   33.04    1.44   3
   5  -1  -5   31.80    1.31   1
   5  -1  -5   29.36    1.31   4
  -5   1   4    2.27    0.62   1
  -5   1   4    2.28    0.62   3
   5  -1  -4    2.41    0.56   1
   5  -1  -4    2.14    0.52   4
  -5   1   3    0.40    0.47   1
  -5   1   3    0.73    0.44   3
   5  -1  -3    1.27    0.45   1
   5  -1  -3    0.69    0.43   3
   5  -1  -3    0.69    0.41   4
   5  -1  -3    0.21    0.41   4
  -5   1   2   11.09    0.79   1
  -5   1   2    9.55    0.74   3
   5  -1  -2   10.92    0.80   1
   5  -1  -2    9.38    0.71   3
   5  -1  -2    9.28    0.74   4
   5  -1  -2    9.51    0.76   4
  -5   1   1   60.18    1.37   1
  -5   1   1   60.48    1.38   3
   5  -1  -1   57.85    1.36   1
   5  -1  -1   63.66    1.38   3
   5  -1  -1   62.05    1.39   4
   5  -1  -1   62.24    1.34   4
  -5   1   0   14.62    0.70   1
  -5   1   0   15.45    0.75   3
  -5   1   0   14.67    0.75   4
   5  -1   0   15.27    0.75   1
   5  -1   0   14.49    0.71   3
   5  -1   0   17.92    0.79   4
  -5   1  -1   60.65    1.30   1
  -5   1  -1   62.63    0.70   2
  -5   1  -1   59.73    1.20   3
  -5   1  -1   60.48    1.29   4
   5  -1   1   61.96    1.36   1
   5  -1   1   63.39    0.70   2
   5  -1   1   61.53    1.19   3
   5  -1   1   64.08    1.30   4
  -5   1  -2   25.57    0.89   1
  -5   1  -2   25.90    0.61   2
  -5   1  -2   25.38    0.78   3
   5  -1   2   24.92    0.89   1
   5  -1   2   27.06    0.62   2
   5  -1   2   26.67    0.79   3
   5  -1   2   28.90    0.89   4
  -5   1  -3   36.45    1.03   1
  -5   1  -3   37.73    0.83   2
  -5   1  -3   35.40    0.83   3
  -5   1  -3   34.15    1.02   4
   5  -1   3   38.02    1.08   1
   5  -1   3   35.28    0.83   2
   5  -1   3   38.13    0.83   3
   5  -1   3   38.48    1.03   4
  -5   1  -4    4.83    0.53   1
  -5   1  -4    4.26    0.48   2
  -5   1  -4    4.26    0.40   3
  -5   1  -4    4.25    0.53   4
   5  -1   4    4.74    0.52   1
   5  -1   4    5.27    0.53   2
   5  -1   4    4.71    0.40   3
   5  -1   4    4.81    0.51   4
  -5   1  -5    0.51    0.36   1
  -5   1  -5   -0.13    0.30   2
  -5   1  -5    0.15    0.21   3
  -5   1  -5    0.18    0.32   4
   5  -1   5   -0.48    0.32   1
   5  -1   5    0.03    0.33   2
   5  -1   5    0.09    0.19   3
   5  -1   5    0.45    0.29   4
  -5   1  -6   27.96    1.00   2
  -5   1  -6   28.08    0.61   3
  -5   1  -6   27.25    1.05   4
   5  -1   6   29.38    1.01   1
   5  -1   6   28.68    1.00   1
   5  -1   6   27.73    1.03   2
   5  -1   6   29.09    0.62   3
   5  -1   6   27.62    1.04   4
  -5   1  -7   31.92    1.14   2
  -5   1  -7   28.98    0.63   3
  -5   1  -7   28.92    0.62   3
  -5   1  -7   34.81    1.23   4
   5  -1   7   36.26    1.13   1
   5  -1   7   34.56    1.11   1
   5  -1   7   34.88    1.23   2
   5  -1   7   30.04    1.08   4
  -5   1  -8    0.48    0.24   3
  -5   1  -8    0.83    0.23   3
  -5   1  -8    0.32    0.45   4
   5  -1   8    0.78    0.41   1
   5  -1   8    1.16    0.50   1
   5  -1   8    0.74    0.51   2
  -5   1  -9    0.61    0.26   3
  -5   1  -9    0.26    0.50   4
   5  -1   9    2.43    0.53   1
   5  -1   9    0.40    0.57   1
   5  -1   9    0.34    0.54   2
  -5   1 -10    1.15    0.35   3
  -5   1 -10    1.87    0.69   4
   5  -1  10    3.30    0.61   1
   5  -1  10    1.48    0.67   1
   5  -1  10    1.73    0.64   2
  -5   1 -11    0.87    0.40   3
  -5   1 -11    2.05    0.75   4
   5  -1  11    1.51    0.63   1
   5  -1  11    2.67    0.82   1
   5  -1  11    0.57    0.74   2
  -5   1 -12    4.71    1.03   4
   5  -1  12    3.42    0.76   1
   5  -1  12    2.55    0.84   2
  -5   1 -13    0.32    0.97   4
   5  -1  13   -0.10    1.00   2
  -5   1 -14    5.01    1.36   4
   5  -1  14    3.09    1.22   2
  -5   0   9    1.97    1.19   3
   5   0  -9    3.25    0.91   1
   5   0  -9    1.88    1.06   4
  -5   0   8    0.83    0.92   3
   5   0  -8    1.43    0.76   1
   5   0  -8    0.64    0.84   4
  -5   0   7    0.31    0.42   2
  -5   0   7    1.10    0.76   3
   5   0  -7    1.75    0.65   1
   5   0  -7    0.95    0.70   4
  -5   0   6    0.98    0.33   2
  -5   0   6    1.27    0.72   3
   5   0  -6    0.74    0.57   1
   5   0  -6   -0.15    0.59   4
  -5   0   5    3.25    0.69   1
  -5   0   5    1.86    0.27   2
  -5   0   5    3.18    0.72   3
   5   0  -5    3.25    0.61   1
   5   0  -5    2.80    0.30   2
   5   0  -5    2.41    0.70   4
  -5   0   4   23.25    1.09   1
  -5   0   4   18.84    0.36   2
  -5   0   4   24.50    1.21   3
   5   0  -4   24.61    1.05   1
   5   0  -4   24.57    0.39   2
   5   0  -4   24.14    1.16   4
  -5   0   3    1.38    0.45   1
  -5   0   3    0.49    0.43   3
   5   0  -3    2.10    0.48   1
   5   0  -3    1.14    0.42   3
   5   0  -3    1.55    0.44   4
   5   0  -3    1.38    0.42   4
  -5   0   2   40.07    1.14   1
  -5   0   2   38.80    1.17   3
   5   0  -2   39.48    1.15   1
   5   0  -2   41.51    1.18   3
   5   0  -2   39.98    1.21   4
   5   0  -2   43.79    1.24   4
  -5   0   1    1.05    0.39   1
  -5   0   1    1.08    0.37   3
   5   0  -1    1.42    0.37   1
   5   0  -1    1.35    0.37   3
   5   0  -1    0.79    0.34   4
   5   0  -1    2.11    0.42   4
  -5   0   0    3.94    0.48   1
  -5   0   0    4.23    0.48   3
  -5   0   0    3.98    0.47   4
   5   0   0    4.13    0.51   1
   5   0   0    4.19    0.52   3
   5   0   0    5.12    0.50   4
  -5   0  -1  102.61    1.62   1
  -5   0  -1  102.45    0.84   2
  -5   0  -1  100.94    1.46   3
  -5   0  -1   99.50    1.63   4
   5   0   1  101.65    1.64   1
   5   0   1  100.49    0.84   2
   5   0   1  100.58    1.44   3
   5   0   1  100.81    1.61   4
  -5   0  -2   78.02    1.42   1
  -5   0  -2   79.05    0.96   2
  -5   0  -2   77.50    1.17   3
  -5   0  -2   77.07    1.44   4
   5   0   2   80.73    1.48   1
   5   0   2   74.41    0.94   2
   5   0   2   78.75    1.17   3
   5   0   2   78.96    1.41   4
  -5   0  -3  331.31    2.87   1
  -5   0  -3  318.23    2.86   4
   5   0   3  320.27    2.85   1
   5   0   3  313.70    2.20   2
   5   0   3  333.62    2.09   3
   5   0   3  331.85    2.88   4
  -5   0  -4  103.14    1.64   1
  -5   0  -4   96.46    1.38   2
  -5   0  -4   97.75    1.01   3
  -5   0  -4   97.21    1.65   4
   5   0   4   99.35    1.63   1
   5   0   4   94.79    1.39   2
   5   0   4   99.01    1.01   3
   5   0   4   99.77    1.64   4
  -5   0  -5   11.40    0.65   2
  -5   0  -5   12.34    0.34   3
  -5   0  -5   11.66    0.72   4
   5   0   5   13.65    0.74   1
   5   0   5   12.17    0.67   1
   5   0   5   11.61    0.68   2
   5   0   5   13.27    0.35   3
   5   0   5   12.90    0.71   4
  -5   0  -6    9.13    0.69   2
  -5   0  -6    8.69    0.22   3
  -5   0  -6    8.40    0.22   3
  -5   0  -6    9.06    0.73   4
   5   0   6    9.65    0.67   1
   5   0   6    9.58    0.72   1
   5   0   6    8.38    0.71   2
  -5   0  -7    0.69    0.36   2
  -5   0  -7    1.25    0.46   4
   5   0   7    0.87    0.40   1
   5   0   7    0.86    0.42   1
   5   0   7    0.38    0.40   2
   5   0   7    1.13    0.43   4
  -5   0  -8   -0.56    0.41   4
   5   0   8   -0.20    0.40   1
   5   0   8    0.80    0.49   1
   5   0   8   -1.01    0.39   2
  -5   0  -9    5.19    0.77   4
   5   0   9    3.95    0.62   1
   5   0   9    4.70    0.73   1
   5   0   9    3.45    0.61   2
  -5   0 -10    1.13    0.24   3
  -5   0 -10    1.10    0.24   3
   5   0  10    1.53    0.59   1
   5   0  10    1.26    0.70   1
  -5   0 -11    1.83    0.31   3
  -5   0 -11    2.84    0.82   4
   5   0  11    2.51    0.68   1
   5   0  11    2.35    0.75   2
  -5   0 -12    1.14    0.83   4
   5   0  12   -0.85    0.66   1
   5   0  12    0.26    0.77   2
  -5   0 -13    1.31    1.04   4
   5   0  13   -1.05    0.79   1
   5   0  13   -0.66    0.90   2
  -5   0 -14    1.79    1.22   4
   5   0  14    0.32    1.18   2
  -5  -1   9    0.95    1.12   3
   5   1  -9    1.39    0.85   1
   5   1  -9   -0.91    1.00   4
  -5  -1   8    6.01    1.16   3
   5   1  -8    6.73    0.86   1
   5   1  -8    7.48    1.07   4
  -5  -1   7    0.58    0.76   1
  -5  -1   7    0.81    0.49   2
  -5  -1   7    1.42    0.81   3
   5   1  -7    1.98    0.61   1
   5   1  -7    0.47    0.78   4
  -5  -1   6   35.78    1.36   1
  -5  -1   6   31.30    0.92   2
  -5  -1   6   39.01    1.61   3
   5   1  -6   35.71    1.30   1
   5   1  -6   37.63    0.99   2
   5   1  -6   36.11    1.58   4
  -5  -1   5   29.17    1.18   1
  -5  -1   5   29.62    0.79   2
  -5  -1   5   27.62    1.30   3
   5   1  -5   30.43    1.15   1
   5   1  -5   26.97    1.35   4
  -5  -1   4    3.36    0.59   1
  -5  -1   4    2.56    0.29   2
  -5  -1   4    3.40    0.64   3
   5   1  -4    3.75    0.57   1
   5   1  -4    4.64    0.40   2
   5   1  -4    2.67    0.59   4
  -5  -1   3    7.48    0.70   1
  -5  -1   3    5.26    0.31   2
  -5  -1   3    6.77    0.80   3
   5   1  -3    5.86    0.61   1
   5   1  -3    7.01    0.35   2
   5   1  -3    6.58    0.68   3
   5   1  -3    7.53    0.80   4
   5   1  -3    8.41    0.71   4
  -5  -1   2    2.95    0.47   1
  -5  -1   2    2.82    0.50   3
   5   1  -2    2.42    0.44   1
   5   1  -2    2.46    0.20   2
   5   1  -2    2.67    0.23   2
   5   1  -2    1.82    0.41   3
   5   1  -2    2.71    0.49   4
   5   1  -2    2.17    0.45   4
  -5  -1   1   79.85    1.46   1
  -5  -1   1   76.01    1.50   3
   5   1  -1   76.42    1.45   1
   5   1  -1   75.69    0.60   2
   5   1  -1   75.35    0.60   2
   5   1  -1   73.12    1.43   3
   5   1  -1   76.45    1.57   4
   5   1  -1   76.40    1.52   4
  -5  -1   0    7.50    0.59   1
  -5  -1   0    7.54    0.58   3
  -5  -1   0    7.49    0.61   4
   5   1   0    7.73    0.61   1
   5   1   0    7.85    0.28   2
   5   1   0    7.23    0.28   2
   5   1   0    7.61    0.57   3
   5   1   0    7.55    0.61   4
  -5  -1  -1    9.89    0.61   1
  -5  -1  -1    8.27    0.53   3
  -5  -1  -1    8.51    0.62   4
   5   1   1    8.98    0.63   1
   5   1   1    8.79    0.35   2
   5   1   1    9.52    0.36   2
   5   1   1    8.96    0.53   3
   5   1   1    8.71    0.60   4
  -5  -1  -2   42.09    1.07   1
  -5  -1  -2   42.67    0.76   2
  -5  -1  -2   39.69    0.84   3
  -5  -1  -2   40.15    1.05   4
   5   1   2   42.40    1.10   1
   5   1   2   41.59    0.85   3
   5   1   2   39.25    1.02   4
  -5  -1  -3   28.90    0.91   1
  -5  -1  -3   29.80    0.73   2
  -5  -1  -3   28.80    0.62   3
  -5  -1  -3   27.15    0.88   4
   5   1   3   30.90    0.96   1
   5   1   3   29.01    0.76   2
   5   1   3   30.24    0.66   3
   5   1   3   31.45    0.93   4
  -5  -1  -4  115.78    1.51   2
  -5  -1  -4  113.63    0.95   3
  -5  -1  -4  109.60    1.72   4
   5   1   4  114.44    1.76   1
   5   1   4  110.10    1.69   1
   5   1   4  108.00    1.50   2
   5   1   4  113.83    0.96   3
   5   1   4  117.72    1.75   4
  -5  -1  -5  153.35    1.89   2
  -5  -1  -5  147.08    2.04   4
   5   1   5  150.02    2.05   1
   5   1   5  151.93    2.02   1
   5   1   5  144.35    1.88   2
   5   1   5  147.80    2.00   4
  -5  -1  -6   83.80    1.55   2
  -5  -1  -6   84.77    1.65   4
   5   1   6   86.76    1.62   1
   5   1   6   89.93    1.64   1
   5   1   6   82.47    1.58   2
   5   1   6   86.01    1.58   4
  -5  -1  -7   24.74    1.02   2
  -5  -1  -7   24.03    1.01   4
   5   1   7   25.57    1.02   1
   5   1   7   27.13    1.05   1
   5   1   7   25.20    1.05   2
   5   1   7   24.47    0.97   4
  -5  -1  -8    1.28    0.48   4
   5   1   8    0.31    0.41   1
   5   1   8    0.73    0.51   1
   5   1   8    1.12    0.47   2
  -5  -1  -9    0.77    0.55   4
   5   1   9    0.44    0.45   1
   5   1   9   -0.62    0.59   1
   5   1   9   -0.11    0.51   2
  -5  -1 -10    0.38    0.56   4
   5   1  10   -0.20    0.51   1
  -5  -1 -11   -0.26    0.60   4
   5   1  11    0.11    0.62   1
   5   1  11   -0.27    0.62   2
  -5  -1 -12    3.18    0.83   4
   5   1  12    2.20    0.81   1
   5   1  12    2.38    0.82   2
  -5  -1 -13    0.63    0.90   4
   5   1  13   -0.66    0.86   2
  -5  -1 -14    1.47    1.16   4
   5   1  14    0.17    1.07   1
   5   1  14    1.68    1.21   2
  -5  -2   9   -1.02    1.09   3
   5   2  -9   -1.13    0.99   4
  -5  -2   8    0.62    0.64   2
  -5  -2   8    0.63    0.95   3
   5   2  -8    0.35    0.63   1
   5   2  -8   -0.18    0.80   4
  -5  -2   7    1.09    0.53   2
  -5  -2   7    0.34    0.77   3
   5   2  -7    0.44    0.56   1
   5   2  -7    0.11    0.77   4
  -5  -2   6   -0.71    0.58   1
  -5  -2   6    0.27    0.43   2
  -5  -2   6    0.10    0.69   3
   5   2  -6    0.29    0.48   1
   5   2  -6   -0.13    0.50   2
   5   2  -6    0.65    0.63   4
  -5  -2   5   27.13    1.13   1
  -5  -2   5   27.55    0.91   2
  -5  -2   5   31.42    1.62   3
   5   2  -5   33.49    1.11   1
   5   2  -5   36.32    0.99   2
   5   2  -5   32.15    1.50   4
  -5  -2   4   10.32    0.82   1
  -5  -2   4    9.04    0.58   2
  -5  -2   4   10.98    0.91   3
   5   2  -4   11.97    0.82   1
   5   2  -4   10.84    0.64   2
   5   2  -4   10.61    0.98   4
  -5  -2   3   37.91    1.12   1
  -5  -2   3   34.57    0.77   2
  -5  -2   3   34.87    1.24   3
   5   2  -3   34.40    1.07   1
   5   2  -3   34.80    0.77   2
   5   2  -3   34.62    1.24   4
  -5  -2   2   75.94    1.43   1
  -5  -2   2   73.32    1.00   2
  -5  -2   2   70.74    1.60   3
   5   2  -2   67.48    1.34   1
   5   2  -2   70.95    0.96   2
   5   2  -2   70.95    1.52   3
   5   2  -2   71.00    1.62   4
   5   2  -2   70.11    1.58   4
  -5  -2   1    0.04    0.32   1
  -5  -2   1    0.16    0.35   3
   5   2  -1    0.13    0.31   1
   5   2  -1    0.28    0.16   2
   5   2  -1    0.13    0.20   2
   5   2  -1    0.64    0.32   3
   5   2  -1    0.16    0.30   4
   5   2  -1   -0.09    0.29   4
  -5  -2   0   -0.01    0.27   1
  -5  -2   0    0.51    0.32   3
   5   2   0    0.49    0.32   1
   5   2   0    0.45    0.18   2
   5   2   0    0.14    0.17   2
   5   2   0    0.54    0.28   3
   5   2   0    0.36    0.34   4
   5   2   0    0.10    0.28   4
  -5  -2  -1   56.21    1.22   1
  -5  -2  -1   51.78    1.08   3
  -5  -2  -1   52.13    1.22   4
   5   2   1   55.53    1.21   1
   5   2   1   56.64    0.89   2
   5   2   1   55.99    1.09   3
   5   2   1   56.10    1.24   4
  -5  -2  -2   26.90    0.74   3
  -5  -2  -2   26.74    0.91   4
   5   2   2   28.68    0.93   1
   5   2   2   26.89    0.88   1
   5   2   2   27.79    0.72   2
   5   2   2   26.19    0.71   3
   5   2   2   27.74    0.89   4
  -5  -2  -3  120.72    1.48   2
  -5  -2  -3  119.12    1.75   4
   5   2   3  119.12    1.79   1
   5   2   3  123.07    1.79   1
   5   2   3  113.58    1.46   2
   5   2   3  120.30    1.24   3
   5   2   3  125.49    1.76   4
  -5  -2  -4   28.01    0.83   2
  -5  -2  -4   27.63    0.52   3
  -5  -2  -4   27.25    0.93   4
   5   2   4   29.82    0.99   1
   5   2   4   28.21    0.95   1
   5   2   4   27.14    0.86   2
   5   2   4   27.57    0.52   3
   5   2   4   28.93    0.87   4
  -5  -2  -5   16.94    0.74   2
  -5  -2  -5   16.64    0.78   4
   5   2   5   17.00    0.82   1
   5   2   5   17.11    0.81   1
   5   2   5   16.29    0.74   4
  -5  -2  -6   20.58    0.87   2
  -5  -2  -6   21.22    0.90   4
   5   2   6   21.05    0.93   1
   5   2   6   20.96    0.91   1
   5   2   6   21.91    0.93   2
   5   2   6   21.32    0.90   4
  -5  -2  -7   27.55    1.05   2
  -5  -2  -7   29.55    1.10   4
   5   2   7   30.17    1.12   1
   5   2   7   30.03    1.14   1
   5   2   7   28.95    1.15   2
   5   2   7   30.11    1.12   4
  -5  -2  -8    2.70    0.53   1
  -5  -2  -8    2.02    0.49   4
   5   2   8    2.34    0.59   1
   5   2   8    4.45    0.67   2
   5   2   8    2.77    0.57   4
  -5  -2  -9   15.33    0.99   1
  -5  -2  -9   15.82    1.08   4
   5   2   9   12.74    0.98   2
  -5  -2 -10    2.70    0.66   1
  -5  -2 -10    2.46    0.67   4
  -5  -2 -11    0.85    0.60   1
  -5  -2 -11    0.84    0.73   4
   5   2  11    0.16    0.65   2
  -5  -2 -12    0.62    0.75   4
   5   2  12    0.45    0.75   2
  -5  -2 -13   -0.71    0.90   4
   5   2  13   -0.66    0.88   1
   5   2  13    0.54    0.95   2
  -5  -2 -14    1.68    1.18   4
   5   2  14   -1.40    1.06   1
   5   2  14    0.11    1.08   2
  -5  -3   9    0.74    1.22   3
   5   3  -9    3.67    1.21   4
  -5  -3   8    0.80    0.75   2
  -5  -3   8    1.30    0.98   3
   5   3  -8    0.05    0.89   4
  -5  -3   7    5.57    0.76   2
  -5  -3   7    8.27    1.08   3
   5   3  -7    8.71    0.87   1
   5   3  -7    6.78    0.99   4
  -5  -3   6    5.52    0.68   2
  -5  -3   6    7.35    0.99   3
   5   3  -6    7.09    0.82   1
   5   3  -6    7.70    0.80   2
   5   3  -6    7.38    0.98   4
  -5  -3   5    4.60    0.63   1
  -5  -3   5    5.25    0.61   2
  -5  -3   5    6.00    0.82   3
   5   3  -5    6.31    0.63   1
   5   3  -5    6.99    0.71   2
   5   3  -5    5.06    0.75   4
  -5  -3   4   10.05    0.77   1
  -5  -3   4    7.84    0.67   2
  -5  -3   4   11.85    1.05   3
   5   3  -4   11.98    0.76   1
   5   3  -4   10.46    0.74   2
   5   3  -4   10.97    0.99   4
  -5  -3   3    0.46    0.40   1
  -5  -3   3    0.51    0.32   2
  -5  -3   3    0.10    0.45   3
   5   3  -3    0.23    0.34   1
   5   3  -3    0.48    0.31   2
   5   3  -3    0.33    0.46   4
  -5  -3   2   67.20    1.33   1
  -5  -3   2   66.36    1.15   2
  -5  -3   2   67.30    1.61   3
   5   3  -2   66.96    1.32   1
   5   3  -2   65.91    1.15   2
   5   3  -2   65.03    1.54   3
   5   3  -2   62.82    1.55   4
   5   3  -2   66.73    1.58   4
  -5  -3   1   25.89    0.75   2
  -5  -3   1   24.88    0.98   3
   5   3  -1   24.30    0.85   1
   5   3  -1   27.20    0.90   1
   5   3  -1   25.26    0.74   2
   5   3  -1   25.88    0.97   3
   5   3  -1   25.13    1.03   4
   5   3  -1   24.40    0.93   4
  -5  -3   0   33.31    1.03   3
   5   3   0   34.71    1.00   1
   5   3   0   35.22    1.00   1
   5   3   0   34.48    0.82   2
   5   3   0   35.39    0.82   2
   5   3   0   32.52    0.97   3
   5   3   0   33.10    1.09   4
   5   3   0   32.46    1.04   4
  -5  -3  -1   26.08    0.85   3
  -5  -3  -1   27.05    0.93   4
   5   3   1   27.56    0.91   1
   5   3   1   27.92    0.90   1
   5   3   1   26.85    0.76   2
   5   3   1   29.88    0.79   2
   5   3   1   28.36    0.85   3
   5   3   1   27.93    0.93   4
  -5  -3  -2   32.07    0.84   3
  -5  -3  -2   30.26    0.96   4
   5   3   2   30.20    0.94   1
   5   3   2   31.77    0.96   1
   5   3   2   31.34    0.85   2
   5   3   2   31.63    0.83   2
   5   3   2   31.41    0.81   3
   5   3   2   32.40    0.96   4
  -5  -3  -3    2.80    0.41   4
   5   3   3    2.74    0.45   1
   5   3   3    2.35    0.42   1
   5   3   3    2.49    0.38   2
   5   3   3    2.44    0.35   2
   5   3   3    2.63    0.39   4
  -5  -3  -4   76.23    1.38   2
  -5  -3  -4   69.38    1.36   4
   5   3   4   71.92    1.48   1
   5   3   4   71.59    1.47   1
   5   3   4   67.66    1.34   2
   5   3   4   73.74    0.94   3
   5   3   4   70.57    0.92   3
   5   3   4   70.46    1.36   4
  -5  -3  -5   33.38    1.00   2
  -5  -3  -5   31.32    0.99   4
   5   3   5   34.80    1.09   1
   5   3   5   34.33    1.07   1
   5   3   5   32.47    1.05   2
   5   3   5   34.90    0.55   3
   5   3   5   33.24    0.52   3
   5   3   5   32.67    1.00   4
  -5  -3  -6    5.16    0.62   1
  -5  -3  -6    5.39    0.64   2
  -5  -3  -6    5.78    0.61   4
   5   3   6    5.21    0.60   1
   5   3   6    4.93    0.60   2
   5   3   6    7.01    0.65   4
  -5  -3  -7   16.95    0.90   1
  -5  -3  -7   17.08    0.92   2
  -5  -3  -7   16.76    0.87   4
   5   3   7   18.46    0.96   1
   5   3   7   16.37    0.90   2
   5   3   7   16.84    0.90   4
  -5  -3  -8    2.80    0.58   1
  -5  -3  -8    3.78    0.60   4
   5   3   8    3.96    0.69   2
   5   3   8    2.98    0.58   4
  -5  -3  -9    0.07    0.50   1
  -5  -3  -9    0.02    0.49   4
   5   3   9   -0.38    0.55   2
  -5  -3 -10    9.06    1.04   1
  -5  -3 -10    9.45    1.05   4
   5   3  10    6.71    0.85   2
   5   3  11   -0.04    0.63   2
  -5  -3 -12    2.48    0.89   1
  -5  -3 -12    3.28    0.94   4
   5   3  12    2.23    0.82   2
  -5  -3 -13   -0.68    0.86   1
  -5  -3 -13    1.23    0.99   4
   5   3  13    0.38    0.96   2
  -5  -3 -14   -0.87    1.08   1
  -5  -3 -14    0.71    1.16   4
   5   3  14   -2.53    0.97   2
  -5  -4   8    0.44    0.89   2
  -5  -4   8    2.71    1.16   3
   5   4  -8    1.00    1.01   4
  -5  -4   7    0.39    0.72   2
  -5  -4   7    1.43    0.91   3
   5   4  -7   -0.09    0.81   4
  -5  -4   6    2.78    0.70   2
  -5  -4   6    5.20    0.94   3
   5   4  -6    4.73    0.55   1
   5   4  -6    5.47    0.93   2
   5   4  -6    3.97    0.89   4
  -5  -4   5   19.66    1.11   2
  -5  -4   5   16.58    1.30   3
   5   4  -5   18.90    0.86   1
   5   4  -5   18.19    0.84   1
   5   4  -5   17.67    1.12   2
   5   4  -5   17.79    1.28   4
  -5  -4   4    3.22    0.54   2
   5   4  -4    3.41    0.50   1
   5   4  -4    3.81    0.50   1
   5   4  -4    3.35    0.59   2
   5   4  -4    3.17    0.68   4
  -5  -4   3   12.08    0.78   2
  -5  -4   3    9.94    0.90   3
   5   4  -3   10.40    0.70   1
   5   4  -3    9.96    0.69   1
   5   4  -3   11.34    0.81   2
   5   4  -3    9.96    0.95   4
  -5  -4   2    1.11    0.37   2
  -5  -4   2    2.14    0.55   3
   5   4  -2    2.16    0.42   1
   5   4  -2    0.94    0.39   1
   5   4  -2    1.34    0.41   2
   5   4  -2    1.14    0.47   4
  -5  -4   1    1.80    0.36   2
  -5  -4   1    0.56    0.41   3
   5   4  -1    0.97    0.36   1
   5   4  -1    0.76    0.36   1
   5   4  -1    1.07    0.38   2
   5   4  -1    1.02    0.43   3
   5   4  -1    1.13    0.43   4
   5   4  -1    1.28    0.45   4
  -5  -4   0   11.11    0.75   3
   5   4   0   12.26    0.70   1
   5   4   0   10.10    0.68   1
   5   4   0   11.72    0.67   2
   5   4   0   10.03    0.63   2
   5   4   0   11.31    0.72   3
   5   4   0   10.86    0.76   4
   5   4   0   10.02    0.77   4
  -5  -4  -1   15.45    0.75   3
   5   4   1   16.07    0.77   1
   5   4   1   18.19    0.83   1
   5   4   1   15.45    0.72   2
   5   4   1   16.01    0.72   2
   5   4   1   16.73    0.77   3
   5   4   1   15.92    0.82   4
   5   4   1   15.58    0.80   4
  -5  -4  -2    0.91    0.33   4
   5   4   2    0.97    0.37   1
   5   4   2    1.46    0.41   1
   5   4   2    0.71    0.30   2
   5   4   2    1.08    0.31   2
   5   4   2    1.42    0.34   3
   5   4   2    1.30    0.31   3
   5   4   2    1.14    0.35   4
  -5  -4  -3   67.20    1.35   4
   5   4   3   65.51    1.44   1
   5   4   3   68.29    1.43   1
   5   4   3   68.60    1.38   2
   5   4   3   67.90    1.34   2
   5   4   3   68.02    1.18   3
   5   4   3   67.34    1.15   3
   5   4   3   70.18    1.36   4
  -5  -4  -4   13.16    0.79   1
  -5  -4  -4   13.69    0.71   4
   5   4   4   13.85    0.79   1
   5   4   4   13.19    0.77   2
   5   4   4   13.40    0.78   2
   5   4   4   12.94    0.56   3
   5   4   4   12.83    0.55   3
   5   4   4   13.55    0.73   4
  -5  -4  -5   14.44    0.86   1
  -5  -4  -5   14.83    0.83   2
  -5  -4  -5   13.66    0.75   4
   5   4   5   15.87    0.90   1
   5   4   5   15.79    0.87   2
   5   4   5   15.51    0.51   3
   5   4   5   14.15    0.79   4
  -5  -4  -6   13.99    0.87   1
  -5  -4  -6   11.82    0.86   2
  -5  -4  -6   13.03    0.75   4
   5   4   6   12.18    0.89   1
   5   4   6   12.43    0.89   2
   5   4   6   12.42    0.46   3
   5   4   6   13.26    0.45   3
   5   4   6   13.83    0.81   4
  -5  -4  -7    7.57    0.76   1
  -5  -4  -7    7.49    0.70   4
   5   4   7    8.27    0.81   2
   5   4   7    7.66    0.34   3
   5   4   7    7.98    0.32   3
   5   4   7    9.79    0.80   4
  -5  -4  -8    0.76    0.49   1
  -5  -4  -8   -0.16    0.40   4
   5   4   8   -0.21    0.49   2
   5   4   8   -0.46    0.50   4
  -5  -4  -9    0.31    0.59   1
  -5  -4  -9    0.01    0.48   4
   5   4   9   -0.56    0.53   2
   5   4   9   -0.04    0.61   4
  -5  -4 -10    4.17    0.77   4
   5   4  10    4.57    0.88   2
  -5  -4 -11    2.50    0.80   1
  -5  -4 -11    1.21    0.74   4
   5   4  11    0.83    0.74   2
  -5  -4 -12    1.30    0.82   1
  -5  -4 -12    0.50    0.82   4
   5   4  12   -1.16    0.74   2
  -5  -4 -13    4.03    1.03   1
  -5  -4 -13    3.67    1.06   4
   5   4  13    3.34    1.03   2
  -5  -4 -14   -0.38    1.13   1
  -5  -4 -14    0.93    1.11   4
   5   4  14    1.26    1.22   2
  -5  -5   8    1.66    1.05   2
  -5  -5   8    1.43    1.23   3
   5   5  -8    1.15    1.16   4
  -5  -5   7    0.29    0.87   2
  -5  -5   7    0.00    0.94   3
   5   5  -7   -0.23    0.94   4
  -5  -5   6    0.54    0.70   2
  -5  -5   6   -0.98    0.78   3
   5   5  -6    0.85    0.84   4
  -5  -5   5    0.53    0.60   2
  -5  -5   5    1.08    0.72   3
   5   5  -5    1.65    0.44   1
   5   5  -5    0.75    0.75   4
  -5  -5   4   -0.27    0.48   2
  -5  -5   4    0.07    0.61   3
   5   5  -4    0.03    0.37   1
   5   5  -4    0.38    0.41   1
   5   5  -4    0.68    0.66   2
   5   5  -4    0.25    0.60   4
  -5  -5   3    0.22    0.46   2
  -5  -5   3   -0.80    0.51   3
   5   5  -3    1.05    0.38   1
   5   5  -3   -0.12    0.38   1
   5   5  -3    0.73    0.53   2
   5   5  -3   -0.15    0.47   4
  -5  -5   2   54.98    1.39   2
  -5  -5   2   56.58    1.68   3
   5   5  -2   55.30    1.22   1
   5   5  -2   53.10    1.22   1
   5   5  -2   54.00    1.40   2
   5   5  -2   50.65    1.54   4
  -5  -5   1    1.08    0.44   2
  -5  -5   1    1.46    0.54   3
   5   5  -1    1.21    0.40   1
   5   5  -1    1.31    0.45   1
   5   5  -1    1.03    0.46   2
   5   5  -1    0.99    0.47   4
   5   5  -1    1.41    0.46   4
  -5  -5   0    6.47    0.70   2
   5   5   0    7.46    0.65   1
   5   5   0    7.41    0.72   1
   5   5   0    6.63    0.71   2
   5   5   0    7.06    0.75   3
   5   5   0    7.24    0.75   3
   5   5   0    7.41    0.76   4
   5   5   0    6.97    0.69   4
   5   5   1    9.55    0.73   1
   5   5   1   11.00    0.79   1
   5   5   1    9.56    0.74   2
   5   5   1   10.17    0.76   2
   5   5   1   10.33    0.76   3
   5   5   1   10.61    0.73   3
   5   5   1    9.70    0.73   4
   5   5   1   10.65    0.77   4
   5   5   2   13.66    0.79   1
   5   5   2   14.73    0.86   1
   5   5   2   13.74    0.78   2
   5   5   2   14.00    0.81   2
   5   5   2   14.25    0.76   3
   5   5   2   14.06    0.76   3
   5   5   2   14.02    0.78   4
   5   5   2   15.06    0.81   4
  -5  -5  -3    3.94    0.52   1
  -5  -5  -3    5.87    0.61   4
   5   5   3    4.39    0.62   1
   5   5   3    4.24    0.56   2
   5   5   3    4.29    0.52   2
   5   5   3    4.83    0.50   3
   5   5   3    4.72    0.57   3
   5   5   3    5.76    0.63   4
  -5  -5  -4    9.22    0.74   1
  -5  -5  -4    9.03    0.67   4
   5   5   4    9.88    0.85   1
   5   5   4    8.52    0.75   2
   5   5   4   10.23    0.81   2
   5   5   4    8.80    0.60   3
   5   5   4    9.34    0.59   3
   5   5   4    9.43    0.69   4
  -5  -5  -5    1.46    0.45   1
  -5  -5  -5    2.21    0.43   4
   5   5   5    2.39    0.47   1
   5   5   5    1.80    0.48   2
   5   5   5    1.99    0.54   2
   5   5   5    1.15    0.31   3
   5   5   5    1.51    0.35   3
   5   5   5    1.56    0.43   4
  -5  -5  -6   32.49    1.27   1
  -5  -5  -6   31.22    1.04   4
   5   5   6   30.26    1.18   2
   5   5   6   32.20    0.81   3
   5   5   6   33.46    0.83   3
   5   5   6   33.26    1.07   4
  -5  -5  -7    5.89    0.77   1
  -5  -5  -7    4.53    0.57   4
   5   5   7    4.65    0.73   2
   5   5   7    4.24    0.49   3
   5   5   7    4.19    0.39   3
   5   5   7    5.22    0.64   4
  -5  -5  -8    7.24    0.88   1
  -5  -5  -8    8.84    0.83   4
   5   5   8    7.44    0.87   2
   5   5   8    6.46    0.49   3
   5   5   8    5.94    0.73   4
  -5  -5  -9   14.54    0.59   3
  -5  -5  -9   22.09    1.13   4
   5   5   9   21.05    1.38   2
   5   5   9   19.83    0.59   3
   5   5   9   22.24    1.28   4
  -5  -5 -10   -0.09    0.71   1
  -5  -5 -10    0.05    0.56   4
   5   5  10   -1.03    0.68   2
   5   5  10    0.06    0.25   3
  -5  -5 -11   -0.05    0.80   1
  -5  -5 -11    1.05    0.73   4
   5   5  11    1.70    0.81   2
  -5  -5 -12    1.02    0.85   1
  -5  -5 -12   -0.80    0.86   4
   5   5  12   -1.09    0.90   2
  -5  -5 -13   -0.26    1.03   1
  -5  -5 -13    0.18    1.01   4
   5   5  13   -0.49    1.05   2
  -5  -6   7    3.01    1.06   2
   5   6  -7    3.39    1.22   3
   5   6  -7    3.99    1.22   4
  -5  -6   6   -0.14    0.77   2
   5   6  -6    0.97    0.93   3
   5   6  -6   -1.34    0.90   4
  -5  -6   5   -0.60    0.68   2
   5   6  -5   -0.18    0.80   3
   5   6  -5   -0.36    0.79   4
  -5  -6   4    2.44    0.66   2
   5   6  -4    2.53    0.46   1
   5   6  -4    2.17    0.84   3
   5   6  -4    1.53    0.73   4
  -5  -6   3    0.22    0.51   2
   5   6  -3   -0.39    0.37   1
   5   6  -3   -0.37    0.42   1
   5   6  -3    0.17    0.62   3
   5   6  -3   -0.12    0.58   4
  -5  -6   2   -0.10    0.49   2
   5   6  -2    0.17    0.38   1
   5   6  -2    0.34    0.44   1
   5   6  -2    0.33    0.60   3
   5   6  -2    0.97    0.57   4
  -5  -6   1    2.00    0.59   2
   5   6  -1    3.50    0.50   1
   5   6  -1    2.57    0.52   1
   5   6  -1    2.26    0.63   2
   5   6  -1    2.50    0.65   3
   5   6  -1    2.56    0.60   4
  -5  -6   0   44.93    1.39   2
   5   6   0   45.76    1.23   1
   5   6   0   45.85    1.28   1
   5   6   0   44.71    1.40   2
   5   6   0   44.79    1.46   3
   5   6   0   47.91    1.41   4
   5   6   0   43.95    1.35   4
   5   6   1   38.55    1.20   1
   5   6   1   36.61    1.23   1
   5   6   1   36.98    1.27   2
   5   6   1   34.92    1.24   2
   5   6   1   36.15    1.27   3
   5   6   1   37.42    1.28   3
   5   6   1   37.37    1.22   4
   5   6   1   36.70    1.19   4
  -5  -6  -2   10.99    0.82   1
   5   6   2    9.07    0.91   1
   5   6   2    9.53    0.85   2
   5   6   2    6.68    0.71   2
   5   6   2    9.33    0.80   3
   5   6   2   10.77    0.88   3
   5   6   2    9.61    0.79   4
   5   6   2    8.31    0.79   4
  -5  -6  -3    0.06    0.42   1
   5   6   3    0.70    0.58   1
   5   6   3    0.12    0.43   2
   5   6   3    0.06    0.48   2
   5   6   3    0.20    0.36   3
   5   6   3    0.17    0.39   3
   5   6   3    0.00    0.35   4
   5   6   3   -0.03    0.39   4
  -5  -6  -4   18.37    0.95   1
  -5  -6  -4   18.64    0.84   4
   5   6   4   17.08    1.00   2
   5   6   4   19.44    0.88   3
   5   6   4   20.60    0.92   3
   5   6   4   19.10    0.90   4
  -5  -6  -5    3.21    0.61   1
  -5  -6  -5    3.03    0.46   4
   5   6   5    2.46    0.53   2
   5   6   5    2.54    0.45   3
   5   6   5    2.49    0.48   3
   5   6   5    2.82    0.50   4
  -5  -6  -6    0.51    0.54   1
  -5  -6  -6    0.49    0.36   4
   5   6   6    0.05    0.47   2
   5   6   6    0.18    0.37   3
   5   6   6    0.49    0.39   3
   5   6   6    0.76    0.46   4
  -5  -6  -7    0.06    0.57   1
  -5  -6  -7   -0.03    0.38   4
   5   6   7    0.59    0.56   2
   5   6   7    0.63    0.39   3
   5   6   7    0.05    0.37   3
   5   6   7    0.65    0.52   4
  -5  -6  -8    1.07    0.68   1
  -5  -6  -8    0.00    0.38   3
  -5  -6  -8    0.86    0.47   4
   5   6   8   -0.72    0.59   2
   5   6   8    0.09    0.40   3
   5   6   8    0.72    0.55   4
  -5  -6  -9    6.57    0.90   1
  -5  -6  -9    6.90    0.70   3
  -5  -6  -9    7.47    0.78   4
   5   6   9    8.65    1.02   2
   5   6   9    6.54    0.69   3
   5   6   9    7.77    0.87   4
  -5  -6 -10    2.13    0.81   1
  -5  -6 -10    1.05    0.62   4
   5   6  10    1.26    0.87   2
   5   6  10    0.37    0.41   3
   5   6  10    0.23    0.84   4
  -5  -6 -11    3.58    0.96   1
  -5  -6 -11    3.27    0.76   4
   5   6  11    0.32    0.91   2
  -5  -6 -12    7.49    1.32   1
   5   6  12    7.44    1.20   2
  -5  -6 -13   -1.03    1.16   1
  -5  -6 -13   -1.91    0.98   4
   5   6  13    0.65    1.16   2
  -5  -7   6    3.39    1.04   2
   5   7  -6    4.60    1.21   3
   5   7  -6    4.56    1.28   4
  -5  -7   5    5.28    1.00   2
   5   7  -5    4.35    1.13   3
   5   7  -5    3.26    1.02   4
  -5  -7   4    3.37    0.84   2
   5   7  -4    4.24    1.06   3
   5   7  -4    2.84    0.87   4
  -5  -7   3    0.04    0.64   2
   5   7  -3    0.12    0.44   1
   5   7  -3    0.40    0.79   3
   5   7  -3   -0.38    0.70   4
  -5  -7   2    2.06    0.66   2
   5   7  -2    2.72    0.50   1
   5   7  -2    1.15    0.58   1
   5   7  -2    1.93    0.73   3
   5   7  -2    2.43    0.71   4
  -5  -7   1   13.65    1.11   2
   5   7  -1   11.71    0.84   1
   5   7  -1   12.00    1.01   1
   5   7  -1   11.71    1.04   4
  -5  -7   0   -0.35    0.55   2
   5   7   0    0.33    0.45   1
   5   7   0   -0.35    0.57   1
   5   7   0   -0.21    0.54   3
   5   7   0   -0.26    0.52   4
   5   7   0   -0.16    0.57   4
   5   7   1   10.84    0.85   1
   5   7   1    9.39    1.05   1
   5   7   1   12.24    1.04   2
   5   7   1   11.85    1.00   3
   5   7   1   11.96    0.91   4
   5   7   1   11.22    0.96   4
  -5  -7  -2    0.55    0.54   1
   5   7   2    0.55    0.62   1
   5   7   2    0.75    0.54   2
   5   7   2    1.16    0.51   3
   5   7   2    0.39    0.43   4
   5   7   2   -0.23    0.47   4
  -5  -7  -3   23.06    1.14   1
   5   7   3   22.24    1.18   2
   5   7   3   25.27    1.13   3
   5   7   3   23.64    1.17   3
   5   7   3   24.54    1.01   4
   5   7   3   22.56    1.01   4
  -5  -7  -4   14.27    1.03   1
   5   7   4   10.26    1.03   2
   5   7   4   11.42    0.85   3
   5   7   4   11.58    1.01   3
   5   7   4   11.79    0.79   4
   5   7   4   12.17    0.86   4
  -5  -7  -5    4.62    0.77   1
  -5  -7  -5    3.03    0.47   4
   5   7   5    3.61    0.63   2
   5   7   5    3.90    0.60   3
   5   7   5    4.17    0.64   3
   5   7   5    4.36    0.58   4
  -5  -7  -6    0.44    0.59   1
  -5  -7  -6   -0.57    0.36   4
   5   7   6    0.73    0.48   3
   5   7   6    0.85    0.51   3
   5   7   6    1.28    0.51   4
  -5  -7  -7    3.42    0.78   1
  -5  -7  -7    1.98    0.47   4
   5   7   7    2.92    0.76   2
   5   7   7    1.63    0.53   3
   5   7   7    2.44    0.57   3
   5   7   7    2.53    0.61   4
  -5  -7  -8    0.72    0.69   1
  -5  -7  -8    0.78    0.53   3
  -5  -7  -8    0.84    0.47   4
   5   7   8    0.46    0.65   2
   5   7   8    0.28    0.48   3
   5   7   8   -0.02    0.60   4
  -5  -7  -9    1.12    0.77   1
  -5  -7  -9    0.04    0.50   4
   5   7   9   -0.48    0.74   2
   5   7   9    1.26    0.55   3
   5   7   9   -0.47    0.70   4
  -5  -7 -10    2.05    0.92   1
  -5  -7 -10   -0.47    0.59   4
   5   7  10    1.00    0.89   2
   5   7  10    0.59    0.57   3
  -5  -7 -11    1.61    1.00   1
  -5  -7 -11    0.81    0.72   4
   5   7  11   -0.26    1.02   2
  -5  -7 -12    3.92    1.30   1
   5   7  12   -1.75    1.03   2
  -5  -8   5   -0.28    0.94   2
   5   8  -5    1.14    1.16   3
   5   8  -5    0.95    1.07   4
  -5  -8   4    0.44    0.88   2
   5   8  -4    0.61    0.92   3
   5   8  -4    0.88    0.93   4
  -5  -8   3    3.11    0.92   2
   5   8  -3    0.80    0.86   3
   5   8  -3    3.57    0.87   4
  -5  -8   2    8.95    1.06   2
   5   8  -2    7.81    0.85   1
   5   8  -2    8.77    1.16   3
  -5  -8   1    2.09    0.75   2
   5   8  -1    2.13    0.55   1
   5   8  -1    1.76    0.67   1
   5   8  -1    1.37    0.77   3
   5   8  -1    2.15    0.68   4
  -5  -8   0    9.64    1.17   2
   5   8   0   10.55    0.94   1
   5   8   0   10.31    1.15   1
   5   8   0   11.77    1.21   3
   5   8   0    9.61    1.05   4
   5   8   1    0.18    0.54   1
   5   8   1    0.40    0.61   3
   5   8   1    0.08    0.52   4
   5   8   1    0.69    0.58   4
  -5  -8  -2   26.52    1.26   1
   5   8   2   25.44    1.34   3
   5   8   2   23.94    1.11   4
   5   8   2   25.94    1.17   4
  -5  -8  -3    1.30    0.59   1
   5   8   3    0.49    0.65   2
   5   8   3    0.90    0.60   3
   5   8   3    0.58    0.46   4
   5   8   3    1.12    0.53   4
  -5  -8  -4   12.97    1.15   1
   5   8   4   10.29    1.11   2
   5   8   4   10.67    1.01   3
   5   8   4   13.48    0.87   4
   5   8   4    9.87    0.88   4
  -5  -8  -5   -0.57    0.64   1
   5   8   5    0.59    0.62   2
   5   8   5    0.58    0.59   3
   5   8   5    0.15    0.41   4
   5   8   5    0.08    0.46   4
  -5  -8  -6    3.15    0.77   1
   5   8   6    2.51    0.80   2
   5   8   6    1.78    0.62   3
   5   8   6    3.44    0.76   3
   5   8   6    1.83    0.48   4
   5   8   6    1.60    0.56   4
  -5  -8  -7    3.19    0.88   1
  -5  -8  -7    1.74    0.46   4
   5   8   7    0.76    0.68   2
   5   8   7    1.81    0.65   3
  -5  -8  -8    5.80    1.02   1
  -5  -8  -8    4.05    0.58   4
   5   8   8    7.64    1.10   2
   5   8   8    5.36    0.80   3
  -5  -8  -9    0.13    0.89   1
   5   8   9    0.07    0.86   2
   5   8   9    0.45    0.66   3
  -5  -8 -10    0.38    1.03   1
   5   8  10   -0.64    0.95   2
   5   8  10   -0.05    0.72   3
  -5  -8 -11    0.18    1.12   1
   5   8  11    1.56    1.19   2
  -5  -9   4    1.76    1.10   2
   5   9  -4    0.22    1.21   3
   5   9  -4    0.38    1.04   4
  -5  -9   3    0.37    0.96   2
   5   9  -3   -1.82    1.01   3
   5   9  -3   -0.93    0.94   4
  -5  -9   2   -0.11    0.88   2
   5   9  -2    2.26    1.03   3
   5   9  -2    0.10    0.84   4
  -5  -9   1    9.35    1.19   2
   5   9  -1    7.40    0.80   1
   5   9  -1    8.08    1.09   3
   5   9  -1   10.40    1.25   4
  -5  -9   0   -0.89    0.73   2
   5   9   0    0.20    0.61   1
   5   9   0   -0.66    0.75   3
   5   9   0   -1.03    0.62   4
   5   9   1    9.15    1.12   2
   5   9   1   10.75    1.32   3
   5   9   1   11.76    1.08   4
  -5  -9  -2    0.42    0.71   1
   5   9   2   -0.11    0.71   2
   5   9   2    0.19    0.75   3
   5   9   2   -0.35    0.52   4
   5   9   3    5.31    0.94   2
   5   9   3    4.89    0.89   3
   5   9   3    4.76    0.64   4
  -5  -9  -4    2.51    0.80   1
   5   9   4    2.63    0.85   2
   5   9   4    1.41    0.72   3
   5   9   4    1.13    0.50   4
  -5  -9  -5    2.72    0.91   1
   5   9   5    4.33    0.87   2
   5   9   5    2.96    0.77   3
   5   9   5    4.07    0.55   4
  -5  -9  -6    6.87    1.06   1
   5   9   6    4.93    1.01   2
   5   9   6    5.69    0.86   3
   5   9   6    5.71    0.59   4
  -5  -9  -7    1.98    0.92   1
   5   9   7    1.88    0.93   2
   5   9   7    1.11    0.78   3
  -5  -9  -8    1.66    0.98   1
   5   9   8    2.53    1.05   2
   5   9   8    2.27    0.81   3
  -5  -9  -9    0.39    1.06   1
   5   9   9   -0.36    1.06   2
   5   9   9   -0.28    0.83   3
  -5  -9 -10    1.39    1.26   1
   5   9  10   -1.11    1.07   2
  -5 -10   2    3.56    1.21   2
   5  10  -2    3.00    1.28   3
   5  10  -2    3.18    1.04   4
  -5 -10   1    1.13    1.17   2
   5  10  -1    1.17    1.01   3
  -5 -10   0   -0.66    0.91   2
   5  10   0    0.17    0.74   1
   5  10   0    0.01    0.96   2
   5  10   0   -0.20    0.99   3
   5  10   0   -1.01    0.75   4
   5  10   1   -0.09    0.94   2
   5  10   1    2.59    1.02   3
   5  10   1    0.95    0.70   4
  -5 -10  -2    9.88    1.22   1
   5  10   2   10.35    1.26   2
   5  10   2    8.53    1.13   3
   5  10   2    8.81    1.08   4
  -5 -10  -3    0.65    0.84   1
   5  10   3    0.49    0.85   2
   5  10   3    0.14    0.83   3
  -5 -10  -4    2.24    0.93   1
   5  10   4    0.52    0.86   2
   5  10   4    2.08    0.91   3
  -5 -10  -5   -1.19    0.86   1
   5  10   5   -0.29    0.86   2
   5  10   5    0.45    0.85   3
  -5 -10  -6    3.26    1.07   1
   5  10   6    1.88    0.99   2
   5  10   6    0.14    0.82   3
  -5 -10  -7    4.15    1.17   1
   5  10   7    1.89    1.01   2
   5  10   7    2.24    1.02   3
  -5 -10  -8    3.73    1.27   1
   5  10   8    4.56    1.24   2
   5  10   8    4.43    1.10   3
  -5 -10  -9    5.94    1.42   1
   5  10   9    9.99    1.49   2
   5  10   9    7.04    1.19   3
   5  11   1    3.10    1.26   2
   5  11   1    0.75    1.25   3
  -5 -11  -2    0.91    1.03   1
   5  11   2    1.52    1.12   2
   5  11   2   -1.27    1.07   3
  -5 -11  -3    0.30    1.03   1
   5  11   3   -0.72    0.99   2
   5  11   3   -0.92    1.04   3
  -5 -11  -4    0.05    1.05   1
   5  11   4   -0.39    1.08   2
   5  11   4   -0.17    1.08   3
  -5 -11  -5   -0.57    1.10   1
   5  11   5    1.17    1.04   2
   5  11   5   -0.07    1.07   3
  -5 -11  -6    2.17    1.22   1
   5  11   6    1.69    1.14   2
   5  11   6   -0.52    1.10   3
  -6   9   1    3.88    1.34   3
   6  -9  -1    0.75    1.24   1
  -6   9   0    4.61    1.35   3
   6  -9   0    5.14    1.28   1
   6  -9   0    2.53    1.02   2
  -6   9  -1   -1.09    1.05   3
   6  -9   1    2.40    1.11   1
   6  -9   1   -0.68    0.97   2
  -6   9  -2    2.31    1.18   3
   6  -9   2    1.98    1.16   1
   6  -9   2    1.43    1.03   2
  -6   9  -3    6.53    1.34   3
   6  -9   3    7.79    1.32   1
   6  -9   3   10.37    1.35   2
  -6   9  -4   -0.49    1.15   3
   6  -9   4    1.15    1.10   1
   6  -9   4   -0.41    1.09   2
  -6   8   3    1.97    1.17   3
   6  -8  -3   -0.37    1.12   1
  -6   8   2    3.39    1.10   3
   6  -8  -2    4.18    1.09   1
  -6   8   1    1.35    0.82   2
  -6   8   1    3.54    1.08   3
   6  -8  -1    2.44    1.06   1
  -6   8   0    1.85    0.96   3
   6  -8   0    0.89    0.91   1
   6  -8   0    1.96    0.83   2
  -6   8  -1    7.48    1.17   3
  -6   8  -1    5.93    0.84   4
   6  -8   1    7.20    1.10   1
   6  -8   1    9.85    1.03   2
  -6   8  -2    1.23    0.93   3
  -6   8  -2    1.66    0.69   4
   6  -8   2    0.58    0.88   1
   6  -8   2    0.07    0.77   2
  -6   8  -3   -0.65    0.85   3
  -6   8  -3   -0.12    0.67   4
   6  -8   3    1.20    0.94   1
   6  -8   3   -0.66    0.78   2
  -6   8  -4    3.67    1.09   3
  -6   8  -4    3.69    0.90   4
   6  -8   4    3.92    1.04   1
   6  -8   4    3.01    1.02   2
  -6   8  -5   -0.59    0.95   3
  -6   8  -5    1.35    0.89   4
   6  -8   5    0.69    0.92   1
   6  -8   5    0.44    1.01   2
  -6   8  -6   13.12    1.48   3
  -6   8  -6   13.92    1.33   4
   6  -8   6   11.35    1.31   1
   6  -8   6   16.79    1.82   2
  -6   8  -7   -0.44    1.11   3
  -6   8  -7    0.44    0.97   4
   6  -8   7    0.51    1.23   2
  -6   7   5    2.59    1.26   3
   6  -7  -5    2.02    1.21   1
  -6   7   4    0.63    1.16   3
   6  -7  -4    0.29    0.87   1
  -6   7   3    1.13    0.92   3
   6  -7  -3    1.06    0.91   1
  -6   7   2    0.34    0.62   2
  -6   7   2    0.64    0.85   3
   6  -7  -2    0.05    0.76   1
   6  -7  -2    1.29    0.64   4
  -6   7   1   -0.36    0.58   2
  -6   7   1   -0.11    0.83   3
   6  -7  -1    0.06    0.77   1
   6  -7  -1   -0.09    0.59   4
  -6   7   0   -0.78    0.73   3
  -6   7   0    0.81    0.56   4
   6  -7   0   -0.60    0.71   1
   6  -7   0    0.36    0.60   2
  -6   7  -1    2.03    0.84   3
  -6   7  -1    1.18    0.58   4
   6  -7   1    2.26    0.83   1
   6  -7   1    1.61    0.66   2
  -6   7  -2   -0.05    0.69   3
  -6   7  -2    0.52    0.58   4
   6  -7   2   -0.10    0.70   1
   6  -7   2   -0.07    0.62   2
  -6   7  -3    5.36    0.98   3
  -6   7  -3    4.51    0.73   4
   6  -7   3    5.21    0.92   1
   6  -7   3    6.32    0.93   2
  -6   7  -4   -0.04    0.74   3
  -6   7  -4    0.40    0.68   4
   6  -7   4    0.43    0.71   1
   6  -7   4    0.28    0.76   2
  -6   7  -5    2.24    0.90   3
  -6   7  -5    3.99    0.85   4
   6  -7   5    2.76    0.86   2
  -6   7  -6    0.29    0.84   3
  -6   7  -6    0.64    0.79   4
   6  -7   6    0.35    0.76   1
   6  -7   6    1.91    0.91   2
  -6   7  -7    0.87    0.94   3
  -6   7  -7    1.48    0.86   4
   6  -7   7    1.86    0.86   1
   6  -7   7    1.48    0.95   2
  -6   7  -8    1.67    1.05   3
  -6   7  -8    1.09    0.99   4
   6  -7   8   -1.05    0.99   2
  -6   7  -9    2.38    1.11   3
  -6   7  -9    3.46    1.18   4
   6  -7   9    3.22    1.18   2
  -6   6   6    1.95    1.17   3
   6  -6  -6   -0.33    1.11   1
  -6   6   5    0.82    1.06   3
   6  -6  -5    2.22    1.01   1
   6  -6  -5    0.41    0.79   4
  -6   6   4    3.41    1.10   3
   6  -6  -4    0.62    0.86   1
   6  -6  -4    0.46    0.73   4
  -6   6   3    0.14    0.86   3
   6  -6  -3    0.64    0.73   1
   6  -6  -3   -0.56    0.64   4
  -6   6   2    4.26    0.61   2
  -6   6   2    5.96    0.98   3
   6  -6  -2    3.64    0.90   1
   6  -6  -2    3.91    0.70   4
  -6   6   1    1.82    0.51   2
  -6   6   1    3.11    0.78   3
   6  -6  -1    2.13    0.71   1
   6  -6  -1    0.97    0.60   4
   6  -6  -1    1.82    0.70   4
  -6   6   0    0.84    0.58   2
  -6   6   0   -0.02    0.57   3
  -6   6   0    0.57    0.48   4
   6  -6   0   -0.40    0.60   1
   6  -6   0    0.74    0.50   2
   6  -6   0    0.50    0.63   4
  -6   6  -1    3.90    0.72   2
  -6   6  -1    4.31    0.80   3
  -6   6  -1    5.30    0.68   4
   6  -6   1    4.22    0.81   1
   6  -6   1    5.89    0.69   2
   6  -6   1    5.17    0.76   4
  -6   6  -2   -0.38    0.64   2
  -6   6  -2    0.26    0.51   4
   6  -6   2   -0.39    0.63   1
   6  -6   2   -0.57    0.50   2
   6  -6   2    0.12    0.71   4
  -6   6  -3    5.82    0.92   3
  -6   6  -3    6.59    0.79   4
   6  -6   3    6.34    0.87   1
   6  -6   3    7.37    0.85   2
  -6   6  -4    5.19    0.82   3
  -6   6  -4    5.50    0.79   4
   6  -6   4    5.33    0.81   1
   6  -6   4    6.44    0.83   2
  -6   6  -5    5.21    0.86   3
  -6   6  -5    4.15    0.76   4
   6  -6   5    4.78    0.84   1
   6  -6   5    3.48    0.76   2
  -6   6  -6    9.87    1.07   3
   6  -6   6   12.20    1.20   1
   6  -6   6    9.02    1.02   2
  -6   6  -7    1.14    0.79   3
  -6   6  -7   -0.47    0.67   4
   6  -6   7    2.03    0.74   1
   6  -6   7    0.75    0.71   2
  -6   6  -8    2.27    0.95   4
   6  -6   8    1.41    0.77   1
   6  -6   8    1.41    0.85   2
  -6   6  -9    0.83    0.87   3
  -6   6  -9    1.06    1.00   4
   6  -6   9    2.22    1.08   2
  -6   6 -10    0.97    0.98   3
  -6   6 -10   -0.38    1.09   4
   6  -6  10    0.40    1.14   2
  -6   5   7    1.06    1.31   3
   6  -5  -7    2.88    1.28   1
   6  -5  -7   -0.59    1.00   4
  -6   5   6    0.20    1.06   3
   6  -5  -6    1.80    0.95   1
   6  -5  -6   -0.43    0.86   4
  -6   5   5    3.76    1.02   3
   6  -5  -5    1.81    0.91   1
   6  -5  -5    1.36    0.77   4
  -6   5   4    0.33    0.79   3
   6  -5  -4   -0.03    0.68   1
   6  -5  -4    0.96    0.68   4
  -6   5   3   -0.30    0.35   2
  -6   5   3    1.61    0.78   3
   6  -5  -3   -0.24    0.67   1
   6  -5  -3    0.73    0.64   4
  -6   5   2    5.30    0.60   2
  -6   5   2    5.95    0.65   2
  -6   5   2    7.06    0.95   3
   6  -5  -2    6.21    0.92   1
   6  -5  -2    6.33    0.75   4
   6  -5  -2    5.83    0.77   4
  -6   5   1    4.34    0.49   2
  -6   5   1    6.52    0.70   2
  -6   5   1    4.43    0.80   3
   6  -5  -1    5.69    0.89   1
   6  -5  -1    5.04    0.71   4
   6  -5  -1    6.30    0.77   4
  -6   5   0   21.47    0.90   2
  -6   5   0   32.29    1.38   3
  -6   5   0   32.18    1.20   4
   6  -5   0   32.76    1.00   2
   6  -5   0   30.68    1.29   4
  -6   5  -1   27.75    1.06   2
  -6   5  -1   44.14    1.60   3
  -6   5  -1   42.92    1.34   4
   6  -5   1   41.11    1.54   1
   6  -5   1   43.13    1.16   2
   6  -5   1   41.34    1.41   4
  -6   5  -2   19.07    1.04   2
  -6   5  -2   27.63    1.31   3
  -6   5  -2   26.34    1.14   4
   6  -5   2   30.05    1.38   1
   6  -5   2   27.44    1.10   2
   6  -5   2   26.31    1.27   4
  -6   5  -3    0.42    0.53   2
  -6   5  -3    0.31    0.58   3
  -6   5  -3    0.40    0.47   4
   6  -5   3    0.09    0.50   1
   6  -5   3    0.01    0.45   2
   6  -5   3   -0.10    0.62   4
  -6   5  -4    6.24    0.79   2
  -6   5  -4    8.30    0.96   3
  -6   5  -4    9.78    0.99   4
   6  -5   4    8.56    1.01   1
   6  -5   4    8.54    0.95   2
  -6   5  -5    0.80    0.58   3
  -6   5  -5    0.49    0.58   4
   6  -5   5    0.84    0.59   1
   6  -5   5    0.01    0.49   2
  -6   5  -6    2.07    0.64   3
  -6   5  -6    0.86    0.55   4
   6  -5   6    1.14    0.62   1
   6  -5   6    1.73    0.65   2
  -6   5  -7   -0.72    0.58   3
  -6   5  -7   -0.33    0.66   4
   6  -5   7   -0.12    0.57   1
   6  -5   7    0.11    0.63   2
  -6   5  -8   12.40    1.23   3
  -6   5  -8   12.49    1.36   4
   6  -5   8    7.46    0.87   1
   6  -5   8   10.21    1.14   2
  -6   5  -9    2.63    0.78   3
  -6   5  -9    3.69    0.95   4
   6  -5   9    1.01    0.71   1
   6  -5   9    3.35    0.90   2
  -6   5 -10    3.58    0.90   3
  -6   5 -10    3.76    1.11   4
   6  -5  10    3.05    1.00   2
  -6   5 -11    1.43    1.13   4
   6  -5  11   -0.83    1.00   2
  -6   4   7    1.55    1.05   3
   6  -4  -7   -0.98    0.98   1
   6  -4  -7    1.13    1.00   4
  -6   4   6    2.92    1.03   3
   6  -4  -6    0.84    0.80   1
   6  -4  -6   -0.82    0.75   4
  -6   4   5    1.77    0.91   3
   6  -4  -5    2.37    0.77   1
   6  -4  -5    0.36    0.76   4
  -6   4   4    6.88    0.98   3
   6  -4  -4    6.03    0.92   1
   6  -4  -4    5.24    0.84   4
  -6   4   3    1.81    0.74   3
   6  -4  -3    2.10    0.70   1
   6  -4  -3    2.29    0.64   4
  -6   4   2    1.06    0.23   2
  -6   4   2    0.54    0.24   2
   6  -4  -2    1.05    0.58   1
   6  -4  -2    0.87    0.51   4
   6  -4  -2    0.91    0.64   4
  -6   4   1   20.52    0.63   2
  -6   4   1   18.05    0.62   2
  -6   4   1   24.35    1.31   3
   6  -4  -1   24.49    1.28   1
   6  -4  -1   23.98    1.21   4
  -6   4   0    3.62    0.45   2
  -6   4   0    4.64    0.70   3
  -6   4   0    3.94    0.59   4
   6  -4   0    3.96    0.72   1
   6  -4   0    4.62    0.51   2
   6  -4   0    4.60    0.70   4
  -6   4  -1   61.88    1.16   2
  -6   4  -1   87.24    1.91   3
  -6   4  -1   86.62    1.75   4
   6  -4   1   81.40    1.92   1
   6  -4   1   85.92    1.34   2
   6  -4   1   81.22    1.74   4
  -6   4  -2   16.65    0.83   2
  -6   4  -2   27.31    1.19   3
  -6   4  -2   26.85    1.09   4
   6  -4   2   24.17    1.22   1
   6  -4   2   26.54    0.93   2
   6  -4   2   25.29    1.25   3
   6  -4   2   24.82    1.17   4
  -6   4  -3  109.69    1.78   2
  -6   4  -3  147.50    2.30   3
  -6   4  -3  145.06    2.29   4
   6  -4   3  146.08    2.45   1
   6  -4   3  149.16    2.03   2
   6  -4   3  153.10    2.34   3
   6  -4   3  141.33    2.26   4
  -6   4  -4   67.16    1.60   2
  -6   4  -4   73.70    1.67   3
  -6   4  -4   68.44    1.69   4
   6  -4   4   68.41    1.72   1
   6  -4   4   71.24    1.58   2
   6  -4   4   70.68    1.64   3
  -6   4  -5   14.64    1.13   2
  -6   4  -5   15.46    0.97   3
  -6   4  -5   14.53    1.04   4
   6  -4   5   15.47    1.05   1
   6  -4   5   14.89    0.98   2
   6  -4   5   14.31    1.01   3
  -6   4  -6    8.94    1.03   1
  -6   4  -6    9.61    0.90   3
  -6   4  -6    9.01    0.98   4
   6  -4   6   12.55    0.98   1
   6  -4   6    9.24    0.96   2
   6  -4   6    8.26    0.96   3
  -6   4  -7    2.79    0.71   1
  -6   4  -7    2.46    0.62   3
  -6   4  -7    3.50    0.74   4
   6  -4   7    3.32    0.67   1
   6  -4   7    1.94    0.69   2
   6  -4   7    2.89    0.65   3
  -6   4  -8    0.30    0.55   3
  -6   4  -8   -0.77    0.59   3
  -6   4  -8    0.12    0.66   4
   6  -4   8   -0.21    0.54   1
   6  -4   8   -0.17    0.71   1
   6  -4   8   -0.28    0.57   2
  -6   4  -9    4.11    0.68   3
  -6   4  -9    4.44    0.86   4
   6  -4   9    4.21    0.72   1
   6  -4   9    5.63    0.91   2
  -6   4 -10   -0.02    0.65   3
  -6   4 -10    1.12    0.85   4
   6  -4  10   -0.66    0.62   1
   6  -4  10   -0.53    0.76   2
  -6   4 -11   15.76    1.83   4
   6  -4  11   11.60    1.38   2
  -6   4 -12    4.78    1.28   4
   6  -4  12    3.49    1.15   2
  -6   3   8    1.04    1.23   3
   6  -3  -8    3.87    1.20   1
   6  -3  -8    0.95    1.12   4
  -6   3   7   -0.10    1.02   3
   6  -3  -7    0.13    0.88   1
   6  -3  -7    1.10    0.93   4
  -6   3   6   20.22    1.75   3
   6  -3  -6   15.68    1.46   1
   6  -3  -6   13.98    1.36   4
  -6   3   5   11.77    1.40   3
   6  -3  -5   10.35    1.22   1
   6  -3  -5    9.09    1.01   4
  -6   3   4    4.79    0.88   3
   6  -3  -4    3.51    0.81   1
   6  -3  -4    3.26    0.71   4
   6  -3  -3    6.64    0.77   4
  -6   3   2    1.21    0.61   3
   6  -3  -2    0.48    0.51   1
   6  -3  -2    1.03    0.54   4
   6  -3  -2    1.56    0.57   4
  -6   3   1    3.42    0.69   3
   6  -3  -1    2.83    0.64   1
   6  -3  -1    3.37    0.61   4
  -6   3   0    4.67    0.40   2
  -6   3   0    6.23    0.76   3
  -6   3   0    5.10    0.61   4
   6  -3   0    5.22    0.71   1
   6  -3   0    5.46    0.36   2
   6  -3   0    6.09    0.75   4
  -6   3  -1    1.00    0.28   2
  -6   3  -1    0.35    0.46   3
  -6   3  -1    0.46    0.41   4
   6  -3   1    1.27    0.53   1
   6  -3   1    0.66    0.28   2
   6  -3   1    0.97    0.47   3
   6  -3   1    0.83    0.52   4
  -6   3  -2   63.04    1.14   2
  -6   3  -2   97.30    1.80   3
  -6   3  -2   89.23    1.75   4
   6  -3   2   90.80    1.89   1
   6  -3   2   94.54    1.35   2
   6  -3   2   92.75    1.76   3
   6  -3   2   90.66    1.79   4
  -6   3  -3    4.13    0.66   1
  -6   3  -3    2.42    0.45   2
  -6   3  -3    3.07    0.51   3
  -6   3  -3    3.49    0.57   4
   6  -3   3    3.56    0.59   1
   6  -3   3    3.14    0.45   2
   6  -3   3    4.21    0.61   3
   6  -3   3    4.45    0.63   4
  -6   3  -4  110.34    2.05   1
  -6   3  -4  106.43    1.72   2
  -6   3  -4  115.31    1.83   3
  -6   3  -4  114.19    2.06   4
   6  -3   4  116.40    2.09   1
   6  -3   4  113.05    1.78   2
   6  -3   4  117.82    1.83   3
   6  -3   4  108.23    2.01   4
  -6   3  -5   86.36    1.83   1
  -6   3  -5   81.27    1.68   2
  -6   3  -5   84.64    1.56   3
  -6   3  -5   82.14    1.83   4
   6  -3   5   87.33    1.83   1
   6  -3   5   83.98    1.69   2
   6  -3   5   85.37    1.54   3
  -6   3  -6   62.94    1.64   1
  -6   3  -6   61.57    1.64   2
  -6   3  -6   65.09    1.36   3
  -6   3  -6   66.17    1.73   4
   6  -3   6   66.10    1.63   1
   6  -3   6   63.07    1.60   2
   6  -3   6   66.26    1.38   3
  -6   3  -7    1.13    0.62   1
  -6   3  -7    1.38    0.45   3
  -6   3  -7    0.64    0.54   4
   6  -3   7    1.05    0.53   1
   6  -3   7    0.99    0.51   2
   6  -3   7    1.18    0.47   3
  -6   3  -8    2.34    0.53   3
  -6   3  -8    3.01    0.53   3
  -6   3  -8    3.16    0.72   4
   6  -3   8    5.07    0.69   1
   6  -3   8    3.49    0.72   1
   6  -3   8    3.58    0.73   2
  -6   3  -9   15.85    0.96   3
  -6   3  -9   14.54    0.96   3
  -6   3  -9   19.28    1.43   4
   6  -3   9   18.60    1.17   1
   6  -3   9   16.58    1.31   1
   6  -3   9   16.22    1.31   2
  -6   3 -10    0.15    0.53   3
  -6   3 -10    2.40    0.83   4
   6  -3  10    1.78    0.68   1
   6  -3  10    0.19    0.67   2
  -6   3 -11    0.92    0.98   4
   6  -3  11    0.19    0.68   1
   6  -3  11   -1.66    0.84   2
  -6   3 -12    4.01    1.16   4
   6  -3  12    4.54    1.14   2
   6  -3  13    0.88    1.19   2
  -6   2   8    2.74    1.22   3
   6  -2  -8    2.02    1.06   1
   6  -2  -8    2.64    1.12   4
  -6   2   7    3.71    1.18   3
   6  -2  -7    4.53    0.99   1
   6  -2  -7    2.78    0.96   4
  -6   2   6    1.20    0.80   3
   6  -2  -6   -0.45    0.74   1
   6  -2  -6    1.34    0.74   4
  -6   2   5    9.72    1.18   3
   6  -2  -5    9.91    1.17   1
  -6   2   4    1.64    0.65   3
   6  -2  -4    1.72    0.65   1
   6  -2  -4    2.12    0.65   4
  -6   2   3   16.67    1.22   3
   6  -2  -3   15.29    1.10   1
   6  -2  -3   17.65    1.11   4
  -6   2   2    2.86    0.63   3
   6  -2  -2    2.44    0.55   1
   6  -2  -2    2.15    0.55   4
  -6   2   1   21.47    1.09   3
   6  -2  -1   20.40    1.11   1
   6  -2  -1   19.86    1.04   4
   6  -2  -1   22.14    1.08   4
  -6   2   0    1.94    0.47   3
  -6   2   0    1.40    0.47   4
   6  -2   0    2.20    0.53   1
   6  -2   0    2.31    0.53   3
   6  -2   0    1.49    0.50   4
  -6   2  -1   16.51    0.96   1
  -6   2  -1   14.95    0.46   2
  -6   2  -1   19.26    0.94   3
  -6   2  -1   18.23    0.91   4
   6  -2   1   18.71    1.01   1
   6  -2   1   18.24    0.49   2
   6  -2   1   17.81    0.92   3
   6  -2   1   18.94    0.97   4
  -6   2  -2    1.55    0.46   1
  -6   2  -2    0.68    0.27   2
  -6   2  -2    0.95    0.38   3
  -6   2  -2    1.07    0.42   4
   6  -2   2    0.47    0.39   1
   6  -2   2    1.24    0.27   2
   6  -2   2    0.55    0.42   3
   6  -2   2    1.07    0.45   4
  -6   2  -3   77.96    1.67   1
  -6   2  -3   55.48    1.10   2
  -6   2  -3   74.41    1.41   3
  -6   2  -3   73.01    1.60   4
   6  -2   3   74.79    1.67   1
   6  -2   3   74.44    1.23   2
   6  -2   3   77.95    1.42   3
   6  -2   3   74.29    1.61   4
  -6   2  -4    7.33    0.77   1
  -6   2  -4    7.34    0.64   2
  -6   2  -4    6.59    0.60   3
  -6   2  -4    6.59    0.74   4
   6  -2   4    7.78    0.77   1
   6  -2   4    6.65    0.61   2
   6  -2   4    6.25    0.63   3
   6  -2   4    7.51    0.76   4
  -6   2  -5   25.19    1.11   1
  -6   2  -5   24.55    1.01   2
  -6   2  -5   23.91    0.83   3
  -6   2  -5   22.81    1.07   4
   6  -2   5   26.53    1.10   1
   6  -2   5   23.39    0.97   2
   6  -2   5   24.49    0.81   3
   6  -2   5   22.87    1.08   4
  -6   2  -6    0.74    0.51   1
  -6   2  -6    0.88    0.50   2
  -6   2  -6    0.63    0.34   3
  -6   2  -6    1.11    0.45   4
   6  -2   6    0.42    0.44   1
   6  -2   6    1.07    0.46   2
   6  -2   6    1.30    0.34   3
  -6   2  -7   31.85    0.87   3
  -6   2  -7   42.87    1.50   4
   6  -2   7   46.39    1.40   1
   6  -2   7   43.66    1.40   1
   6  -2   7   45.78    1.46   2
   6  -2   7   45.89    1.00   3
  -6   2  -8   10.06    0.67   3
  -6   2  -8    6.73    0.62   3
  -6   2  -8   13.12    1.14   4
   6  -2   8   13.11    1.00   1
   6  -2   8   13.16    1.08   1
   6  -2   8   13.29    1.08   2
  -6   2  -9   13.60    0.74   3
  -6   2  -9   23.04    0.82   3
  -6   2  -9   19.69    1.35   4
   6  -2   9   22.64    1.13   1
   6  -2   9   22.64    1.31   1
  -6   2 -10    5.70    0.70   3
  -6   2 -10    9.02    1.12   4
   6  -2  10    6.83    0.83   1
   6  -2  10    7.60    1.03   2
  -6   2 -11    3.19    0.96   4
   6  -2  11    1.71    0.72   1
   6  -2  11    1.41    0.79   2
  -6   2 -12    1.64    0.99   4
   6  -2  12    1.32    0.82   1
   6  -2  12    2.70    0.93   2
  -6   2 -13    0.11    1.10   4
   6  -2  13    0.66    1.08   2
  -6   1   8    0.93    1.20   3
   6  -1  -8   -1.14    0.90   1
   6  -1  -8    0.22    1.05   4
  -6   1   7    9.41    1.32   3
   6  -1  -7    8.28    1.13   1
   6  -1  -7    6.46    1.03   4
  -6   1   6   36.72    1.85   3
   6  -1  -6   35.96    1.67   4
  -6   1   5    5.11    0.86   3
   6  -1  -5    4.85    0.81   1
   6  -1  -5    5.20    0.90   4
   6  -1  -4    4.90    0.76   1
   6  -1  -4    4.65    0.79   4
  -6   1   3    1.64    0.64   3
   6  -1  -3    2.47    0.61   1
   6  -1  -3    1.79    0.57   4
  -6   1   2   13.45    1.01   3
   6  -1  -2   13.76    0.98   1
   6  -1  -2   13.01    0.94   4
  -6   1   1    0.37    0.46   1
  -6   1   1    0.05    0.45   3
   6  -1  -1   -0.28    0.41   1
   6  -1  -1    0.09    0.43   3
   6  -1  -1   -0.20    0.42   4
   6  -1  -1   -0.09    0.45   4
  -6   1   0    6.17    0.76   1
  -6   1   0    7.44    0.73   3
  -6   1   0    8.42    0.74   4
   6  -1   0    7.53    0.77   1
   6  -1   0    9.36    0.73   3
   6  -1   0    9.09    0.75   4
  -6   1  -1    8.42    0.76   1
  -6   1  -1    6.41    0.28   2
  -6   1  -1    9.78    0.70   3
  -6   1  -1    9.51    0.76   4
   6  -1   1    9.39    0.80   1
   6  -1   1    8.61    0.30   2
   6  -1   1    8.73    0.70   3
   6  -1   1    9.61    0.78   4
  -6   1  -2   47.56    1.31   1
  -6   1  -2   49.31    0.80   2
  -6   1  -2   46.72    1.13   3
  -6   1  -2   46.00    1.29   4
   6  -1   2   50.57    1.39   1
   6  -1   2   48.44    0.80   2
   6  -1   2   48.84    1.14   3
   6  -1   2   47.64    1.26   4
  -6   1  -3   15.59    0.82   1
  -6   1  -3   16.49    0.63   2
  -6   1  -3   16.74    0.72   3
  -6   1  -3   16.06    0.87   4
   6  -1   3   17.91    0.92   1
   6  -1   3   16.44    0.65   2
   6  -1   3   17.24    0.74   3
   6  -1   3   17.29    0.85   4
  -6   1  -4    5.24    0.62   1
  -6   1  -4    5.56    0.55   2
  -6   1  -4    6.06    0.53   3
  -6   1  -4    5.33    0.60   4
   6  -1   4    6.72    0.70   1
   6  -1   4    5.15    0.55   2
   6  -1   4    5.74    0.52   3
   6  -1   4    8.20    0.70   4
  -6   1  -5    2.67    0.52   1
  -6   1  -5    2.73    0.46   2
  -6   1  -5    3.37    0.42   3
  -6   1  -5    2.69    0.47   4
   6  -1   5    4.14    0.58   1
   6  -1   5    3.38    0.50   2
   6  -1   5    2.67    0.43   4
  -6   1  -6   11.61    0.82   2
  -6   1  -6   12.02    0.90   4
   6  -1   6   10.87    0.82   1
   6  -1   6   13.22    0.93   1
   6  -1   6   12.67    0.84   2
   6  -1   6   12.93    0.52   3
  -6   1  -7    2.89    0.56   2
  -6   1  -7    1.98    0.29   3
  -6   1  -7    2.52    0.29   3
  -6   1  -7    2.64    0.54   4
   6  -1   7    2.91    0.55   1
   6  -1   7    2.95    0.59   1
   6  -1   7    3.33    0.59   2
  -6   1  -8   -0.20    0.22   3
  -6   1  -8    0.09    0.22   3
  -6   1  -8    0.08    0.54   4
   6  -1   8    0.83    0.49   1
   6  -1   8   -0.36    0.57   1
   6  -1   8    0.38    0.51   2
  -6   1  -9    2.42    0.28   3
  -6   1  -9    2.39    0.28   3
   6  -1   9    2.99    0.63   1
   6  -1   9    3.05    0.67   2
  -6   1 -10    9.94    0.46   3
  -6   1 -10   14.10    0.52   3
  -6   1 -10   21.86    1.41   4
   6  -1  10   20.00    1.20   1
   6  -1  10   18.28    1.34   2
  -6   1 -11    0.19    0.76   4
   6  -1  11   -0.20    0.66   1
   6  -1  11   -1.36    0.68   2
  -6   1 -12    3.54    0.97   4
   6  -1  12    2.37    0.86   1
   6  -1  12    3.22    0.95   2
  -6   1 -13    2.20    1.20   4
   6  -1  13    3.37    0.95   1
   6  -1  13    3.63    1.05   2
  -6   0   8    0.73    1.12   3
   6   0  -8    0.47    0.91   1
   6   0  -8    1.32    1.03   4
  -6   0   7    0.61    0.98   3
   6   0  -7    0.31    0.81   4
  -6   0   6   14.73    1.53   3
   6   0  -6   14.06    1.23   1
   6   0  -6   12.74    1.32   4
  -6   0   5    1.47    0.73   3
   6   0  -5    0.13    0.56   1
   6   0  -5   -0.15    0.59   4
   6   0  -4    2.82    0.64   1
   6   0  -4    2.90    0.72   4
  -6   0   3   51.71    1.63   3
   6   0  -3   48.53    1.47   1
   6   0  -3   47.76    1.57   4
  -6   0   2    0.10    0.51   1
  -6   0   2    0.68    0.48   3
   6   0  -2    0.90    0.44   1
   6   0  -2    0.79    0.51   4
  -6   0   1    0.01    0.47   1
  -6   0   1    0.07    0.38   3
   6   0  -1    0.59    0.45   1
   6   0  -1    1.20    0.47   3
   6   0  -1   -0.09    0.42   4
   6   0  -1   -0.25    0.37   4
  -6   0   0    9.19    0.78   1
  -6   0   0    9.35    0.74   3
  -6   0   0    8.46    0.70   4
   6   0   0   10.12    0.79   1
   6   0   0    9.60    0.73   3
   6   0   0    8.77    0.68   4
  -6   0  -1   10.67    0.70   1
  -6   0  -1   10.41    0.69   3
  -6   0  -1   10.96    0.78   4
   6   0   1   10.54    0.73   1
   6   0   1   10.12    0.32   2
   6   0   1    9.97    0.31   2
   6   0   1    9.62    0.69   3
   6   0   1   10.56    0.74   4
  -6   0  -2   18.72    0.88   1
  -6   0  -2   19.28    0.53   2
  -6   0  -2   17.87    0.75   3
  -6   0  -2   19.01    0.90   4
   6   0   2   18.37    0.92   1
   6   0   2   18.43    0.53   2
   6   0   2   18.80    0.77   3
   6   0   2   19.74    0.90   4
  -6   0  -3    5.58    0.67   1
  -6   0  -3    5.60    0.46   2
  -6   0  -3    5.25    0.49   3
  -6   0  -3    5.67    0.63   4
   6   0   3    5.99    0.68   1
   6   0   3    5.59    0.46   2
   6   0   3    5.94    0.51   3
   6   0   3    6.46    0.65   4
  -6   0  -4   20.69    0.92   1
  -6   0  -4   19.61    0.72   2
  -6   0  -4   17.92    0.61   3
  -6   0  -4   18.04    0.93   4
   6   0   4   17.45    0.90   1
   6   0   4   19.03    0.75   2
   6   0   4   19.65    0.93   4
  -6   0  -5    6.52    0.60   2
  -6   0  -5    6.02    0.36   3
  -6   0  -5    5.52    0.69   4
   6   0   5    6.71    0.73   1
   6   0   5    6.73    0.68   1
   6   0   5    5.11    0.58   2
   6   0   5    5.62    0.40   3
   6   0   5    6.29    0.67   4
  -6   0  -6    0.43    0.36   2
  -6   0  -6    0.20    0.15   3
  -6   0  -6   -0.01    0.40   4
   6   0   6    0.39    0.42   1
   6   0   6    0.34    0.45   1
   6   0   6    0.37    0.36   2
   6   0   6    0.78    0.17   3
   6   0   6    1.18    0.44   4
  -6   0  -7   -0.08    0.42   2
  -6   0  -7   -0.45    0.42   4
   6   0   7   -0.04    0.43   1
   6   0   7    0.72    0.51   1
   6   0   7    0.29    0.45   2
  -6   0  -8    1.87    0.63   4
   6   0   8    3.38    0.62   1
   6   0   8    2.39    0.60   1
   6   0   8    2.48    0.58   2
  -6   0  -9   -0.10    0.51   4
   6   0   9    0.53    0.53   1
   6   0   9    0.11    0.49   2
  -6   0 -10    1.67    0.66   4
   6   0  10    1.22    0.64   1
   6   0  10    0.91    0.60   2
  -6   0 -11    1.46    0.75   4
   6   0  11    1.33    0.67   1
   6   0  11    0.64    0.76   2
  -6   0 -12    1.41    0.90   4
   6   0  12   -0.58    0.74   1
   6   0  12    1.29    0.82   2
  -6   0 -13    4.39    1.17   4
   6   0  13    1.89    1.00   1
   6   0  13    2.87    0.99   2
  -6   0 -14    1.16    1.33   4
   6   0  14   -0.57    1.16   2
  -6  -1   8    0.96    0.99   3
   6   1  -8    1.09    0.85   1
   6   1  -8   -0.03    1.01   4
  -6  -1   7    0.66    1.00   3
   6   1  -7   -0.88    0.71   1
   6   1  -7    0.41    0.92   4
  -6  -1   6   -0.06    0.74   3
   6   1  -6    0.97    0.65   1
   6   1  -6   -0.45    0.66   4
  -6  -1   5    0.28    0.23   2
  -6  -1   5   -0.04    0.61   3
   6   1  -5    0.12    0.57   1
   6   1  -5    0.33    0.25   2
   6   1  -5   -0.23    0.65   4
  -6  -1   4    2.24    0.68   1
   6   1  -4    3.51    0.63   1
  -6  -1   3    9.25    0.95   1
  -6  -1   3    8.86    0.94   3
   6   1  -3    9.16    0.87   1
   6   1  -3    8.05    0.85   4
  -6  -1   2   11.25    0.91   1
  -6  -1   2   11.77    0.88   3
   6   1  -2   12.21    0.88   1
   6   1  -2   11.64    0.91   4
  -6  -1   1   23.16    1.04   1
  -6  -1   1   22.50    1.02   3
   6   1  -1   20.74    0.98   1
   6   1  -1   21.29    1.00   3
   6   1  -1   20.94    1.06   4
   6   1  -1   21.67    1.05   4
  -6  -1   0   48.60    1.32   1
  -6  -1   0   44.91    1.23   3
  -6  -1   0   45.64    1.31   4
   6   1   0   47.94    1.32   1
   6   1   0   46.78    0.49   2
   6   1   0   46.10    0.49   2
   6   1   0   47.46    1.23   3
   6   1   0   48.13    1.34   4
  -6  -1  -1   13.25    0.82   1
  -6  -1  -1   12.76    0.71   3
  -6  -1  -1   13.01    0.78   4
   6   1   1   13.99    0.82   1
   6   1   1   13.76    0.43   2
   6   1   1   13.81    0.42   2
   6   1   1   13.97    0.72   3
   6   1   1   13.89    0.78   4
  -6  -1  -2    1.96    0.41   1
  -6  -1  -2    1.25    0.23   2
  -6  -1  -2    1.30    0.34   3
  -6  -1  -2    1.30    0.40   4
   6   1   2    1.12    0.40   1
   6   1   2    1.57    0.34   3
   6   1   2    1.24    0.37   4
  -6  -1  -3    0.47    0.38   1
  -6  -1  -3    0.53    0.25   2
  -6  -1  -3    0.34    0.25   3
  -6  -1  -3    0.55    0.35   4
   6   1   3    1.25    0.38   1
   6   1   3    0.53    0.27   2
   6   1   3    0.11    0.25   3
   6   1   3    0.62    0.34   4
  -6  -1  -4   13.94    0.65   2
  -6  -1  -4   13.79    0.78   4
   6   1   4   13.74    0.82   1
   6   1   4   15.60    0.85   1
   6   1   4   12.44    0.68   2
   6   1   4   13.79    0.52   3
   6   1   4   15.26    0.82   4
  -6  -1  -5   31.93    0.97   2
  -6  -1  -5   32.38    0.53   3
  -6  -1  -5   32.24    1.11   4
   6   1   5   34.05    1.17   1
   6   1   5   32.56    1.11   1
   6   1   5   29.73    0.97   2
   6   1   5   32.10    0.55   3
   6   1   5   31.79    1.08   4
  -6  -1  -6   20.79    0.90   2
  -6  -1  -6   22.55    1.03   4
   6   1   6   22.98    1.03   1
   6   1   6   24.01    1.06   1
   6   1   6   22.71    0.96   2
   6   1   6   20.85    0.94   4
  -6  -1  -7   10.34    0.83   2
  -6  -1  -7   11.45    0.87   4
   6   1   7   12.11    0.90   1
   6   1   7   11.67    0.87   1
   6   1   7   10.17    0.82   2
  -6  -1  -8    3.40    0.57   4
   6   1   8    4.53    0.69   1
   6   1   8    3.82    0.65   2
  -6  -1  -9    1.97    0.62   4
   6   1   9    2.62    0.62   1
   6   1   9    1.80    0.65   2
  -6  -1 -10    0.25    0.63   4
   6   1  10    0.66    0.60   1
   6   1  10   -0.17    0.55   2
  -6  -1 -11    2.72    0.84   4
   6   1  11    2.53    0.79   1
   6   1  11    1.18    0.74   2
  -6  -1 -12    1.07    0.87   4
   6   1  12    0.33    0.81   2
  -6  -1 -13    0.63    0.96   4
   6   1  13   -0.43    0.91   1
   6   1  13    0.19    0.93   2
  -6  -1 -14    0.42    1.18   4
   6   1  14   -2.64    1.06   1
   6   1  14    1.00    1.06   2
  -6  -2   8    0.13    1.21   3
   6   2  -8    0.36    1.00   4
  -6  -2   7    1.40    0.94   3
   6   2  -7    1.96    0.76   1
   6   2  -7    1.69    0.94   4
  -6  -2   6    0.73    0.46   2
  -6  -2   6    1.03    0.81   3
   6   2  -6    1.19    0.65   1
   6   2  -6   -0.89    0.67   4
  -6  -2   5    2.47    0.76   1
  -6  -2   5    2.84    0.42   2
  -6  -2   5    2.95    0.79   3
   6   2  -5    3.23    0.65   1
   6   2  -5    3.62    0.46   2
   6   2  -5    3.24    0.78   4
  -6  -2   4    0.65    0.64   1
  -6  -2   4    1.19    0.32   2
  -6  -2   4    1.31    0.68   3
   6   2  -4    0.49    0.50   1
   6   2  -4    1.29    0.35   2
   6   2  -4    0.53    0.58   4
  -6  -2   3   44.04    1.39   1
  -6  -2   3   43.27    1.55   3
   6   2  -3   42.29    1.31   1
   6   2  -3   41.18    0.78   2
   6   2  -3   43.24    1.57   4
  -6  -2   2   12.93    0.91   1
  -6  -2   2   12.47    0.91   3
   6   2  -2   12.57    0.88   1
   6   2  -2   11.77    0.45   2
   6   2  -2   10.76    0.47   2
   6   2  -2   12.63    0.97   4
  -6  -2   1   14.35    0.92   1
  -6  -2   1   14.88    0.91   3
   6   2  -1   16.49    0.89   1
   6   2  -1   14.43    0.47   2
   6   2  -1   14.68    0.48   2
   6   2  -1   15.47    0.92   3
   6   2  -1   13.36    0.88   4
  -6  -2   0   18.71    0.91   1
  -6  -2   0   18.59    0.90   3
   6   2   0   18.07    0.91   1
   6   2   0   17.81    0.52   2
   6   2   0   17.92    0.53   2
   6   2   0   18.53    0.89   3
   6   2   0   19.37    1.00   4
   6   2   0   16.36    0.86   4
  -6  -2  -1   19.25    0.86   1
  -6  -2  -1   19.77    0.83   3
  -6  -2  -1   17.79    0.93   4
   6   2   1   18.33    0.84   1
   6   2   1   17.69    0.63   2
   6   2   1   18.47    0.57   2
   6   2   1   18.71    0.81   3
   6   2   1   15.84    0.80   4
  -6  -2  -2   84.34    1.37   3
  -6  -2  -2   82.16    1.64   4
   6   2   2   84.44    1.66   1
   6   2   2   87.84    1.66   1
   6   2   2   80.83    1.18   2
   6   2   2   87.35    1.21   2
   6   2   2   83.73    1.36   3
   6   2   2   85.27    1.65   4
  -6  -2  -3   18.91    0.68   2
  -6  -2  -3   18.00    0.66   3
  -6  -2  -3   17.56    0.83   4
   6   2   3   18.67    0.86   1
   6   2   3   18.90    0.88   1
   6   2   3   17.53    0.71   2
   6   2   3   17.27    0.65   3
   6   2   3   17.40    0.86   4
  -6  -2  -4    1.09    0.32   2
  -6  -2  -4    0.64    0.34   4
   6   2   4    0.08    0.39   1
   6   2   4    0.35    0.36   1
   6   2   4    0.34    0.30   2
   6   2   4    0.42    0.22   3
   6   2   4    0.32    0.37   4
  -6  -2  -5   17.53    0.80   2
  -6  -2  -5   16.64    0.90   4
   6   2   5   15.50    0.84   1
   6   2   5   16.72    0.92   1
   6   2   5   15.10    0.80   2
   6   2   5   16.76    0.41   3
   6   2   5   16.66    0.43   3
   6   2   5   15.79    0.87   4
  -6  -2  -6    6.30    0.67   2
  -6  -2  -6    6.79    0.74   4
   6   2   6    7.06    0.75   1
   6   2   6    5.77    0.71   1
   6   2   6    7.18    0.74   2
   6   2   6    7.01    0.67   4
  -6  -2  -7   31.11    1.15   2
  -6  -2  -7   35.01    1.27   4
   6   2   7   36.25    1.29   1
   6   2   7   33.37    1.24   2
  -6  -2  -8   63.40    1.66   4
   6   2   8   67.96    1.71   1
   6   2   8   61.01    1.68   2
  -6  -2  -9    9.39    1.01   4
   6   2   9    9.93    0.97   1
   6   2   9    8.16    0.99   2
   6   2  10    5.00    0.78   1
   6   2  10    4.18    0.77   2
  -6  -2 -11    0.16    0.70   4
   6   2  11    0.48    0.74   2
  -6  -2 -12    1.05    0.84   4
   6   2  12    0.82    0.81   1
   6   2  12    0.01    0.75   2
  -6  -2 -13    0.86    1.04   4
   6   2  13    0.50    0.92   1
   6   2  13   -0.84    0.93   2
  -6  -2 -14    1.90    1.24   4
   6   2  14    0.74    1.16   1
   6   2  14    0.48    1.06   2
  -6  -3   8    0.10    1.21   3
   6   3  -8   -0.41    1.08   4
  -6  -3   7    8.26    1.33   3
   6   3  -7    6.27    1.19   4
  -6  -3   6    1.15    0.57   2
  -6  -3   6    0.44    0.82   3
   6   3  -6    2.36    0.71   1
   6   3  -6    3.74    0.92   4
  -6  -3   5    0.20    0.66   1
  -6  -3   5    0.47    0.44   2
  -6  -3   5   -0.44    0.73   3
   6   3  -5    0.05    0.55   1
   6   3  -5   -0.26    0.55   2
   6   3  -5    0.87    0.66   4
  -6  -3   4    0.48    0.59   1
  -6  -3   4   -0.26    0.37   2
  -6  -3   4   -0.36    0.57   3
   6   3  -4    0.31    0.49   1
   6   3  -4    0.04    0.42   2
   6   3  -4   -0.35    0.61   4
  -6  -3   3    0.73    0.56   1
  -6  -3   3   -0.03    0.33   2
  -6  -3   3    0.21    0.55   3
   6   3  -3    0.29    0.45   1
   6   3  -3    0.05    0.36   2
   6   3  -3   -0.16    0.50   4
  -6  -3   2   39.96    1.27   1
  -6  -3   2   40.44    1.46   3
   6   3  -2   37.65    1.22   1
   6   3  -2   39.86    0.93   2
   6   3  -2   37.97    1.44   4
  -6  -3   1   19.38    0.99   1
  -6  -3   1   20.12    1.05   3
   6   3  -1   18.87    0.96   1
   6   3  -1   18.92    0.69   2
   6   3  -1   19.10    0.70   2
   6   3  -1   20.62    1.10   4
  -6  -3   0   44.78    1.28   3
   6   3   0   45.66    1.28   1
   6   3   0   46.55    1.28   1
   6   3   0   45.62    0.96   2
   6   3   0   46.05    0.95   2
   6   3   0   44.60    1.24   3
   6   3   0   45.73    1.40   4
   6   3   0   42.72    1.30   4
  -6  -3  -1   59.20    1.34   3
  -6  -3  -1   61.11    1.51   4
   6   3   1   62.12    1.44   1
   6   3   1   63.28    1.46   1
   6   3   1   60.24    1.11   2
   6   3   1   60.27    1.10   2
   6   3   1   60.94    1.33   3
   6   3   1   61.76    1.48   4
  -6  -3  -2    0.49    0.32   3
  -6  -3  -2    0.31    0.37   4
   6   3   2    1.17    0.43   1
   6   3   2    1.74    0.46   1
   6   3   2    1.28    0.33   2
   6   3   2    1.28    0.32   2
   6   3   2    1.45    0.34   3
   6   3   2    0.78    0.38   4
  -6  -3  -3    4.41    0.49   3
  -6  -3  -3    5.23    0.64   4
   6   3   3    4.82    0.59   1
   6   3   3    5.04    0.62   1
   6   3   3    5.08    0.55   2
   6   3   3    5.00    0.57   2
   6   3   3    5.10    0.48   3
   6   3   3    5.41    0.67   4
  -6  -3  -4    4.04    0.49   2
  -6  -3  -4    3.03    0.50   4
   6   3   4    3.03    0.55   1
   6   3   4    3.11    0.56   1
   6   3   4    2.74    0.46   2
   6   3   4    3.15    0.33   3
   6   3   4    3.02    0.49   4
  -6  -3  -5   33.19    1.08   2
  -6  -3  -5   33.34    1.14   4
   6   3   5   36.83    1.24   1
   6   3   5   35.07    1.24   1
   6   3   5   34.64    1.11   2
   6   3   5   34.60    0.64   3
   6   3   5   35.15    0.64   3
   6   3   5   34.56    1.18   4
  -6  -3  -6   12.79    0.86   2
  -6  -3  -6   12.82    0.85   4
   6   3   6   13.79    0.92   1
   6   3   6   12.80    0.87   2
   6   3   6   13.56    0.89   4
  -6  -3  -7    1.51    0.51   2
  -6  -3  -7    1.10    0.46   4
   6   3   7    0.82    0.46   1
   6   3   7    0.24    0.41   2
   6   3   7    1.53    0.51   4
  -6  -3  -8   26.35    1.18   4
   6   3   8   27.77    1.28   1
   6   3   8   27.10    1.28   2
  -6  -3  -9   17.67    1.14   4
   6   3   9   18.07    1.18   1
   6   3   9   16.68    1.22   2
  -6  -3 -10   10.23    1.14   4
   6   3  10    8.62    1.01   2
  -6  -3 -11    8.33    1.00   4
   6   3  11    7.19    0.98   2
  -6  -3 -12    1.73    0.88   4
   6   3  12    2.86    0.90   1
   6   3  12    1.12    0.90   2
  -6  -3 -13    0.91    1.01   4
   6   3  13    0.19    1.02   1
   6   3  13    0.67    1.00   2
  -6  -3 -14    0.08    1.14   4
   6   3  14   -0.48    1.18   1
   6   3  14   -2.83    1.13   2
  -6  -4   7    0.73    0.96   3
   6   4  -7   -0.64    1.00   4
  -6  -4   6    6.80    0.83   2
  -6  -4   6    5.73    1.06   3
   6   4  -6    7.90    0.82   1
   6   4  -6    7.93    1.22   4
  -6  -4   5    1.28    0.56   2
  -6  -4   5   -1.17    0.74   3
   6   4  -5    1.24    0.55   1
   6   4  -5   -0.13    0.72   4
  -6  -4   4   13.79    0.94   2
  -6  -4   4   17.01    1.36   3
   6   4  -4   15.34    0.96   1
   6   4  -4   17.37    1.05   1
   6   4  -4   19.48    1.13   2
   6   4  -4   18.77    1.38   4
  -6  -4   3    1.84    0.47   2
   6   4  -3    2.55    0.53   1
   6   4  -3    2.12    0.55   1
   6   4  -3    2.75    0.57   2
  -6  -4   2    4.59    0.54   2
  -6  -4   2    5.31    0.80   3
   6   4  -2    5.35    0.63   1
   6   4  -2    5.21    0.67   1
   6   4  -2    5.23    0.56   2
   6   4  -2    5.16    0.79   4
  -6  -4   1   28.75    1.23   3
   6   4  -1   29.54    1.08   1
   6   4  -1   28.28    1.09   1
   6   4  -1   29.28    0.98   2
   6   4  -1   30.23    0.98   2
   6   4  -1   29.70    1.29   4
  -6  -4   0   26.81    1.13   3
   6   4   0   27.03    1.05   1
   6   4   0   23.90    1.03   1
   6   4   0   25.27    0.89   2
   6   4   0   24.60    0.90   2
   6   4   0   24.52    1.06   3
   6   4   0   24.68    1.16   4
  -6  -4  -1   47.37    1.29   3
   6   4   1   45.30    1.29   1
   6   4   1   46.30    1.29   1
   6   4   1   44.88    1.12   2
   6   4   1   44.23    1.11   2
   6   4   1   44.79    1.23   3
   6   4   1   45.20    1.37   4
   6   4   1   45.92    1.35   4
  -6  -4  -2   33.05    1.03   3
  -6  -4  -2   32.88    1.15   4
   6   4   2   34.16    1.15   1
   6   4   2   33.96    1.17   1
   6   4   2   33.70    1.02   2
   6   4   2   36.60    1.04   2
   6   4   2   34.29    1.03   3
   6   4   2   37.41    1.22   4
  -6  -4  -3   14.93    0.85   4
   6   4   3   15.84    0.90   1
   6   4   3   17.30    0.97   1
   6   4   3   15.47    0.83   2
   6   4   3   13.29    0.79   2
   6   4   3   15.42    0.74   3
   6   4   3   14.52    0.70   3
   6   4   3   14.83    0.91   4
  -6  -4  -4   20.48    0.95   4
   6   4   4   22.98    1.04   1
   6   4   4   21.49    1.06   1
   6   4   4   22.98    0.99   2
   6   4   4   22.44    0.97   2
   6   4   4   21.18    0.73   3
   6   4   4   20.47    0.71   3
   6   4   4   22.64    0.97   4
  -6  -4  -5    2.58    0.49   2
  -6  -4  -5    2.46    0.48   4
   6   4   5    2.79    0.58   1
   6   4   5    2.49    0.49   2
   6   4   5    2.64    0.33   3
   6   4   5    2.95    0.33   3
   6   4   5    2.21    0.49   4
  -6  -4  -6    0.02    0.52   2
  -6  -4  -6    0.14    0.43   4
   6   4   6    0.06    0.43   1
   6   4   6    0.45    0.43   2
   6   4   6    0.52    0.22   3
   6   4   6    0.33    0.19   3
   6   4   6    0.79    0.48   4
  -6  -4  -7   23.10    1.14   1
  -6  -4  -7   24.36    1.12   4
   6   4   7   23.81    1.14   2
   6   4   7   25.97    1.20   4
  -6  -4  -8   27.59    1.28   1
  -6  -4  -8   29.44    1.24   4
   6   4   8   28.73    1.39   2
  -6  -4  -9    1.72    0.59   4
  -6  -4 -10    3.95    0.81   1
  -6  -4 -10    4.19    0.76   4
   6   4  10    4.13    0.82   2
  -6  -4 -11    0.74    0.73   1
  -6  -4 -11    0.18    0.72   4
   6   4  11    0.21    0.76   2
  -6  -4 -12    3.61    1.01   1
  -6  -4 -12    2.07    0.89   4
   6   4  12    0.24    0.94   2
  -6  -4 -13    1.34    1.10   1
  -6  -4 -13    3.98    1.11   4
   6   4  13    0.87    1.00   2
  -6  -4 -14    1.07    1.22   1
  -6  -4 -14    2.73    1.25   4
   6   4  14   -0.02    1.21   2
  -6  -5   7    0.99    1.12   3
   6   5  -7    0.90    1.13   4
  -6  -5   6    0.51    0.75   2
  -6  -5   6    1.44    1.01   3
   6   5  -6   -0.84    0.96   4
  -6  -5   5    0.68    0.67   2
  -6  -5   5    1.32    0.81   3
   6   5  -5    1.38    0.58   1
   6   5  -5    0.99    0.81   4
  -6  -5   4   -0.15    0.56   2
  -6  -5   4    0.44    0.69   3
   6   5  -4   -0.25    0.49   1
   6   5  -4   -0.10    0.70   2
   6   5  -4    0.51    0.71   4
  -6  -5   3   16.75    1.02   2
  -6  -5   3   19.63    1.35   3
   6   5  -3   17.84    0.95   1
   6   5  -3   19.56    1.06   1
   6   5  -3   17.56    1.18   2
   6   5  -3   16.51    1.29   4
  -6  -5   2   16.58    0.99   2
  -6  -5   2   13.39    1.17   3
   6   5  -2   13.93    0.90   1
   6   5  -2   16.14    0.96   1
   6   5  -2   16.03    1.10   2
   6   5  -2   13.26    1.13   4
  -6  -5   1   19.18    0.98   2
  -6  -5   1   20.31    1.20   3
   6   5  -1   19.52    0.95   1
   6   5  -1   20.95    1.05   1
   6   5  -1   18.93    1.00   2
   6   5  -1   18.78    1.15   4
  -6  -5   0   10.05    0.91   3
   6   5   0    9.61    0.80   1
   6   5   0    9.43    0.89   1
   6   5   0    9.78    0.80   2
   6   5   0   10.32    0.84   2
   6   5   0    9.09    0.91   4
   6   5   1   15.49    0.91   1
   6   5   1   14.85    1.00   1
   6   5   1   15.15    0.89   2
   6   5   1   13.65    0.88   2
   6   5   1   16.15    0.94   3
   6   5   1   14.32    0.96   3
   6   5   1   14.99    0.96   4
   6   5   1   15.67    1.00   4
   6   5   2    2.30    0.50   1
   6   5   2    3.56    0.63   1
   6   5   2    2.99    0.54   2
   6   5   2    4.01    0.55   2
   6   5   2    2.66    0.51   3
   6   5   2    2.32    0.50   3
   6   5   2    2.45    0.55   4
   6   5   2    2.62    0.55   4
  -6  -5  -3   -0.36    0.38   4
   6   5   3    0.04    0.43   1
   6   5   3   -0.61    0.53   1
   6   5   3   -0.03    0.36   2
   6   5   3   -0.21    0.45   2
   6   5   3   -0.10    0.34   3
   6   5   3    0.66    0.39   3
   6   5   3   -1.13    0.46   4
  -6  -5  -4   19.20    0.97   4
   6   5   4   22.62    1.10   1
   6   5   4   22.25    1.05   2
   6   5   4   20.97    1.03   2
   6   5   4   22.42    0.87   3
   6   5   4   22.51    0.83   3
   6   5   4   21.37    1.01   4
  -6  -5  -5    8.26    0.78   4
   6   5   5    8.43    0.87   2
   6   5   5    6.30    0.75   2
   6   5   5    7.32    0.60   3
   6   5   5    8.15    0.58   3
   6   5   5    8.39    0.83   4
  -6  -5  -6   17.51    1.03   1
  -6  -5  -6   17.95    0.95   4
   6   5   6   15.89    1.06   2
   6   5   6   17.35    0.67   3
   6   5   6   17.46    0.66   3
   6   5   6   16.28    1.02   4
  -6  -5  -7    1.90    0.61   1
  -6  -5  -7    2.63    0.56   4
   6   5   7    3.01    0.66   2
   6   5   7    2.94    0.35   3
   6   5   7    3.17    0.33   3
   6   5   7    2.94    0.67   4
  -6  -5  -8   13.74    1.02   4
   6   5   8   17.62    1.28   2
   6   5   8   15.13    0.45   3
   6   5   8   15.61    0.45   3
   6   5   8   16.12    1.25   4
  -6  -5  -9    0.95    0.66   1
  -6  -5  -9    1.55    0.60   4
   6   5   9    0.43    0.61   2
  -6  -5 -10    4.06    0.90   1
  -6  -5 -10    2.51    0.70   4
   6   5  10    2.24    0.80   2
  -6  -5 -11    1.82    0.85   1
   6   5  11    1.99    0.85   2
  -6  -5 -12    0.24    0.99   1
  -6  -5 -12    0.83    0.82   4
   6   5  12   -0.26    0.96   2
  -6  -5 -13   -1.92    1.04   1
  -6  -5 -13   -1.40    1.03   4
  -6  -6   6    2.41    0.94   2
  -6  -6   6    1.23    1.12   3
   6   6  -6    2.97    1.10   4
  -6  -6   5    2.49    0.84   2
  -6  -6   5    0.96    0.89   3
   6   6  -5    0.90    0.94   4
  -6  -6   4    3.07    0.77   2
  -6  -6   4    4.07    1.00   3
   6   6  -4    1.92    0.57   1
   6   6  -4    3.36    0.89   4
  -6  -6   3   -0.78    0.56   2
  -6  -6   3   -0.26    0.71   3
   6   6  -3   -0.67    0.48   1
   6   6  -3    0.88    0.75   3
   6   6  -3   -0.01    0.75   4
  -6  -6   2    0.83    0.57   2
   6   6  -2   -0.01    0.48   1
   6   6  -2    0.33    0.60   1
   6   6  -2    0.41    0.68   3
   6   6  -2    0.28    0.69   4
  -6  -6   1   11.54    1.01   2
   6   6  -1   13.16    0.91   1
   6   6  -1   10.87    0.99   1
   6   6  -1    9.99    1.07   2
   6   6  -1   11.32    1.04   3
   6   6  -1   10.62    1.09   4
   6   6   0   39.73    1.28   1
   6   6   0   36.11    1.34   1
   6   6   0   36.94    1.38   2
   6   6   0   37.25    1.39   2
   6   6   0   40.14    1.47   3
   6   6   0   38.09    1.42   4
   6   6   1   15.28    0.95   1
   6   6   1   14.16    1.05   1
   6   6   1   15.56    1.02   2
   6   6   1   16.11    1.09   2
   6   6   1   15.53    1.07   3
   6   6   1   14.26    1.02   4
   6   6   2    3.75    0.62   1
   6   6   2    3.54    0.74   1
   6   6   2    3.29    0.63   2
   6   6   2    3.13    0.60   2
   6   6   2    3.18    0.62   3
   6   6   2    3.02    0.60   3
   6   6   2    2.63    0.56   4
   6   6   2    3.76    0.67   4
   6   6   3   14.88    0.99   1
   6   6   3   14.69    0.96   2
   6   6   3   16.14    0.91   3
   6   6   3   14.75    0.94   3
   6   6   3   14.61    0.93   4
   6   6   3   13.46    1.00   4
  -6  -6  -4    2.57    0.53   4
   6   6   4    3.84    0.70   1
   6   6   4    3.72    0.68   2
   6   6   4    2.97    0.52   3
   6   6   4    3.52    0.53   3
   6   6   4    2.95    0.55   4
  -6  -6  -5    1.87    0.65   1
  -6  -6  -5    0.61    0.48   4
   6   6   5    2.40    0.62   2
   6   6   5    1.62    0.44   3
   6   6   5    1.97    0.45   3
   6   6   5    1.80    0.57   4
  -6  -6  -6    4.43    0.80   1
  -6  -6  -6    4.32    0.62   4
   6   6   6    5.66    0.82   2
   6   6   6    5.67    0.67   3
   6   6   6    4.85    0.53   3
   6   6   6    5.61    0.69   4
  -6  -6  -7   25.76    1.37   1
  -6  -6  -7   25.96    1.12   4
   6   6   7   23.53    1.39   2
   6   6   7   26.94    0.91   3
   6   6   7   25.68    0.86   3
   6   6   7   28.10    1.30   4
  -6  -6  -8   12.99    1.19   1
  -6  -6  -8   10.86    1.00   4
   6   6   8   11.91    1.19   2
   6   6   8   12.74    0.70   3
   6   6   8   12.56    0.67   3
   6   6   8   12.73    1.25   4
  -6  -6  -9    4.76    0.91   1
  -6  -6  -9    3.44    0.70   4
   6   6   9    3.29    0.83   2
  -6  -6 -10    1.94    0.77   1
  -6  -6 -10    0.87    0.65   4
   6   6  10   -0.04    0.83   2
  -6  -6 -11    1.39    0.95   1
  -6  -6 -11    0.84    0.79   4
   6   6  11   -0.91    0.94   2
  -6  -6 -12   -0.29    0.96   1
  -6  -6 -12   -1.03    0.87   4
   6   6  12    1.01    1.09   2
  -6  -6 -13   -0.20    1.20   1
  -6  -6 -13    0.33    1.11   4
   6   6  13    0.42    1.16   2
  -6  -7   5    0.25    0.96   2
   6   7  -5    0.86    1.12   3
   6   7  -5    1.60    1.08   4
  -6  -7   4    5.35    0.93   2
   6   7  -4    4.10    1.17   3
   6   7  -4    5.01    1.12   4
   6   7  -3    3.02    0.63   1
   6   7  -3    2.73    1.03   3
   6   7  -3    2.43    0.85   4
  -6  -7   2    6.82    0.87   2
   6   7  -2    6.47    0.74   1
   6   7  -2    5.41    0.98   3
   6   7  -2    5.26    0.93   4
  -6  -7   1    5.43    0.87   2
   6   7  -1    6.02    0.72   1
   6   7  -1    4.69    0.80   1
   6   7  -1    6.21    0.92   3
   6   7  -1    5.03    0.87   4
   6   7   0    7.59    0.77   1
   6   7   0    7.54    0.88   1
   6   7   0    7.07    0.87   2
   6   7   0    5.98    0.84   4
   6   7   1    1.37    0.57   1
   6   7   1    1.68    0.64   2
   6   7   1    1.80    0.67   3
   6   7   1    2.25    0.64   4
   6   7   2    7.70    0.90   1
   6   7   2    8.30    0.99   2
   6   7   2    7.83    0.94   3
   6   7   2    8.86    0.95   4
   6   7   2    7.09    0.81   4
   6   7   3    2.26    0.63   1
   6   7   3    1.86    0.60   2
   6   7   3    2.95    0.64   3
   6   7   3    1.88    0.55   4
   6   7   3    1.23    0.64   4
  -6  -7  -4    4.52    0.79   1
   6   7   4    4.66    0.80   2
   6   7   4    4.92    0.70   3
   6   7   4    5.33    0.74   3
   6   7   4    4.78    0.66   4
   6   7   4    5.46    0.72   4
  -6  -7  -5    8.47    0.88   4
   6   7   5    6.63    0.85   2
   6   7   5    7.44    0.87   3
   6   7   5    8.39    0.92   3
   6   7   5    8.03    0.96   4
  -6  -7  -6   10.19    1.16   1
  -6  -7  -6    9.39    0.90   4
   6   7   6    9.46    1.03   2
   6   7   6    8.55    0.89   3
   6   7   6    7.85    0.92   3
   6   7   6   10.03    1.05   4
  -6  -7  -7    0.01    0.61   1
  -6  -7  -7    0.06    0.48   4
   6   7   7    0.64    0.63   2
   6   7   7    0.70    0.48   3
   6   7   7    0.46    0.52   3
   6   7   7    0.41    0.64   4
  -6  -7  -8    3.00    0.87   1
  -6  -7  -8    0.67    0.54   4
   6   7   8    0.33    0.68   2
   6   7   8    0.96    0.53   3
   6   7   8    0.93    0.75   4
  -6  -7  -9    1.23    0.82   1
  -6  -7  -9    1.67    0.60   4
   6   7   9    0.12    0.82   2
   6   7   9    0.70    0.49   3
  -6  -7 -10    8.30    1.19   1
  -6  -7 -10    5.08    0.83   4
   6   7  10    6.84    1.13   2
  -6  -7 -11    2.93    1.17   1
  -6  -7 -11    1.32    0.87   4
   6   7  11    1.31    1.17   2
  -6  -7 -12    2.78    1.23   1
   6   7  12   -0.82    1.17   2
  -6  -8   4   -0.83    0.99   2
   6   8  -4    0.91    1.19   3
   6   8  -4    2.13    1.09   4
  -6  -8   3    6.59    1.10   2
   6   8  -3    8.24    1.25   3
   6   8  -3    9.38    1.25   4
  -6  -8   2   -0.67    0.78   2
   6   8  -2   -0.13    0.59   1
   6   8  -2   -2.30    0.80   3
   6   8  -2    0.86    0.81   4
  -6  -8   1   10.40    1.14   2
   6   8  -1   11.53    1.07   1
   6   8  -1   10.36    1.27   3
   6   8  -1   10.27    1.07   4
   6   8   0    3.92    0.69   1
   6   8   0    2.88    0.82   2
   6   8   0    3.24    0.92   3
   6   8   0    3.88    0.81   4
   6   8   1    0.40    0.61   1
   6   8   1    0.13    0.68   2
   6   8   1    0.01    0.68   3
   6   8   1   -1.19    0.60   4
   6   8   2   -0.32    0.56   1
   6   8   2    0.18    0.66   2
   6   8   2   -0.01    0.67   3
   6   8   2    0.26    0.55   4
   6   8   3    4.62    0.83   2
   6   8   3    5.72    0.82   3
   6   8   3    6.04    0.75   4
   6   8   3    7.13    0.87   4
  -6  -8  -4   11.32    1.27   1
   6   8   4   11.80    1.23   2
   6   8   4   10.50    1.13   3
   6   8   4   12.25    1.02   4
   6   8   4   12.56    1.18   4
  -6  -8  -5   10.18    1.25   1
   6   8   5   12.89    1.32   2
   6   8   5   11.28    1.07   3
   6   8   5   12.96    0.99   4
   6   8   5   10.25    1.10   4
  -6  -8  -6    0.59    0.72   1
   6   8   6    0.11    0.76   2
   6   8   6    0.54    0.58   3
   6   8   6    1.16    0.74   3
   6   8   6   -0.29    0.51   4
   6   8   6   -0.36    0.61   4
  -6  -8  -7    7.23    1.07   1
  -6  -8  -7    4.40    0.64   4
   6   8   7    6.33    1.06   2
   6   8   7    5.20    0.74   3
  -6  -8  -8    1.28    0.86   1
  -6  -8  -8    0.41    0.58   4
   6   8   8    2.44    0.91   2
   6   8   8    0.90    0.66   3
  -6  -8  -9    2.00    0.98   1
  -6  -8  -9    0.61    0.63   4
   6   8   9   -0.57    0.86   2
   6   8   9   -0.63    0.66   3
  -6  -8 -10    1.06    1.03   1
   6   8  10   -0.56    1.04   2
  -6  -8 -11    0.25    1.20   1
   6   8  11    0.05    1.17   2
  -6  -9   3    1.70    1.10   2
   6   9  -3    1.56    1.24   3
   6   9  -3   -1.12    1.09   4
  -6  -9   2   -0.17    1.01   2
   6   9  -2   -0.87    1.03   3
   6   9  -2    0.01    0.92   4
  -6  -9   1   -0.80    0.85   2
   6   9  -1   -0.66    0.69   1
   6   9  -1   -0.33    0.96   3
   6   9  -1   -1.18    0.83   4
   6   9   0    3.52    0.76   1
   6   9   0    2.38    0.97   2
   6   9   0    2.69    1.01   3
   6   9   1    4.52    0.84   1
   6   9   1    2.48    0.87   2
   6   9   1    3.83    0.94   3
   6   9   1    3.99    0.83   4
   6   9   2    1.33    0.85   2
   6   9   2    0.77    0.76   3
   6   9   2    0.35    0.68   4
  -6  -9  -3    1.15    0.85   1
   6   9   3   -0.54    0.81   2
   6   9   3    1.98    0.79   3
   6   9   3   -0.14    0.64   4
  -6  -9  -4    0.91    0.83   1
   6   9   4    1.72    0.87   2
   6   9   4    1.11    0.65   4
  -6  -9  -5   12.07    1.43   1
   6   9   5   10.10    1.19   2
   6   9   5    9.83    1.02   3
   6   9   5   11.94    1.08   4
  -6  -9  -6    1.19    0.88   1
   6   9   6    0.42    0.87   2
   6   9   6    0.43    0.74   3
   6   9   6    0.58    0.57   4
  -6  -9  -7    6.98    1.10   1
   6   9   7    6.63    1.16   2
   6   9   7    7.24    0.92   3
  -6  -9  -8    3.51    1.11   1
   6   9   8    2.05    0.99   2
   6   9   8    2.97    0.84   3
  -6  -9  -9    2.24    1.21   1
   6   9   9    0.00    1.10   2
  -6  -9 -10   -0.07    1.15   1
   6   9  10   -1.64    1.18   2
   6  10  -1   -0.07    1.23   2
   6  10  -1    1.56    1.21   3
   6  10  -1   -0.76    0.97   4
   6  10   0    0.13    0.81   1
   6  10   0   -1.09    1.06   2
   6  10   0   -1.03    1.09   3
   6  10   0   -0.12    0.87   4
   6  10   1    0.43    0.86   1
   6  10   1   -0.06    1.01   2
   6  10   1   -1.48    1.04   3
   6  10   1   -1.70    0.78   4
   6  10   2    0.54    0.86   1
   6  10   2    2.21    1.05   2
   6  10   2    0.69    0.96   3
   6  10   2    0.91    0.77   4
  -6 -10  -3    0.02    0.95   1
   6  10   3   -1.04    0.93   2
   6  10   3   -0.14    0.92   3
  -6 -10  -4   15.20    1.72   1
   6  10   4   12.84    1.53   2
   6  10   4   12.60    1.55   3
  -6 -10  -5    0.70    1.03   1
   6  10   5    0.37    0.95   2
   6  10   5    1.37    0.95   3
  -6 -10  -6    1.65    1.03   1
   6  10   6    2.56    1.03   2
   6  10   6    0.55    0.90   3
  -6 -10  -7   -0.15    1.05   1
   6  10   7    0.12    1.08   2
   6  10   7    1.45    0.96   3
  -6 -10  -8    2.32    1.22   1
   6  10   8    2.83    1.27   2
  -6 -11  -4    0.83    1.22   1
   6  11   4   -0.80    1.26   2
   6  11   4    2.42    1.27   3
  -7   8   1    5.33    1.45   3
   7  -8  -1    2.68    1.28   1
  -7   8   0   -0.62    1.07   3
   7  -8   0    1.64    1.07   1
  -7   8  -1   16.22    1.92   3
   7  -8   1   14.63    1.76   1
   7  -8   1   17.46    1.55   2
  -7   8  -2    2.44    1.09   3
  -7   8  -2    1.31    0.84   4
   7  -8   2    1.79    1.04   1
   7  -8   2    2.55    0.92   2
  -7   8  -3   11.87    1.44   3
   7  -8   3   14.70    1.54   1
   7  -8   3   15.91    1.65   2
  -7   8  -4    6.21    1.34   3
  -7   8  -4    4.55    0.94   4
   7  -8   4    4.84    1.19   1
   7  -8   4    4.87    1.11   2
  -7   8  -5    0.65    1.10   3
  -7   8  -5    2.14    1.04   4
   7  -8   5    0.19    1.08   1
   7  -8   5    2.67    1.17   2
  -7   7   3    4.65    1.39   3
   7  -7  -3    1.69    1.19   1
  -7   7   2    1.16    1.12   3
   7  -7  -2    0.97    1.02   1
  -7   7   1    1.52    1.10   3
   7  -7  -1    0.79    0.92   1
   7  -7  -1    0.09    0.81   4
  -7   7   0    4.81    1.10   3
   7  -7   0    4.76    1.09   1
  -7   7  -1    6.45    1.06   3
  -7   7  -1    4.36    0.81   4
   7  -7   1    4.84    1.08   1
   7  -7   1    3.48    0.79   2
  -7   7  -2   12.46    1.40   3
  -7   7  -2   11.33    1.26   4
   7  -7   2   10.60    1.24   1
   7  -7   2   10.31    1.00   2
  -7   7  -3    0.72    0.84   3
  -7   7  -3    0.73    0.74   4
   7  -7   3    0.01    0.83   1
   7  -7   3   -0.18    0.75   2
  -7   7  -4   17.16    1.70   3
  -7   7  -4   14.75    1.40   4
   7  -7   4   16.78    1.56   1
   7  -7   4   18.05    1.49   2
  -7   7  -5    1.79    0.95   3
  -7   7  -5    1.61    0.86   4
   7  -7   5    2.94    0.96   1
   7  -7   5    2.89    1.02   2
  -7   7  -6    3.86    1.05   3
  -7   7  -6    5.67    1.16   4
   7  -7   6    3.75    1.06   1
   7  -7   6    3.45    1.04   2
  -7   7  -7    0.05    1.00   3
  -7   7  -7   -0.83    0.96   4
   7  -7   7    1.06    0.98   1
   7  -7   7    0.58    1.03   2
  -7   7  -8    2.56    1.18   3
  -7   7  -8    3.73    1.15   4
   7  -7   8    2.24    1.26   2
  -7   6   4    1.55    1.16   3
   7  -6  -4   -0.69    1.02   1
  -7   6   3    1.81    1.18   3
   7  -6  -3   -0.14    0.91   1
   7  -6  -3   -0.32    0.86   4
  -7   6   2    0.49    1.00   3
   7  -6  -2    1.04    0.91   1
   7  -6  -2    2.02    0.81   4
  -7   6   1   11.51    1.28   3
   7  -6  -1    9.42    1.12   1
   7  -6  -1   10.29    1.27   4
  -7   6   0    3.82    0.94   3
  -7   6   0    0.46    0.64   4
   7  -6   0    1.39    0.74   1
  -7   6  -1    4.70    0.89   3
  -7   6  -1    3.31    0.76   4
   7  -6   1    3.62    0.86   1
   7  -6   1    4.97    0.67   2
  -7   6  -2    1.02    0.80   3
  -7   6  -2    1.64    0.68   4
   7  -6   2    2.00    0.78   1
   7  -6   2    2.09    0.64   2
  -7   6  -3    5.43    0.98   3
  -7   6  -3    5.04    0.81   4
   7  -6   3    5.28    0.93   1
   7  -6   3    5.34    0.79   2
  -7   6  -4    0.07    0.73   3
  -7   6  -4    0.09    0.68   4
   7  -6   4    0.46    0.75   1
   7  -6   4    1.37    0.73   2
  -7   6  -5    3.88    0.89   3
  -7   6  -5    2.90    0.83   4
   7  -6   5    2.87    0.84   1
  -7   6  -6    1.04    0.81   3
  -7   6  -6    2.39    0.86   4
   7  -6   6    0.58    0.81   1
   7  -6   6    0.52    0.79   2
  -7   6  -7    6.21    1.00   3
  -7   6  -7    4.29    1.01   4
   7  -6   7    6.22    1.02   1
   7  -6   7    7.09    1.09   2
  -7   6  -8    0.22    0.91   3
  -7   6  -8   -0.76    0.87   4
   7  -6   8    1.02    0.90   1
   7  -6   8   -0.15    0.94   2
  -7   6  -9    2.02    1.02   3
  -7   6  -9    0.19    1.00   4
   7  -6   9    2.12    1.07   2
  -7   5   5   -0.03    1.20   3
   7  -5  -5    0.04    1.10   1
   7  -5  -5    0.41    0.99   4
  -7   5   4    3.88    1.19   3
   7  -5  -4    1.48    0.99   1
   7  -5  -4    1.49    0.86   4
  -7   5   3   -0.57    0.85   3
   7  -5  -3    0.20    0.72   1
   7  -5  -3   -0.30    0.75   4
  -7   5   2    1.55    0.90   3
   7  -5  -2    1.41    0.84   1
   7  -5  -2    1.07    0.74   4
  -7   5   1    5.10    1.04   3
   7  -5  -1    4.08    0.81   1
   7  -5  -1    3.83    0.75   4
  -7   5   0    2.91    0.48   2
  -7   5   0    5.73    0.92   3
  -7   5   0    3.37    0.70   4
   7  -5   0    2.90    0.78   1
  -7   5  -1    4.57    0.82   3
  -7   5  -1    5.36    0.76   4
   7  -5   1    4.06    0.86   1
   7  -5   1    4.86    0.57   2
  -7   5  -2    5.99    0.73   2
  -7   5  -2    7.75    0.94   4
   7  -5   2    8.52    1.03   1
   7  -5   2    7.76    0.73   2
  -7   5  -3    1.62    0.71   2
  -7   5  -3    2.13    0.72   3
  -7   5  -3    1.86    0.61   4
   7  -5   3    2.24    0.71   1
   7  -5   3    2.22    0.63   2
  -7   5  -4    0.56    0.64   3
  -7   5  -4    0.46    0.55   4
   7  -5   4   -0.95    0.67   1
   7  -5   4    0.84    0.57   2
  -7   5  -5   -0.80    0.61   3
   7  -5   5    0.78    0.63   2
  -7   5  -6    0.70    0.66   3
  -7   5  -6    0.09    0.69   4
   7  -5   6   -0.26    0.61   2
  -7   5  -7    3.39    0.76   3
  -7   5  -7    3.50    0.92   4
   7  -5   7    2.03    0.80   1
   7  -5   7    2.64    0.80   2
  -7   5  -8   -0.57    0.70   3
  -7   5  -8   -0.38    0.74   4
   7  -5   8   -2.07    0.71   1
   7  -5   8   -0.12    0.79   2
  -7   5  -9    2.72    0.85   3
  -7   5  -9    2.34    1.02   4
   7  -5   9   -0.82    0.80   1
   7  -5   9    1.09    0.93   2
  -7   5 -10   -0.34    1.01   4
   7  -5  10   -0.15    0.94   2
  -7   4   6    1.71    1.31   3
   7  -4  -6    0.34    1.16   1
   7  -4  -6    0.05    1.04   4
  -7   4   5    2.20    1.10   3
   7  -4  -5    0.48    0.97   1
   7  -4  -5   -0.68    0.86   4
  -7   4   4    1.09    0.90   3
   7  -4  -4    0.23    0.78   1
   7  -4  -4    0.70    0.80   4
  -7   4   3    5.12    0.98   3
   7  -4  -3    3.70    0.94   1
   7  -4  -3    4.99    0.84   4
  -7   4   2    7.04    1.00   3
   7  -4  -2    6.32    0.91   1
   7  -4  -2    6.79    0.89   4
  -7   4   1    9.71    1.09   3
   7  -4  -1    8.72    1.01   1
   7  -4  -1    9.25    0.95   4
  -7   4   0    0.46    0.27   2
  -7   4   0    1.19    0.34   2
  -7   4   0    1.12    0.55   4
   7  -4   0    0.59    0.64   1
  -7   4  -1    9.45    0.72   2
  -7   4  -1   10.65    1.04   3
  -7   4  -1   10.88    0.96   4
   7  -4   1    9.25    1.07   1
   7  -4   1   10.04    0.65   2
  -7   4  -2   12.31    0.83   2
  -7   4  -2   19.16    1.21   3
  -7   4  -2   17.81    1.07   4
   7  -4   2   18.42    0.86   2
  -7   4  -3   -0.32    0.50   2
  -7   4  -3   -0.33    0.56   3
  -7   4  -3   -0.07    0.48   4
   7  -4   3    0.09    0.56   1
   7  -4   3    0.54    0.41   2
  -7   4  -4   12.95    1.04   2
  -7   4  -4   11.97    1.05   3
  -7   4  -4   10.63    1.05   4
   7  -4   4   11.74    1.10   1
   7  -4   4   11.78    0.94   2
  -7   4  -5    3.01    0.75   2
  -7   4  -5    3.60    0.67   3
  -7   4  -5    3.73    0.72   4
   7  -4   5    3.70    0.81   1
   7  -4   5    4.02    0.69   2
   7  -4   5    2.94    0.73   3
  -7   4  -6   -0.42    0.53   3
   7  -4   6    0.63    0.66   1
   7  -4   6   -0.31    0.55   2
   7  -4   6    0.57    0.69   3
  -7   4  -7    0.67    0.57   3
  -7   4  -7    1.45    0.68   4
   7  -4   7   -0.05    0.67   1
   7  -4   7   -0.19    0.59   2
   7  -4   7    0.60    0.68   3
  -7   4  -8    0.18    0.57   3
  -7   4  -8    0.28    0.63   4
   7  -4   8   -1.07    0.61   1
   7  -4   8    0.74    0.67   2
  -7   4  -9    1.80    0.67   3
  -7   4  -9    2.16    0.84   4
   7  -4   9    2.07    0.76   1
   7  -4   9    0.86    0.78   2
  -7   4 -10    3.60    1.10   4
   7  -4  10    0.31    0.75   1
   7  -4  10    0.81    0.93   2
  -7   4 -11    0.01    1.06   4
   7  -4  11    0.56    1.06   2
  -7   3   7   -0.04    1.32   3
   7  -3  -7    2.00    1.21   1
   7  -3  -7    0.26    1.15   4
  -7   3   6    0.86    1.16   3
   7  -3  -6   -0.50    0.94   1
   7  -3  -6    0.44    0.96   4
  -7   3   5    1.06    0.94   3
   7  -3  -5    0.74    0.79   1
   7  -3  -5   -1.23    0.78   4
  -7   3   4    4.13    1.02   3
   7  -3  -4    2.80    0.91   1
   7  -3  -4    2.32    0.84   4
  -7   3   3    3.21    0.87   3
   7  -3  -3    3.57    0.79   1
  -7   3   2    0.66    0.67   3
   7  -3  -2    0.28    0.60   1
   7  -3  -2    0.04    0.64   4
  -7   3   1    3.24    0.70   3
   7  -3  -1    2.46    0.72   1
   7  -3  -1    1.46    0.63   4
  -7   3   0    4.57    0.76   3
  -7   3   0    4.77    0.66   4
  -7   3  -1    4.19    0.45   2
  -7   3  -1    5.31    0.75   3
  -7   3  -1    4.69    0.65   4
   7  -3   1    5.93    0.83   1
   7  -3   1    4.94    0.42   2
  -7   3  -2    0.32    0.36   2
  -7   3  -2    1.03    0.51   3
  -7   3  -2    0.91    0.46   4
   7  -3   2    0.49    0.57   1
   7  -3   2    0.32    0.32   2
   7  -3   2    0.49    0.62   3
  -7   3  -3   17.03    0.88   2
  -7   3  -3   26.12    1.17   3
  -7   3  -3   24.97    1.18   4
   7  -3   3   27.38    1.31   1
   7  -3   3   24.95    0.90   2
   7  -3   3   24.44    1.20   3
  -7   3  -4   68.25    1.50   2
  -7   3  -4   91.37    1.79   3
  -7   3  -4   91.71    2.03   4
   7  -3   4   88.58    2.03   1
   7  -3   4   91.26    1.64   2
   7  -3   4   92.27    1.83   3
  -7   3  -5   40.37    1.39   2
  -7   3  -5   40.90    1.26   3
  -7   3  -5   40.72    1.50   4
   7  -3   5   42.58    1.51   1
   7  -3   5   42.69    1.32   2
   7  -3   5   40.43    1.29   3
  -7   3  -6   18.73    0.97   3
  -7   3  -6   27.53    1.35   4
   7  -3   6   25.24    1.29   1
   7  -3   6   26.48    1.23   2
   7  -3   6   24.42    1.09   3
  -7   3  -7   18.01    0.97   3
  -7   3  -7   28.58    1.43   4
   7  -3   7   25.83    1.33   1
   7  -3   7   27.08    1.32   2
   7  -3   7   28.48    1.13   3
  -7   3  -8    6.43    0.67   3
  -7   3  -8    7.40    0.96   4
   7  -3   8    8.31    0.92   1
   7  -3   8    8.53    0.93   3
  -7   3  -9   -0.26    0.48   3
  -7   3  -9    1.43    0.79   4
   7  -3   9    1.53    0.71   1
   7  -3   9    0.57    0.67   2
  -7   3 -10    1.66    0.85   4
   7  -3  10    1.83    0.76   1
   7  -3  10    0.51    0.75   2
  -7   3 -11    0.99    0.99   4
   7  -3  11   -0.21    0.75   1
   7  -3  11   -0.03    0.87   2
  -7   3 -12    3.24    1.25   4
   7  -3  12    2.38    1.09   2
  -7   2   7   -0.87    1.18   3
   7  -2  -7   -0.23    1.06   1
   7  -2  -7    1.38    1.14   4
  -7   2   6    0.58    1.07   3
   7  -2  -6   -0.31    0.88   1
   7  -2  -6   -0.74    0.94   4
  -7   2   5    2.55    1.01   3
   7  -2  -5    4.02    0.97   1
   7  -2  -5    2.35    0.91   4
  -7   2   4    1.37    0.86   3
   7  -2  -4    0.86    0.70   1
   7  -2  -4    1.27    0.77   4
  -7   2   3    8.99    1.12   3
   7  -2  -3    8.63    1.01   1
   7  -2  -2    8.56    1.04   4
  -7   2   1    7.09    0.87   3
   7  -2  -1    6.14    0.88   1
   7  -2  -1    5.70    0.76   4
  -7   2   0   19.94    1.15   3
  -7   2   0   21.16    1.14   4
   7  -2   0   18.07    1.16   1
  -7   2  -1    0.25    0.17   2
  -7   2  -1    0.34    0.49   3
  -7   2  -1    0.27    0.47   4
   7  -2   1    0.45    0.56   1
   7  -2   1    0.55    0.15   2
   7  -2   1   -0.07    0.61   3
  -7   2  -2    5.49    0.47   2
  -7   2  -2    8.18    0.85   3
  -7   2  -2    9.36    0.89   4
   7  -2   2    7.78    0.91   1
   7  -2   2    7.44    0.92   3
  -7   2  -3    0.27    0.31   2
  -7   2  -3    0.64    0.43   3
  -7   2  -3    0.69    0.44   4
   7  -2   3   -0.01    0.46   1
   7  -2   3    0.56    0.31   2
   7  -2   3    0.62    0.48   3
  -7   2  -4    0.11    0.40   2
  -7   2  -4    0.22    0.41   3
  -7   2  -4   -0.13    0.45   4
   7  -2   4   -0.58    0.52   1
   7  -2   4    0.21    0.36   2
   7  -2   4    0.35    0.48   3
  -7   2  -5   21.09    1.00   2
  -7   2  -5   29.53    1.01   3
  -7   2  -5   28.61    1.25   4
   7  -2   5   31.83    1.30   1
   7  -2   5   28.86    1.09   2
   7  -2   5   31.34    1.04   3
  -7   2  -6    1.34    0.56   2
  -7   2  -6    0.60    0.40   3
  -7   2  -6    1.33    0.60   4
   7  -2   6    0.99    0.54   1
   7  -2   6    0.15    0.45   2
   7  -2   6    0.42    0.41   3
  -7   2  -7   61.31    1.20   3
  -7   2  -7   79.35    2.22   4
   7  -2   7   84.82    1.99   1
   7  -2   7   81.75    1.89   2
   7  -2   7   86.75    1.39   3
  -7   2  -8   37.38    0.96   3
  -7   2  -8   54.52    1.10   3
  -7   2  -8   55.13    1.82   4
   7  -2   8   59.60    1.72   1
   7  -2   8   56.85    1.75   2
  -7   2  -9   16.57    0.76   3
   7  -2   9   24.89    1.38   1
   7  -2   9   24.75    1.47   2
  -7   2 -10    4.94    0.97   4
   7  -2  10    5.70    0.95   1
   7  -2  10    4.47    0.92   2
  -7   2 -11    1.38    0.89   4
   7  -2  11   -0.17    0.80   1
   7  -2  11    2.47    0.94   2
  -7   2 -12    5.76    1.24   4
   7  -2  12    4.77    1.09   2
  -7   2 -13    1.37    1.26   4
   7  -2  13    0.43    1.06   2
  -7   1   7   10.38    1.54   3
   7  -1  -7    5.99    1.23   1
   7  -1  -7    7.43    1.30   4
  -7   1   6    1.25    0.95   3
   7  -1  -6    0.89    0.87   1
   7  -1  -6    0.26    0.89   4
  -7   1   5   -0.13    0.90   3
   7  -1  -5    0.16    0.79   1
   7  -1  -5   -0.79    0.77   4
  -7   1   4    7.27    1.07   3
   7  -1  -4    6.45    0.90   1
   7  -1  -4    6.47    0.95   4
  -7   1   3   -0.11    0.62   3
   7  -1  -3   -0.08    0.66   4
  -7   1   2   16.23    1.18   3
   7  -1  -2   15.60    1.08   1
   7  -1  -2   17.88    1.18   4
  -7   1   1    6.07    0.76   3
   7  -1  -1    5.67    0.76   1
   7  -1  -1    7.04    0.81   4
  -7   1   0   21.14    1.09   3
  -7   1   0   21.79    1.15   4
   7  -1   0   22.84    1.20   1
  -7   1  -1   18.96    1.03   3
  -7   1  -1   16.95    1.05   4
   7  -1   1   17.51    1.01   1
   7  -1   1   19.41    1.05   3
  -7   1  -2    3.17    0.38   2
  -7   1  -2    4.59    0.57   3
  -7   1  -2    4.81    0.61   4
   7  -1   2    4.99    0.68   1
   7  -1   2    4.70    0.39   2
   7  -1   2    6.05    0.67   3
  -7   1  -3    0.29    0.26   2
  -7   1  -3    0.55    0.37   3
  -7   1  -3    0.24    0.41   4
   7  -1   3    0.13    0.39   1
   7  -1   3   -0.18    0.27   2
   7  -1   3    0.31    0.44   3
  -7   1  -4   22.47    0.84   2
  -7   1  -4   26.62    0.90   3
  -7   1  -4   25.25    1.16   4
   7  -1   4   28.40    1.23   1
   7  -1   4   25.88    0.91   2
   7  -1   4   27.99    0.94   3
  -7   1  -5    2.94    0.52   2
  -7   1  -5    5.92    0.58   3
  -7   1  -5    4.04    0.60   4
   7  -1   5    6.92    0.84   1
   7  -1   5    5.72    0.62   2
   7  -1   5    5.27    0.61   3
  -7   1  -6   16.34    1.02   2
  -7   1  -6   12.75    0.63   3
  -7   1  -6   17.47    1.01   4
   7  -1   6   17.94    1.04   1
   7  -1   6   16.43    0.98   2
   7  -1   6   16.90    0.68   3
  -7   1  -7    0.26    0.53   4
   7  -1   7    1.57    0.58   1
   7  -1   7    0.36    0.49   2
   7  -1   7    0.30    0.28   3
  -7   1  -8   22.45    0.56   3
  -7   1  -8   22.48    0.56   3
  -7   1  -8   32.35    1.51   4
   7  -1   8   33.16    1.41   1
   7  -1   8   32.15    1.40   2
  -7   1  -9    3.39    0.77   4
   7  -1   9    3.50    0.76   1
  -7   1 -10   25.27    1.61   4
   7  -1  10   24.81    1.44   1
   7  -1  10   22.73    1.50   2
  -7   1 -11   12.31    1.51   4
   7  -1  11   14.24    1.39   1
   7  -1  11   12.79    1.35   2
  -7   1 -12   11.89    1.43   4
   7  -1  12   14.44    1.45   1
   7  -1  12   13.51    1.68   2
  -7   1 -13    0.77    1.12   4
   7  -1  13   -0.31    1.00   1
   7  -1  13   -2.17    0.93   2
  -7   0   7    0.83    1.13   3
   7   0  -7   -1.70    0.89   1
   7   0  -7    1.55    1.08   4
  -7   0   6    2.20    1.13   3
   7   0  -6    2.70    0.93   1
   7   0  -6    3.56    1.02   4
  -7   0   5    2.54    0.91   3
   7   0  -5    0.72    0.76   1
   7   0  -5    0.49    0.80   4
  -7   0   4   50.40    1.96   3
   7   0  -4   46.49    1.69   1
   7   0  -4   44.81    1.80   4
  -7   0   3   13.50    1.15   3
   7   0  -3   11.53    1.06   1
   7   0  -3   12.49    1.22   4
  -7   0   2    2.36    0.66   3
   7   0  -2    1.36    0.64   1
   7   0  -2    2.61    0.63   4
  -7   0   1   34.55    1.32   3
   7   0  -1   38.54    1.43   1
   7   0  -1   37.27    1.45   4
  -7   0   0    4.22    0.64   3
  -7   0   0    3.86    0.58   4
   7   0   0    4.30    0.66   1
   7   0   0    3.36    0.66   3
  -7   0  -1   10.65    0.85   3
  -7   0  -1   10.84    0.92   4
   7   0   1    8.73    0.92   1
   7   0   1   11.77    0.88   3
  -7   0  -2    3.08    0.38   2
  -7   0  -2    3.55    0.53   3
  -7   0  -2    4.17    0.61   4
   7   0   2    3.61    0.61   1
   7   0   2    4.34    0.38   2
   7   0   2    4.81    0.59   3
  -7   0  -3   10.25    0.56   2
  -7   0  -3   15.02    0.78   3
  -7   0  -3   15.40    0.92   4
   7   0   3   16.27    0.95   1
   7   0   3   14.97    0.65   2
   7   0   3   15.92    0.80   3
  -7   0  -4    3.73    0.44   2
  -7   0  -4    4.56    0.54   3
  -7   0  -4    3.60    0.61   4
   7   0   4    4.54    0.62   1
   7   0   4    3.60    0.46   2
   7   0   4    4.48    0.56   3
  -7   0  -5    7.65    0.66   2
  -7   0  -5    8.93    0.54   3
  -7   0  -5    8.81    0.83   4
   7   0   5    9.87    0.82   1
   7   0   5    9.18    0.73   2
  -7   0  -6    0.08    0.44   2
  -7   0  -6    0.16    0.20   3
  -7   0  -6    0.35    0.47   4
   7   0   6   -0.33    0.46   1
   7   0   6   -0.18    0.39   2
   7   0   6    0.09    0.24   3
  -7   0  -7   30.29    1.24   2
  -7   0  -7   30.84    1.29   4
   7   0   7   32.41    1.34   1
   7   0   7   29.22    1.21   2
  -7   0  -8   13.17    1.12   4
   7   0   8   11.98    1.05   1
   7   0   8   12.24    1.03   2
  -7   0  -9    6.85    0.91   4
   7   0   9    8.85    1.03   1
   7   0   9    6.33    0.86   2
  -7   0 -10   -0.56    0.62   4
   7   0  10    1.27    0.69   1
   7   0  10    0.70    0.70   2
  -7   0 -11    5.44    1.05   4
   7   0  11    3.77    0.90   2
  -7   0 -12    0.97    0.95   4
   7   0  12    2.56    0.92   1
   7   0  12   -0.01    0.90   2
  -7   0 -13    7.17    1.31   4
   7   0  13    6.17    1.15   1
   7   0  13    8.00    1.32   2
  -7  -1   7    2.49    1.20   3
   7   1  -7   -0.78    0.89   1
   7   1  -7    0.64    1.08   4
  -7  -1   6   -0.26    1.03   3
   7   1  -6   -0.30    0.89   4
  -7  -1   5    1.05    0.89   3
   7   1  -5   -0.17    0.70   1
   7   1  -5    0.79    0.82   4
  -7  -1   4   -0.49    0.71   3
   7   1  -4   -0.06    0.59   1
   7   1  -4   -0.39    0.62   4
  -7  -1   3   19.32    1.39   3
   7   1  -3   20.82    1.24   1
   7   1  -3   17.69    1.33   4
  -7  -1   2   13.70    1.21   3
   7   1  -2   12.24    1.04   1
   7   1  -2   13.50    1.11   4
  -7  -1   1   76.05    1.84   3
   7   1  -1   74.28    1.80   1
   7   1  -1   74.97    1.88   4
  -7  -1   0   24.79    1.12   3
   7   1   0   23.69    1.16   1
   7   1   0   25.54    1.17   3
   7   1   0   25.75    1.24   4
  -7  -1  -1    0.78    0.45   3
  -7  -1  -1    0.93    0.44   4
   7   1   1    0.55    0.50   1
   7   1   1    1.12    0.21   2
   7   1   1    0.78    0.19   2
   7   1   1    0.74    0.47   3
  -7  -1  -2   15.14    0.82   3
  -7  -1  -2   14.78    0.90   4
   7   1   2   14.67    0.90   1
   7   1   2   14.71    0.55   2
   7   1   2   15.71    0.87   3
  -7  -1  -3    0.06    0.27   2
  -7  -1  -3    0.27    0.34   3
  -7  -1  -3    0.12    0.37   4
   7   1   3    0.54    0.50   1
   7   1   3    0.04    0.28   2
   7   1   3    0.24    0.35   3
  -7  -1  -4   14.29    0.71   2
  -7  -1  -4   18.02    0.71   3
  -7  -1  -4   18.84    1.02   4
   7   1   4   20.58    1.05   1
   7   1   4   17.42    0.79   2
   7   1   4   17.89    0.72   3
  -7  -1  -5    0.24    0.37   2
  -7  -1  -5   -0.10    0.42   4
   7   1   5    0.63    0.44   1
   7   1   5    0.16    0.37   2
   7   1   5    0.40    0.28   3
  -7  -1  -6   12.19    0.86   2
  -7  -1  -6    7.84    0.31   3
  -7  -1  -6   12.39    0.89   4
   7   1   6   12.30    0.95   1
   7   1   6   11.18    0.88   2
   7   1   6   11.70    0.38   3
  -7  -1  -7    0.21    0.53   2
  -7  -1  -7    0.93    0.54   4
   7   1   7    1.53    0.57   1
   7   1   7    0.38    0.47   2
  -7  -1  -8    7.90    0.92   4
   7   1   8    9.62    0.98   1
   7   1   8    7.11    0.81   2
  -7  -1  -9   -0.95    0.56   4
   7   1   9   -0.66    0.59   1
   7   1   9   -0.63    0.55   2
  -7  -1 -10    5.64    0.93   4
   7   1  10    6.75    0.96   2
  -7  -1 -11    0.86    0.71   4
   7   1  11    1.36    0.78   1
   7   1  11    0.59    0.77   2
  -7  -1 -12    2.69    1.01   4
   7   1  12    1.93    0.94   1
   7   1  12    0.70    0.90   2
  -7  -1 -13    0.04    1.05   4
   7   1  13    0.13    1.03   1
   7   1  13   -0.83    0.91   2
  -7  -2   7    2.06    1.16   3
   7   2  -7    2.27    0.96   1
   7   2  -7    1.53    1.19   4
  -7  -2   6    4.54    1.18   3
   7   2  -6    4.16    0.94   1
   7   2  -6    2.68    1.00   4
  -7  -2   5    2.16    0.93   3
   7   2  -5    2.94    0.79   1
   7   2  -5    2.72    0.93   4
  -7  -2   4    5.25    0.96   3
   7   2  -4    5.15    0.82   1
   7   2  -4    5.15    0.94   4
  -7  -2   3   -0.32    0.63   3
   7   2  -3   -0.37    0.53   1
   7   2  -3    0.02    0.58   4
  -7  -2   2    0.06    0.61   3
   7   2  -2    0.05    0.53   1
  -7  -2   1   -0.27    0.53   3
   7   2  -1    0.04    0.45   1
   7   2  -1    0.21    0.17   2
   7   2  -1    0.22    0.20   2
   7   2  -1   -0.27    0.51   4
  -7  -2   0   43.26    1.39   3
   7   2   0   45.74    1.43   1
   7   2   0   43.83    0.72   2
   7   2   0   43.29    0.71   2
   7   2   0   38.67    1.38   3
   7   2   0   43.64    1.52   4
  -7  -2  -1   31.33    1.14   3
  -7  -2  -1   34.54    1.32   4
   7   2   1   31.78    1.24   1
   7   2   1   31.26    0.71   2
   7   2   1   31.22    1.16   3
  -7  -2  -2   11.40    0.75   3
  -7  -2  -2   10.92    0.89   4
   7   2   2   12.33    0.91   1
   7   2   2   10.16    0.60   2
   7   2   2   12.06    0.58   2
   7   2   2   11.58    0.77   3
  -7  -2  -3   21.10    0.82   3
  -7  -2  -3   19.72    0.98   4
   7   2   3   22.16    1.02   1
   7   2   3   19.67    0.78   2
   7   2   3   20.53    0.76   2
   7   2   3   21.52    0.82   3
  -7  -2  -4   10.56    0.72   2
  -7  -2  -4   11.25    0.60   3
  -7  -2  -4   12.19    0.92   4
   7   2   4   12.60    0.94   1
   7   2   4   12.45    0.76   2
   7   2   4   11.91    0.65   3
  -7  -2  -5    2.19    0.47   2
  -7  -2  -5    2.57    0.56   4
   7   2   5    2.81    0.53   1
   7   2   5    2.12    0.47   2
   7   2   5    2.59    0.32   3
  -7  -2  -6    0.88    0.47   2
  -7  -2  -6    0.26    0.46   4
   7   2   6   -0.86    0.44   1
   7   2   6    0.12    0.46   2
   7   2   6   -0.06    0.14   3
  -7  -2  -7    1.08    0.55   2
  -7  -2  -7    1.02    0.51   4
   7   2   7    1.83    0.61   1
   7   2   7    0.91    0.52   2
  -7  -2  -8    0.99    0.55   4
   7   2   8    0.93    0.60   1
   7   2   8    0.41    0.59   2
   7   2   9   -0.11    0.65   1
   7   2   9    0.72    0.60   2
  -7  -2 -10    1.02    0.70   4
   7   2  10    2.38    0.78   1
   7   2  10    1.40    0.72   2
  -7  -2 -11   -1.23    0.73   4
   7   2  11    0.53    0.80   1
   7   2  11   -0.50    0.81   2
  -7  -2 -12    0.07    0.93   4
   7   2  12    1.56    0.96   1
   7   2  12   -0.60    0.89   2
  -7  -2 -13    2.00    1.11   4
   7   2  13    0.72    1.07   1
   7   2  13   -0.24    1.07   2
  -7  -2 -14    0.56    1.33   4
   7   2  14    0.20    1.22   2
  -7  -3   7    0.88    1.23   3
  -7  -3   6   -0.20    0.90   3
   7   3  -6    0.47    0.81   1
   7   3  -6    0.17    0.96   4
  -7  -3   5    0.10    0.90   3
   7   3  -5    2.42    0.77   1
   7   3  -5    1.80    0.89   4
  -7  -3   4   20.59    1.56   3
   7   3  -4   19.18    1.24   1
   7   3  -4   19.24    0.84   2
   7   3  -4   18.33    1.46   4
  -7  -3   3    9.85    1.23   3
   7   3  -3   11.67    1.08   1
   7   3  -3   12.76    0.69   2
   7   3  -3   10.16    0.75   2
   7   3  -3   10.66    1.12   4
  -7  -3   2   -0.10    0.60   3
   7   3  -2    0.37    0.52   1
   7   3  -2    0.16    0.31   2
   7   3  -2   -0.76    0.56   4
  -7  -3   1    4.17    0.68   3
   7   3  -1    5.53    0.75   1
   7   3  -1    4.72    0.53   2
   7   3  -1    4.65    0.51   2
   7   3  -1    3.84    0.73   4
  -7  -3   0   47.80    1.48   3
   7   3   0   48.74    1.46   1
   7   3   0   47.72    1.51   1
   7   3   0   45.52    0.98   2
   7   3   0   47.67    0.98   2
   7   3   0   42.99    1.53   4
  -7  -3  -1    5.85    0.67   3
   7   3   1    7.70    0.82   1
   7   3   1    7.34    0.62   2
   7   3   1    6.00    0.56   2
   7   3   1    7.08    0.74   3
   7   3   1    5.42    0.73   4
  -7  -3  -2    4.73    0.56   3
  -7  -3  -2    4.20    0.66   4
   7   3   2    5.90    0.72   1
   7   3   2    4.23    0.47   2
   7   3   2    4.58    0.47   2
   7   3   2    3.40    0.53   3
  -7  -3  -3    0.33    0.34   3
  -7  -3  -3    0.88    0.48   4
   7   3   3    0.23    0.45   1
   7   3   3    0.64    0.36   2
   7   3   3    1.40    0.38   2
   7   3   3    0.64    0.35   3
  -7  -3  -4   62.51    1.37   2
  -7  -3  -4   66.35    1.18   3
  -7  -3  -4   67.45    1.68   4
   7   3   4   68.18    1.73   1
   7   3   4   67.01    1.43   2
   7   3   4   66.04    1.18   3
  -7  -3  -5    2.23    0.53   2
  -7  -3  -5    1.82    0.50   4
   7   3   5    2.06    0.56   1
   7   3   5    1.49    0.50   2
   7   3   5    1.78    0.32   3
   7   3   5    1.52    0.32   3
  -7  -3  -6    4.77    0.66   2
  -7  -3  -6    4.16    0.64   4
   7   3   6    3.69    0.60   1
   7   3   6    4.04    0.64   2
   7   3   6    4.48    0.31   3
   7   3   6    4.51    0.35   3
  -7  -3  -7   10.67    1.00   4
   7   3   7   10.65    1.01   1
   7   3   7    9.07    0.96   2
  -7  -3  -8    0.64    0.59   4
   7   3   8    0.31    0.55   1
   7   3   8   -0.53    0.56   2
  -7  -3  -9    1.39    0.64   4
   7   3   9    1.67    0.70   1
  -7  -3 -10    1.01    0.69   4
   7   3  10    1.31    0.70   1
   7   3  10   -0.47    0.64   2
  -7  -3 -11    6.46    0.97   4
   7   3  11    7.54    0.99   1
   7   3  11    5.95    0.92   2
  -7  -3 -12   -0.96    0.84   4
   7   3  12    0.70    0.90   1
   7   3  12    0.24    0.86   2
  -7  -3 -13    1.01    1.06   4
   7   3  13    0.81    1.02   1
   7   3  13   -1.45    1.01   2
  -7  -4   6   -2.37    1.07   3
   7   4  -6    1.10    0.97   4
  -7  -4   5    0.72    1.00   3
   7   4  -5    3.06    0.79   1
   7   4  -5    0.02    0.88   4
  -7  -4   4    2.02    0.60   2
  -7  -4   4    1.39    0.91   3
   7   4  -4    2.03    0.70   1
   7   4  -4    0.87    0.87   4
  -7  -4   3    3.09    0.80   3
   7   4  -3    3.37    0.71   1
   7   4  -3    3.22    0.77   1
   7   4  -3    2.59    0.55   2
   7   4  -3    1.94    0.84   4
  -7  -4   2    0.77    0.71   3
   7   4  -2    1.23    0.60   1
   7   4  -2    0.76    0.66   1
   7   4  -2    1.32    0.46   2
   7   4  -2    1.41    0.50   2
   7   4  -2    1.50    0.72   4
  -7  -4   1   25.08    1.31   3
   7   4  -1   26.52    1.20   1
   7   4  -1   24.28    1.25   1
   7   4  -1   26.17    0.96   2
   7   4  -1   27.14    1.00   2
  -7  -4   0   28.78    1.28   3
   7   4   0   30.97    1.25   1
   7   4   0   30.52    0.99   2
   7   4   0   29.55    0.99   2
   7   4   0   31.66    1.42   4
  -7  -4  -1   36.34    1.30   3
   7   4   1   37.37    1.31   1
   7   4   1   35.71    1.07   2
   7   4   1   34.99    1.06   2
   7   4   1   34.05    1.27   3
   7   4   1   33.82    1.37   4
  -7  -4  -2    6.53    0.72   3
  -7  -4  -2    5.16    0.68   4
   7   4   2    5.29    0.67   1
   7   4   2    5.69    0.71   2
   7   4   2    6.90    0.71   2
   7   4   2    4.05    0.59   3
  -7  -4  -3   51.53    1.28   3
  -7  -4  -3   49.41    1.51   4
   7   4   3   47.47    1.44   1
   7   4   3   50.79    1.32   2
   7   4   3   51.97    1.30   2
   7   4   3   48.73    1.22   3
  -7  -4  -4   26.03    1.17   4
   7   4   4   27.25    1.22   1
   7   4   4   24.43    1.08   2
   7   4   4   26.54    1.13   2
   7   4   4   26.10    0.89   3
   7   4   4   26.63    0.88   3
  -7  -4  -5    0.30    0.44   4
   7   4   5    0.37    0.52   1
   7   4   5   -0.05    0.43   2
   7   4   5    0.47    0.53   2
   7   4   5    0.58    0.31   3
   7   4   5    0.25    0.31   3
  -7  -4  -6    7.44    0.86   4
   7   4   6    7.37    0.86   1
   7   4   6    8.21    0.93   2
   7   4   6    6.55    0.46   3
   7   4   6    7.04    0.45   3
  -7  -4  -7   23.58    1.19   4
   7   4   7   26.41    1.32   1
   7   4   7   23.52    1.25   2
  -7  -4  -8   -0.30    0.54   4
   7   4   8   -0.55    0.50   1
   7   4   8    0.36    0.61   2
  -7  -4  -9   10.44    1.14   4
   7   4   9    9.95    1.18   1
   7   4   9    8.56    1.01   2
  -7  -4 -10    7.25    0.94   4
   7   4  10    6.97    0.97   1
   7   4  10    5.74    0.99   2
  -7  -4 -11    0.29    0.80   4
   7   4  11    1.36    0.90   1
   7   4  11    0.04    0.80   2
  -7  -4 -12    2.17    0.96   4
   7   4  12    0.66    0.99   1
   7   4  12    0.41    0.94   2
  -7  -4 -13    1.41    1.03   4
   7   4  13    1.31    1.19   1
   7   4  13    0.91    1.04   2
  -7  -5   6    0.90    1.27   3
   7   5  -6   -2.34    1.08   4
  -7  -5   5   -0.45    1.01   3
   7   5  -5    0.54    0.97   4
  -7  -5   4    1.38    0.67   2
  -7  -5   4    0.67    0.86   3
   7   5  -4   -0.72    0.63   1
   7   5  -4    0.78    0.85   4
  -7  -5   3    5.93    0.75   2
  -7  -5   3    6.90    1.02   3
   7   5  -3    7.73    0.84   1
   7   5  -3    6.51    1.03   4
  -7  -5   2    5.07    0.89   3
   7   5  -2    3.46    0.66   1
   7   5  -2    0.73    0.79   1
   7   5  -2    2.62    0.62   2
   7   5  -2    1.82    0.66   2
   7   5  -2    2.68    0.86   4
   7   5  -1    2.12    0.60   1
   7   5  -1    1.75    0.76   1
   7   5  -1    2.46    0.58   2
   7   5  -1    1.88    0.63   2
   7   5  -1    1.64    0.73   4
  -7  -5   0    5.05    0.79   3
   7   5   0    6.36    0.78   1
   7   5   0    6.45    0.80   2
   7   5   0    6.45    0.69   2
   7   5   0    5.26    0.77   4
  -7  -5  -1   18.78    1.15   3
   7   5   1   17.76    1.08   1
   7   5   1   17.03    0.97   2
   7   5   1   16.79    1.00   2
   7   5   1   18.06    1.18   4
   7   5   2   -0.68    0.47   1
   7   5   2    0.82    0.47   2
   7   5   2   -0.11    0.50   2
   7   5   2    0.25    0.48   3
   7   5   2    0.08    0.52   3
   7   5   2   -0.49    0.53   4
  -7  -5  -3    0.76    0.51   4
   7   5   3    0.86    0.50   1
   7   5   3    0.82    0.47   2
   7   5   3    0.44    0.51   2
   7   5   3    1.06    0.47   3
   7   5   3    1.07    0.49   3
  -7  -5  -4   43.58    1.43   4
   7   5   4   43.48    1.53   1
   7   5   4   43.58    1.42   2
   7   5   4   42.59    1.41   2
   7   5   4   42.88    1.20   3
   7   5   4   41.57    1.14   3
  -7  -5  -5   22.08    1.17   4
   7   5   5   22.00    1.24   1
   7   5   5   23.59    1.19   2
   7   5   5   24.05    0.89   3
   7   5   5   22.26    0.86   3
  -7  -5  -6   14.17    1.01   4
   7   5   6   12.51    1.01   1
   7   5   6   11.25    1.04   2
   7   5   6   12.54    0.66   3
   7   5   6   11.69    0.65   3
  -7  -5  -7   12.17    1.05   4
   7   5   7   14.50    1.20   1
   7   5   7   12.57    1.18   2
   7   5   7   14.37    0.56   3
   7   5   7   12.49    0.53   3
  -7  -5  -8   -0.30    0.54   4
   7   5   8    0.38    0.64   1
   7   5   8    0.54    0.74   2
  -7  -5  -9    4.01    0.83   1
  -7  -5  -9    2.66    0.73   4
   7   5   9    2.57    0.84   2
  -7  -5 -10    0.98    0.86   1
   7   5  10    0.67    0.78   2
  -7  -5 -11    1.11    0.88   1
  -7  -5 -11    2.31    0.89   4
   7   5  11    1.44    0.90   2
  -7  -5 -12    2.60    1.12   1
  -7  -5 -12    3.76    1.02   4
   7   5  12    2.94    1.11   2
  -7  -5 -13    3.86    1.32   1
  -7  -5 -13    3.08    1.24   4
   7   5  13    0.97    1.21   2
  -7  -6   5    1.64    1.10   3
   7   6  -5   -0.07    1.16   4
  -7  -6   4    3.53    0.89   2
  -7  -6   4    2.54    1.02   3
   7   6  -4    2.50    1.08   4
  -7  -6   3    0.05    0.71   2
  -7  -6   3    1.15    0.93   3
   7   6  -3   -0.33    0.62   1
   7   6  -3    0.48    0.85   4
  -7  -6   2    1.95    0.86   3
   7   6  -2    2.27    0.69   1
   7   6  -2    2.19    0.73   2
   7   6  -2    0.40    0.82   4
   7   6  -1    2.77    0.67   1
   7   6  -1    2.68    0.67   2
   7   6  -1    2.78    0.83   3
   7   6  -1    2.70    0.75   4
   7   6   0    5.77    0.75   1
   7   6   0    5.73    0.77   2
   7   6   1    8.43    0.94   1
   7   6   1    7.35    0.81   2
   7   6   1    7.77    0.91   3
   7   6   1    8.93    0.91   4
   7   6   2   10.62    0.99   1
   7   6   2    9.39    0.98   2
   7   6   2   10.26    1.01   3
   7   6   2    9.17    1.01   4
   7   6   3   13.10    1.08   1
   7   6   3   14.31    1.05   2
   7   6   3   13.03    1.01   3
   7   6   3   12.59    1.02   3
   7   6   3   14.35    1.09   4
  -7  -6  -4   26.00    1.26   4
   7   6   4   26.88    1.36   1
   7   6   4   25.93    1.28   2
   7   6   4   25.42    1.14   3
   7   6   4   24.09    1.10   3
  -7  -6  -5   -0.01    0.49   4
   7   6   5    1.05    0.63   2
   7   6   5    1.15    0.47   3
   7   6   5   -0.18    0.46   3
  -7  -6  -6    2.95    0.66   4
   7   6   6    2.18    0.68   1
   7   6   6    3.18    0.75   2
   7   6   6    2.48    0.50   3
   7   6   6    1.61    0.48   3
  -7  -6  -7    8.31    1.00   4
   7   6   7    7.04    0.90   1
   7   6   7    5.24    0.86   2
   7   6   7    5.82    0.68   3
   7   6   7    6.42    0.65   3
  -7  -6  -8    0.89    0.72   1
  -7  -6  -8    2.06    0.64   4
   7   6   8    0.90    0.79   2
  -7  -6  -9   11.35    1.27   1
  -7  -6  -9   12.11    1.23   4
   7   6   9   13.44    1.49   2
  -7  -6 -10    6.66    1.17   1
  -7  -6 -10    4.62    0.93   4
   7   6  10    4.21    0.99   2
  -7  -6 -11    1.00    0.98   1
  -7  -6 -11   -0.62    0.83   4
   7   6  11   -2.24    0.92   2
  -7  -6 -12    3.17    1.18   1
  -7  -6 -12    1.29    1.01   4
   7   6  12    1.18    1.05   2
  -7  -7   4    0.61    0.99   2
   7   7  -4    1.65    1.29   3
   7   7  -4   -0.67    1.10   4
  -7  -7   3    3.28    0.99   2
   7   7  -3    4.71    1.15   3
   7   7  -3    4.28    1.08   4
   7   7  -2   -0.87    0.68   1
   7   7  -2    0.16    0.79   2
   7   7  -2   -0.67    0.76   3
   7   7  -2   -0.10    0.80   4
   7   7  -1    0.28    0.60   1
   7   7  -1   -0.08    0.69   2
   7   7  -1    0.47    0.85   3
   7   7  -1   -0.35    0.76   4
   7   7   0    2.36    0.70   1
   7   7   0    2.36    0.76   2
   7   7   0    2.30    0.83   3
   7   7   0    2.53    0.78   4
   7   7   1   10.34    1.07   1
   7   7   1   10.25    1.16   2
   7   7   1   10.80    1.08   4
   7   7   2   -0.69    0.55   1
   7   7   2   -0.77    0.61   2
   7   7   2   -0.15    0.63   3
   7   7   2   -0.02    0.59   4
   7   7   3   12.30    1.15   1
   7   7   3   11.02    1.10   2
   7   7   3   12.20    1.07   3
   7   7   3   10.52    1.08   4
   7   7   4   22.35    1.38   1
   7   7   4   21.87    1.38   2
   7   7   4   23.21    1.22   3
   7   7   4   23.06    1.28   3
   7   7   4   23.60    1.27   4
  -7  -7  -5   17.81    1.18   4
   7   7   5   14.56    1.25   1
   7   7   5   16.57    1.36   2
   7   7   5   18.25    1.10   3
   7   7   5   16.60    1.13   3
  -7  -7  -6    3.89    0.69   4
   7   7   6    4.87    0.86   2
   7   7   6    4.33    0.65   3
   7   7   6    4.92    0.66   3
  -7  -7  -7    6.08    0.98   1
  -7  -7  -7    5.20    0.75   4
   7   7   7    6.22    1.01   2
   7   7   7    5.06    0.65   3
  -7  -7  -8    1.85    0.80   1
  -7  -7  -8    1.08    0.67   4
   7   7   8    0.73    0.80   2
   7   7   8    2.21    0.53   3
  -7  -7  -9    0.81    0.88   1
  -7  -7  -9    1.66    0.70   4
   7   7   9    1.24    0.90   2
  -7  -7 -10    1.37    1.10   1
  -7  -7 -10    2.56    0.81   4
   7   7  10    2.65    1.09   2
  -7  -7 -11   -0.87    1.01   1
  -7  -7 -11    0.23    0.86   4
   7   7  11   -0.35    1.14   2
  -7  -7 -12    1.99    1.33   1
  -7  -7 -12    3.59    1.18   4
   7   7  12    2.43    1.25   2
  -7  -8   3   -0.13    1.06   2
   7   8  -3    0.44    1.17   3
   7   8  -3    1.66    1.25   4
   7   8  -2    0.62    0.99   2
   7   8  -2    0.32    1.06   3
   7   8  -2   -0.98    0.94   4
   7   8  -1    0.95    0.76   1
   7   8  -1    0.57    0.91   2
   7   8  -1    1.14    1.00   3
   7   8  -1    1.82    0.91   4
   7   8   0    6.40    0.92   1
   7   8   0    7.94    1.10   2
   7   8   0    6.06    1.05   3
   7   8   0    6.74    1.05   4
   7   8   1    1.52    0.74   1
   7   8   1    1.45    0.79   2
   7   8   1    0.97    0.79   3
   7   8   1    2.15    0.84   4
   7   8   2    0.68    0.78   2
   7   8   2    1.75    0.81   3
   7   8   2    1.32    0.74   4
   7   8   3    0.48    0.72   1
   7   8   3   -0.02    0.75   2
   7   8   3    0.85    0.72   3
   7   8   3    1.43    0.68   4
   7   8   4   10.07    1.24   1
   7   8   4   10.27    1.11   2
   7   8   4    8.39    0.94   3
   7   8   4    9.93    1.19   4
   7   8   5    0.92    0.76   1
   7   8   5    1.38    0.85   2
   7   8   5    0.44    0.65   3
   7   8   5    0.08    0.65   4
  -7  -8  -6   -0.01    0.82   1
   7   8   6    1.85    0.84   2
   7   8   6    0.10    0.65   3
   7   8   6    0.05    0.65   4
  -7  -8  -7    9.12    1.22   1
  -7  -8  -7    7.17    0.87   4
   7   8   7    9.02    1.17   2
   7   8   7    9.27    1.09   3
  -7  -8  -8    0.32    0.92   1
  -7  -8  -8   -1.33    0.66   4
   7   8   8   -1.84    0.78   2
   7   8   8   -0.02    0.66   3
  -7  -8  -9    1.92    1.05   1
  -7  -8  -9    2.08    0.78   4
   7   8   9   -0.25    0.94   2
  -7  -8 -10    0.03    1.10   1
   7   8  10    0.86    1.12   2
  -7  -8 -11    2.06    1.32   1
   7   8  11   -0.10    1.28   2
   7   9  -1   -2.03    1.05   2
   7   9  -1   -0.56    1.16   3
   7   9  -1    2.56    1.07   4
   7   9   0    2.88    0.90   1
   7   9   0    3.75    1.14   2
   7   9   0    4.75    1.14   3
   7   9   0    2.72    1.00   4
   7   9   1    0.82    0.80   1
   7   9   1    0.06    0.96   2
   7   9   1    0.96    0.98   3
   7   9   1    0.52    0.91   4
   7   9   2    7.70    1.05   1
   7   9   2    7.94    1.18   2
   7   9   2    7.22    1.09   3
   7   9   3    6.89    1.09   1
   7   9   3    5.55    1.10   2
   7   9   3    6.30    1.11   3
   7   9   3    6.02    0.93   4
   7   9   4   -0.03    0.84   1
   7   9   4   -0.15    0.94   2
   7   9   4    0.53    0.88   3
   7   9   4   -0.24    0.71   4
   7   9   5   -0.38    0.85   2
   7   9   5    0.16    0.78   3
   7   9   5    1.16    0.71   4
  -7  -9  -6    0.62    0.98   1
   7   9   6   -0.02    0.94   2
   7   9   6    0.36    0.81   3
   7   9   6    0.33    0.72   4
  -7  -9  -7    2.07    1.12   1
   7   9   7    1.23    1.07   2
   7   9   7    0.28    0.79   3
   7   9   7    0.67    0.74   4
  -7  -9  -8    0.13    1.09   1
   7   9   8    1.93    1.19   2
  -7  -9  -9    1.10    1.26   1
   7   9   9   -0.77    1.14   2
   7  10   1    1.24    0.99   1
   7  10   1    2.77    1.23   2
   7  10   1    1.57    1.20   3
   7  10   1    3.81    1.09   4
   7  10   2    2.62    1.05   1
   7  10   2   -0.68    1.17   2
   7  10   2    0.97    1.08   3
   7  10   2    0.92    0.99   4
   7  10   3    3.18    1.08   1
   7  10   3    2.54    1.14   2
   7  10   3    4.19    1.18   3
   7  10   4   -0.23    1.01   1
   7  10   4   -0.72    0.98   2
   7  10   4    0.14    0.98   3
  -7 -10  -5    1.42    1.16   1
   7  10   5    1.20    1.11   2
   7  10   5   -0.17    0.99   3
  -7 -10  -6   -0.24    1.16   1
   7  10   6    1.60    1.24   2
   7  10   6    0.29    0.98   3
  -7 -10  -7    0.00    1.26   1
   7  10   7    1.32    1.20   2
   7  10   7    1.66    1.05   3
  -8   7   0    1.64    1.20   3
   8  -7   0   -0.03    1.12   1
  -8   7  -1    0.52    1.14   3
  -8   7  -1    0.09    0.88   4
   8  -7   1    1.28    1.15   1
  -8   7  -2    0.15    1.08   3
  -8   7  -2   -0.26    0.89   4
   8  -7   2    1.23    1.07   1
  -8   7  -3    2.59    1.17   3
  -8   7  -3    2.66    0.99   4
   8  -7   3    3.41    1.15   1
   8  -7   3    3.53    0.92   2
  -8   7  -4    9.80    1.36   3
  -8   7  -4   12.19    1.35   4
   8  -7   4   11.26    1.41   1
   8  -7   4    9.16    1.15   2
  -8   7  -5    3.19    1.16   3
  -8   7  -5    2.28    1.05   4
   8  -7   5    3.92    1.13   1
   8  -7   5    3.85    1.14   2
  -8   7  -6    4.53    1.29   3
  -8   7  -6    6.39    1.31   4
   8  -7   6    6.23    1.31   1
   8  -7   6    9.83    1.38   2
  -8   6   2    7.13    1.48   3
   8  -6  -2    2.96    1.10   1
   8  -6  -2    3.43    1.06   4
  -8   6   1    1.60    1.09   3
   8  -6  -1   -0.82    0.98   1
   8  -6  -1    0.06    0.91   4
  -8   6   0    7.36    1.24   3
   8  -6   0    5.52    1.18   1
   8  -6   0    5.77    1.08   4
  -8   6  -1    3.23    1.12   3
  -8   6  -1    4.15    0.87   4
   8  -6   1    3.32    1.06   1
  -8   6  -2    3.79    1.08   3
  -8   6  -2    1.31    0.83   4
   8  -6   2    0.91    0.96   1
   8  -6   2    1.16    0.67   2
  -8   6  -3    0.23    0.91   3
  -8   6  -3    2.73    0.84   4
   8  -6   3   -0.10    0.89   1
   8  -6   3   -0.13    0.70   2
  -8   6  -4    5.95    1.07   3
  -8   6  -4    5.47    0.96   4
   8  -6   4    4.72    1.04   1
   8  -6   4    5.46    0.94   2
  -8   6  -5    7.34    1.19   3
  -8   6  -5    7.87    1.10   4
   8  -6   5    6.60    1.13   1
  -8   6  -6    1.62    0.96   3
  -8   6  -6    1.19    1.00   4
   8  -6   6    0.64    0.98   1
   8  -6   6    2.61    0.94   2
  -8   6  -7    7.56    1.23   3
  -8   6  -7   15.48    1.86   4
   8  -6   7   15.22    1.68   1
   8  -6   7   15.21    1.77   2
  -8   6  -8    2.51    1.07   3
  -8   6  -8    3.74    1.26   4
   8  -6   8    1.86    1.06   1
   8  -6   8    1.66    1.10   2
  -8   5   4    2.75    1.36   3
   8  -5  -4    4.83    1.21   1
   8  -5  -4    3.62    1.21   4
  -8   5   3    3.61    1.21   3
   8  -5  -3    1.76    1.05   1
   8  -5  -3    2.10    1.10   4
  -8   5   2    1.05    1.10   3
   8  -5  -2    0.46    0.91   1
   8  -5  -2    0.87    0.95   4
  -8   5   1    0.50    0.90   3
   8  -5  -1   -0.56    0.78   1
   8  -5  -1   -0.26    0.84   4
  -8   5   0    3.53    0.99   3
  -8   5   0    1.31    0.80   4
   8  -5   0    1.75    0.88   1
  -8   5  -1    2.04    0.92   3
  -8   5  -1    0.08    0.74   4
   8  -5   1    0.89    0.73   1
  -8   5  -2    5.02    1.01   3
  -8   5  -2    5.00    0.83   4
   8  -5   2    3.30    0.92   1
   8  -5   2    4.45    0.63   2
  -8   5  -3    2.42    0.87   3
  -8   5  -3    1.95    0.74   4
   8  -5   3    1.73    0.83   1
   8  -5   3    1.93    0.64   2
  -8   5  -4   14.97    1.32   3
  -8   5  -4   17.03    1.35   4
   8  -5   4   15.06    1.41   1
   8  -5   4   16.35    1.23   2
  -8   5  -5   -0.40    0.70   4
   8  -5   5   -0.07    0.83   1
   8  -5   5    0.35    0.70   2
  -8   5  -6    3.10    0.86   3
  -8   5  -6    3.02    0.92   4
   8  -5   6    2.68    0.98   1
  -8   5  -7    3.39    0.89   3
  -8   5  -7    3.45    1.08   4
   8  -5   7    2.23    0.92   1
   8  -5   7    2.00    0.88   2
  -8   5  -8    3.78    0.96   3
  -8   5  -8    7.61    1.19   4
   8  -5   8    5.33    1.15   1
   8  -5   8    6.26    1.14   2
  -8   5  -9   -0.34    1.03   4
   8  -5   9   -2.57    0.96   1
   8  -5   9   -1.05    0.95   2
  -8   4   4    6.34    1.35   3
   8  -4  -4    6.60    1.24   1
   8  -4  -4    7.11    1.27   4
  -8   4   3    4.62    1.20   3
   8  -4  -3    4.38    1.14   1
   8  -4  -3    3.11    1.04   4
  -8   4   2    4.67    1.08   3
   8  -4  -2    4.96    1.06   1
   8  -4  -2    3.25    0.94   4
  -8   4   1    6.11    1.06   3
   8  -4  -1    5.15    1.03   1
   8  -4  -1    5.03    0.93   4
  -8   4   0    1.05    0.83   3
  -8   4   0    0.83    0.70   4
   8  -4   0    0.56    0.71   1
  -8   4  -1    2.05    0.81   3
   8  -4   1    1.39    0.70   1
   8  -4   2    0.00    0.67   1
   8  -4   2   -0.11    0.40   2
  -8   4  -3    2.64    0.75   3
   8  -4   3    2.15    0.79   1
   8  -4   3    2.93    0.57   2
  -8   4  -4    1.24    0.68   3
  -8   4  -4    1.29    0.63   4
   8  -4   4   -1.30    0.61   1
   8  -4   4    0.03    0.53   2
  -8   4  -5   10.47    1.14   3
  -8   4  -5    8.32    0.96   4
   8  -4   5   10.36    1.24   1
   8  -4   5   10.03    1.02   2
  -8   4  -6    0.19    0.61   3
  -8   4  -6    1.04    0.75   4
   8  -4   6    0.59    0.74   1
   8  -4   6    0.40    0.64   2
  -8   4  -7    5.27    0.82   3
  -8   4  -7    7.86    1.09   4
   8  -4   7    9.18    1.11   1
  -8   4  -8    0.13    0.66   3
  -8   4  -8    0.96    0.85   4
   8  -4   8    0.93    0.85   1
   8  -4   8    0.62    0.77   2
  -8   4  -9    3.86    1.11   4
   8  -4   9    1.90    0.93   1
   8  -4   9    1.10    0.87   2
  -8   4 -10   -0.91    0.98   4
   8  -4  10   -0.57    0.91   1
   8  -4  10    0.33    0.99   2
  -8   4 -11    0.17    1.13   4
   8  -4  11    0.34    1.15   2
  -8   3   5    2.51    1.36   3
   8  -3  -5    1.91    1.09   1
   8  -3  -5    0.66    1.14   4
  -8   3   4    9.89    1.34   3
   8  -3  -4    6.91    1.28   1
   8  -3  -4    5.21    1.17   4
  -8   3   3    2.74    1.01   3
   8  -3  -3    4.35    0.99   1
   8  -3  -3    3.74    1.01   4
  -8   3   2    2.57    0.93   3
   8  -3  -2    3.27    0.94   1
   8  -3  -2    2.90    0.89   4
  -8   3   1    6.33    1.00   3
   8  -3  -1    3.93    0.86   1
   8  -3  -1    4.57    0.87   4
  -8   3   0   16.59    1.33   3
   8  -3   0   14.29    1.27   1
  -8   3  -1    0.51    0.59   3
  -8   3  -1   -0.59    0.66   4
   8  -3   1   -0.67    0.59   1
  -8   3  -2    5.87    0.81   3
  -8   3  -2    5.00    0.76   4
   8  -3   2    6.39    0.95   1
   8  -3   2    5.05    0.46   2
  -8   3  -3    3.71    0.54   2
  -8   3  -3    4.54    0.75   3
  -8   3  -3    3.81    0.74   4
   8  -3   3    2.89    0.80   1
   8  -3   3    4.76    0.53   2
  -8   3  -4    3.68    0.61   2
  -8   3  -4    3.76    0.71   3
   8  -3   4    3.50    0.81   1
   8  -3   4    3.28    0.54   2
   8  -3   4    3.45    0.87   3
  -8   3  -5    0.50    0.61   2
  -8   3  -5    0.36    0.54   3
  -8   3  -5   -0.55    0.56   4
   8  -3   5    0.32    0.65   1
   8  -3   5   -0.65    0.50   2
   8  -3   5    0.65    0.68   3
  -8   3  -6    0.75    0.53   3
  -8   3  -6    0.06    0.63   4
   8  -3   6   -0.53    0.65   1
   8  -3   6   -0.08    0.56   2
   8  -3   6    0.63    0.64   3
  -8   3  -7    8.52    0.93   3
  -8   3  -7    8.79    1.06   4
   8  -3   7   10.00    1.11   1
   8  -3   7    9.06    1.09   2
   8  -3   7   10.15    1.04   3
  -8   3  -8    2.73    0.60   3
  -8   3  -8    3.56    0.87   4
   8  -3   8    3.49    0.88   1
   8  -3   8    4.89    0.84   2
  -8   3  -9    0.59    0.88   4
   8  -3   9   -2.11    0.77   1
   8  -3   9    0.52    0.74   2
  -8   3 -10    1.10    0.84   4
   8  -3  10    0.37    0.87   1
   8  -3  10    1.73    0.91   2
  -8   3 -11   -1.02    1.09   4
   8  -3  11   -0.89    0.92   1
   8  -3  11    1.46    1.00   2
  -8   2   5   11.55    1.50   3
   8  -2  -5   11.80    1.42   1
   8  -2  -5    7.32    1.28   4
  -8   2   4    3.29    1.03   3
   8  -2  -4    1.56    0.99   1
   8  -2  -4    3.30    1.06   4
  -8   2   3   -0.04    0.90   3
   8  -2  -3    0.38    0.80   1
   8  -2  -3    0.24    0.80   4
  -8   2   2    1.81    0.85   3
   8  -2  -2   -0.15    0.71   1
   8  -2  -2    1.37    0.80   4
  -8   2   1    3.56    0.81   3
   8  -2  -1    3.67    0.83   1
   8  -2  -1    3.22    0.79   4
  -8   2   0    1.86    0.69   3
   8  -2   0    0.95    0.69   1
  -8   2  -1    1.53    0.62   3
  -8   2  -1    1.65    0.65   4
   8  -2   1    1.17    0.64   1
  -8   2  -2    0.11    0.26   2
  -8   2  -2    0.30    0.51   3
  -8   2  -2    0.54    0.58   4
   8  -2   2    0.27    0.63   1
   8  -2   2    0.06    0.24   2
  -8   2  -3   20.38    0.79   2
  -8   2  -3   19.44    1.12   3
  -8   2  -3   18.47    1.19   4
   8  -2   3   18.45    1.26   1
   8  -2   3   19.29    0.78   2
   8  -2   3   17.94    1.17   3
  -8   2  -4   -0.50    0.43   2
  -8   2  -4    0.10    0.46   3
  -8   2  -4    0.15    0.55   4
   8  -2   4    0.04    0.39   2
   8  -2   4   -0.14    0.60   3
  -8   2  -5   -0.25    0.53   2
  -8   2  -5    0.13    0.47   3
   8  -2   5    0.65    0.44   2
   8  -2   5    0.15    0.59   3
  -8   2  -6   -0.22    0.61   2
  -8   2  -6    0.35    0.45   3
  -8   2  -6   -0.03    0.60   4
   8  -2   6   -0.01    0.49   2
   8  -2   6    0.20    0.51   3
  -8   2  -7    3.19    0.54   3
  -8   2  -7    3.85    0.80   4
   8  -2   7    3.43    0.69   2
   8  -2   7    3.99    0.58   3
  -8   2  -8    2.54    0.49   3
  -8   2  -8    2.58    0.81   4
   8  -2   8    2.55    0.78   1
   8  -2   8    3.82    0.77   2
  -8   2  -9    8.33    1.09   4
   8  -2   9    7.28    1.05   1
   8  -2   9    6.42    0.95   2
  -8   2 -10   12.15    1.48   4
   8  -2  10   13.45    1.28   1
   8  -2  10    9.22    1.13   2
  -8   2 -11   -2.40    0.89   4
   8  -2  11    1.32    1.01   1
   8  -2  11   -0.77    0.92   2
  -8   2 -12    0.83    1.22   4
   8  -2  12    2.30    1.10   1
   8  -2  12   -1.11    1.07   2
  -8   1   6    2.67    1.43   3
   8  -1  -6    2.67    1.18   1
   8  -1  -6    1.23    1.23   4
  -8   1   5    1.25    1.21   3
   8  -1  -5    0.56    1.00   1
   8  -1  -5    1.41    1.05   4
  -8   1   4    7.29    1.22   3
   8  -1  -4    6.12    1.07   1
   8  -1  -4    6.74    1.14   4
  -8   1   3   -0.25    0.78   3
   8  -1  -3    1.59    0.79   1
   8  -1  -3    0.17    0.78   4
  -8   1   2    3.22    0.89   3
   8  -1  -2    3.18    0.87   1
   8  -1  -2    1.90    0.80   4
  -8   1   1    2.20    0.74   3
   8  -1  -1    1.01    0.68   1
   8  -1  -1    2.90    0.80   4
  -8   1   0   10.80    1.12   3
   8  -1   0    9.05    1.10   1
  -8   1  -1   13.65    1.12   3
  -8   1  -1   13.22    1.10   4
  -8   1  -2   -0.09    0.21   2
  -8   1  -2   -0.03    0.50   3
  -8   1  -2    0.50    0.52   4
   8  -1   2    0.01    0.20   2
   8  -1   2    0.56    0.66   3
  -8   1  -3    5.48    0.53   2
  -8   1  -3   10.03    0.91   3
  -8   1  -3    9.85    1.00   4
   8  -1   3    9.43    1.03   1
   8  -1   3    8.84    0.60   2
   8  -1   3   10.68    1.01   3
  -8   1  -4    6.00    0.68   2
  -8   1  -4    9.25    0.80   3
  -8   1  -4    9.75    1.03   4
   8  -1   4   11.84    1.08   1
   8  -1   4    8.84    0.71   2
   8  -1   4   10.58    0.90   3
  -8   1  -5    1.00    0.49   2
  -8   1  -5    0.57    0.40   3
  -8   1  -5    0.21    0.51   4
   8  -1   5    0.45    0.59   1
   8  -1   5    0.95    0.43   2
   8  -1   5    1.44    0.51   3
  -8   1  -6    3.89    0.67   2
  -8   1  -6    1.60    0.42   3
  -8   1  -6    2.49    0.71   4
   8  -1   6    3.50    0.76   1
   8  -1   6    2.11    0.57   2
   8  -1   6    2.40    0.49   3
  -8   1  -7    0.72    0.34   3
  -8   1  -7    0.88    0.64   4
   8  -1   7    0.57    0.56   2
   8  -1   7    0.69    0.39   3
  -8   1  -8    3.85    0.43   3
  -8   1  -8    7.56    0.96   4
   8  -1   8    7.68    1.01   1
   8  -1   8    6.71    0.88   2
  -8   1  -9   -0.31    0.71   4
   8  -1   9    0.84    0.75   1
   8  -1   9   -0.01    0.64   2
  -8   1 -10    9.91    1.16   4
   8  -1  10   12.75    1.35   1
   8  -1  10   11.45    1.24   2
  -8   1 -11    7.37    1.08   4
   8  -1  11    8.40    1.16   1
   8  -1  11    9.17    1.19   2
  -8   1 -12    5.32    1.27   4
   8  -1  12    3.31    1.11   1
   8  -1  12    3.71    1.15   2
  -8   0   6   -0.95    1.15   3
   8   0  -6    0.60    1.07   1
   8   0  -6    0.79    1.14   4
  -8   0   5    4.12    1.27   3
   8   0  -5    7.11    1.16   1
   8   0  -5    6.40    1.24   4
  -8   0   4    4.97    1.17   3
   8   0  -4    3.77    0.95   1
   8   0  -4    2.84    0.96   4
  -8   0   3    4.18    1.05   3
   8   0  -3    3.29    0.87   1
   8   0  -3    2.55    0.82   4
  -8   0   2    3.60    0.82   3
   8   0  -2    2.82    0.77   1
   8   0  -2    4.15    0.87   4
   8   0  -1    1.41    0.69   1
   8   0  -1    1.83    0.70   4
  -8   0   0    1.09    0.63   3
   8   0   0    0.32    0.60   4
  -8   0  -1    7.91    0.85   3
  -8   0  -1    8.32    0.93   4
   8   0   1    7.53    0.88   1
  -8   0  -2    0.82    0.48   3
  -8   0  -2   -0.24    0.55   4
   8   0   2    1.08    0.59   1
   8   0   2    0.42    0.22   2
   8   0   2    0.64    0.22   2
   8   0   2    0.16    0.61   3
  -8   0  -3   16.46    0.68   2
  -8   0  -3   23.83    1.05   3
  -8   0  -3   23.49    1.24   4
   8   0   3   21.99    1.17   1
   8   0   3   22.81    0.76   2
   8   0   3   24.24    1.10   3
  -8   0  -4   12.11    0.74   2
  -8   0  -4   16.92    0.87   3
  -8   0  -4   20.41    1.14   4
   8   0   4   21.04    1.24   1
   8   0   4   19.35    0.86   2
   8   0   4   19.67    0.95   3
  -8   0  -5    2.04    0.48   2
  -8   0  -5    2.65    0.43   3
  -8   0  -5    3.55    0.70   4
   8   0   5    3.22    0.69   1
   8   0   5    3.19    0.54   2
   8   0   5    2.99    0.47   3
  -8   0  -6    6.70    0.71   2
  -8   0  -6    8.21    0.58   3
   8   0   6    8.13    0.97   1
   8   0   6    6.89    0.73   2
   8   0   6    7.96    0.66   3
  -8   0  -7    0.55    0.23   3
  -8   0  -7    0.13    0.60   4
   8   0   7    1.02    0.57   2
   8   0   7    0.53    0.27   3
  -8   0  -8    0.55    0.61   4
   8   0   8   -1.58    0.70   1
   8   0   8   -0.02    0.58   2
  -8   0  -9    5.98    0.90   4
   8   0   9   11.21    1.21   1
  -8   0 -10    2.85    0.85   4
   8   0  10    2.81    0.87   1
   8   0  10    1.68    0.82   2
  -8   0 -11    6.76    1.05   4
   8   0  11    9.17    1.16   1
   8   0  11    8.29    1.15   2
  -8   0 -12    0.23    1.06   4
   8   0  12    2.95    1.04   1
   8   0  12    1.86    1.06   2
  -8   0 -13    6.18    1.37   4
   8   0  13    6.30    1.28   1
   8   0  13    7.05    1.39   2
  -8  -1   6    1.54    1.27   3
   8   1  -6    0.88    1.08   1
   8   1  -6    0.16    1.07   4
  -8  -1   5    2.34    1.19   3
   8   1  -5    2.23    0.95   1
   8   1  -5    2.30    1.09   4
  -8  -1   4    0.92    0.88   3
   8   1  -4    0.98    0.83   1
   8   1  -4    0.07    0.88   4
  -8  -1   3    3.74    0.99   3
   8   1  -3    3.98    0.89   1
   8   1  -3    3.46    0.92   4
  -8  -1   2    2.87    0.77   3
   8   1  -2    2.29    0.75   4
  -8  -1   1   23.89    1.49   3
   8   1  -1   23.69    1.36   1
   8   1  -1   24.37    1.41   4
  -8  -1   0    6.32    0.86   3
   8   1   0    6.73    0.85   1
   8   1   0    6.28    0.84   4
  -8  -1  -1   14.39    1.07   3
  -8  -1  -1   11.53    1.02   4
   8   1   1   15.58    1.15   1
  -8  -1  -2    8.91    0.88   3
  -8  -1  -2    8.96    0.98   4
   8   1   2    6.89    0.85   1
   8   1   2    7.38    0.48   2
   8   1   2    7.57    0.47   2
   8   1   2    7.94    0.83   3
  -8  -1  -3    1.42    0.47   3
  -8  -1  -3    0.62    0.50   4
   8   1   3    0.40    0.56   1
   8   1   3    1.46    0.36   2
   8   1   3    1.54    0.55   3
  -8  -1  -4    7.07    0.69   2
  -8  -1  -4    7.00    0.70   3
  -8  -1  -4    9.24    0.96   4
   8   1   4    9.50    1.01   1
   8   1   4    9.49    0.73   2
   8   1   4   10.37    0.79   3
  -8  -1  -5    1.87    0.49   2
  -8  -1  -5    2.08    0.39   3
  -8  -1  -5    2.12    0.63   4
   8   1   5    2.33    0.66   1
   8   1   5    2.50    0.51   2
   8   1   5    2.75    0.45   3
  -8  -1  -6   16.77    1.03   2
  -8  -1  -6   16.24    1.18   4
   8   1   6   17.59    1.17   1
   8   1   6   16.38    1.03   2
   8   1   6   17.02    0.63   3
   8   1   7   11.19    1.01   2
  -8  -1  -8    2.32    0.73   4
   8   1   8    2.38    0.74   1
   8   1   8    1.91    0.66   2
  -8  -1  -9    1.60    0.68   4
   8   1   9    2.53    0.77   1
  -8  -1 -10    0.33    0.74   4
   8   1  10    1.93    0.78   1
   8   1  10    1.05    0.75   2
  -8  -1 -11    0.13    0.87   4
   8   1  11    1.87    0.91   1
   8   1  11    0.63    0.84   2
  -8  -1 -12    3.90    1.11   4
   8   1  12    7.02    1.17   1
   8   1  12    4.84    1.11   2
  -8  -1 -13   -2.26    1.07   4
   8   1  13    3.26    1.16   1
   8   1  13    1.71    1.17   2
  -8  -2   6    4.97    1.47   3
   8   2  -6    1.55    1.11   1
   8   2  -6    2.79    1.20   4
  -8  -2   5    2.20    1.14   3
   8   2  -5    1.09    0.90   1
   8   2  -5    0.79    1.07   4
  -8  -2   4    4.67    1.07   3
   8   2  -4    4.95    0.95   1
   8   2  -4    3.47    1.04   4
  -8  -2   3   -0.43    0.81   3
   8   2  -3   -0.93    0.83   4
  -8  -2   2    0.59    0.72   3
   8   2  -2    0.23    0.65   1
   8   2  -2    1.48    0.69   4
   8   2  -1    1.06    0.61   1
   8   2  -1   -0.15    0.64   4
  -8  -2   0   10.49    1.10   3
   8   2   0   11.37    1.04   1
   8   2   0   11.25    1.16   4
  -8  -2  -1    4.73    0.72   3
   8   2   1    4.84    0.70   1
   8   2   1    5.98    0.46   2
   8   2   1    4.81    0.46   2
  -8  -2  -2   58.01    1.48   3
  -8  -2  -2   56.15    1.75   4
   8   2   2   60.70    1.78   1
   8   2   2   55.20    1.05   2
   8   2   2   58.37    1.05   2
   8   2   2   55.64    1.53   3
  -8  -2  -3   29.75    1.06   3
  -8  -2  -3   31.01    1.32   4
   8   2   3   30.97    1.36   1
   8   2   3   27.78    0.94   2
   8   2   3   31.69    0.93   2
   8   2   3   29.99    1.14   3
  -8  -2  -4    3.00    0.51   2
  -8  -2  -4    2.77    0.46   3
  -8  -2  -4    3.46    0.63   4
   8   2   4    3.22    0.67   1
   8   2   4    3.45    0.53   2
   8   2   4    3.08    0.53   3
  -8  -2  -5   12.13    0.92   2
  -8  -2  -5   13.56    0.67   3
  -8  -2  -5   19.79    1.20   4
   8   2   5   18.72    1.10   1
   8   2   5   15.49    0.95   2
   8   2   5   16.93    0.77   3
  -8  -2  -6    1.59    0.59   2
  -8  -2  -6    1.84    0.27   3
  -8  -2  -6    2.29    0.64   4
   8   2   6    1.91    0.61   1
   8   2   6    1.20    0.55   2
   8   2   6    2.63    0.33   3
   8   2   7    5.35    0.74   2
  -8  -2  -8    0.62    0.63   4
   8   2   8    1.08    0.68   1
   8   2   8   -0.32    0.57   2
  -8  -2  -9   12.29    1.17   4
   8   2   9   11.81    1.25   1
  -8  -2 -10    0.99    0.81   4
   8   2  10    2.10    0.83   1
   8   2  10    0.79    0.76   2
  -8  -2 -11    1.10    0.85   4
   8   2  11    1.62    0.86   1
   8   2  11    1.11    0.88   2
  -8  -2 -12    0.21    0.99   4
   8   2  12    0.82    1.05   1
   8   2  12    0.09    0.94   2
  -8  -2 -13    1.34    1.02   4
   8   2  13    3.07    1.27   1
   8   2  13    1.18    1.13   2
  -8  -3   5    1.85    1.16   3
   8   3  -5    2.12    1.01   4
  -8  -3   4    0.15    0.92   3
   8   3  -4   -0.35    0.90   4
  -8  -3   3    7.42    1.08   3
   8   3  -3    7.61    0.99   1
   8   3  -3    6.69    0.98   4
  -8  -3   2    1.11    0.76   3
   8   3  -2    0.42    0.68   1
   8   3  -2   -0.04    0.27   2
   8   3  -2    0.33    0.74   4
  -8  -3   1    5.71    0.88   3
   8   3  -1    5.78    0.83   1
   8   3  -1    7.55    0.59   2
   8   3  -1    7.82    0.99   4
  -8  -3   0    2.59    0.69   3
   8   3   0    2.70    0.70   1
   8   3   0    2.04    0.39   2
   8   3   0    2.27    0.70   4
  -8  -3  -1    2.26    0.57   3
   8   3   1    3.01    0.69   1
   8   3   1    3.08    0.46   2
   8   3   1    2.82    0.43   2
   8   3   1    2.46    0.78   4
  -8  -3  -2   -0.45    0.46   3
  -8  -3  -2   -0.40    0.49   4
   8   3   2    0.91    0.58   1
   8   3   2    0.62    0.39   2
   8   3   2   -0.47    0.38   2
   8   3   2    0.25    0.60   3
  -8  -3  -3   33.83    1.16   3
  -8  -3  -3   34.38    1.39   4
   8   3   3   36.23    1.45   1
   8   3   3   32.98    1.06   2
   8   3   3   34.32    1.07   2
   8   3   3   33.24    1.19   3
  -8  -3  -4   13.60    0.80   3
  -8  -3  -4   18.48    1.17   4
   8   3   4   19.30    1.19   1
   8   3   4   18.41    0.98   2
   8   3   4   18.95    0.99   2
   8   3   4   17.01    0.90   3
  -8  -3  -5   23.05    1.13   2
  -8  -3  -5   14.13    0.70   3
  -8  -3  -5   22.01    1.22   4
   8   3   5   23.82    1.31   1
   8   3   5   19.29    1.05   2
   8   3   5   18.94    0.82   3
  -8  -3  -6   28.57    1.33   2
  -8  -3  -6   31.09    1.40   4
   8   3   6   30.71    1.28   2
   8   3   6   32.33    0.72   3
   8   3   6   29.67    0.73   3
  -8  -3  -7   -0.48    0.63   4
   8   3   7   -0.95    0.60   1
   8   3   7   -0.27    0.55   2
  -8  -3  -8    4.36    0.85   4
   8   3   8    3.44    0.84   1
   8   3   8    3.77    0.77   2
  -8  -3  -9    1.09    0.69   4
   8   3   9    1.04    0.76   1
   8   3   9   -0.14    0.69   2
  -8  -3 -10    0.92    0.81   4
   8   3  10    0.23    0.74   1
   8   3  10   -0.44    0.70   2
  -8  -3 -11   -0.15    0.85   4
   8   3  11   -1.04    0.92   1
   8   3  11    1.11    0.88   2
  -8  -3 -12    0.15    0.97   4
   8   3  12    1.17    1.01   1
   8   3  12    1.23    1.03   2
  -8  -3 -13   -0.24    1.07   4
   8   3  13   -0.08    1.16   1
   8   3  13    0.46    1.19   2
  -8  -4   5   -2.62    0.97   3
   8   4  -5   -0.87    1.08   4
  -8  -4   4   -0.39    1.04   3
   8   4  -4    1.21    0.84   1
   8   4  -4    0.32    1.00   4
  -8  -4   3    2.17    0.95   3
   8   4  -3    2.34    0.84   1
   8   4  -3    0.91    0.95   4
  -8  -4   2   -0.18    0.79   3
   8   4  -2    0.83    0.67   1
   8   4  -2    0.43    0.46   2
   8   4  -2   -0.30    0.79   4
  -8  -4   1    8.07    1.04   3
   8   4  -1    9.50    1.08   1
   8   4  -1    9.01    0.80   2
   8   4  -1    9.41    1.13   4
  -8  -4   0    9.14    0.98   3
   8   4   0    9.74    1.05   1
   8   4   0    9.45    0.81   2
   8   4   0   10.50    0.83   2
   8   4   0    9.14    1.01   4
  -8  -4  -1    5.87    0.79   3
   8   4   1    7.74    0.91   1
   8   4   1    6.96    0.82   2
   8   4   1    6.87    0.66   2
   8   4   1    5.79    0.85   4
  -8  -4  -2   11.73    1.00   3
   8   4   2   10.45    1.05   1
   8   4   2   12.28    0.89   2
   8   4   2   11.49    0.91   2
   8   4   2   10.22    1.03   3
  -8  -4  -3   10.95    0.88   3
  -8  -4  -3   11.51    1.06   4
   8   4   3   10.61    1.10   1
   8   4   3   10.45    0.88   2
   8   4   3   11.83    0.93   2
   8   4   3   10.28    0.94   3
  -8  -4  -4   -1.20    0.55   4
   8   4   4    1.08    0.62   1
   8   4   4    0.83    0.50   2
   8   4   4   -0.11    0.53   2
   8   4   4    0.68    0.44   3
   8   4   4    1.43    0.47   3
  -8  -4  -5   -0.35    0.49   4
   8   4   5    0.31    0.52   2
   8   4   5    0.84    0.62   2
   8   4   5   -0.04    0.39   3
   8   4   5   -1.07    0.40   3
  -8  -4  -6   10.47    1.05   4
   8   4   6   10.17    1.03   1
   8   4   6    9.70    1.01   2
   8   4   6   11.00    0.62   3
  -8  -4  -7   20.51    1.27   4
   8   4   7   20.29    1.24   1
   8   4   7   20.18    1.30   2
  -8  -4  -8   -0.05    0.67   4
   8   4   8    0.69    0.72   1
  -8  -4  -9   15.65    1.42   4
   8   4   9   16.13    1.41   1
   8   4   9   16.70    1.43   2
  -8  -4 -10   -1.38    0.74   4
   8   4  10   -0.47    0.77   1
   8   4  10   -0.66    0.80   2
  -8  -4 -11    0.26    0.88   4
   8   4  11   -0.32    0.88   1
   8   4  11   -2.12    0.87   2
  -8  -4 -12    0.54    1.00   4
   8   4  12   -0.91    1.08   1
   8   4  12    1.56    1.07   2
  -8  -4 -13    0.43    1.15   4
   8   4  13    0.99    1.28   1
   8   4  13    0.81    1.25   2
  -8  -5   4   -0.17    1.12   3
   8   5  -4    0.28    1.02   4
  -8  -5   3    1.02    0.96   3
   8   5  -3    2.48    0.85   1
   8   5  -3    1.30    1.03   4
  -8  -5   2    0.52    0.87   3
   8   5  -2    0.17    0.68   1
   8   5  -2    0.28    0.60   2
   8   5  -2    0.91    0.80   4
  -8  -5   1    4.56    0.95   3
   8   5  -1    3.43    0.79   1
   8   5  -1    3.66    0.67   2
   8   5  -1    4.27    0.97   4
  -8  -5   0   25.09    1.43   3
   8   5   0   24.68    1.32   1
   8   5   0   24.53    1.11   2
   8   5   0   19.23    1.14   2
   8   5   0   24.39    1.54   4
  -8  -5  -1    7.67    0.92   3
   8   5   1    9.10    1.06   1
   8   5   1    9.69    0.95   2
   8   5   1    8.19    0.84   2
   8   5   1    9.55    1.15   4
  -8  -5  -2    8.41    0.91   3
   8   5   2    7.99    0.89   1
   8   5   2    8.34    0.93   2
   8   5   2    6.92    0.81   2
   8   5   2    7.27    0.91   4
   8   5   3   11.17    1.05   2
   8   5   3   13.24    1.11   2
   8   5   3    9.49    0.98   3
   8   5   3    9.85    1.02   3
  -8  -5  -4    0.06    0.58   4
   8   5   4    0.45    0.57   2
   8   5   4    0.44    0.52   3
   8   5   4    0.44    0.53   3
  -8  -5  -5    2.98    0.74   4
   8   5   5    3.36    0.70   1
   8   5   5    3.84    0.74   2
   8   5   5    3.36    0.56   3
   8   5   5    2.88    0.56   3
  -8  -5  -6   28.92    1.41   4
   8   5   6   26.45    1.37   1
   8   5   6   28.64    1.40   2
   8   5   6   28.44    0.92   3
   8   5   6   27.13    0.91   3
  -8  -5  -7    8.61    1.05   4
   8   5   7    6.30    0.93   1
   8   5   7    6.92    0.93   2
   8   5   7    6.68    0.57   3
   8   5   7    6.04    0.56   3
   8   5   8    3.50    0.86   1
   8   5   8    2.95    0.82   2
  -8  -5  -9    1.98    0.76   4
   8   5   9    2.94    0.92   1
   8   5   9    0.59    0.82   2
  -8  -5 -10    4.69    0.99   4
   8   5  10    5.14    1.09   1
   8   5  10    6.25    1.13   2
  -8  -5 -11    1.53    0.97   4
   8   5  11    1.83    1.10   1
   8   5  11   -0.26    0.92   2
  -8  -5 -12    1.07    1.04   4
   8   5  12    0.93    1.05   1
   8   5  12   -1.96    1.05   2
  -8  -6   4    5.35    1.36   3
   8   6  -4    2.02    1.19   4
  -8  -6   3    1.32    1.01   3
   8   6  -3    0.60    0.86   1
   8   6  -3   -1.06    1.08   4
  -8  -6   2   -0.11    0.95   3
   8   6  -2   -1.29    0.74   1
   8   6  -2    0.60    0.74   2
   8   6  -2   -0.96    0.94   4
  -8  -6   1    0.68    0.88   3
   8   6  -1    0.44    0.72   1
   8   6  -1    1.05    0.71   2
   8   6  -1    0.47    0.77   4
   8   6   0    2.00    0.73   1
   8   6   0    0.62    0.66   2
   8   6   0    0.55    0.77   3
   8   6   0   -0.19    0.83   4
   8   6   1    3.53    0.80   1
   8   6   1    1.27    0.64   2
   8   6   1    2.40    0.75   4
   8   6   2    6.49    0.81   2
   8   6   2    6.71    0.92   3
   8   6   2    5.33    0.86   4
   8   6   3    7.99    0.93   1
   8   6   3    6.92    0.85   2
   8   6   3    9.03    1.06   3
  -8  -6  -4    1.09    0.69   4
   8   6   4    1.74    0.66   1
   8   6   4    2.30    0.69   2
   8   6   4    2.37    0.61   3
   8   6   4    0.82    0.65   3
  -8  -6  -5    1.80    0.66   4
   8   6   5    0.74    0.69   1
   8   6   5    1.87    0.71   2
   8   6   5    1.74    0.55   3
   8   6   5    1.03    0.56   3
  -8  -6  -6   -0.29    0.65   4
   8   6   6    0.74    0.73   1
   8   6   6    1.37    0.51   3
   8   6   6    0.80    0.53   3
  -8  -6  -7    5.13    0.85   4
   8   6   7    4.15    0.93   1
   8   6   7    4.80    0.86   2
   8   6   7    4.60    0.56   3
   8   6   8    2.26    0.80   1
   8   6   8    2.54    0.96   2
  -8  -6  -9    8.07    1.01   4
   8   6   9    7.59    1.18   1
   8   6   9    6.42    1.13   2
  -8  -6 -10    1.97    0.93   4
   8   6  10    4.18    1.12   1
   8   6  10    2.08    1.01   2
  -8  -6 -11    1.88    1.02   4
   8   6  11    0.39    1.06   1
   8   6  11    2.24    1.15   2
  -8  -6 -12   -0.32    1.07   4
   8   6  12   -0.85    1.24   1
   8   6  12   -1.62    1.25   2
   8   7  -3   -1.04    1.05   4
   8   7  -2    3.34    0.89   1
   8   7  -2    4.30    1.31   3
   8   7  -2    2.26    1.12   4
   8   7  -1    1.12    0.79   1
   8   7  -1    1.84    0.85   2
   8   7  -1    0.43    0.99   3
   8   7  -1   -1.79    0.93   4
   8   7   0   -0.90    0.73   2
   8   7   0    0.09    0.88   3
   8   7   0   -0.43    0.85   4
   8   7   1    0.45    0.73   1
   8   7   1   -0.35    0.77   2
   8   7   1   -0.30    0.81   3
   8   7   1   -0.53    0.80   4
   8   7   2    2.97    0.80   1
   8   7   2    2.54    0.77   2
   8   7   2    0.34    0.79   3
   8   7   2    2.32    0.81   4
   8   7   3    2.03    0.79   1
   8   7   3    2.37    0.77   3
   8   7   3    3.05    0.81   4
   8   7   4   -0.83    0.70   1
   8   7   4   -0.27    0.73   2
   8   7   4   -0.05    0.63   3
   8   7   5    4.01    0.91   1
   8   7   5    2.88    0.83   2
   8   7   5    3.04    0.69   3
   8   7   5    3.41    0.84   4
  -8  -7  -6    0.89    0.69   4
   8   7   6    0.97    0.77   1
   8   7   6    1.30    0.79   2
   8   7   6   -0.09    0.55   3
  -8  -7  -7    1.06    0.77   4
   8   7   7    0.55    0.88   1
   8   7   7    1.01    0.85   2
   8   7   7    0.79    0.58   3
   8   7   8    1.35    0.95   1
   8   7   8    0.43    0.88   2
  -8  -7  -9    1.48    0.79   4
   8   7   9    0.18    0.93   1
   8   7   9    2.36    1.10   2
  -8  -7 -10    3.10    0.96   4
   8   7  10    3.94    1.22   1
   8   7  10    3.24    1.28   2
  -8  -7 -11    1.07    0.99   4
   8   7  11    1.92    1.24   1
   8   7  11    0.27    1.21   2
   8   8  -1    2.23    1.06   2
   8   8  -1    1.03    1.20   3
   8   8  -1    0.47    1.16   4
   8   8   0    0.50    0.85   1
   8   8   0    1.63    0.99   2
   8   8   0   -0.75    1.07   3
   8   8   0    0.02    1.02   4
   8   8   1   -0.01    0.84   1
   8   8   1   -0.04    0.90   2
   8   8   1   -0.79    0.92   3
   8   8   1    0.76    0.92   4
   8   8   2    2.93    0.91   1
   8   8   2    2.37    0.94   2
   8   8   2    2.28    0.93   3
   8   8   2    2.93    0.99   4
   8   8   3    1.32    0.81   1
   8   8   3    1.82    0.90   2
   8   8   3    0.82    0.81   3
   8   8   3    0.12    0.84   4
   8   8   4    2.07    0.89   1
   8   8   4    1.36    0.87   2
   8   8   4    0.24    0.76   3
   8   8   4    0.09    0.77   4
   8   8   5    0.24    0.86   1
   8   8   5    0.92    0.88   2
   8   8   5    0.46    0.76   3
   8   8   6   10.14    1.30   1
   8   8   6    8.79    1.27   2
   8   8   6    7.62    0.90   3
   8   8   6    9.32    1.09   4
  -8  -8  -7   -0.21    0.81   4
   8   8   7    0.19    0.97   1
   8   8   7    2.89    1.08   2
   8   8   7    1.68    0.75   3
   8   8   8    3.89    1.15   1
   8   8   8    1.89    1.08   2
  -8  -8  -9    1.73    0.93   4
   8   8   9    0.81    1.03   1
   8   8   9   -0.11    1.10   2
  -8  -8 -10    1.71    1.39   1
   8   8  10    4.46    1.40   2
   8   9   1    0.40    0.96   1
   8   9   1   -1.44    1.08   2
   8   9   1   -0.17    1.14   3
   8   9   1   -1.06    1.09   4
   8   9   2   -1.34    0.89   1
   8   9   2   -0.27    1.06   2
   8   9   2    1.59    1.09   3
   8   9   2   -1.42    0.98   4
   8   9   3    2.47    0.99   1
   8   9   3    2.57    1.12   2
   8   9   3    2.75    1.03   3
   8   9   3    1.80    1.04   4
   8   9   4    1.42    1.04   1
   8   9   4    0.95    1.03   2
   8   9   4    0.31    0.95   3
   8   9   4    0.25    0.92   4
   8   9   5    3.04    1.10   1
   8   9   5    2.52    1.21   2
   8   9   5    1.34    0.95   3
   8   9   6    0.23    1.11   1
   8   9   6    1.43    1.11   2
   8   9   6   -0.31    0.85   3
   8   9   6    0.17    0.87   4
   8   9   7   -0.74    1.11   1
   8   9   7    2.20    1.14   2
   8   9   7    0.26    0.88   4
   8   9   8    1.36    1.25   1
   8   9   8   -1.15    1.20   2
  -9   6  -1    2.66    1.30   3
  -9   6  -1    1.23    0.99   4
   9  -6   1    2.04    1.16   1
  -9   6  -2    3.89    1.24   3
  -9   6  -2    1.74    1.01   4
   9  -6   2    5.14    1.21   1
  -9   6  -3    1.10    1.10   3
  -9   6  -3    0.17    0.97   4
   9  -6   3   -0.79    0.99   1
  -9   6  -4    1.42    1.18   3
  -9   6  -4    2.16    1.01   4
   9  -6   4    0.82    1.18   1
  -9   6  -5   -0.31    1.12   3
  -9   6  -5   -0.11    1.05   4
   9  -6   5    0.86    1.14   1
  -9   6  -6   -1.30    0.99   4
   9  -6   6    0.13    1.05   2
  -9   5   1    7.69    1.37   3
   9  -5  -1    5.52    1.22   1
   9  -5  -1    3.85    1.15   4
  -9   5   0    0.75    1.10   3
   9  -5   0    2.07    1.04   1
   9  -5   0    1.18    1.11   4
  -9   5  -1    2.79    1.14   3
  -9   5  -1    0.57    0.91   4
   9  -5   1    1.73    1.04   1
  -9   5  -2    1.40    0.97   3
  -9   5  -2   -1.82    0.81   4
   9  -5   2   -0.03    0.92   1
  -9   5  -3   19.38    1.82   3
  -9   5  -3   15.26    1.59   4
   9  -5   3   18.95    1.72   1
  -9   5  -4   -0.37    0.86   3
  -9   5  -4   -0.41    0.83   4
   9  -5   4    0.19    1.02   1
   9  -5   4    0.40    0.76   2
  -9   5  -5    0.81    0.91   3
  -9   5  -5    1.42    0.90   4
   9  -5   5    1.08    1.01   1
   9  -5   5    1.66    0.83   2
  -9   5  -6    2.09    0.99   3
  -9   5  -6    0.81    0.95   4
   9  -5   6   -0.23    0.95   1
  -9   5  -7    0.45    0.96   3
  -9   5  -7    0.98    1.12   4
   9  -5   7   -0.90    1.04   1
   9  -5   7    0.81    0.89   2
  -9   5  -8   -0.45    1.14   4
   9  -5   8   -2.09    1.07   1
   9  -5   8   -0.02    1.05   2
  -9   4   2    4.57    1.29   3
   9  -4  -2    2.83    1.18   1
   9  -4  -2    4.75    1.19   4
  -9   4   1   -0.53    1.09   3
   9  -4  -1    0.39    0.93   1
   9  -4  -1    0.70    1.00   4
  -9   4   0    4.15    1.05   3
   9  -4   0    3.28    0.98   1
   9  -4   0    0.61    0.97   4
  -9   4  -1    0.93    0.93   3
  -9   4  -1    0.11    0.84   4
   9  -4   1    0.67    0.83   1
  -9   4  -2    4.45    1.01   3
  -9   4  -2    1.65    0.89   4
   9  -4   2    4.42    1.06   1
  -9   4  -3    1.16    0.84   3
  -9   4  -3    0.31    0.76   4
   9  -4   3   -0.65    0.87   1
  -9   4  -4    1.27    0.85   3
  -9   4  -4    0.40    0.78   4
   9  -4   4   -1.28    0.89   1
   9  -4   4    1.31    0.64   2
  -9   4  -5    4.72    0.94   3
  -9   4  -5    5.66    0.94   4
   9  -4   5    6.19    1.17   1
   9  -4   5    4.40    0.79   2
  -9   4  -6   10.84    1.27   3
  -9   4  -6   12.35    1.48   4
   9  -4   6   14.77    1.58   1
   9  -4   6   12.69    1.29   2
  -9   4  -7    1.69    0.83   3
  -9   4  -7    1.39    1.00   4
   9  -4   7    1.58    1.03   1
   9  -4   7    3.21    0.88   2
  -9   4  -8    0.71    1.05   4
   9  -4   8    1.23    1.02   1
   9  -4   8   -0.79    0.87   2
  -9   4  -9    2.32    1.26   4
   9  -4   9    4.36    1.20   1
   9  -4   9    3.03    1.09   2
  -9   3   3    1.27    1.24   3
   9  -3  -3    0.43    1.07   1
   9  -3  -3   -0.33    1.19   4
  -9   3   2    2.00    1.18   3
   9  -3  -2    0.83    1.05   1
   9  -3  -2    1.81    1.05   4
  -9   3   1    9.49    1.31   3
   9  -3  -1   10.00    1.30   1
   9  -3  -1    7.71    1.16   4
  -9   3   0    0.96    0.91   3
   9  -3   0    0.67    0.85   1
   9  -3   0    0.12    0.89   4
  -9   3  -1    5.51    0.98   3
  -9   3  -1    6.27    1.03   4
   9  -3   1    4.96    1.05   1
  -9   3  -2    6.07    0.94   3
  -9   3  -2    2.21    0.86   4
   9  -3   2    2.68    0.93   1
  -9   3  -3    3.17    0.83   3
  -9   3  -3    3.00    0.83   4
   9  -3   3    2.46    0.87   1
   9  -3   3    3.17    0.53   2
  -9   3  -4    1.59    0.72   3
  -9   3  -4    1.33    0.76   4
   9  -3   4    0.59    0.86   1
   9  -3   4    0.89    0.54   2
  -9   3  -5    1.00    0.68   3
  -9   3  -5    1.87    0.78   4
   9  -3   5    1.22    0.85   1
   9  -3   5    1.09    0.62   2
  -9   3  -6    2.17    0.75   3
  -9   3  -6    0.87    0.82   4
   9  -3   6    1.64    0.87   1
   9  -3   6    1.74    0.70   2
  -9   3  -7    1.33    0.67   3
  -9   3  -7    1.16    0.89   4
   9  -3   7    2.75    0.85   1
   9  -3   7    1.50    0.69   2
  -9   3  -8    1.81    1.00   4
   9  -3   8    2.98    1.00   1
   9  -3   8    2.99    0.89   2
  -9   3  -9    2.76    1.00   4
   9  -3   9   -0.08    0.93   1
   9  -3   9    0.13    0.88   2
  -9   3 -10    3.73    1.21   4
   9  -3  10    3.37    1.16   1
   9  -3  10    4.00    1.10   2
  -9   2   4    2.38    1.42   3
   9  -2  -4    0.06    1.24   1
   9  -2  -4    0.12    1.16   4
  -9   2   3    1.13    1.18   3
   9  -2  -3    0.25    1.06   1
   9  -2  -3    0.13    1.06   4
  -9   2   2    0.24    0.98   3
   9  -2  -2    0.77    0.99   1
   9  -2  -2    0.92    0.99   4
  -9   2   1    2.24    1.08   3
   9  -2  -1    1.61    0.99   1
   9  -2  -1    2.52    0.94   4
  -9   2   0    1.78    0.85   3
   9  -2   0    1.44    0.76   1
   9  -2   0    0.40    0.83   4
  -9   2  -1    7.76    1.00   3
  -9   2  -1    8.50    1.07   4
   9  -2   1    6.44    1.05   1
  -9   2  -2   17.29    1.37   3
  -9   2  -2   15.23    1.40   4
   9  -2   2   15.67    1.32   1
  -9   2  -3    5.96    0.85   3
  -9   2  -3    4.94    0.85   4
   9  -2   3    5.38    1.00   1
   9  -2   3    5.94    0.63   2
  -9   2  -4   -0.29    0.55   3
  -9   2  -4    0.25    0.68   4
   9  -2   4   -0.41    0.69   1
   9  -2   4    0.39    0.46   2
  -9   2  -5   16.39    1.12   3
  -9   2  -5   20.65    1.46   4
   9  -2   5   20.70    1.50   1
   9  -2   5   21.94    1.08   2
   9  -2   5   20.03    1.39   3
  -9   2  -6    3.01    0.61   3
  -9   2  -6    1.14    0.79   4
   9  -2   6    1.78    0.90   1
   9  -2   6    3.12    0.66   2
  -9   2  -7    0.58    0.54   3
  -9   2  -7    0.28    0.71   4
   9  -2   7    0.45    0.73   1
   9  -2   7    0.62    0.63   2
  -9   2  -8   -0.72    0.78   4
   9  -2   8    0.59    0.86   1
  -9   2  -9    1.50    0.95   4
   9  -2   9   -0.50    0.89   1
   9  -2   9    0.51    0.78   2
  -9   2 -10   -0.63    0.96   4
   9  -2  10   -0.59    0.96   1
   9  -2  10   -0.90    0.89   2
  -9   2 -11    0.71    1.11   4
   9  -2  11    1.48    1.10   1
   9  -2  11    2.14    1.15   2
  -9   1   4    3.06    1.36   3
   9  -1  -4    2.47    1.19   1
   9  -1  -4    5.35    1.32   4
  -9   1   3    6.92    1.25   3
   9  -1  -3    6.37    1.26   1
   9  -1  -3    4.55    1.19   4
  -9   1   2    5.36    1.13   3
   9  -1  -2    4.99    1.07   1
   9  -1  -2    4.66    1.05   4
  -9   1   1   -0.07    0.84   3
   9  -1  -1   -0.29    0.71   1
   9  -1  -1    0.49    0.86   4
  -9   1   0    8.71    1.11   3
   9  -1   0    7.07    1.07   1
   9  -1   0    5.50    0.98   4
  -9   1  -1   -0.40    0.72   4
   9  -1   1    0.58    0.74   1
  -9   1  -2    3.03    0.76   3
  -9   1  -2    3.39    0.81   4
   9  -1   2    2.85    0.84   1
  -9   1  -3    1.33    0.66   3
  -9   1  -3    0.98    0.66   4
   9  -1   3    1.52    0.79   1
  -9   1  -4    8.67    1.00   3
  -9   1  -4    9.79    1.06   4
   9  -1   4    7.53    0.98   1
   9  -1   4    8.96    0.77   2
   9  -1   4   10.49    1.15   3
  -9   1  -5    5.02    0.70   2
  -9   1  -5    6.10    0.71   3
  -9   1  -5   10.04    1.20   4
   9  -1   5    7.25    0.97   1
   9  -1   5    7.22    0.70   2
   9  -1   5    6.53    0.80   3
  -9   1  -6    9.32    0.87   2
  -9   1  -6    9.60    0.87   3
  -9   1  -6   10.79    1.15   4
   9  -1   6   10.79    1.26   1
   9  -1   6   12.22    1.04   2
   9  -1   6   12.38    1.01   3
  -9   1  -7    0.08    0.43   3
  -9   1  -7    0.27    0.72   4
   9  -1   7   -1.13    0.79   1
   9  -1   7    0.49    0.66   2
  -9   1  -8    4.84    0.87   4
   9  -1   8    3.86    0.94   1
   9  -1   8    4.46    0.87   2
  -9   1  -9    1.49    0.85   4
   9  -1   9    0.55    0.88   1
   9  -1   9    0.55    0.79   2
  -9   1 -10    2.10    0.99   4
   9  -1  10    0.59    1.01   1
   9  -1  10    0.39    0.91   2
  -9   1 -11    1.09    1.06   4
   9  -1  11    0.36    1.06   1
   9  -1  11   -0.22    1.07   2
  -9   1 -12    1.15    1.13   4
   9  -1  12    0.42    1.21   1
   9  -1  12   -1.49    1.14   2
  -9   0   4   -1.14    1.22   3
   9   0  -4   -0.12    1.02   1
   9   0  -4    0.19    1.12   4
  -9   0   3    3.53    1.23   3
   9   0  -3    3.50    1.10   1
   9   0  -3    2.85    1.16   4
  -9   0   2    0.61    0.91   3
   9   0  -2    0.40    0.81   1
   9   0  -2    0.83    0.88   4
  -9   0   1   17.48    1.58   3
   9   0  -1   17.28    1.50   1
   9   0  -1   15.67    1.51   4
  -9   0   0    4.70    0.89   3
   9   0   0    4.13    0.94   1
   9   0   0    3.90    0.89   4
  -9   0  -1    5.42    0.87   3
  -9   0  -1    4.68    0.83   4
   9   0   1    4.22    0.84   1
  -9   0  -2    0.22    0.63   3
  -9   0  -2    0.35    0.68   4
   9   0   2    1.52    0.67   1
  -9   0  -3    0.90    0.56   3
  -9   0  -3    0.15    0.62   4
   9   0   3    0.51    0.68   1
   9   0   3    0.75    0.34   2
   9   0   3   -0.83    0.71   3
  -9   0  -4    3.84    0.53   2
  -9   0  -4    3.02    0.60   3
  -9   0  -4    2.64    0.72   4
   9   0   4    3.44    0.83   1
   9   0   4    3.78    0.52   2
   9   0   4    4.05    0.74   3
  -9   0  -5    4.03    0.61   2
  -9   0  -5    3.83    0.60   3
  -9   0  -5    4.82    0.83   4
   9   0   5    4.48    0.93   1
   9   0   5    4.49    0.63   2
   9   0   5    4.46    0.66   3
  -9   0  -6   -0.78    0.59   2
  -9   0  -6    0.56    0.41   3
  -9   0  -6    0.37    0.66   4
   9   0   6   -0.89    0.60   1
   9   0   6    0.35    0.54   2
   9   0   6    0.04    0.48   3
  -9   0  -7    4.72    0.58   3
  -9   0  -7    9.06    1.01   4
   9   0   7    9.13    1.15   1
   9   0   7    9.65    1.13   2
  -9   0  -8   -1.18    0.67   4
   9   0   8    1.30    0.87   1
   9   0   8    0.41    0.68   2
  -9   0  -9    5.22    1.00   4
   9   0   9    3.11    0.91   1
   9   0   9    3.35    0.87   2
  -9   0 -10    1.07    0.96   4
   9   0  10    0.15    0.86   1
   9   0  10    1.36    0.93   2
  -9   0 -11    0.65    1.03   4
   9   0  11   -0.07    1.05   1
   9   0  11    1.11    0.96   2
  -9   0 -12   -0.58    1.05   4
   9   0  12   -0.80    1.16   1
   9   0  12   -0.75    1.12   2
  -9  -1   4    4.23    1.41   3
   9   1  -4    1.41    1.11   1
   9   1  -4    0.88    1.07   4
  -9  -1   3   -0.40    1.09   3
   9   1  -3   -1.61    0.92   1
   9   1  -3    0.22    0.98   4
  -9  -1   2    2.57    0.94   3
   9   1  -2    1.42    0.90   1
   9   1  -2    4.90    1.05   4
  -9  -1   1    2.36    0.94   3
   9   1  -1    3.49    0.97   1
   9   1  -1    3.99    0.93   4
  -9  -1   0   20.76    1.44   3
   9   1   0   19.10    1.39   1
   9   1   0   19.85    1.50   4
  -9  -1  -1   -0.09    0.64   3
   9   1   1   -0.60    0.71   1
   9   1   1    0.42    0.73   4
  -9  -1  -2   11.67    1.16   3
  -9  -1  -2   14.75    1.31   4
   9   1   2   15.52    1.17   1
   9   1   2   14.19    0.43   2
   9   1   2   11.25    0.40   2
  -9  -1  -3    2.84    0.67   3
  -9  -1  -3    1.21    0.71   4
   9   1   3    2.92    0.73   1
   9   1   3    3.65    0.46   2
   9   1   3    3.16    0.44   2
   9   1   3    3.33    0.75   3
  -9  -1  -4    1.30    0.48   2
  -9  -1  -4    0.07    0.48   3
  -9  -1  -4    0.71    0.65   4
   9   1   4    0.46    0.65   1
   9   1   4    0.31    0.43   2
   9   1   4    0.07    0.58   3
  -9  -1  -5    0.22    0.54   2
  -9  -1  -5    0.39    0.43   3
  -9  -1  -5    0.46    0.62   4
   9   1   5   -0.01    0.68   1
   9   1   5    0.38    0.47   2
   9   1   5    0.43    0.52   3
  -9  -1  -6    2.59    0.66   2
  -9  -1  -6    2.60    0.44   3
  -9  -1  -6    3.48    0.72   4
   9   1   6    3.67    0.88   1
   9   1   6    3.13    0.61   2
   9   1   6    4.26    0.53   3
  -9  -1  -7    3.61    0.41   3
  -9  -1  -7    4.46    0.83   4
   9   1   7    5.19    0.94   1
   9   1   7    4.89    0.77   2
   9   1   7    3.82    0.45   3
  -9  -1  -8    0.23    0.77   4
   9   1   8    1.29    0.79   1
   9   1   8   -0.33    0.62   2
  -9  -1  -9   -0.28    0.77   4
   9   1   9    0.36    0.89   1
   9   1   9    0.25    0.71   2
  -9  -1 -10    1.31    0.89   4
   9   1  10    1.41    0.89   1
   9   1  10   -0.59    0.76   2
  -9  -1 -11    1.50    1.01   4
   9   1  11   -0.85    0.97   1
   9   1  11   -0.65    0.91   2
  -9  -1 -12    1.57    1.05   4
   9   1  12   -1.41    1.17   1
   9   1  12    0.95    1.13   2
  -9  -2   4    1.56    1.19   3
   9   2  -4    1.80    1.13   1
   9   2  -4    0.09    1.08   4
  -9  -2   3    7.34    1.19   3
   9   2  -3    8.16    1.22   1
   9   2  -3    6.04    1.21   4
  -9  -2   2    0.37    0.86   3
   9   2  -2    1.12    0.85   1
   9   2  -2   -0.53    0.93   4
  -9  -2   1    0.56    0.74   3
   9   2  -1    1.71    0.79   1
   9   2  -1    1.13    0.79   4
  -9  -2   0    1.76    0.79   3
   9   2   0    2.54    0.81   1
   9   2   0    3.64    0.83   4
  -9  -2  -1    4.70    0.82   3
   9   2   1    3.73    0.80   1
   9   2   1    2.51    0.83   4
  -9  -2  -2   17.66    1.13   3
  -9  -2  -2   17.02    1.38   4
   9   2   2   17.00    1.31   1
   9   2   2   14.76    0.65   2
  -9  -2  -3    3.79    0.65   3
  -9  -2  -3    3.81    0.80   4
   9   2   3    3.35    0.76   1
   9   2   3    3.75    0.52   2
   9   2   3    4.05    0.52   2
   9   2   3    3.36    0.79   3
  -9  -2  -4    2.56    0.56   3
  -9  -2  -4    4.22    0.83   4
   9   2   4    5.62    0.89   1
   9   2   4    4.31    0.59   2
   9   2   4    4.61    0.64   2
   9   2   4    3.86    0.71   3
  -9  -2  -5    3.15    0.63   2
  -9  -2  -5    2.20    0.49   3
  -9  -2  -5    2.29    0.68   4
   9   2   5    1.50    0.66   1
   9   2   5    3.07    0.64   2
   9   2   5    2.38    0.56   3
  -9  -2  -6    1.10    0.65   2
  -9  -2  -6    1.09    0.37   3
  -9  -2  -6    0.97    0.68   4
   9   2   6    1.82    0.66   1
   9   2   6    1.35    0.62   2
   9   2   6    1.50    0.44   3
  -9  -2  -7    6.31    0.89   4
   9   2   7    5.87    0.93   1
   9   2   7    5.72    0.82   2
  -9  -2  -8    2.06    0.86   4
   9   2   8    2.29    0.85   1
   9   2   8    1.27    0.72   2
  -9  -2  -9    2.80    0.88   4
   9   2   9    3.04    0.96   1
   9   2   9    2.03    0.83   2
  -9  -2 -10    4.13    0.98   4
   9   2  10    5.30    1.00   1
   9   2  10    1.92    0.92   2
  -9  -2 -11    1.18    1.03   4
   9   2  11    0.26    0.99   1
   9   2  11    0.18    0.99   2
  -9  -2 -12    1.12    1.03   4
   9   2  12    1.88    1.25   1
   9   2  12    0.42    1.13   2
  -9  -3   4   -2.32    1.17   3
   9   3  -4    1.94    1.10   1
   9   3  -4   -2.50    1.13   4
  -9  -3   3    0.24    1.00   3
   9   3  -3   -1.16    0.90   1
   9   3  -3    0.60    0.99   4
  -9  -3   2    2.43    0.94   3
   9   3  -2    2.78    1.01   1
   9   3  -2    1.03    1.00   4
  -9  -3   1   10.56    1.20   3
   9   3  -1   10.73    1.29   1
   9   3  -1   11.65    1.31   4
  -9  -3   0   11.20    1.33   3
   9   3   0   10.68    1.13   1
   9   3   0   12.13    1.43   4
  -9  -3  -1   -0.02    0.68   3
   9   3   1    0.29    0.69   1
   9   3   1    0.94    0.41   2
   9   3   1    1.42    0.75   4
  -9  -3  -2    0.28    0.60   3
   9   3   2   -0.17    0.68   1
   9   3   2    0.29    0.44   2
   9   3   2   -0.82    0.42   2
   9   3   2   -0.25    0.68   4
  -9  -3  -3    8.91    0.96   3
  -9  -3  -3    8.94    1.05   4
   9   3   3   10.52    1.14   1
   9   3   3    9.04    0.87   2
   9   3   3    9.83    0.87   2
   9   3   3    7.14    0.88   3
  -9  -3  -4    0.91    0.50   3
  -9  -3  -4   -0.50    0.65   4
   9   3   4    0.15    0.63   1
   9   3   4    2.01    0.57   2
   9   3   4    0.01    0.53   2
   9   3   4    1.63    0.66   3
  -9  -3  -5   12.53    0.83   3
  -9  -3  -5   20.62    1.40   4
   9   3   5   20.84    1.39   1
   9   3   5   15.50    1.10   2
   9   3   5   18.41    1.23   2
   9   3   5   17.02    1.02   3
  -9  -3  -6    2.60    0.78   4
   9   3   6    2.19    0.82   1
   9   3   6    3.04    0.70   2
   9   3   6    3.74    0.47   3
   9   3   6    3.59    0.50   3
  -9  -3  -7    2.81    0.75   4
   9   3   7    3.68    0.84   1
   9   3   7    1.53    0.68   2
  -9  -3  -8    1.96    0.85   4
   9   3   8    1.22    0.74   1
  -9  -3  -9    0.68    0.87   4
   9   3   9    0.32    0.82   1
   9   3   9    0.22    0.77   2
  -9  -3 -10    7.35    1.11   4
   9   3  10    8.01    1.25   1
   9   3  10    8.52    1.11   2
  -9  -3 -11    3.66    1.01   4
   9   3  11    5.05    1.25   1
   9   3  11    2.33    1.05   2
  -9  -3 -12    2.21    1.12   4
   9   3  12   -0.21    1.14   1
   9   3  12    0.41    1.11   2
  -9  -4   3   -2.00    1.05   3
   9   4  -3   -1.19    0.93   1
   9   4  -3   -1.61    1.00   4
  -9  -4   2    1.93    1.04   3
   9   4  -2    2.99    0.97   1
   9   4  -2    1.18    1.06   4
  -9  -4   1   -0.47    0.85   3
   9   4  -1   -0.30    0.79   1
   9   4  -1   -1.83    0.87   4
  -9  -4   0    1.82    0.79   3
   9   4   0    4.13    0.87   1
   9   4   0    3.10    0.57   2
   9   4   0    4.82    1.01   4
   9   4   1    0.90    0.73   1
   9   4   1   -0.34    0.49   2
   9   4   1    1.22    0.77   4
  -9  -4  -2   23.27    1.35   3
   9   4   2   23.42    1.47   1
   9   4   2   23.76    1.11   2
   9   4   2   22.67    1.55   4
  -9  -4  -3    2.61    0.66   3
  -9  -4  -3    3.23    0.85   4
   9   4   3    3.19    0.86   1
   9   4   3    2.19    0.59   2
   9   4   3    4.29    0.67   2
  -9  -4  -4    0.53    0.52   3
  -9  -4  -4   -0.32    0.60   4
   9   4   4    0.50    0.75   1
   9   4   4   -0.34    0.53   2
   9   4   4    0.64    0.63   2
   9   4   4   -0.41    0.63   3
  -9  -4  -5    0.99    0.72   4
   9   4   5    0.82    0.70   1
   9   4   5    0.19    0.63   2
   9   4   5    0.68    0.51   3
   9   4   5    0.56    0.57   3
  -9  -4  -6    9.80    1.21   4
   9   4   6   14.07    1.35   1
   9   4   6    9.85    0.99   2
   9   4   6    9.64    0.76   3
  -9  -4  -7    3.16    0.83   4
   9   4   7    3.29    0.88   1
   9   4   7    3.07    0.80   2
   9   4   7    3.43    0.34   3
  -9  -4  -8   10.06    1.11   4
   9   4   8   11.62    1.30   1
   9   4   8    8.94    1.05   2
  -9  -4  -9   10.61    1.23   4
   9   4   9    9.15    1.17   1
   9   4   9    8.38    1.13   2
  -9  -4 -10    1.81    0.98   4
   9   4  10    1.56    1.00   1
   9   4  10    0.16    0.94   2
  -9  -4 -11    1.29    1.07   4
   9   4  11   -1.79    1.01   1
   9   4  11    0.51    1.09   2
  -9  -4 -12    0.66    1.15   4
   9   4  12   -1.50    1.14   1
   9   4  12   -0.28    1.07   2
  -9  -5   3    2.43    1.27   3
   9   5  -3    4.28    1.09   1
   9   5  -3    3.09    1.34   4
  -9  -5   2    0.46    1.11   3
   9   5  -2    0.45    0.91   1
   9   5  -2    2.21    1.15   4
  -9  -5   1    8.66    1.23   3
   9   5  -1    7.48    1.09   1
   9   5  -1    7.96    1.23   4
  -9  -5   0   -0.12    0.82   3
   9   5   0    0.30    0.84   1
   9   5   0    1.04    0.65   2
   9   5   0    1.46    0.92   4
  -9  -5  -1   -0.75    0.71   3
   9   5   1   -0.88    0.72   1
   9   5   1    0.98    0.64   2
   9   5   1   -0.44    0.86   4
  -9  -5  -2    6.68    0.93   3
   9   5   2    4.88    0.86   1
   9   5   2    6.19    0.77   2
   9   5   2    5.28    1.01   4
   9   5   3   14.62    1.31   1
   9   5   3   12.13    1.11   2
   9   5   3   10.88    1.24   2
   9   5   3   12.89    1.15   3
   9   5   3    9.77    1.13   4
  -9  -5  -4    0.46    0.76   4
   9   5   4    0.63    0.71   1
   9   5   4    0.54    0.68   2
   9   5   4    1.39    0.65   3
   9   5   4    1.08    0.72   3
  -9  -5  -5    8.79    1.06   4
   9   5   5   12.47    1.24   1
   9   5   5   13.14    1.25   2
   9   5   5    8.58    0.97   3
  -9  -5  -6    5.41    0.95   4
   9   5   6    3.56    0.83   1
   9   5   6    5.23    0.87   2
   9   5   6    5.04    0.61   3
  -9  -5  -7   -0.02    0.72   4
   9   5   7    1.07    0.78   1
   9   5   7   -0.67    0.76   2
  -9  -5  -8    0.58    0.75   4
   9   5   8    1.03    0.79   1
   9   5   8   -1.32    0.82   2
  -9  -5  -9    0.41    0.86   4
   9   5   9    0.91    0.94   1
   9   5   9    0.84    0.93   2
  -9  -5 -10   14.15    1.64   4
   9   5  10   15.43    1.77   1
   9   5  10   14.96    1.79   2
  -9  -5 -11    3.17    1.13   4
   9   5  11    5.65    1.30   1
   9   5  11    3.63    1.21   2
  -9  -5 -12    2.99    1.29   4
   9   5  12    3.71    1.36   1
   9   5  12   -0.52    1.19   2
  -9  -6   2   11.31    1.55   3
   9   6  -2    6.39    1.10   1
   9   6  -2    6.94    1.34   4
  -9  -6   1    0.03    1.05   3
   9   6  -1    1.53    0.92   1
   9   6  -1    0.42    1.11   4
   9   6   0    2.67    1.00   1
   9   6   0    1.51    0.80   2
   9   6   0    1.37    1.07   4
   9   6   1    6.48    0.96   1
   9   6   1    6.42    0.89   2
   9   6   1    6.12    1.03   3
   9   6   1    6.17    1.13   4
   9   6   2    5.39    1.00   1
   9   6   2    6.29    0.91   2
   9   6   2    4.87    1.01   3
   9   6   2    4.68    1.01   4
   9   6   3   -0.02    0.83   1
   9   6   3    1.07    0.75   2
   9   6   3    1.41    0.80   3
   9   6   3    0.38    0.78   4
   9   6   4    1.29    0.83   1
   9   6   4    0.06    0.73   2
   9   6   4   -1.26    0.65   3
   9   6   4   -0.18    0.79   4
  -9  -6  -5   10.26    1.17   4
   9   6   5    9.85    1.21   1
   9   6   5   11.72    1.12   3
  -9  -6  -6   12.72    1.44   4
   9   6   6   16.67    1.56   1
   9   6   6   15.60    1.48   2
   9   6   6   15.52    1.06   3
  -9  -6  -7    1.28    0.80   4
   9   6   7   -0.54    0.85   1
   9   6   7   -0.37    0.89   2
  -9  -6  -8    0.82    0.82   4
   9   6   8    1.90    0.96   1
   9   6   8    0.93    0.88   2
  -9  -6  -9    3.87    0.96   4
   9   6   9    2.47    1.07   1
   9   6   9    3.09    1.07   2
  -9  -6 -10    0.27    0.99   4
   9   6  10    0.78    1.00   1
   9   6  10   -0.41    1.08   2
  -9  -6 -11   -0.70    1.08   4
   9   6  11    1.20    1.30   1
   9   6  11   -0.09    1.17   2
   9   7  -1    6.57    1.22   1
   9   7  -1    3.22    1.36   4
   9   7   0   -0.93    0.88   1
   9   7   0   -0.78    0.89   2
   9   7   0   -0.38    1.14   3
   9   7   0   -0.89    1.13   4
   9   7   1    4.50    1.01   1
   9   7   1    3.95    1.01   2
   9   7   1    4.72    1.16   3
   9   7   1    2.27    1.10   4
   9   7   2    1.45    0.92   1
   9   7   2    1.74    0.95   3
   9   7   2    0.94    0.96   4
   9   7   3   -0.52    0.82   1
   9   7   3    0.66    0.83   2
   9   7   3   -0.01    0.84   3
   9   7   3    1.15    0.97   4
   9   7   4    7.78    1.10   1
   9   7   4    8.27    1.13   2
   9   7   4    7.68    0.99   3
   9   7   4    7.27    1.10   4
   9   7   5    0.12    0.84   1
   9   7   5    3.27    0.98   2
   9   7   5    1.42    0.75   3
   9   7   5    0.48    0.89   4
  -9  -7  -6    0.64    0.88   4
   9   7   6   -1.50    0.82   1
   9   7   6    0.54    0.91   2
   9   7   6    0.59    0.72   3
  -9  -7  -7    0.36    0.82   4
   9   7   7    1.61    0.98   1
   9   7   7    0.29    0.96   2
  -9  -7  -8    1.54    0.97   4
   9   7   8    2.19    1.09   1
   9   7   8    1.99    1.08   2
  -9  -7  -9    2.75    1.07   4
   9   7   9    1.70    1.13   1
   9   7   9    1.33    1.12   2
  -9  -7 -10    1.61    1.06   4
   9   7  10   -0.07    1.12   1
   9   7  10   -0.89    1.09   2
   9   8   1    2.69    1.09   1
   9   8   1    1.69    1.07   2
   9   8   1    0.24    1.26   3
   9   8   1    1.76    1.19   4
   9   8   2    1.64    1.05   1
   9   8   2    3.52    1.12   2
   9   8   2    2.89    1.14   3
   9   8   2    1.22    1.13   4
   9   8   3    2.25    1.08   1
   9   8   3    0.81    1.04   2
   9   8   3   -0.04    0.95   3
   9   8   3    0.57    0.99   4
   9   8   4   -0.92    0.96   1
   9   8   4    1.00    0.99   2
   9   8   4    2.00    0.96   3
   9   8   4    0.12    0.98   4
   9   8   5    0.83    1.07   1
   9   8   5    2.18    1.12   2
   9   8   5    0.70    0.87   3
   9   8   5    1.62    0.94   4
   9   8   6    1.19    1.10   1
   9   8   6    1.32    1.08   2
   9   8   6   -0.40    0.92   4
  -9  -8  -7    2.76    0.99   4
   9   8   7    1.46    1.09   1
   9   8   7    0.93    1.11   2
  -9  -8  -8    0.29    0.93   4
   9   8   8   -0.46    1.10   1
   9   8   8   -0.85    1.21   2
   9   8   9    1.94    1.35   2
 -10   4  -1    5.67    1.37   3
 -10   4  -1    8.76    1.34   4
  10  -4   1    7.92    1.49   1
 -10   4  -2    7.15    1.26   3
 -10   4  -2    6.51    1.24   4
  10  -4   2    5.12    1.21   1
 -10   4  -3    4.42    1.14   3
 -10   4  -3    3.53    1.12   4
  10  -4   3    4.23    1.25   1
 -10   4  -4    4.72    1.13   3
 -10   4  -4    5.24    1.15   4
  10  -4   4    5.94    1.28   1
 -10   4  -5    8.04    1.18   3
 -10   4  -5    9.85    1.37   4
  10  -4   5    6.38    1.27   1
 -10   4  -6   -0.32    1.07   4
  10  -4   6    0.48    1.12   1
 -10   4  -7   -1.32    1.05   4
  10  -4   7   -0.09    1.18   1
  10  -4   7   -0.38    0.94   2
 -10   3   1    2.77    1.39   3
  10  -3  -1    1.27    1.11   1
  10  -3  -1    3.34    1.26   4
 -10   3   0    3.37    1.20   3
  10  -3   0    3.67    1.22   1
  10  -3   0    2.17    1.15   4
 -10   3  -1    0.92    1.04   3
 -10   3  -1    0.78    1.05   4
  10  -3   1   -0.21    1.07   1
 -10   3  -2    3.45    1.07   3
 -10   3  -2    3.62    0.99   4
  10  -3   2    2.58    1.08   1
 -10   3  -3    4.15    1.05   3
 -10   3  -3    3.02    1.02   4
  10  -3   3    0.11    0.97   1
 -10   3  -4    1.66    0.90   3
 -10   3  -4    3.68    0.97   4
  10  -3   4    3.22    1.05   1
 -10   3  -5    3.70    0.90   3
 -10   3  -5    2.60    1.03   4
  10  -3   5    0.20    1.03   1
 -10   3  -6    1.27    0.82   3
 -10   3  -6    0.90    0.95   4
  10  -3   6    1.21    1.05   1
  10  -3   6    0.02    0.78   2
 -10   3  -7    1.73    1.08   4
  10  -3   7    1.50    1.07   1
  10  -3   7    1.75    0.88   2
 -10   3  -8   -0.49    1.10   4
  10  -3   8   -2.59    1.01   1
  10  -3   8   -0.05    0.92   2
 -10   3  -9    1.68    1.18   4
  10  -3   9    3.30    1.25   1
  10  -3   9    4.12    1.17   2
 -10   2   1    3.22    1.27   3
  10  -2  -1    0.74    1.08   1
  10  -2  -1    1.30    1.15   4
 -10   2   0    1.85    1.13   3
  10  -2   0    1.96    1.08   1
  10  -2   0    2.18    1.14   4
 -10   2  -1   -0.90    0.95   3
 -10   2  -1    1.78    1.01   4
  10  -2   1   -1.69    0.79   1
 -10   2  -2   16.49    1.66   3
 -10   2  -2   16.01    1.62   4
  10  -2   2   14.25    1.49   1
 -10   2  -3    2.92    0.93   3
 -10   2  -3    1.05    0.93   4
  10  -2   3    4.38    1.10   1
 -10   2  -4    4.13    0.92   3
 -10   2  -4    4.84    0.99   4
  10  -2   4    5.29    1.02   1
 -10   2  -5    1.12    0.77   3
 -10   2  -5    1.07    0.86   4
  10  -2   5    2.03    0.93   1
  10  -2   5    2.94    0.66   2
 -10   2  -6   -0.18    0.68   3
 -10   2  -6    0.98    0.86   4
  10  -2   6    1.05    1.00   1
  10  -2   6    0.19    0.66   2
 -10   2  -7   -0.35    0.91   4
  10  -2   7   -0.64    1.01   1
  10  -2   7    0.25    0.79   2
 -10   2  -8    1.80    1.05   4
  10  -2   8    0.44    1.14   1
  10  -2   8    2.63    0.89   2
 -10   2  -9   -1.08    1.11   4
  10  -2   9    0.48    1.04   1
  10  -2   9    1.37    0.93   2
 -10   2 -10    3.57    1.32   4
  10  -2  10    3.91    1.22   1
  10  -2  10    3.41    1.17   2
 -10   1   2    0.30    1.26   3
  10  -1  -2   -0.74    1.21   1
  10  -1  -2   -0.74    1.15   4
 -10   1   1    6.27    1.32   3
  10  -1  -1    6.57    1.28   1
  10  -1  -1    8.32    1.31   4
 -10   1   0    1.05    0.93   3
  10  -1   0   -0.54    0.97   1
  10  -1   0    0.01    1.02   4
 -10   1  -1    0.47    0.88   3
  10  -1   1   -0.44    0.83   1
  10  -1   1    0.47    0.94   4
 -10   1  -2    1.21    0.83   3
 -10   1  -2    1.30    0.90   4
  10  -1   2    2.04    0.87   1
 -10   1  -3    4.55    0.88   3
 -10   1  -3    2.50    0.96   4
  10  -1   3    2.20    0.94   1
 -10   1  -4    0.49    0.71   3
 -10   1  -4    0.46    0.85   4
  10  -1   4    1.65    0.91   1
 -10   1  -5    5.71    0.84   3
 -10   1  -5    8.02    1.06   4
  10  -1   5    7.12    1.08   1
  10  -1   5    7.97    0.96   2
 -10   1  -6    0.88    0.63   3
 -10   1  -6    1.20    0.83   4
  10  -1   6    2.88    0.95   1
  10  -1   6    1.51    0.64   2
 -10   1  -7    0.78    0.93   4
  10  -1   7    1.38    0.93   1
  10  -1   7    1.22    0.73   2
 -10   1  -8    2.58    1.01   4
  10  -1   8    2.22    1.05   1
 -10   1  -9   -0.47    0.88   4
  10  -1   9   -2.30    1.02   1
  10  -1   9    0.23    0.88   2
 -10   1 -10    1.34    1.13   4
  10  -1  10    0.95    1.18   1
  10  -1  10    3.62    1.16   2
 -10   0   2    4.06    1.38   3
  10   0  -2    3.48    1.33   1
  10   0  -2    5.83    1.39   4
 -10   0   1    1.11    1.07   3
  10   0  -1   -0.39    1.04   1
  10   0  -1    0.32    1.07   4
 -10   0   0   10.09    1.31   3
  10   0   0    6.46    1.16   1
  10   0   0    7.43    1.28   4
 -10   0  -1    6.31    1.08   3
  10   0   1    7.11    1.13   1
  10   0   1    4.24    1.07   4
 -10   0  -2    8.08    1.16   4
  10   0   2    7.65    1.21   1
 -10   0  -3   -0.33    0.74   3
 -10   0  -3   -0.73    0.78   4
  10   0   3   -0.93    0.83   1
 -10   0  -4    0.62    0.67   3
 -10   0  -4    0.09    0.87   4
  10   0   4    0.34    0.81   1
  10   0   4    0.87    0.44   2
 -10   0  -5    0.42    0.62   3
 -10   0  -5    0.59    0.81   4
  10   0   5    0.28    0.85   1
  10   0   5    0.32    0.53   2
 -10   0  -6   -0.25    0.55   3
 -10   0  -6    0.11    0.84   4
  10   0   6   -0.91    0.84   1
  10   0   6   -0.13    0.64   2
 -10   0  -7    6.13    0.98   4
  10   0   7    6.15    1.18   1
  10   0   7    4.85    0.86   2
 -10   0  -8    4.51    1.08   4
  10   0   8    4.28    1.07   1
  10   0   8    6.32    0.97   2
 -10   0  -9    5.54    1.21   4
  10   0   9    5.67    1.22   1
  10   0   9    5.90    1.09   2
 -10   0 -10    0.85    1.08   4
  10   0  10    0.71    1.16   1
  10   0  10    1.04    1.03   2
 -10   0 -11    1.04    1.18   4
  10   0  11    1.67    1.27   1
  10   0  11    1.34    1.25   2
 -10  -1   2    1.86    1.27   3
  10   1  -2    1.29    1.15   1
  10   1  -2   -0.77    1.06   4
 -10  -1   1    2.41    1.15   3
  10   1  -1    1.13    1.03   1
  10   1  -1    1.95    1.02   4
 -10  -1   0    1.18    0.95   3
  10   1   0    0.40    0.92   1
  10   1   0    0.46    0.88   4
 -10  -1  -1    3.38    0.93   3
  10   1   1    2.16    0.99   1
  10   1   1    4.57    1.07   4
 -10  -1  -2   11.06    1.23   4
  10   1   2    9.03    1.17   1
 -10  -1  -3    7.48    0.95   3
 -10  -1  -3    6.66    1.04   4
  10   1   3    7.71    1.13   1
 -10  -1  -4    3.79    0.74   3
 -10  -1  -4    5.70    0.95   4
  10   1   4    7.25    1.10   1
  10   1   4    5.76    0.63   2
 -10  -1  -5    1.28    0.59   3
 -10  -1  -5    1.65    0.87   4
  10   1   5    1.69    0.93   1
  10   1   5    1.38    0.60   2
 -10  -1  -6    0.11    0.51   3
 -10  -1  -6   -0.82    0.72   4
  10   1   6    1.06    0.86   1
  10   1   6    0.68    0.65   2
 -10  -1  -7    0.37    0.83   4
  10   1   7    1.02    0.87   1
  10   1   7    0.91    0.72   2
 -10  -1  -8    1.23    0.95   4
  10   1   8    1.19    0.89   1
  10   1   8    1.34    0.79   2
 -10  -1  -9    0.44    0.92   4
  10   1   9   -1.03    0.98   1
  10   1   9   -0.09    0.84   2
 -10  -1 -10    9.95    1.41   4
  10   1  10    8.22    1.38   1
  10   1  10    9.48    1.27   2
 -10  -1 -11    5.38    1.28   4
  10   1  11    2.61    1.29   1
  10   1  11    2.84    1.13   2
 -10  -2   2   -1.40    1.06   3
  10   2  -2   -1.48    1.08   1
  10   2  -2   -2.33    1.05   4
 -10  -2   1    6.08    1.23   3
  10   2  -1    5.49    1.25   1
  10   2  -1    7.32    1.29   4
 -10  -2   0   -0.02    0.86   3
  10   2   0   -0.64    0.91   1
  10   2   0   -0.22    0.96   4
 -10  -2  -1    4.84    0.95   3
  10   2   1    4.61    1.03   1
  10   2   1    6.84    1.13   4
 -10  -2  -2    1.51    0.82   3
  10   2   2    2.43    0.87   1
  10   2   2    1.71    0.94   4
 -10  -2  -3    5.24    0.83   3
 -10  -2  -3    3.85    0.98   4
  10   2   3    5.29    1.00   1
 -10  -2  -4    0.87    0.63   3
 -10  -2  -4   -0.37    0.84   4
  10   2   4    1.29    0.86   1
  10   2   4    1.27    0.53   2
 -10  -2  -5    7.11    0.74   3
 -10  -2  -5   11.20    1.30   4
  10   2   5   11.13    1.21   1
  10   2   5    9.29    0.85   2
 -10  -2  -6    1.06    0.81   4
  10   2   6    0.64    0.83   1
  10   2   6   -0.18    0.66   2
 -10  -2  -7    3.69    0.91   4
  10   2   7    2.62    0.96   1
  10   2   7    2.41    0.82   2
 -10  -2  -8    2.15    0.87   4
  10   2   8    1.05    0.85   1
 -10  -2  -9   -0.95    0.84   4
  10   2   9    1.05    0.97   1
  10   2   9   -0.67    0.86   2
 -10  -2 -10    1.02    1.10   4
  10   2  10    0.61    1.03   1
  10   2  10   -0.56    0.89   2
 -10  -2 -11   -2.16    1.06   4
  10   2  11   -1.80    1.12   1
  10   2  11   -1.05    1.04   2
 -10  -3   2    4.48    1.28   3
  10   3  -2    4.25    1.25   1
  10   3  -2    3.87    1.19   4
 -10  -3   1    0.03    0.96   3
  10   3  -1    0.51    1.03   1
  10   3  -1    1.92    1.15   4
 -10  -3   0    5.25    1.07   3
  10   3   0    7.24    1.22   1
  10   3   0    6.64    1.22   4
 -10  -3  -1   -0.46    0.76   3
  10   3   1    1.83    0.86   1
  10   3   1    0.60    0.97   4
  10   3   2    7.22    1.02   1
  10   3   2    4.55    1.09   4
 -10  -3  -3    0.34    0.67   3
 -10  -3  -3   -0.49    0.80   4
  10   3   3    0.24    0.77   1
  10   3   3    0.29    0.55   2
 -10  -3  -4    0.65    0.63   3
 -10  -3  -4    1.44    0.80   4
  10   3   4    2.20    0.89   1
  10   3   4    1.03    0.63   2
 -10  -3  -5    2.20    0.62   3
 -10  -3  -5    4.02    0.94   4
  10   3   5    3.45    0.85   1
  10   3   5    2.97    0.74   2
 -10  -3  -6    9.15    1.18   4
  10   3   6    8.61    1.21   1
  10   3   6    8.08    0.93   2
  10   3   6    8.33    0.84   3
 -10  -3  -7    0.16    0.84   4
  10   3   7    0.80    0.88   1
  10   3   7   -0.01    0.73   2
 -10  -3  -8    3.20    0.99   4
  10   3   8    2.02    0.95   1
  10   3   8    2.91    0.90   2
 -10  -3  -9    0.57    0.92   4
  10   3   9    0.10    0.99   1
  10   3   9   -1.05    0.93   2
 -10  -3 -10    0.16    1.07   4
  10   3  10    0.52    1.09   1
  10   3  10    1.00    1.05   2
 -10  -3 -11   -0.17    1.12   4
  10   3  11    3.59    1.21   1
  10   3  11   -1.43    1.13   2
  10   4  -1   -0.38    1.04   1
  10   4  -1   -0.70    1.19   4
  10   4   0   -0.51    0.94   1
  10   4   0   -0.75    1.08   4
 -10  -4  -1   14.75    1.51   3
  10   4   1   15.13    1.67   1
  10   4   1   12.03    1.36   4
 -10  -4  -2   -0.35    0.81   3
  10   4   2    1.49    0.93   1
  10   4   2    0.34    0.95   4
 -10  -4  -3    1.66    0.75   3
  10   4   3    0.72    0.87   1
  10   4   3    1.16    0.64   2
  10   4   3    0.07    0.91   4
 -10  -4  -4    1.10    0.66   3
 -10  -4  -4    2.08    0.95   4
  10   4   4    1.57    0.86   1
  10   4   4    2.29    0.71   2
 -10  -4  -5    2.90    0.92   4
  10   4   5    3.30    0.95   1
  10   4   5    4.84    0.85   2
  10   4   5    4.23    0.72   3
 -10  -4  -6    0.06    0.82   4
  10   4   6   -0.12    0.84   1
  10   4   6    0.78    0.75   2
 -10  -4  -7    1.56    0.87   4
  10   4   7    1.38    0.88   1
 -10  -4  -8    4.37    0.97   4
  10   4   8    7.75    1.25   1
  10   4   8    4.44    0.97   2
 -10  -4  -9    4.48    1.10   4
  10   4   9    2.42    1.11   1
  10   4   9    0.37    1.01   2
 -10  -4 -10    0.21    1.03   4
  10   4  10    0.47    1.14   1
  10   4  10   -0.34    1.09   2
 -10  -4 -11    1.69    1.23   4
  10   4  11   -0.02    1.32   1
  10   4  11   -0.07    1.19   2
 -10  -5   0    1.08    1.01   3
  10   5   0    2.35    1.06   1
  10   5   0    0.65    1.22   4
 -10  -5  -1   -0.24    0.95   3
  10   5   1   -1.51    0.97   1
  10   5   1    1.35    1.07   4
 -10  -5  -2    1.57    0.89   3
  10   5   2   -0.55    0.90   1
  10   5   2   -0.15    0.93   4
  10   5   3    1.93    0.97   1
  10   5   3    1.58    0.73   2
  10   5   3    0.94    0.94   4
 -10  -5  -4    3.22    1.04   4
  10   5   4    2.24    0.99   1
  10   5   4    2.34    0.83   2
  10   5   4    2.92    0.85   3
 -10  -5  -5    5.26    1.09   4
  10   5   5    4.83    1.01   1
  10   5   5    4.25    0.91   2
  10   5   5    3.64    0.78   3
 -10  -5  -6    0.07    0.89   4
  10   5   6    0.37    0.86   1
 -10  -5  -7    2.49    1.01   4
  10   5   7    4.47    1.10   1
  10   5   7    2.87    0.93   2
 -10  -5  -8    5.36    1.17   4
  10   5   8    5.65    1.22   1
  10   5   8    7.64    1.18   2
 -10  -5  -9    0.99    0.99   4
  10   5   9    0.74    1.08   1
  10   5   9    0.01    1.09   2
 -10  -5 -10    1.36    1.07   4
  10   5  10    0.25    1.22   1
  10   5  10    0.15    1.14   2
  10   6   1    1.77    1.13   1
  10   6   1   -1.04    1.07   3
  10   6   1    2.58    1.24   4
  10   6   2    1.63    1.09   1
  10   6   2    2.86    1.07   3
  10   6   2    3.02    1.22   4
  10   6   3   -0.04    1.02   1
  10   6   3   -0.50    0.82   2
  10   6   3    1.29    0.99   3
  10   6   3    1.54    1.04   4
  10   6   4    1.20    1.03   1
  10   6   4    1.64    0.90   2
  10   6   4    2.24    0.85   3
  10   6   4    0.86    1.01   4
 -10  -6  -5   -1.15    0.91   4
  10   6   5    1.15    1.01   1
  10   6   5    0.01    0.89   2
  10   6   5   -0.24    0.78   3
 -10  -6  -6    3.34    1.03   4
  10   6   6    5.61    1.19   1
  10   6   6    3.74    1.02   2
 -10  -6  -7   -0.74    0.97   4
  10   6   7   -0.56    1.02   1
  10   6   7   -0.44    0.98   2
 -10  -6  -8    5.22    1.23   4
  10   6   8    6.25    1.36   1
  10   6   8    4.99    1.20   2
 -10  -6  -9    2.88    1.15   4
  10   6   9    3.35    1.24   1
  10   6   9    2.65    1.14   2
  10   7   2   -0.11    1.13   1
  10   7   2    0.28    1.16   3
  10   7   2    1.09    1.18   4
  10   7   3    4.50    1.28   1
  10   7   3    5.27    1.11   2
  10   7   3    1.19    1.11   3
  10   7   3    4.66    1.37   4
  10   7   4    0.36    1.17   1
  10   7   4   -0.09    0.99   2
  10   7   4    0.10    0.98   3
  10   7   4    1.20    1.02   4
  10   7   5    2.94    1.23   1
  10   7   5   -0.42    1.06   2
  10   7   5    0.69    1.09   4
  10   7   6    4.21    1.33   1
  10   7   6    3.72    1.16   2
 -10  -7  -7    5.35    1.25   4
  10   7   7    5.40    1.38   1
  10   7   7    5.80    1.33   2
 -10  -7  -8   -0.93    1.09   4
  10   7   8    1.33    1.23   1
  10   7   8    0.00    1.14   2
 -11   2  -2    0.32    1.22   3
 -11   2  -2    0.94    1.29   4
  11  -2   2   -2.98    1.14   1
 -11   2  -3   -0.41    1.08   3
 -11   2  -3    0.51    1.08   4
  11  -2   3    0.43    1.16   1
 -11   2  -4    0.91    1.05   3
 -11   2  -4    0.17    1.14   4
  11  -2   4    0.36    1.23   1
 -11   2  -5    7.47    1.32   4
  11  -2   5    4.94    1.34   1
 -11   2  -6    3.67    1.18   4
  11  -2   6    0.08    1.19   1
 -11   2  -7    8.54    1.39   4
  11  -2   7    9.41    1.57   1
 -11   1  -1    2.22    1.21   3
  11  -1   1   -2.35    1.14   1
  11  -1   1    1.00    1.29   4
 -11   1  -2    1.68    1.14   3
 -11   1  -2    3.42    1.20   4
  11  -1   2    2.27    1.24   1
 -11   1  -3    2.24    1.07   3
 -11   1  -3    1.41    1.09   4
  11  -1   3    2.02    1.20   1
 -11   1  -4    0.97    0.95   3
 -11   1  -4   -1.67    1.07   4
  11  -1   4   -1.89    1.00   1
 -11   1  -5    9.25    1.40   4
  11  -1   5    9.15    1.42   1
 -11   1  -6    6.07    1.20   4
  11  -1   6    3.89    1.16   1
 -11   1  -7    2.28    1.14   4
  11  -1   7   -0.02    1.12   1
 -11   1  -8    7.10    1.33   4
  11  -1   8    7.97    1.48   1
  11  -1   8    5.28    1.03   2
 -11   0  -1    1.72    1.31   3
  11   0   1    1.79    1.22   1
  11   0   1    3.90    1.33   4
 -11   0  -2    1.65    1.16   3
 -11   0  -2    1.74    1.10   4
  11   0   2    1.42    1.12   1
 -11   0  -3    1.68    1.04   3
 -11   0  -3    0.44    1.08   4
  11   0   3   -1.62    1.07   1
 -11   0  -4    1.67    0.93   3
 -11   0  -4    1.73    1.03   4
  11   0   4    1.75    1.12   1
 -11   0  -5    1.41    0.96   4
  11   0   5   -2.01    0.93   1
 -11   0  -6    5.07    1.21   4
  11   0   6    3.92    1.05   1
 -11   0  -7    1.57    1.10   4
  11   0   7   -1.10    1.14   1
 -11   0  -8    3.63    1.10   4
  11   0   8    1.99    1.20   1
 -11   0  -9    1.94    1.18   4
  11   0   9    2.20    1.35   1
  11   0   9    1.02    1.10   2
 -11  -1  -1    4.25    1.24   3
  11   1   1    5.31    1.35   1
  11   1   1    3.52    1.29   4
 -11  -1  -2    1.01    1.02   3
  11   1   2    0.20    0.97   1
  11   1   2    1.38    1.13   4
 -11  -1  -3    6.56    1.08   3
 -11  -1  -3    7.55    1.38   4
  11   1   3    6.12    1.16   1
 -11  -1  -4    0.83    0.79   3
 -11  -1  -4   -0.12    0.98   4
  11   1   4    1.00    1.05   1
 -11  -1  -5   11.04    1.33   4
  11   1   5   10.87    1.46   1
 -11  -1  -6    1.23    1.05   4
  11   1   6   -1.17    1.03   1
 -11  -1  -7    0.57    1.10   4
  11   1   7    1.72    1.09   1
  11   1   7    1.00    0.86   2
 -11  -1  -8    1.81    1.00   4
  11   1   8   -0.21    1.15   1
 -11  -1  -9    1.78    1.14   4
  11   1   9    1.42    1.24   1
  11   1   9    0.91    1.04   2
 -11  -2  -1    0.28    1.03   3
  11   2   1   -2.47    1.04   1
  11   2   1    0.39    1.14   4
 -11  -2  -2   -0.10    0.94   3
  11   2   2   -1.47    1.06   1
  11   2   2    0.83    1.13   4
 -11  -2  -3   -0.35    0.86   3
 -11  -2  -3    1.83    1.16   4
  11   2   3    1.38    0.98   1
 -11  -2  -4    5.93    0.98   3
 -11  -2  -4    8.55    1.27   4
  11   2   4    8.68    1.29   1
 -11  -2  -5   -2.18    0.98   4
  11   2   5   -0.56    1.02   1
 -11  -2  -6    8.02    1.32   4
  11   2   6    7.72    1.37   1
 -11  -2  -7    0.98    1.09   4
  11   2   7    2.28    1.11   1
  11   2   7    0.76    0.80   2
 -11  -2  -8    1.92    1.05   4
  11   2   8    3.96    1.30   1
  11   2   8    2.68    0.97   2
 -11  -2  -9    0.81    1.07   4
  11   2   9   -0.53    1.17   1
  11   2   9   -0.75    0.97   2
 -11  -3  -1    0.43    1.10   3
  11   3   1   -1.11    1.16   1
  11   3   1    0.21    1.16   4
 -11  -3  -2    5.88    1.13   3
  11   3   2    5.87    1.24   1
  11   3   2    5.68    1.20   4
 -11  -3  -3   -0.33    0.93   3
  11   3   3    0.70    1.12   1
  11   3   3    0.66    1.05   4
 -11  -3  -4    1.08    0.82   3
 -11  -3  -4    0.66    1.06   4
  11   3   4    0.26    1.14   1
 -11  -3  -5    1.14    1.06   4
  11   3   5   -0.20    1.01   1
 -11  -3  -6    1.67    1.08   4
  11   3   6   -0.43    1.05   1
  11   3   6    0.09    0.84   2
 -11  -3  -7    5.20    1.23   4
  11   3   7    5.22    1.31   1
  11   3   7    4.50    1.02   2
 -11  -3  -8    3.43    1.11   4
  11   3   8   -0.78    1.09   1
  11   3   8    0.52    1.00   2
 -11  -3  -9    2.88    1.19   4
  11   3   9    2.80    1.24   1
  11   3   9    2.12    1.10   2
 -11  -4  -2   -0.52    1.00   3
  11   4   2    1.34    1.20   1
  11   4   2    0.08    1.13   4
 -11  -4  -3   11.30    1.23   3
  11   4   3   11.65    1.62   1
  11   4   3   12.13    1.52   4
 -11  -4  -4    2.71    1.20   4
  11   4   4    0.44    1.10   1
 -11  -4  -5    3.23    1.10   4
  11   4   5    3.18    1.21   1
 -11  -4  -6   -0.46    1.04   4
  11   4   6   -1.77    1.05   1
  11   4   6   -2.46    0.86   2
 -11  -4  -7    0.41    1.14   4
  11   4   7    1.25    1.09   1
  11   4   7    0.85    0.97   2
 -11  -4  -8    0.06    1.05   4
  11   4   8    0.28    1.24   1
  11   4   8    1.56    1.07   2
 -11  -4  -9    0.45    1.13   4
  11   4   9   -0.56    1.17   1
  11   4   9   -0.02    1.11   2
  11   5   3    2.78    1.22   1
  11   5   3    4.43    1.35   4
  11   5   4    5.15    1.29   1
  11   5   4    2.58    1.22   4
 -11  -5  -5    1.69    1.16   4
  11   5   5    0.22    1.12   1
 -11  -5  -6    8.85    1.36   4
  11   5   6    7.74    1.38   1
  11   5   6    6.37    1.13   2
 -11  -5  -7   -2.30    1.11   4
  11   5   7    1.16    1.10   1
  11   5   7   -0.98    1.01   2
 -11  -5  -8   -0.11    1.19   4
  11   5   8   -0.05    1.26   1
  11   5   8    0.24    1.10   2
   0   0   0    0.00    0.00   0
;
_shelx_hkl_checksum              41383
_shelx_shelxl_version_number     2014/7
_olex2_submission_special_instructions 'No special instructions were received'
loop_
_space_group_symop_operation_xyz
'x, y, z'
'-x, -y, -z'
loop_
_atom_site_label
_atom_site_type_symbol
_atom_site_fract_x
_atom_site_fract_y
_atom_site_fract_z
_atom_site_U_iso_or_equiv
_atom_site_adp_type
_atom_site_occupancy
_atom_site_site_symmetry_order
_atom_site_calc_flag
_atom_site_refinement_flags_posn
S1 S 0.30657(5) 0.30537(5) 0.26342(5) 0.04321(19) Uani 1 1 d .
O1 O 0.95999(17) 0.27393(16) -0.09433(14) 0.0545(4) Uani 1 1 d .
O2 O 0.82730(18) 0.07572(16) -0.00129(15) 0.0612(4) Uani 1 1 d .
O3 O 0.73909(15) 0.16315(13) 0.23746(13) 0.0431(3) Uani 1 1 d .
O4 O 0.38163(17) 0.60145(15) 0.15057(17) 0.0611(4) Uani 1 1 d .
O5 O 0.61572(16) 0.69027(13) 0.09602(14) 0.0482(4) Uani 1 1 d .
C1 C 1.0703(4) 0.3442(3) -0.3197(3) 0.0924(10) Uani 1 1 d .
H1A H 1.1117 0.3093 -0.4043 0.139 Uiso 1 1 calc GR
H1B H 1.1547 0.3767 -0.3012 0.139 Uiso 1 1 calc GR
H1C H 0.9906 0.4251 -0.3175 0.139 Uiso 1 1 calc GR
C2 C 0.9996(3) 0.2239(3) -0.2220(2) 0.0713(7) Uani 1 1 d .
H2A H 0.9048 0.1998 -0.2323 0.086 Uiso 1 1 calc R
H2B H 1.0744 0.1362 -0.2321 0.086 Uiso 1 1 calc R
C3 C 0.8727(2) 0.1887(2) 0.0058(2) 0.0424(5) Uani 1 1 d .
C4 C 0.9915(2) 0.2518(2) 0.1591(2) 0.0519(5) Uani 1 1 d .
H4A H 0.9688 0.2899 0.2407 0.078 Uiso 1 1 calc GR
H4B H 1.0643 0.3108 0.0912 0.078 Uiso 1 1 calc GR
H4C H 1.0380 0.1516 0.1622 0.078 Uiso 1 1 calc GR
C5 C 0.8389(2) 0.2569(2) 0.13274(19) 0.0392(4) Uani 1 1 d .
C6 C 0.7595(2) 0.41124(19) 0.12353(18) 0.0386(4) Uani 1 1 d .
H6 H 0.8216 0.4901 0.0919 0.046 Uiso 1 1 calc R
C7 C 0.6019(2) 0.43713(19) 0.15984(17) 0.0345(4) Uani 1 1 d .
C8 C 0.5198(2) 0.5834(2) 0.13633(18) 0.0374(4) Uani 1 1 d .
C9 C 0.5467(3) 0.8343(2) 0.0617(2) 0.0513(5) Uani 1 1 d .
H9A H 0.5232 0.8317 -0.0151 0.077 Uiso 1 1 calc GR
H9B H 0.6204 0.9062 0.0459 0.077 Uiso 1 1 calc GR
H9C H 0.4507 0.8606 0.1317 0.077 Uiso 1 1 calc GR
C10 C 0.5097(2) 0.31210(19) 0.21941(17) 0.0341(4) Uani 1 1 d .
C11 C 0.5815(2) 0.18340(19) 0.25454(17) 0.0339(4) Uani 1 1 d .
C12 C 0.4781(2) 0.07073(19) 0.31840(17) 0.0347(4) Uani 1 1 d .
C13 C 0.3231(2) 0.1231(2) 0.32752(18) 0.0398(4) Uani 1 1 d .
C14 C 0.2019(2) 0.0287(2) 0.3820(2) 0.0522(5) Uani 1 1 d .
H14 H 0.0982 0.0617 0.3887 0.063 Uiso 1 1 calc R
C15 C 0.2402(3) -0.1138(2) 0.4254(2) 0.0545(6) Uani 1 1 d .
H15 H 0.1602 -0.1769 0.4608 0.065 Uiso 1 1 calc R
C16 C 0.3930(3) -0.1678(2) 0.41876(18) 0.0441(5) Uani 1 1 d .
C17 C 0.5123(2) -0.0746(2) 0.36511(18) 0.0409(5) Uani 1 1 d .
H17 H 0.6154 -0.1085 0.3600 0.049 Uiso 1 1 calc R
C18 C 0.4259(3) -0.3261(2) 0.4666(2) 0.0593(6) Uani 1 1 d .
H18A H 0.4009 -0.3904 0.4174 0.089 Uiso 1 1 calc GR
H18B H 0.3617 -0.3433 0.5566 0.089 Uiso 1 1 calc GR
H18C H 0.5360 -0.3454 0.4563 0.089 Uiso 1 1 calc GR
loop_
_atom_site_aniso_label
_atom_site_aniso_U_11
_atom_site_aniso_U_22
_atom_site_aniso_U_33
_atom_site_aniso_U_23
_atom_site_aniso_U_13
_atom_site_aniso_U_12
S1 0.0330(3) 0.0364(3) 0.0575(3) 0.0016(2) -0.0161(2) -0.0006(2)
O1 0.0545(9) 0.0486(8) 0.0546(9) -0.0084(7) -0.0105(7) -0.0075(7)
O2 0.0583(10) 0.0453(9) 0.0793(11) -0.0180(8) -0.0171(8) -0.0120(7)
O3 0.0332(7) 0.0369(7) 0.0581(8) 0.0070(6) -0.0197(6) -0.0014(5)
O4 0.0456(9) 0.0385(8) 0.0999(12) 0.0066(8) -0.0328(9) 0.0002(6)
O5 0.0486(8) 0.0265(7) 0.0700(9) 0.0033(6) -0.0248(7) -0.0029(6)
C1 0.112(3) 0.088(2) 0.0581(17) -0.0042(15) -0.0091(16) -0.0093(18)
C2 0.0739(17) 0.0699(16) 0.0625(15) -0.0215(13) -0.0111(13) -0.0035(13)
C3 0.0278(9) 0.0339(10) 0.0630(13) -0.0041(9) -0.0149(9) 0.0007(8)
C4 0.0409(11) 0.0468(12) 0.0744(15) 0.0004(10) -0.0297(11) -0.0055(9)
C5 0.0309(9) 0.0329(10) 0.0536(11) 0.0022(8) -0.0162(8) -0.0059(7)
C6 0.0380(11) 0.0311(10) 0.0479(11) -0.0014(8) -0.0164(9) -0.0060(8)
C7 0.0402(10) 0.0281(9) 0.0382(10) -0.0027(7) -0.0179(8) -0.0022(7)
C8 0.0415(11) 0.0309(10) 0.0403(10) -0.0029(8) -0.0159(8) -0.0020(8)
C9 0.0665(14) 0.0257(10) 0.0604(13) 0.0005(9) -0.0245(11) -0.0003(9)
C10 0.0342(9) 0.0290(9) 0.0403(10) -0.0024(7) -0.0153(8) -0.0022(7)
C11 0.0319(9) 0.0336(9) 0.0372(10) -0.0023(8) -0.0140(8) -0.0026(7)
C12 0.0372(10) 0.0320(10) 0.0335(9) -0.0026(7) -0.0113(8) -0.0028(7)
C13 0.0393(11) 0.0354(10) 0.0418(10) 0.0000(8) -0.0120(8) -0.0046(8)
C14 0.0372(11) 0.0510(12) 0.0615(13) 0.0068(10) -0.0118(10) -0.0109(9)
C15 0.0541(14) 0.0464(12) 0.0556(13) 0.0087(10) -0.0112(10) -0.0179(10)
C16 0.0559(13) 0.0347(10) 0.0363(10) 0.0005(8) -0.0106(9) -0.0069(9)
C17 0.0438(11) 0.0366(10) 0.0405(10) -0.0018(8) -0.0149(9) -0.0001(8)
C18 0.0759(16) 0.0356(11) 0.0580(14) 0.0079(10) -0.0172(12) -0.0096(10)
loop_
_atom_type_symbol
_atom_type_description
_atom_type_scat_dispersion_real
_atom_type_scat_dispersion_imag
_atom_type_scat_source
C C 0.0033 0.0016 'International Tables Vol C Tables 4.2.6.8 and 6.1.1.4'
H H 0.0000 0.0000 'International Tables Vol C Tables 4.2.6.8 and 6.1.1.4'
O O 0.0106 0.0060 'International Tables Vol C Tables 4.2.6.8 and 6.1.1.4'
S S 0.1246 0.1234 'International Tables Vol C Tables 4.2.6.8 and 6.1.1.4'
loop_
_geom_angle_atom_site_label_1
_geom_angle_atom_site_label_2
_geom_angle_atom_site_label_3
_geom_angle
C13 S1 C10 90.46(9)
C3 O1 C2 116.13(17)
C11 O3 C5 115.25(13)
C8 O5 C9 116.03(16)
O1 C2 C1 107.8(2)
O1 C3 C5 109.98(16)
O2 C3 O1 125.2(2)
O2 C3 C5 124.82(19)
O3 C5 C3 107.67(15)
O3 C5 C4 105.48(15)
O3 C5 C6 111.83(15)
C4 C5 C3 109.84(16)
C6 C5 C3 108.84(15)
C6 C5 C4 113.01(15)
C7 C6 C5 121.42(16)
C6 C7 C8 123.34(17)
C6 C7 C10 117.07(16)
C10 C7 C8 119.52(16)
O4 C8 O5 124.03(17)
O4 C8 C7 123.11(17)
O5 C8 C7 112.85(16)
C7 C10 S1 128.29(14)
C11 C10 S1 112.00(14)
C11 C10 C7 119.60(17)
O3 C11 C12 121.75(15)
C10 C11 O3 123.34(16)
C10 C11 C12 114.81(16)
C13 C12 C11 109.67(16)
C13 C12 C17 120.38(16)
C17 C12 C11 129.93(17)
C12 C13 S1 113.04(14)
C12 C13 C14 119.66(18)
C14 C13 S1 127.29(16)
C15 C14 C13 118.4(2)
C14 C15 C16 122.97(19)
C15 C16 C18 119.81(19)
C17 C16 C15 118.61(18)
C17 C16 C18 121.57(19)
C16 C17 C12 119.99(18)
loop_
_geom_bond_atom_site_label_1
_geom_bond_atom_site_label_2
_geom_bond_distance
S1 C10 1.7382(18)
S1 C13 1.7349(19)
O1 C2 1.458(3)
O1 C3 1.329(2)
O2 C3 1.192(2)
O3 C5 1.444(2)
O3 C11 1.365(2)
O4 C8 1.199(2)
O5 C8 1.325(2)
O5 C9 1.448(2)
C1 C2 1.472(4)
C3 C5 1.537(3)
C4 C5 1.517(3)
C5 C6 1.508(2)
C6 C7 1.335(2)
C7 C8 1.483(2)
C7 C10 1.453(2)
C10 C11 1.350(2)
C11 C12 1.427(2)
C12 C13 1.398(3)
C12 C17 1.400(2)
C13 C14 1.401(3)
C14 C15 1.375(3)
C15 C16 1.389(3)
C16 C17 1.381(3)
C16 C18 1.506(3)
loop_
_cod_related_entry_id
_cod_related_entry_database
_cod_related_entry_code
1 PubChem 139051695
