#------------------------------------------------------------------------------
#$Date: 2025-08-18 18:33:07 +0300 (Mon, 18 Aug 2025) $
#$Revision: 301779 $
#$URL: file:///home/coder/svn-repositories/cod/cif/1/54/86/1548608.cif $
#------------------------------------------------------------------------------
#
# This file is available in the Crystallography Open Database (COD),
# http://www.crystallography.net/
#
# All data on this site have been placed in the public domain by the
# contributors.
#
data_1548608
loop_
_publ_author_name
'Jia, Jiru'
'Yu, Aimin'
'Ma, Shanshan'
'Zhang, Youquan'
'Li, Ke'
'Meng, Xiangtai'
_publ_section_title
;
 Solvent-Controlled Switchable Domino Reactions of MBH Carbonate:
 Synthesis of Benzothiophene Fused \a-Pyran, 2,3-Dihydrooxepine, and
 Oxatricyclodecene Derivatives.
;
_journal_issue                   22
_journal_name_full               'Organic letters'
_journal_page_first              6084
_journal_page_last               6087
_journal_paper_doi               10.1021/acs.orglett.7b02916
_journal_volume                  19
_journal_year                    2017
_chemical_formula_moiety         'C24 H25 F O7 S'
_chemical_formula_sum            'C24 H25 F O7 S'
_chemical_formula_weight         476.50
_space_group_crystal_system      triclinic
_space_group_IT_number           2
_space_group_name_Hall           '-P 1'
_space_group_name_H-M_alt        'P -1'
_symmetry_space_group_name_Hall  '-P 1'
_symmetry_space_group_name_H-M   'P -1'
_atom_sites_solution_hydrogens   mixed
_atom_sites_solution_primary     direct
_audit_creation_date             2017-09-11
_audit_creation_method
;
Olex2 1.2
(compiled 2016.11.07 svn.r3352 for OlexSys, GUI svn.r5261)
;
_cell_angle_alpha                97.178(9)
_cell_angle_beta                 95.839(9)
_cell_angle_gamma                100.355(8)
_cell_formula_units_Z            2
_cell_length_a                   7.7157(8)
_cell_length_b                   11.4525(10)
_cell_length_c                   13.9009(16)
_cell_measurement_reflns_used    1845
_cell_measurement_temperature    293(2)
_cell_measurement_theta_max      30.2090
_cell_measurement_theta_min      2.8430
_cell_volume                     1189.1(2)
_computing_cell_refinement       'CrysAlisPro 1.171.39.7e (Rigaku OD, 2015)'
_computing_data_collection       'CrysAlisPro 1.171.39.7e (Rigaku OD, 2015)'
_computing_data_reduction        'CrysAlisPro 1.171.39.7e (Rigaku OD, 2015)'
_computing_molecular_graphics    'Olex2 (Dolomanov et al., 2009)'
_computing_publication_material  'Olex2 (Dolomanov et al., 2009)'
_computing_structure_refinement  'ShelXL (Sheldrick, 2015)'
_computing_structure_solution    'ShelXT (Sheldrick, 2015)'
_diffrn_ambient_temperature      293(2)
_diffrn_detector                 'CCD plate'
_diffrn_measured_fraction_theta_full 0.999
_diffrn_measured_fraction_theta_max 0.999
_diffrn_measurement_details
;
List of Runs (angles in degrees, time in seconds):

  # Type    Start    End  Width  t~exp~   \w     \q     \k     \f   Frames
--------------------------------------------------------------------------
  1  \w    -75.00 120.00   1.00    8.00    --   30.00  54.00 240.00  195
  2  \w    -75.00  30.00   1.00    8.00    --   30.00  54.00   0.00  105
;
_diffrn_measurement_device       'abstract diffractometer'
_diffrn_measurement_device_type
'dtrek-CrysAlisPro-abstract goniometer imported rigaku-d*trek images'
_diffrn_measurement_method       '\w scans'
_diffrn_orient_matrix_type
'CrysAlisPro convention (1999,Acta A55,543-557)'
_diffrn_orient_matrix_UB_11      -0.0375953000
_diffrn_orient_matrix_UB_12      0.0015471000
_diffrn_orient_matrix_UB_13      0.0445210000
_diffrn_orient_matrix_UB_21      -0.0809851000
_diffrn_orient_matrix_UB_22      -0.0349134000
_diffrn_orient_matrix_UB_23      -0.0251128000
_diffrn_orient_matrix_UB_31      0.0300813000
_diffrn_orient_matrix_UB_32      -0.0531915000
_diffrn_orient_matrix_UB_33      0.0086981000
_diffrn_radiation_monochromator  graphite
_diffrn_radiation_probe          x-ray
_diffrn_radiation_type           MoK\a
_diffrn_radiation_wavelength     0.71073
_diffrn_reflns_av_R_equivalents  0.0325
_diffrn_reflns_av_unetI/netI     0.0650
_diffrn_reflns_Laue_measured_fraction_full 0.999
_diffrn_reflns_Laue_measured_fraction_max 0.999
_diffrn_reflns_limit_h_max       5
_diffrn_reflns_limit_h_min       -9
_diffrn_reflns_limit_k_max       13
_diffrn_reflns_limit_k_min       -13
_diffrn_reflns_limit_l_max       14
_diffrn_reflns_limit_l_min       -16
_diffrn_reflns_number            5758
_diffrn_reflns_point_group_measured_fraction_full 0.999
_diffrn_reflns_point_group_measured_fraction_max 0.999
_diffrn_reflns_theta_full        25.006
_diffrn_reflns_theta_max         25.006
_diffrn_reflns_theta_min         1.827
_diffrn_source                   'fine-focus sealed X-ray tube'
_diffrn_source_type              'Enhance (Mo) X-ray Source'
_exptl_absorpt_coefficient_mu    0.185
_exptl_absorpt_correction_T_max  1.00000
_exptl_absorpt_correction_T_min  0.69567
_exptl_absorpt_correction_type   multi-scan
_exptl_absorpt_process_details
;
CrysAlisPro 1.171.39.7e (Rigaku Oxford Diffraction, 2015)
Empirical absorption correction using spherical harmonics,
 implemented in SCALE3 ABSPACK scaling algorithm.
;
_exptl_crystal_density_diffrn    1.331
_exptl_crystal_description       block
_exptl_crystal_F_000             500
_refine_diff_density_max         0.275
_refine_diff_density_min         -0.279
_refine_diff_density_rms         0.080
_refine_ls_extinction_method     none
_refine_ls_goodness_of_fit_ref   1.214
_refine_ls_hydrogen_treatment    mixed
_refine_ls_matrix_type           full
_refine_ls_number_parameters     309
_refine_ls_number_reflns         4188
_refine_ls_number_restraints     0
_refine_ls_restrained_S_all      1.214
_refine_ls_R_factor_all          0.1045
_refine_ls_R_factor_gt           0.0702
_refine_ls_shift/su_max          0.000
_refine_ls_shift/su_mean         0.000
_refine_ls_structure_factor_coef Fsqd
_refine_ls_weighting_details
'w=1/[\s^2^(Fo^2^)+(0.1000P)^2^] where P=(Fo^2^+2Fc^2^)/3'
_refine_ls_weighting_scheme      calc
_refine_ls_wR_factor_gt          0.1904
_refine_ls_wR_factor_ref         0.2220
_reflns_Friedel_coverage         0.000
_reflns_number_gt                2850
_reflns_number_total             4188
_reflns_threshold_expression     'I > 2\s(I)'
_iucr_refine_instructions_details
;

    9.res created by SHELXL-2014/7

TITL 9_a.res in P-1
REM Old TITL 9 in P-1 #2
REM SHELXT solution in P-1
REM R1 0.350, Rweak 0.080, Alpha 0.082, Orientation as input
REM Formula found by SHELXT: C21 N2 O7 S
CELL 0.71073 7.715714 11.452483 13.900881 97.1775 95.8393 100.3548
ZERR 2 0.00082 0.001045 0.00155 0.0085 0.0089 0.0084
LATT 1
SFAC C H F O S
UNIT 48 50 2 14 2
 
L.S. 10
PLAN  20
BOND $H
LIST 6
fmap 2
acta
MORE -1
CONF
OMIT -3 50.02
REM <olex2.extras>
REM <HklSrc "%.\\9.hkl">
REM </olex2.extras>
 
WGHT    0.100000
FVAR       5.92130
S001  5    0.235836    0.080066    0.573219    11.00000    0.05111    0.04594 =
         0.06115    0.00357    0.00828   -0.00503
O002  4    0.601134    0.350890    0.534323    11.00000    0.05978    0.04903 =
         0.04134   -0.00232    0.00780   -0.00980
O003  4    0.834619    0.639954    0.721402    11.00000    0.06257    0.03637 =
         0.05809    0.00089    0.00787    0.00049
F004  3    0.514995    0.082089    0.200558    11.00000    0.10821    0.09799 =
         0.05341   -0.01585    0.02206    0.00399
O005  4    0.719218    0.586590    0.854292    11.00000    0.07790    0.06290 =
         0.05507   -0.01002    0.01721   -0.00558
O006  4    0.130413    0.168303    0.748348    11.00000    0.06092    0.11595 =
         0.06944    0.01519    0.01076   -0.02942
O007  4    1.126735    0.521167    0.823691    11.00000    0.05164    0.09573 =
         0.09338   -0.00364    0.00545   -0.00466
O008  4    0.338065    0.244840    0.871671    11.00000    0.07954    0.12428 =
         0.04754    0.00923    0.01734   -0.03004
C009  1    0.679437    0.438595    0.708973    11.00000    0.03933    0.03585 =
         0.04310    0.00189    0.00517   -0.00143
C00A  1    0.743916    0.563013    0.770921    11.00000    0.04022    0.04586 =
         0.04583    0.00135    0.00365    0.00696
C00B  1    0.435846    0.166595    0.448380    11.00000    0.04147    0.04563 =
         0.04472    0.00404   -0.00359    0.00944
C00C  1    0.837890    0.369389    0.710966    11.00000    0.04979    0.04077 =
         0.04881    0.00320    0.00923    0.00580
AFIX  23
H00A  2    0.875746    0.362919    0.778477    11.00000   -1.20000
H00B  2    0.793780    0.288580    0.676914    11.00000   -1.20000
AFIX   0
C00D  1    0.474391    0.252044    0.536612    11.00000    0.04085    0.03597 =
         0.04656    0.00412   -0.00154   -0.00198
C00E  1    0.408300    0.275238    0.714110    11.00000    0.03938    0.04156 =
         0.04428    0.00698    0.00640    0.00204
O00F  4    1.272649    0.568587    0.699137    11.00000    0.07318    0.07946 =
         0.17754    0.03851    0.05635    0.00254
C00G  1    0.277005    0.223427    0.777895    11.00000    0.04866    0.04697 =
         0.05143    0.00360    0.00954   -0.00321
C00H  1    0.308738    0.065840    0.459661    11.00000    0.04159    0.03807 =
         0.05771    0.00124    0.00028    0.00706
C00I  1    0.383080    0.219196    0.611781    11.00000    0.03943    0.04167 =
         0.04887    0.00582    0.00162    0.00214
C00J  1    0.998558    0.423506    0.666677    11.00000    0.05419    0.05227 =
         0.06699    0.01976    0.02104    0.01433
C00K  1    0.535726    0.367892    0.755869    11.00000    0.04485    0.04940 =
         0.03994    0.01096    0.00728    0.00210
AFIX  43
H00K  2    0.535650    0.391734    0.822317    11.00000   -1.20000
AFIX   0
C00L  1    0.613297    0.455146    0.604290    11.00000    0.05206    0.03914 =
         0.04337    0.00247    0.00321   -0.00439
AFIX  23
H00C  2    0.497155    0.476542    0.603570    11.00000   -1.20000
H00D  2    0.693515    0.521226    0.585246    11.00000   -1.20000
AFIX   0
C00M  1    0.907218    0.759779    0.771702    11.00000    0.06120    0.03703 =
         0.08284   -0.00271   -0.00236    0.00336
AFIX  23
H00E  2    0.978627    0.756421    0.832527    11.00000   -1.20000
H00F  2    0.812218    0.801584    0.786478    11.00000   -1.20000
AFIX   0
C00N  1    0.449497    0.077914    0.287486    11.00000    0.06332    0.06646 =
         0.04661   -0.00728    0.00420    0.01443
C00O  1    0.324261   -0.021362    0.296047    11.00000    0.06446    0.05240 =
         0.06207   -0.01448   -0.00069    0.01286
AFIX  43
H00O  2    0.289618   -0.083411    0.243933    11.00000   -1.20000
AFIX   0
C00P  1    0.507774    0.174247    0.360352    11.00000    0.05072    0.05798 =
         0.04587    0.00458    0.00365    0.00544
AFIX  43
H00P  2    0.590342    0.240726    0.351596    11.00000   -1.20000
AFIX   0
C00Q  1    0.250707   -0.028546    0.381605    11.00000    0.05626    0.04788 =
         0.07244   -0.00604    0.00222    0.00683
AFIX  43
H00Q  2    0.164499   -0.094319    0.387786    11.00000   -1.20000
AFIX   0
C00R  1    1.146569    0.511339    0.729405    11.00000    0.05494    0.06197 =
         0.10943    0.02489    0.02891    0.02121
C00S  1    1.019084    0.823379    0.705398    11.00000    0.07984    0.04912 =
         0.11477    0.02121    0.00909   -0.00160
AFIX 137
H00G  2    0.948726    0.821684    0.643987    11.00000   -1.50000
H00H  2    1.116991    0.784215    0.694775    11.00000   -1.50000
H00I  2    1.063471    0.905135    0.734794    11.00000   -1.50000
AFIX   0
C00T  1    1.024378    0.391657    0.578028    11.00000    0.07378    0.12604 =
         0.08368    0.02499    0.03653    0.03509
C00U  1    0.219274    0.200172    0.940351    11.00000    0.11084    0.12897 =
         0.06125   -0.00144    0.04175   -0.03058
AFIX  23
H00M  2    0.234408    0.259459    0.998384    11.00000   -1.20000
H00N  2    0.096983    0.187878    0.910429    11.00000   -1.20000
AFIX   0
C00V  1    0.256037    0.088510    0.967750    11.00000    0.26286    0.14984 =
         0.13738    0.06559    0.10982    0.03229
AFIX 137
H00R  2    0.237578    0.029108    0.910585    11.00000   -1.50000
H00S  2    0.177905    0.061640    1.013442    11.00000   -1.50000
H00T  2    0.377033    0.100652    0.997413    11.00000   -1.50000
AFIX   0
C1    1    1.266931    0.601408    0.892099    11.00000    0.05090    0.16496 =
         0.17208   -0.05789   -0.00015   -0.01009
AFIX  23
H1A   2    1.367839    0.562470    0.901533    11.00000   -1.20000
H1B   2    1.305597    0.673681    0.864103    11.00000   -1.20000
AFIX   0
C2    1    1.212266    0.632440    0.981451    11.00000    0.12461    0.23264 =
         0.08406    0.00405   -0.02672   -0.00844
AFIX 137
H2A   2    1.092840    0.645868    0.971845    11.00000   -1.50000
H2B   2    1.289397    0.704408    1.014938    11.00000   -1.50000
H2C   2    1.216461    0.568675    1.019846    11.00000   -1.50000
AFIX   0
H00J  2    0.938065    0.335657    0.531599    11.00000    0.07885
H00L  2    1.120956    0.422788    0.552292    11.00000    0.08229
HKLF 4
 
REM  9_a.res in P-1
REM R1 =  0.0702 for    2850 Fo > 4sig(Fo)  and  0.1045 for all    4188 data
REM    309 parameters refined using      0 restraints
 
END  
     
WGHT      0.1093      0.6272 

REM Highest difference peak  0.275,  deepest hole -0.279,  1-sigma level  0.080
Q1    1   0.9058  0.9236  0.7129  11.00000  0.05    0.28
Q2    1   0.2128  0.1097  0.7694  11.00000  0.05    0.26
Q3    1   0.2242  0.0467  1.0231  11.00000  0.05    0.25
Q4    1   1.2110  0.6622  0.7452  11.00000  0.05    0.24
Q5    1   0.8166  0.2799  0.7528  11.00000  0.05    0.24
Q6    1   1.1317  0.9215  0.7869  11.00000  0.05    0.24
Q7    1   0.8217  0.1767  0.6925  11.00000  0.05    0.21
Q8    1  -0.1270  0.0937  0.8934  11.00000  0.05    0.21
Q9    1   1.0840  0.8352  0.5963  11.00000  0.05    0.21
Q10   1   0.9326  0.8060  0.6127  11.00000  0.05    0.21
Q11   1   1.2022  0.7973  0.9408  11.00000  0.05    0.21
Q12   1   0.8949  0.2545  0.5474  11.00000  0.05    0.20
Q13   1   0.0924  0.0685  0.5616  11.00000  0.05    0.20
Q14   1   0.0226 -0.0984  0.5077  11.00000  0.05    0.20
Q15   1   0.9763  0.5416  0.5941  11.00000  0.05    0.20
Q16   1   0.0835  0.0438  0.8570  11.00000  0.05    0.20
Q17   1   1.2138  0.7946  1.1089  11.00000  0.05    0.19
Q18   1   0.0638  0.1274  1.0805  11.00000  0.05    0.19
Q19   1   0.0845  0.1678  0.7397  11.00000  0.05    0.19
Q20   1   0.0998 -0.1887  0.4222  11.00000  0.05    0.19

  REM The information below was added by Olex2.
  REM
  REM R1 = 0.0702 for 2850 Fo > 4sig(Fo) and 0.1045 for all 9175 data
  REM n/a parameters refined using n/a restraints
  REM Highest difference peak 0.28, deepest hole -0.28
  REM Mean Shift 0, Max Shift 0.000.
  
  REM +++ Tabular Listing of Refinement Information +++
  REM R1_all = 0.1045
  REM R1_gt = 0.0702
  REM wR_ref = 0.2220
  REM GOOF = 1.214
  REM Shift_max = 0.000
  REM Shift_mean = 0
  REM Reflections_all = 9175
  REM Reflections_gt = 2850
  REM Parameters = n/a
  REM Hole = -0.28
  REM Peak = 0.28
  REM Flack = n/a
  
  
;
_cod_data_source_file            ol7b02916_si_003.cif
_cod_data_source_block           9
_cod_database_code               1548608
_shelx_space_group_comment
;
The symmetry employed for this shelxl refinement is uniquely defined
by the following loop, which should always be used as a source of
symmetry information in preference to the above space-group names.
They are only intended as comments.
;
_reflns_odcompleteness_completeness 82.64
_reflns_odcompleteness_iscentric 1
_reflns_odcompleteness_theta     32.90
_olex2_refinement_description
;
1. Fixed Uiso
 At 1.2 times of:
  All C(H) groups, All C(H,H) groups
 At 1.5 times of:
  All C(H,H,H) groups
2.a Secondary CH2 refined with riding coordinates:
 C00C(H00A,H00B), C00L(H00C,H00D), C00M(H00E,H00F), C00U(H00M,H00N), C1(H1A,H1B)
2.b Aromatic/amide H refined with riding coordinates:
 C00K(H00K), C00O(H00O), C00P(H00P), C00Q(H00Q)
2.c Idealised Me refined as rotating group:
 C00S(H00G,H00H,H00I), C00V(H00R,H00S,H00T), C2(H2A,H2B,H2C)
;
_shelx_shelxl_version_number     2014/7
_olex2_submission_special_instructions 'No special instructions were received'
_oxdiff_exptl_absorpt_empirical_details
;
Empirical correction (ABSPACK) includes:
- Absorption correction using spherical harmonics
- Frame scaling
;
_oxdiff_exptl_absorpt_empirical_full_max 1.409
_oxdiff_exptl_absorpt_empirical_full_min 0.688
loop_
_space_group_symop_operation_xyz
'x, y, z'
'-x, -y, -z'
loop_
_atom_site_label
_atom_site_type_symbol
_atom_site_fract_x
_atom_site_fract_y
_atom_site_fract_z
_atom_site_U_iso_or_equiv
_atom_site_adp_type
_atom_site_occupancy
_atom_site_site_symmetry_order
_atom_site_calc_flag
_atom_site_refinement_flags_posn
S001 S 0.23584(14) 0.08007(9) 0.57322(7) 0.0549(4) Uani 1 1 d .
O002 O 0.6011(4) 0.3509(2) 0.53432(16) 0.0533(7) Uani 1 1 d .
O003 O 0.8346(4) 0.6400(2) 0.72140(18) 0.0540(7) Uani 1 1 d .
F004 F 0.5150(4) 0.0821(3) 0.20056(18) 0.0901(10) Uani 1 1 d .
O005 O 0.7192(4) 0.5866(3) 0.8543(2) 0.0687(9) Uani 1 1 d .
O006 O 0.1304(5) 0.1683(4) 0.7483(2) 0.0877(12) Uani 1 1 d .
O007 O 1.1267(4) 0.5212(3) 0.8237(3) 0.0844(11) Uani 1 1 d .
O008 O 0.3381(5) 0.2448(4) 0.8717(2) 0.0897(12) Uani 1 1 d .
C009 C 0.6794(5) 0.4386(3) 0.7090(2) 0.0409(8) Uani 1 1 d .
C00A C 0.7439(5) 0.5630(3) 0.7709(3) 0.0447(9) Uani 1 1 d .
C00B C 0.4358(5) 0.1666(3) 0.4484(3) 0.0447(9) Uani 1 1 d .
C00C C 0.8379(5) 0.3694(3) 0.7110(3) 0.0469(9) Uani 1 1 d .
H00A H 0.8757 0.3629 0.7785 0.056 Uiso 1 1 calc R
H00B H 0.7938 0.2886 0.6769 0.056 Uiso 1 1 calc R
C00D C 0.4744(5) 0.2520(3) 0.5366(3) 0.0430(9) Uani 1 1 d .
C00E C 0.4083(5) 0.2752(3) 0.7141(2) 0.0423(9) Uani 1 1 d .
O00F O 1.2726(5) 0.5686(4) 0.6991(4) 0.1071(14) Uani 1 1 d .
C00G C 0.2770(6) 0.2234(4) 0.7779(3) 0.0507(10) Uani 1 1 d .
C00H C 0.3087(5) 0.0658(3) 0.4597(3) 0.0468(9) Uani 1 1 d .
C00I C 0.3831(5) 0.2192(3) 0.6118(3) 0.0444(9) Uani 1 1 d .
C00J C 0.9986(6) 0.4235(4) 0.6667(3) 0.0554(11) Uani 1 1 d .
C00K C 0.5357(5) 0.3679(3) 0.7559(3) 0.0451(9) Uani 1 1 d .
H00K H 0.5357 0.3917 0.8223 0.054 Uiso 1 1 calc R
C00L C 0.6133(5) 0.4551(3) 0.6043(2) 0.0470(9) Uani 1 1 d .
H00C H 0.4972 0.4765 0.6036 0.056 Uiso 1 1 calc R
H00D H 0.6935 0.5212 0.5852 0.056 Uiso 1 1 calc R
C00M C 0.9072(6) 0.7598(4) 0.7717(3) 0.0630(12) Uani 1 1 d .
H00E H 0.9786 0.7564 0.8325 0.076 Uiso 1 1 calc R
H00F H 0.8122 0.8016 0.7865 0.076 Uiso 1 1 calc R
C00N C 0.4495(6) 0.0779(4) 0.2875(3) 0.0601(11) Uani 1 1 d .
C00O C 0.3243(6) -0.0214(4) 0.2960(3) 0.0621(12) Uani 1 1 d .
H00O H 0.2896 -0.0834 0.2439 0.074 Uiso 1 1 calc R
C00P C 0.5078(5) 0.1742(4) 0.3604(3) 0.0526(10) Uani 1 1 d .
H00P H 0.5903 0.2407 0.3516 0.063 Uiso 1 1 calc R
C00Q C 0.2507(6) -0.0285(4) 0.3816(3) 0.0610(11) Uani 1 1 d .
H00Q H 0.1645 -0.0943 0.3878 0.073 Uiso 1 1 calc R
C00R C 1.1466(7) 0.5113(4) 0.7294(4) 0.0718(14) Uani 1 1 d .
C00S C 1.0191(7) 0.8234(4) 0.7054(4) 0.0825(15) Uani 1 1 d .
H00G H 0.9487 0.8217 0.6440 0.124 Uiso 1 1 calc GR
H00H H 1.1170 0.7842 0.6948 0.124 Uiso 1 1 calc GR
H00I H 1.0635 0.9051 0.7348 0.124 Uiso 1 1 calc GR
C00T C 1.0244(9) 0.3917(7) 0.5780(5) 0.0898(18) Uani 1 1 d .
C00U C 0.2193(9) 0.2002(6) 0.9404(4) 0.106(2) Uani 1 1 d .
H00M H 0.2344 0.2595 0.9984 0.128 Uiso 1 1 calc R
H00N H 0.0970 0.1879 0.9104 0.128 Uiso 1 1 calc R
C00V C 0.2560(14) 0.0885(8) 0.9678(6) 0.175(4) Uani 1 1 d .
H00R H 0.2376 0.0291 0.9106 0.262 Uiso 1 1 calc GR
H00S H 0.1779 0.0616 1.0134 0.262 Uiso 1 1 calc GR
H00T H 0.3770 0.1007 0.9974 0.262 Uiso 1 1 calc GR
C1 C 1.2669(8) 0.6014(8) 0.8921(6) 0.141(3) Uani 1 1 d .
H1A H 1.3678 0.5625 0.9015 0.170 Uiso 1 1 calc R
H1B H 1.3056 0.6737 0.8641 0.170 Uiso 1 1 calc R
C2 C 1.2123(11) 0.6324(9) 0.9815(5) 0.157(4) Uani 1 1 d .
H2A H 1.0928 0.6459 0.9718 0.236 Uiso 1 1 calc GR
H2B H 1.2894 0.7044 1.0149 0.236 Uiso 1 1 calc GR
H2C H 1.2165 0.5687 1.0198 0.236 Uiso 1 1 calc GR
H00J H 0.938(7) 0.336(5) 0.532(3) 0.079(17) Uiso 1 1 d .
H00L H 1.121(7) 0.423(5) 0.552(4) 0.082(17) Uiso 1 1 d .
loop_
_atom_site_aniso_label
_atom_site_aniso_U_11
_atom_site_aniso_U_22
_atom_site_aniso_U_33
_atom_site_aniso_U_23
_atom_site_aniso_U_13
_atom_site_aniso_U_12
S001 0.0511(7) 0.0459(6) 0.0611(7) 0.0036(5) 0.0083(5) -0.0050(5)
O002 0.0598(18) 0.0490(17) 0.0413(14) -0.0023(12) 0.0078(12) -0.0098(14)
O003 0.0626(19) 0.0364(16) 0.0581(16) 0.0009(12) 0.0079(13) 0.0005(14)
F004 0.108(2) 0.098(2) 0.0534(15) -0.0158(13) 0.0221(14) 0.0040(19)
O005 0.078(2) 0.063(2) 0.0551(18) -0.0100(14) 0.0172(15) -0.0056(17)
O006 0.061(2) 0.116(3) 0.069(2) 0.0152(19) 0.0108(16) -0.029(2)
O007 0.052(2) 0.096(3) 0.093(3) -0.004(2) 0.0055(18) -0.0047(19)
O008 0.080(2) 0.124(3) 0.0475(18) 0.0092(18) 0.0173(16) -0.030(2)
C009 0.039(2) 0.036(2) 0.0431(19) 0.0019(15) 0.0052(15) -0.0014(16)
C00A 0.040(2) 0.046(2) 0.046(2) 0.0013(17) 0.0037(16) 0.0070(18)
C00B 0.041(2) 0.046(2) 0.045(2) 0.0040(16) -0.0036(16) 0.0094(18)
C00C 0.050(2) 0.041(2) 0.049(2) 0.0032(16) 0.0092(17) 0.0058(18)
C00D 0.041(2) 0.036(2) 0.047(2) 0.0041(16) -0.0015(16) -0.0020(17)
C00E 0.039(2) 0.042(2) 0.044(2) 0.0070(16) 0.0064(16) 0.0020(17)
O00F 0.073(3) 0.079(3) 0.178(4) 0.039(3) 0.056(3) 0.003(2)
C00G 0.049(3) 0.047(2) 0.051(2) 0.0036(18) 0.0095(18) -0.003(2)
C00H 0.042(2) 0.038(2) 0.058(2) 0.0012(17) 0.0003(17) 0.0071(18)
C00I 0.039(2) 0.042(2) 0.049(2) 0.0058(16) 0.0016(16) 0.0021(17)
C00J 0.054(3) 0.052(3) 0.067(3) 0.020(2) 0.021(2) 0.014(2)
C00K 0.045(2) 0.049(2) 0.0399(19) 0.0110(16) 0.0073(16) 0.0021(19)
C00L 0.052(2) 0.039(2) 0.043(2) 0.0025(16) 0.0032(17) -0.0044(18)
C00M 0.061(3) 0.037(2) 0.083(3) -0.003(2) -0.002(2) 0.003(2)
C00N 0.063(3) 0.066(3) 0.047(2) -0.007(2) 0.0042(19) 0.014(2)
C00O 0.064(3) 0.052(3) 0.062(3) -0.014(2) -0.001(2) 0.013(2)
C00P 0.051(2) 0.058(3) 0.046(2) 0.0046(18) 0.0037(17) 0.005(2)
C00Q 0.056(3) 0.048(3) 0.072(3) -0.006(2) 0.002(2) 0.007(2)
C00R 0.055(3) 0.062(3) 0.109(4) 0.025(3) 0.029(3) 0.021(3)
C00S 0.080(4) 0.049(3) 0.115(4) 0.021(3) 0.009(3) -0.002(3)
C00T 0.074(4) 0.126(6) 0.084(4) 0.025(4) 0.037(3) 0.035(4)
C00U 0.111(5) 0.129(6) 0.061(3) -0.001(3) 0.042(3) -0.031(4)
C00V 0.263(12) 0.150(8) 0.137(7) 0.066(6) 0.110(8) 0.032(8)
C1 0.051(4) 0.165(8) 0.172(7) -0.058(6) 0.000(4) -0.010(4)
C2 0.125(7) 0.233(10) 0.084(5) 0.004(5) -0.027(4) -0.008(7)
loop_
_atom_type_symbol
_atom_type_description
_atom_type_scat_dispersion_real
_atom_type_scat_dispersion_imag
_atom_type_scat_source
C C 0.0033 0.0016 'International Tables Vol C Tables 4.2.6.8 and 6.1.1.4'
H H 0.0000 0.0000 'International Tables Vol C Tables 4.2.6.8 and 6.1.1.4'
F F 0.0171 0.0103 'International Tables Vol C Tables 4.2.6.8 and 6.1.1.4'
O O 0.0106 0.0060 'International Tables Vol C Tables 4.2.6.8 and 6.1.1.4'
S S 0.1246 0.1234 'International Tables Vol C Tables 4.2.6.8 and 6.1.1.4'
loop_
_geom_angle_atom_site_label_1
_geom_angle_atom_site_label_2
_geom_angle_atom_site_label_3
_geom_angle
C00H S001 C00I 92.21(18)
C00D O002 C00L 119.4(3)
C00A O003 C00M 117.5(3)
C00R O007 C1 117.4(5)
C00G O008 C00U 117.8(4)
C00A C009 C00C 108.5(3)
C00K C009 C00A 108.9(3)
C00K C009 C00C 106.9(3)
C00K C009 C00L 112.0(3)
C00L C009 C00A 108.9(3)
C00L C009 C00C 111.6(3)
O003 C00A C009 111.6(3)
O005 C00A O003 124.2(4)
O005 C00A C009 124.1(4)
C00H C00B C00D 110.8(3)
C00P C00B C00D 128.3(4)
C00P C00B C00H 121.0(3)
C009 C00C H00A 108.2
C009 C00C H00B 108.2
H00A C00C H00B 107.3
C00J C00C C009 116.5(3)
C00J C00C H00A 108.2
C00J C00C H00B 108.2
O002 C00D C00B 115.2(3)
O002 C00D C00I 129.7(3)
C00I C00D C00B 115.0(3)
C00I C00E C00G 116.5(3)
C00K C00E C00G 117.1(3)
C00K C00E C00I 126.3(3)
O006 C00G O008 122.0(4)
O006 C00G C00E 124.5(4)
O008 C00G C00E 113.5(3)
C00B C00H S001 112.0(3)
C00Q C00H S001 127.7(3)
C00Q C00H C00B 120.2(4)
C00D C00I S001 109.9(3)
C00D C00I C00E 129.1(3)
C00E C00I S001 120.6(3)
C00R C00J C00C 119.8(4)
C00T C00J C00C 123.6(5)
C00T C00J C00R 116.4(5)
C009 C00K H00K 115.9
C00E C00K C009 128.2(3)
C00E C00K H00K 115.9
O002 C00L C009 113.4(3)
O002 C00L H00C 108.9
O002 C00L H00D 108.9
C009 C00L H00C 108.9
C009 C00L H00D 108.9
H00C C00L H00D 107.7
O003 C00M H00E 110.3
O003 C00M H00F 110.3
O003 C00M C00S 107.2(4)
H00E C00M H00F 108.5
C00S C00M H00E 110.3
C00S C00M H00F 110.3
F004 C00N C00O 117.7(4)
F004 C00N C00P 118.2(4)
C00P C00N C00O 124.0(4)
C00N C00O H00O 120.0
C00Q C00O C00N 120.0(4)
C00Q C00O H00O 120.0
C00B C00P H00P 121.9
C00N C00P C00B 116.3(4)
C00N C00P H00P 121.9
C00H C00Q H00Q 120.7
C00O C00Q C00H 118.5(4)
C00O C00Q H00Q 120.7
O007 C00R C00J 112.8(4)
O00F C00R O007 122.5(6)
O00F C00R C00J 124.8(5)
C00M C00S H00G 109.5
C00M C00S H00H 109.5
C00M C00S H00I 109.5
H00G C00S H00H 109.5
H00G C00S H00I 109.5
H00H C00S H00I 109.5
C00J C00T H00J 123(3)
C00J C00T H00L 123(4)
H00J C00T H00L 113(5)
O008 C00U H00M 109.4
O008 C00U H00N 109.4
H00M C00U H00N 108.0
C00V C00U O008 111.0(6)
C00V C00U H00M 109.4
C00V C00U H00N 109.4
C00U C00V H00R 109.5
C00U C00V H00S 109.5
C00U C00V H00T 109.5
H00R C00V H00S 109.5
H00R C00V H00T 109.5
H00S C00V H00T 109.5
O007 C1 H1A 109.1
O007 C1 H1B 109.1
H1A C1 H1B 107.8
C2 C1 O007 112.5(6)
C2 C1 H1A 109.1
C2 C1 H1B 109.1
C1 C2 H2A 109.5
C1 C2 H2B 109.5
C1 C2 H2C 109.5
H2A C2 H2B 109.5
H2A C2 H2C 109.5
H2B C2 H2C 109.5
loop_
_geom_bond_atom_site_label_1
_geom_bond_atom_site_label_2
_geom_bond_distance
S001 C00H 1.727(4)
S001 C00I 1.769(4)
O002 C00D 1.362(4)
O002 C00L 1.425(4)
O003 C00A 1.330(5)
O003 C00M 1.446(5)
F004 C00N 1.359(5)
O005 C00A 1.199(4)
O006 C00G 1.196(5)
O007 C00R 1.328(6)
O007 C1 1.461(6)
O008 C00G 1.317(5)
O008 C00U 1.465(6)
C009 C00A 1.540(5)
C009 C00C 1.572(5)
C009 C00K 1.505(5)
C009 C00L 1.538(5)
C00B C00D 1.439(5)
C00B C00H 1.410(5)
C00B C00P 1.400(5)
C00C H00A 0.9700
C00C H00B 0.9700
C00C C00J 1.508(5)
C00D C00I 1.372(5)
C00E C00G 1.504(5)
C00E C00I 1.464(5)
C00E C00K 1.336(5)
O00F C00R 1.215(5)
C00H C00Q 1.407(6)
C00J C00R 1.497(7)
C00J C00T 1.286(7)
C00K H00K 0.9300
C00L H00C 0.9700
C00L H00D 0.9700
C00M H00E 0.9700
C00M H00F 0.9700
C00M C00S 1.493(6)
C00N C00O 1.379(6)
C00N C00P 1.377(6)
C00O H00O 0.9300
C00O C00Q 1.374(6)
C00P H00P 0.9300
C00Q H00Q 0.9300
C00S H00G 0.9600
C00S H00H 0.9600
C00S H00I 0.9600
C00T H00J 0.96(5)
C00T H00L 0.89(5)
C00U H00M 0.9700
C00U H00N 0.9700
C00U C00V 1.446(10)
C00V H00R 0.9600
C00V H00S 0.9600
C00V H00T 0.9600
C1 H1A 0.9700
C1 H1B 0.9700
C1 C2 1.377(9)
C2 H2A 0.9600
C2 H2B 0.9600
C2 H2C 0.9600
loop_
_geom_torsion_atom_site_label_1
_geom_torsion_atom_site_label_2
_geom_torsion_atom_site_label_3
_geom_torsion_atom_site_label_4
_geom_torsion
S001 C00H C00Q C00O 178.8(3)
O002 C00D C00I S001 -179.3(3)
O002 C00D C00I C00E -6.7(7)
F004 C00N C00O C00Q -178.4(4)
F004 C00N C00P C00B 179.5(3)
C009 C00C C00J C00R 90.4(4)
C009 C00C C00J C00T -95.3(6)
C00A O003 C00M C00S 173.6(3)
C00A C009 C00C C00J -63.1(4)
C00A C009 C00K C00E 157.1(4)
C00A C009 C00L O002 162.1(3)
C00B C00D C00I S001 -2.3(4)
C00B C00D C00I C00E 170.2(4)
C00B C00H C00Q C00O 1.8(6)
C00C C009 C00A O003 80.6(4)
C00C C009 C00A O005 -97.6(4)
C00C C009 C00K C00E -85.9(5)
C00C C009 C00L O002 42.4(4)
C00C C00J C00R O007 7.6(6)
C00C C00J C00R O00F -172.4(4)
C00D O002 C00L C009 69.3(4)
C00D C00B C00H S001 2.1(4)
C00D C00B C00H C00Q 179.5(3)
C00D C00B C00P C00N 178.8(4)
C00G O008 C00U C00V 98.6(7)
C00G C00E C00I S001 -12.7(5)
C00G C00E C00I C00D 175.5(4)
C00G C00E C00K C009 -178.0(3)
C00H S001 C00I C00D 2.9(3)
C00H S001 C00I C00E -170.4(3)
C00H C00B C00D O002 177.6(3)
C00H C00B C00D C00I 0.2(5)
C00H C00B C00P C00N -1.0(6)
C00I S001 C00H C00B -2.9(3)
C00I S001 C00H C00Q 179.9(4)
C00I C00E C00G O006 -23.5(6)
C00I C00E C00G O008 156.8(4)
C00I C00E C00K C009 1.7(6)
C00K C009 C00A O003 -163.4(3)
C00K C009 C00A O005 18.4(5)
C00K C009 C00C C00J 179.5(3)
C00K C009 C00L O002 -77.4(4)
C00K C00E C00G O006 156.2(5)
C00K C00E C00G O008 -23.5(5)
C00K C00E C00I S001 167.7(3)
C00K C00E C00I C00D -4.2(7)
C00L O002 C00D C00B 161.9(3)
C00L O002 C00D C00I -21.2(6)
C00L C009 C00A O003 -41.1(4)
C00L C009 C00A O005 140.7(4)
C00L C009 C00C C00J 56.8(4)
C00L C009 C00K C00E 36.6(5)
C00M O003 C00A O005 -0.2(6)
C00M O003 C00A C009 -178.4(3)
C00N C00O C00Q C00H -1.2(6)
C00O C00N C00P C00B 1.6(6)
C00P C00B C00D O002 -2.2(6)
C00P C00B C00D C00I -179.6(4)
C00P C00B C00H S001 -178.1(3)
C00P C00B C00H C00Q -0.7(6)
C00P C00N C00O C00Q -0.5(7)
C00R O007 C1 C2 162.2(7)
C00T C00J C00R O007 -167.0(5)
C00T C00J C00R O00F 13.0(7)
C00U O008 C00G O006 -0.8(7)
C00U O008 C00G C00E 178.9(5)
C1 O007 C00R O00F -2.1(8)
C1 O007 C00R C00J 177.9(5)
loop_
_refln_index_h
_refln_index_k
_refln_index_l
_refln_F_squared_meas
_refln_F_squared_sigma
_refln_scale_group_code
0 0 -2 206286 1150.44 2
0 0 -3 7106.79 264.278 2
0 0 -3 7326.56 229.968 1
0 0 -4 73845.7 840.611 1
0 0 -4 74718.3 994.993 2
0 0 -5 60.9785 71.8331 2
0 0 5 37.4598 38.6645 1
0 0 -5 73.1443 48.0962 1
0 0 -6 37498.1 727.488 1
0 0 6 39507 642.271 1
0 0 -6 38339.2 894.632 2
0 0 -7 77811.9 1107.11 1
0 0 7 78345.6 985.732 1
0 0 -7 77717.5 1393.08 2
0 0 -8 1733.75 234.054 2
0 0 8 1809.41 162.921 1
0 0 -9 197.39 126.044 2
0 0 9 169.977 67.3299 1
0 0 10 134.144 58.0074 1
0 0 -10 197.042 169.543 2
0 0 -11 261.471 181.434 2
0 0 11 416.438 105.639 1
0 0 -12 8066.19 639.463 2
0 0 -13 333.682 125.339 2
0 0 -14 1482.45 333.315 2
0 0 -15 214.933 133.879 2
0 0 -16 260.538 199.889 2
0 0 -17 338.327 163.278 2
0 0 -18 -111.969 160.669 2
0 0 -19 360.858 261.636 2
0 0 -20 64.6611 210.896 2
0 1 -20 459.227 327.78 2
0 1 -19 -81.9566 199.37 2
0 1 -18 353.008 211.786 2
0 1 -17 680.153 300.626 2
0 1 -16 1447.93 350.525 2
0 1 -15 151.911 138.25 2
0 1 -14 1280.52 296.007 2
0 1 -13 2881.98 391.148 2
0 1 -12 368.909 142.462 2
0 1 -11 306.531 195.766 2
0 1 -10 221.894 141.863 2
0 1 -9 1534.77 234.027 2
0 -1 9 1236.93 121.418 1
0 1 -8 8569.38 495.797 2
0 -1 8 8550.52 279.11 1
0 1 -7 -22.7435 103.586 2
0 -1 7 1.22178 33.9269 1
0 -1 6 981.879 78.9538 1
0 1 -6 978.368 143.575 2
0 -1 5 838.273 66.8821 1
0 1 -5 861.814 128.085 2
0 1 -4 4258.98 240.581 2
0 1 -3 32442.6 572.469 2
0 1 -2 154000 1045.3 2
0 1 -1 -82.7877 30.8788 2
0 -1 1 62950.9 497.25 2
0 -1 0 27.1675 19.8462 1
0 -1 -1 25.0066 30.3504 1
0 -1 -2 15314.1 316.914 2
0 -1 -2 15725 432.897 1
0 -1 -3 49432.6 708.735 2
0 -1 -3 50542.7 852.263 1
0 -1 -4 6360.93 330.422 1
0 -1 -4 6300.77 294.031 2
0 -1 -5 117693 1517.79 1
0 -1 -5 117062 1416.28 2
0 -1 -6 25536 750.576 1
0 -1 -6 24467.3 716.88 2
0 -1 -7 16806.4 646.017 2
0 -1 -7 17477.4 643.864 1
0 1 8 4998.05 321.169 1
0 -1 -8 4371.77 359.845 2
0 -1 -8 4258.91 333.67 1
0 1 9 6440.03 372.639 1
0 -1 -9 6010.31 418.225 1
0 -1 -9 6126.4 450.82 2
0 -1 -10 676.372 186.802 2
0 -1 -10 560.251 139.234 1
0 1 10 671.785 140.126 1
0 1 11 274.569 108.844 1
0 -1 -11 169.284 107.189 2
0 1 12 3549.95 307.062 1
0 -1 -12 3195.95 389.405 2
0 -1 -13 587.043 222.933 2
0 -1 -14 -81.5568 130.776 2
0 -1 -15 652.192 196.589 2
0 -1 -16 211.151 170.278 2
0 -1 -17 174.066 195.26 2
0 -1 -18 257.213 189.164 2
0 -1 -19 50.3181 254.975 2
0 2 -20 902.251 347.096 2
0 2 -19 420.976 308.082 2
0 2 -18 537.368 244.917 2
0 2 -17 809.648 290.123 2
0 2 -16 95.8931 178.843 2
0 2 -15 651.974 224.187 2
0 2 -14 229.575 139.364 2
0 2 -13 1745.3 330.605 2
0 2 -12 1803.05 292.357 2
0 2 -11 4604.21 458.063 2
0 2 -10 117.221 132.695 2
0 2 -9 3990.85 364.187 2
0 2 -8 61340.3 1324.1 2
0 2 -7 57045.6 1181.37 2
0 2 -6 1861.04 191.032 2
0 2 -5 7059 346.932 2
0 2 -4 18341.2 511.273 2
0 -2 4 18211.1 346.556 1
0 2 -3 2204.4 168.58 2
0 -2 3 2182.29 132.916 1
0 2 -2 129669 999.911 2
0 -2 2 128666 1124.2 1
0 -2 1 6617.74 277.865 1
0 2 -1 6552.37 182.931 2
0 -2 0 17584.9 496.022 1
0 -2 -1 12191.7 473.152 1
0 2 1 12417.4 222.403 2
0 -2 -2 38179.4 854.035 1
0 -2 -2 38214.7 514.014 2
0 -2 -3 25173.3 740.156 1
0 -2 -3 24722.6 496.717 2
0 -2 -4 709.598 103.362 2
0 -2 -4 781.759 142.532 1
0 -2 -5 7193.89 440.434 1
0 -2 -5 6402.24 334.405 2
0 -2 -6 5254.03 347.255 2
0 -2 -6 5459.84 417.922 1
0 -2 -7 1545.17 267.298 1
0 -2 -7 1408.66 215.16 2
0 -2 -8 630.596 150.912 1
0 -2 -8 662.737 146.941 2
0 -2 -9 1030.22 194.298 1
0 -2 -9 1147.77 214.25 2
0 -2 -10 19842.6 888.93 1
0 -2 -10 19291.9 856.951 2
0 2 10 19847 761.407 1
0 -2 -11 6353.58 518.317 1
0 2 11 5726.66 416.336 1
0 -2 -11 5880.92 507.538 2
0 2 12 537.296 144.273 1
0 -2 -12 782.218 206.263 2
0 -2 -12 800.842 199.664 1
0 -2 -13 -71.1549 129.574 2
0 -2 -14 199.555 196.364 2
0 -2 -15 181.853 168.723 2
0 -2 -16 46.475 174.418 2
0 -2 -17 199.761 235.919 2
0 -2 -18 1220.18 388.488 2
0 3 -20 238.352 326.13 2
0 3 -19 -170.518 187.878 2
0 3 -18 682.752 325.603 2
0 3 -17 105.917 166.885 2
0 3 -16 163.337 211.739 2
0 3 -15 -85.7889 173.266 2
0 3 -14 -71.8179 167.178 2
0 3 -13 1122.91 258.769 2
0 3 -12 3100.22 399.571 2
0 3 -11 9818.41 682.457 2
0 3 -10 1652.57 284.208 2
0 3 -9 6538.22 480.348 2
0 3 -8 2152.29 270.234 2
0 3 -7 11460 541.692 2
0 -3 7 9333.1 253.837 1
0 -3 6 2274.61 149.179 1
0 3 -6 2499.14 236.78 2
0 3 -5 35375.4 796.752 2
0 -3 5 34439.9 613.394 1
0 3 -4 14077.8 471.004 2
0 -3 4 15434.9 442.9 1
0 -3 3 35747.1 725.009 1
0 3 -3 30897.4 628.976 2
0 -3 2 252085 2019.17 1
0 3 -2 250226 1501.21 2
0 -3 1 21738.4 637.342 1
0 3 -1 21466.1 372.172 2
0 -3 0 13285.9 563.465 1
0 -3 -1 58521 1197.68 1
0 -3 -2 68787.8 1357.66 1
0 -3 -3 19190.7 452.538 2
0 -3 -3 18764.5 755.897 1
0 -3 -4 7132.88 498.028 1
0 -3 -4 7505.7 347.043 2
0 -3 -5 2326.32 308.405 1
0 -3 -5 2377.14 209.271 2
0 -3 -6 8405.05 568.355 1
0 -3 -6 8506.86 430.542 2
0 -3 -7 1581.55 264.039 1
0 -3 -7 1473.26 201.728 2
0 -3 -8 1679.51 260.036 2
0 -3 -8 1720.19 293.831 1
0 -3 -9 4801.68 477.101 1
0 -3 -9 4793.32 408.284 2
0 -3 -10 6165.49 559.979 1
0 -3 -10 6598.93 544.013 2
0 3 11 3163.61 352.99 1
0 -3 -11 2900.04 392.464 1
0 -3 -11 3179.63 380.894 2
0 -3 -12 -11.2771 131.943 1
0 3 12 -4.58091 101.796 1
0 -3 -12 -31.3834 99.4541 2
0 -3 -13 1141.81 258.477 2
0 3 13 1013.37 219.127 1
0 -3 -13 773.895 231.111 1
0 -3 -14 334.337 212.026 2
0 -3 -15 -2.32907 154.904 2
0 -3 -16 1284.71 338.195 2
0 -3 -17 380.873 240.18 2
0 4 -20 137.724 198.829 2
0 4 -19 -182.925 216.766 2
0 4 -18 743.951 263.526 2
0 4 -17 -106.066 164.498 2
0 4 -16 750.815 294.817 2
0 4 -15 153.407 151.62 2
0 4 -14 1966.85 381.602 2
0 4 -13 2398.69 370.895 2
0 4 -12 2753.94 378.34 2
0 4 -11 484.673 173.564 2
0 4 -10 -68.1025 124.97 2
0 4 -9 2373.51 308.267 2
0 4 -8 682.719 167.335 2
0 -4 7 16220.2 450.423 1
0 4 -7 18128.3 687.424 2
0 4 -6 16890.8 618.613 2
0 -4 6 16167.1 489.846 1
0 -4 5 516.06 105.17 1
0 4 -5 483.372 101.53 2
0 4 -4 4429.33 269.85 2
0 -4 4 4529.18 296.24 1
0 4 -3 20302 512.663 2
0 -4 3 19743.1 652.913 1
0 4 -2 145.685 36.4804 2
0 -4 2 56.6404 53.3555 1
0 -4 1 1744.89 215.944 1
0 4 -1 1880.77 121.229 2
0 4 0 11892.4 264.878 2
0 -4 0 11468.2 582.645 1
0 -4 -1 17235.2 729.73 1
0 -4 -2 12042.6 637.843 1
0 -4 -3 12097.8 659.759 1
0 -4 -4 35200.2 1180.49 1
0 -4 -4 35381.6 715.057 2
0 -4 -5 968.482 132.236 2
0 -4 -5 1023.51 214.579 1
0 -4 -6 3499.21 277.84 2
0 -4 -6 3402.38 396.758 1
0 -4 -7 2580.5 264.628 2
0 -4 -7 2664.42 369.188 1
0 -4 -8 1483.14 211.417 2
0 -4 -8 1937.57 328.303 1
0 -4 -9 130.145 101.833 2
0 -4 -9 130.911 155.57 1
0 -4 -10 5904.93 479.25 2
0 -4 -10 6335.04 622.132 1
0 -4 -11 6333.66 620.602 1
0 -4 -11 6613.57 550.472 2
0 -4 -12 -18.519 120.996 1
0 -4 -12 165.026 124.383 2
0 4 12 40.8094 130.241 1
0 -4 -13 349.717 212.154 2
0 4 13 114.538 133.419 1
0 -4 -13 316.163 194.117 1
0 -4 -14 -18.3333 169.309 2
0 -4 -15 287.513 174.804 2
0 -4 -16 635.256 249.661 2
0 5 -20 78.1591 197.437 2
0 5 -19 468.689 235.638 2
0 5 -18 129.729 235.4 2
0 5 -17 78.0846 186.767 2
0 5 -16 121.655 207.288 2
0 5 -15 60.9235 187.525 2
0 5 -14 -184.087 171.425 2
0 5 -13 6761.46 614.747 2
0 5 -12 1933.61 317.68 2
0 5 -11 3466.57 414.881 2
0 5 -10 2545.84 396.208 2
0 5 -9 1543.68 258.129 2
0 -5 8 171.168 58.7693 1
0 5 -8 47.7099 121.105 2
0 -5 7 529.508 176.995 1
0 5 -7 645.835 210.749 2
0 5 -6 2333.37 247.251 2
0 -5 6 2269.61 223.086 1
0 5 -5 4480.24 357.637 2
0 -5 5 7490.2 506.272 1
0 5 -4 21320.2 639.522 2
0 -5 4 21788 815.946 1
0 5 -3 13192.6 435.704 2
0 -5 3 13718 635.795 1
0 -5 2 5765.99 464.801 1
0 5 -2 5720.69 269.388 2
0 5 -1 16.274 36.3362 2
0 -5 1 27.5595 75.9008 1
0 5 0 22505.5 404.415 2
0 -5 0 22464.7 909.78 1
0 -5 -1 3582.38 422.378 1
0 -5 -2 87968.2 1911.04 1
0 -5 -3 76086.8 1830.12 1
0 -5 -4 629.109 180.127 1
0 -5 -5 16353.3 909.708 1
0 -5 -5 16329.6 554.589 2
0 -5 -6 474.364 186.245 1
0 -5 -6 476.193 113.333 2
0 -5 -7 4144.45 498.211 1
0 -5 -7 4169.04 337.029 2
0 -5 -8 27426.2 921.97 2
0 -5 -8 26712.3 1273.3 1
0 -5 -9 3271.51 354.316 2
0 -5 -9 3235.08 484.027 1
0 -5 -10 193.004 113.631 2
0 -5 -10 401.817 218.912 1
0 -5 -11 -86.3582 150.044 1
0 -5 -11 19.8934 94.5276 2
0 -5 -12 -76.0506 146.717 1
0 -5 -12 132.418 160.2 2
0 -5 -13 300.227 221.568 1
0 5 13 106.846 122.114 1
0 -5 -13 258.48 135.846 2
0 -5 -14 78.0349 144.354 2
0 -5 -15 109.573 184.208 2
0 6 -20 -37.0484 246.236 2
0 6 -19 292.381 285.012 2
0 6 -18 334.667 297.474 2
0 6 -17 171.284 209.592 2
0 6 -16 308.996 182.598 2
0 6 -15 388.176 230.885 2
0 6 -14 1824.21 355.943 2
0 6 -13 296.594 156.944 2
0 6 -12 1049.75 241.685 2
0 6 -11 7797.79 619.032 2
0 6 -10 1495.99 260.044 2
0 6 -9 5074.75 437.305 2
0 6 -8 8932.42 538.826 2
0 -6 8 7905.56 439.915 1
0 -6 7 1729.35 220.129 1
0 6 -7 1920.58 237.716 2
0 6 -6 882.072 159.411 2
0 -6 6 991.129 173.706 1
0 6 -5 8886.52 440.485 2
0 -6 5 8900.93 544.159 1
0 -6 4 15530.2 739.625 1
0 6 -4 16529.7 552.469 2
0 6 -3 3874.08 244.277 2
0 -6 3 3612.18 384.916 1
0 6 -2 693.824 144.29 2
0 -6 2 2372.79 462.488 1
0 6 -1 2349.29 156.597 2
0 -6 1 2551.38 350.195 1
0 -6 0 44026 1400.67 1
0 6 0 44273.3 606.006 2
0 -6 -1 3715.11 424.205 1
0 -6 -2 309.801 207.734 1
0 -6 -3 9834.31 728.409 1
0 -6 -4 549.34 217.935 1
0 -6 -5 874.774 252.639 1
0 -6 -6 6359.28 631.458 1
0 -6 -7 2431.99 443.661 1
0 -6 -7 2788.02 280.895 2
0 -6 -8 268.679 194.155 1
0 -6 -8 383.245 128.261 2
0 -6 -9 2952.14 338.355 2
0 -6 -9 3276 516.538 1
0 -6 -10 90.5714 86.4668 2
0 -6 -10 -29.3664 157.618 1
0 -6 -11 1232.07 259.916 2
0 -6 -11 1699 397.847 1
0 -6 -12 349.151 255.038 1
0 -6 -12 227.679 167.07 2
0 -6 -13 354.103 178.117 2
0 -6 -13 301.513 236.512 1
0 6 13 61.5198 143.449 1
0 -6 -14 298.237 236.607 1
0 7 -20 -452.932 311.073 2
0 7 -19 7.02128 236.296 2
0 7 -18 -65.2436 263.795 2
0 7 -17 -88.1684 192.447 2
0 7 -16 468.753 261.06 2
0 7 -15 -220.584 176.313 2
0 7 -14 312.731 217.36 2
0 7 -13 291.103 188.125 2
0 7 -12 1640.37 307.903 2
0 7 -11 677.954 219.002 2
0 7 -10 528.194 210.518 2
0 7 -9 -132.217 142.874 2
0 7 -8 48.8866 112.803 2
0 -7 8 -34.4329 66.7644 1
0 -7 7 315.687 142.659 1
0 7 -7 438.118 156.99 2
0 -7 6 1811.38 261.15 1
0 7 -6 1690.9 214.978 2
0 7 -5 1800.17 205.321 2
0 -7 5 1366.93 240.516 1
0 7 -4 13055.7 508.054 2
0 -7 4 13205.9 743.69 1
0 7 -3 15417.7 502.224 2
0 -7 3 14714.9 823.919 1
0 7 -2 9088.82 352.059 2
0 -7 2 9006.39 651.267 1
0 -7 1 9022.38 674.355 1
0 7 -1 8913.24 311.021 2
0 7 0 27118.8 497.741 2
0 -7 0 28505.2 1218.94 1
0 7 1 2500.07 144.884 2
0 -7 -1 2930.77 414.761 1
0 -7 -2 111.303 111.399 1
0 -7 -3 1125.09 290.499 1
0 -7 -4 1686.66 322.845 1
0 -7 -5 11022.2 865.638 1
0 -7 -6 12981.2 958.482 1
0 -7 -7 2140.78 429.544 1
0 -7 -8 2581.78 474.404 1
0 -7 -9 392.567 193.824 1
0 -7 -10 264.403 231.647 1
0 -7 -10 126.904 99.2842 2
0 -7 -11 216.792 237.109 1
0 -7 -12 44.8381 155.773 1
0 -7 -13 828.608 316.225 1
0 8 -19 -321.243 252.613 2
0 8 -18 -237.26 310.935 2
0 8 -17 70.2008 198.768 2
0 8 -16 90.8942 239.158 2
0 8 -15 -145.267 186.465 2
0 8 -14 -275.275 212.987 2
0 8 -13 184.583 176.03 2
0 8 -12 1186.83 286.689 2
0 8 -11 79.4593 162.861 2
0 8 -10 1558.51 282.621 2
0 -8 9 153.136 99.0421 1
0 8 -9 -174.728 135.505 2
0 -8 8 2280.61 303.312 1
0 8 -8 2214.02 291.843 2
0 -8 7 2199.88 348.072 1
0 8 -7 997.674 232.602 2
0 -8 6 4104.82 452.156 1
0 8 -6 2080.29 282.636 2
0 8 -5 87.4595 104.943 2
0 -8 5 40.137 90.8465 1
0 -8 4 2736.66 388.567 1
0 8 -4 2624.87 248.983 2
0 -8 3 12554.3 826.723 1
0 8 -3 12993 480.771 2
0 8 -2 3886.15 240.262 2
0 -8 2 3933.32 478.266 1
0 8 -1 1890.43 151.212 2
0 -8 1 2238.4 376.512 1
0 -8 0 4712.33 545.398 1
0 -8 -1 5829.47 633.3 1
0 -8 -2 -1.1726 137.608 1
0 -8 -3 25444.4 1335.44 1
0 -8 -4 15565.6 1064.76 1
0 -8 -5 3635.13 529.253 1
0 -8 -6 485.69 212.58 1
0 -8 -7 -28.1579 128.422 1
0 -8 -8 2023.94 409.732 1
0 -8 -9 1282.45 435.862 1
0 -8 -10 1281.59 377.893 1
0 -8 -11 1313.74 446.266 1
0 -8 -12 59.2845 194.514 1
0 -8 -13 -109.438 202.06 1
0 9 -18 -23.9873 255.408 2
0 9 -17 -235.963 273.334 2
0 9 -16 560.924 217.056 2
0 9 -15 424.779 227.919 2
0 9 -14 585.997 255.718 2
0 9 -13 499.167 149.109 2
0 9 -12 1693.88 333.96 2
0 9 -11 8262.2 667.258 2
0 9 -10 5532.61 522.981 2
0 9 -9 2057.05 312.307 2
0 -9 9 1757.98 290.123 1
0 9 -8 2063.71 276.101 2
0 -9 8 1876.09 304.449 1
0 -9 7 3371.43 420.822 1
0 9 -7 3522.58 352.516 2
0 9 -6 1417.88 217.595 2
0 -9 6 1038.04 257.641 1
0 9 -5 2943.95 278.199 2
0 -9 5 2582.11 391.086 1
0 -9 4 468.021 160.479 1
0 9 -4 512.236 117.748 2
0 9 -3 940.604 147.614 2
0 -9 3 1075.73 275.558 1
0 -9 2 698.703 243.08 1
0 9 -2 800.599 121.51 2
0 -9 1 243.13 130.789 1
0 -9 0 343.892 200.957 1
0 -9 -1 2321.31 428.799 1
0 -9 -2 171.525 194.1 1
0 -9 -3 299.141 189.805 1
0 -9 -4 109.033 180.717 1
0 -9 -5 -70.1597 183.742 1
0 -9 -6 472.316 263.496 1
0 -9 -7 757.813 282.29 1
0 -9 -8 -295.548 235.817 1
0 -9 -9 1214.24 417.732 1
0 -9 -10 -37.3667 237.411 1
0 -9 -11 532.35 293.598 1
0 -9 -12 912.334 353.063 1
0 -9 -13 287.96 210.473 1
0 10 -17 -208.033 230.102 2
0 10 -16 -189.385 199.682 2
0 10 -15 -191.595 174.861 2
0 10 -14 20.7265 165.408 2
0 10 -13 637.299 255.922 2
0 10 -12 358.118 202.242 2
0 10 -11 2933.41 417.687 2
0 10 -10 2037.48 339.898 2
0 10 -9 229.546 119.434 2
0 10 -8 103.053 113.028 2
0 -10 8 33.8385 103.116 1
0 10 -7 486.244 158.633 2
0 -10 7 499.117 216.7 1
0 10 -6 51.5775 75.6439 2
0 -10 6 109.777 140.488 1
0 10 -5 4204.41 328.937 2
0 -10 5 5118.71 583.411 1
0 -10 4 6680.44 681.65 1
0 10 -4 6202.01 373.412 2
0 -10 3 278.798 179.37 1
0 -10 2 404.942 205.537 1
0 -10 1 580.149 253.838 1
0 -10 0 2380.04 436.018 1
0 -10 -1 3580.47 561.984 1
0 -10 -2 -133.901 210.762 1
0 -10 -3 493.203 278.152 1
0 -10 -4 -72.3755 215.641 1
0 -10 -5 211.758 164.657 1
0 -10 -6 246.286 182.125 1
0 -10 -7 46.2782 187.966 1
0 -10 -8 407.052 244.608 1
0 -10 -9 -23.8627 268.605 1
0 -10 -10 1193.26 411.329 1
0 -10 -11 840.962 321.686 1
0 -10 -12 794.404 386.529 1
0 11 -16 -10.9546 196.673 2
0 11 -15 1004.06 362.938 2
0 11 -14 179.391 246.745 2
0 11 -13 199.474 203.756 2
0 11 -12 -2.19939 186.372 2
0 11 -11 129.335 128.672 2
0 11 -10 287.542 139.299 2
0 11 -9 545.088 194.844 2
0 11 -8 553.59 171.111 2
0 -11 8 260.224 167.789 1
0 11 -7 3631.15 372.882 2
0 -11 7 4534.1 561.011 1
0 11 -6 2784.11 301.931 2
0 -11 6 2946.1 466.474 1
0 -11 5 271.7 132.851 1
0 -11 4 1318.49 357.57 1
0 -11 3 4026.9 613.038 1
0 -11 2 183.143 247.626 1
0 -11 1 6542.53 782.591 1
0 -11 0 5598.8 691.735 1
0 -11 -1 494.07 235.574 1
0 -11 -2 431.05 266.947 1
0 -11 -3 1031.81 376.994 1
0 -11 -4 1619.59 429.349 1
0 -11 -5 237.341 217.654 1
0 -11 -6 -122.854 196.217 1
0 -11 -7 533.539 328.27 1
0 -11 -8 832.585 378.397 1
0 -11 -9 120.952 325.595 1
0 -11 -10 56.9006 302.956 1
0 -11 -11 482.212 361.137 1
0 -11 -12 609.043 341.477 1
0 12 -11 159.201 147.442 2
0 -12 8 831.461 281.876 1
0 -12 7 -67.0656 173.961 1
0 -12 6 739.929 279.966 1
0 -12 5 -107.511 200.086 1
0 -12 4 120.846 204.128 1
0 -12 3 438.73 230.318 1
0 -12 2 640.674 304.543 1
0 -12 1 2303.34 491.788 1
0 -12 0 1865.04 462.271 1
0 -12 -1 308.771 206.125 1
0 -12 -2 788.695 351.764 1
0 -12 -3 1047.38 391.728 1
0 -12 -4 -80.9712 236.238 1
0 -12 -5 27.6293 192.443 1
0 -12 -6 451.301 391.077 1
0 -12 -7 1309.88 468.04 1
0 -12 -8 412.012 335.273 1
0 -12 -9 1516.27 521.268 1
0 -12 -10 1663.35 565.368 1
0 -12 -11 516.024 428.884 1
0 -13 7 -92.5376 206.891 1
0 -13 6 1074.11 327.075 1
0 -13 5 1039.71 261.955 1
0 -13 4 161.416 175.137 1
0 -13 3 1301.81 402.781 1
0 -13 2 299.277 233.007 1
0 -13 1 -174.272 185.551 1
0 -13 0 711.919 320.379 1
0 -13 -1 1559.99 470.952 1
0 -13 -2 614.54 370.838 1
0 -13 -3 146.635 233.346 1
0 -13 -4 109.591 208.328 1
0 -13 -5 1375.13 501.754 1
0 -13 -6 318.976 271.555 1
0 -13 -7 244.41 354.633 1
0 -13 -8 592.412 430.815 1
0 -13 -9 -82.2002 248.369 1
0 -13 -10 388.046 366.478 1
0 -14 6 529.244 307.329 1
0 -14 5 -282.71 245.085 1
0 -14 4 592.494 309.166 1
0 -14 3 -68.1994 258.764 1
0 -14 2 -87.4182 237.816 1
0 -14 1 479.352 352.551 1
0 -14 0 952.276 462.717 1
0 -14 -1 239.176 269.04 1
0 -14 -2 207.046 274.873 1
0 -14 -3 287.838 353.168 1
0 -14 -4 -77.8293 217.342 1
0 -14 -5 1162.77 544.084 1
0 -14 -6 117.026 298.975 1
0 -14 -7 191.788 330.794 1
0 -14 -8 -222.299 264.307 1
0 -14 -9 880.279 473.674 1
0 -15 5 17.096 291.113 1
0 -15 4 143.508 202.834 1
0 -15 3 624.092 325.403 1
0 -15 2 2140.96 600.54 1
0 -15 1 -82.2116 237.997 1
0 -15 0 697.707 417.477 1
0 -15 -1 -73.8571 314.006 1
0 -15 -2 -88.9286 296.943 1
0 -15 -3 61.7733 262.572 1
0 -15 -4 389.129 424.86 1
0 -15 -5 -417.054 394.115 1
0 -15 -6 -201.14 394.065 1
0 -15 -7 -143.344 332.833 1
0 -16 2 -134.141 362.305 1
0 -16 1 613.139 472.704 1
0 -16 0 -234.206 235.928 1
0 -16 -1 358.23 392.168 1
0 -16 -2 703.412 363.667 1
0 -16 -3 294.628 345.023 1
0 -16 -4 -51.3718 264.606 1
1 -16 -5 226.221 467.125 1
1 -16 -4 11.6708 337.487 1
1 -16 -3 639.995 328.143 1
1 -16 -2 -163.729 280.429 1
1 -16 -1 -145.399 302.796 1
1 -16 0 28.7411 278.149 1
1 -16 1 580.312 349.808 1
1 -16 2 -329.117 383.114 1
1 -15 -8 339.669 462.319 1
1 -15 -7 -266.578 285.734 1
1 -15 -6 -129.098 279.063 1
1 -15 -5 -419.911 448.049 1
1 -15 -4 927.822 421.717 1
1 -15 -3 -161.058 282.418 1
1 -15 -2 633.225 283.287 1
1 -15 -1 809.495 394.138 1
1 -15 0 59.2284 240.24 1
1 -15 1 -229.447 240.331 1
1 -15 2 330.967 293.664 1
1 -15 3 436.241 312.581 1
1 -15 4 -6.23077 219.547 1
1 -14 -9 -35.8216 288.301 1
1 -14 -8 -100.21 335.162 1
1 -14 -7 -521.138 407.288 1
1 -14 -6 1258.57 457.865 1
1 -14 -5 276.511 342.193 1
1 -14 -4 51.1549 220.874 1
1 -14 -3 200.295 261.969 1
1 -14 -2 540.235 371.375 1
1 -14 -1 11.0202 221.61 1
1 -14 0 272.932 329.116 1
1 -14 1 125.765 186.574 1
1 -14 2 201.301 192.708 1
1 -14 3 140.586 202.213 1
1 -14 4 232.413 211.078 1
1 -14 5 295.623 236.79 1
1 -14 6 279.071 205.61 1
1 -13 -11 -1019.52 562.36 1
1 -13 -10 399.368 362.086 1
1 -13 -9 317.835 349.352 1
1 -13 -8 119.777 271.187 1
1 -13 -7 239.8 272.771 1
1 -13 -6 68.4224 219.275 1
1 -13 -5 373.986 334.438 1
1 -13 -4 440.034 248.399 1
1 -13 -3 985.022 369.456 1
1 -13 -2 188.478 273.527 1
1 -13 -1 -249.358 192.881 1
1 -13 0 127.948 208.017 1
1 -13 1 289.964 290.88 1
1 -13 2 112.282 185.057 1
1 -13 3 -37.8242 182.829 1
1 -13 4 416.741 258.322 1
1 -13 5 3.18393 172.214 1
1 -13 6 88.5265 205.949 1
1 -13 7 297.838 188.071 1
1 -12 -12 295.145 390.853 1
-1 12 11 310.665 275.524 1
1 -12 -11 817.391 464.617 1
1 -12 -10 -162.578 257.162 1
1 -12 -9 455.775 367.194 1
1 -12 -8 -16.0194 261.899 1
1 -12 -7 456.905 276.596 1
1 -12 -6 711.951 313.968 1
1 -12 -5 615.037 336.911 1
1 -12 -4 439.57 336.717 1
1 -12 -3 343.227 274.083 1
1 -12 -2 498.208 324.794 1
1 -12 -1 265.381 359.242 1
1 -12 0 948.985 347.395 1
1 -12 1 4264.6 653.616 1
1 -12 2 6851.55 802.104 1
1 -12 3 1448.49 379.988 1
1 -12 4 -143.571 207.867 1
1 -12 5 2555.43 458.939 1
1 -12 6 2927.77 490.673 1
-1 12 -7 49.2234 123.704 2
1 -12 7 122.755 147.694 1
-1 12 -8 3388.1 410.052 2
-1 12 -9 1054.41 259.268 2
-1 12 -10 43.666 131.028 2
-1 12 -11 -106.289 170.219 2
-1 12 -12 1193.91 329.839 2
-1 12 -13 385.119 261.959 2
-1 12 -14 137.28 171.06 2
1 -11 -12 123.675 300.586 1
-1 11 12 -52.9464 242.716 1
1 -11 -11 537.563 352.625 1
1 -11 -10 239.257 278.387 1
1 -11 -9 115.736 245.749 1
1 -11 -8 -106.612 273.791 1
1 -11 -7 -255.106 249.51 1
1 -11 -6 377.717 307.788 1
1 -11 -5 164.598 212.795 1
1 -11 -4 131.378 165.211 1
1 -11 -3 317.341 234.83 1
1 -11 -2 265.703 187.137 1
1 -11 -1 1658.15 403.906 1
1 -11 0 7747.23 826.057 1
1 -11 1 606.605 235.937 1
1 -11 2 -26.7951 160.316 1
1 -11 3 3937.71 563.064 1
-1 11 -3 3982.69 323.741 2
-1 11 -4 1130.59 197.526 2
1 -11 4 1185.6 319.816 1
1 -11 5 1221.36 310.782 1
-1 11 -5 1467.5 233.383 2
-1 11 -6 1489.67 254.216 2
1 -11 6 1105 270.901 1
1 -11 7 224.734 139.871 1
-1 11 -7 -36.6481 140.416 2
1 -11 8 58.3601 142.614 1
-1 11 -8 351.853 173.256 2
-1 11 -9 1605.22 304.372 2
-1 11 -10 2647.57 382.1 2
-1 11 -11 1501.83 321.651 2
-1 11 -12 27.3948 188.044 2
-1 11 -13 150.16 148.297 2
-1 11 -14 -46.2335 190.491 2
-1 11 -15 -319.319 169.496 2
-1 11 -16 -131.877 242.119 2
-1 10 13 2275.24 500.482 1
1 -10 -13 1451.93 529.595 1
1 -10 -12 104.39 277.983 1
-1 10 12 84.5201 195.05 1
1 -10 -11 733.12 304.512 1
1 -10 -10 88.4083 234.061 1
1 -10 -9 755.717 326.811 1
1 -10 -8 1427.73 426.664 1
1 -10 -7 1476.12 428.963 1
1 -10 -6 514.044 260.706 1
1 -10 -5 1792.06 459.562 1
1 -10 -4 1964.24 441.153 1
1 -10 -3 3268.8 547.01 1
1 -10 -2 2580.26 498.936 1
1 -10 -1 568.354 270.835 1
1 -10 0 -59.2169 158.672 1
-1 10 -1 6123.35 359.46 2
1 -10 1 6806.74 715.548 1
-1 10 -2 2035.29 222.935 2
1 -10 2 2727.74 471.259 1
1 -10 3 226.567 148.91 1
-1 10 -3 328.942 106.309 2
-1 10 -4 1330.44 198.113 2
1 -10 4 1389.85 313.344 1
-1 10 -5 3580.93 340.309 2
1 -10 5 3182.1 454.843 1
1 -10 6 449.722 183.416 1
-1 10 -6 710.449 177.207 2
1 -10 7 3792.05 456.39 1
-1 10 -7 3103.32 344.4 2
-1 10 -8 1116.03 248.319 2
1 -10 8 1565.81 287.059 1
-1 10 -9 -274.28 191.564 2
-1 10 -10 237.166 150.219 2
-1 10 -11 -328.752 216.133 2
-1 10 -12 -68.4867 199.03 2
-1 10 -13 132.303 170.088 2
-1 10 -14 409.047 262.616 2
-1 10 -15 235.095 198 2
-1 10 -16 240.005 219.364 2
-1 10 -17 -528.931 348.02 2
-1 10 -18 176.713 212.912 2
-1 9 13 -197.547 199.869 1
1 -9 -13 285.222 326.159 1
1 -9 -12 271.342 253.644 1
-1 9 12 371.444 287.24 1
1 -9 -11 146.535 230.528 1
1 -9 -10 -154.695 220.09 1
1 -9 -9 37.1293 206.751 1
1 -9 -8 2414.48 535.632 1
1 -9 -7 5529.47 714.788 1
1 -9 -6 855.8 290.726 1
1 -9 -5 3384.67 548.773 1
1 -9 -4 3826.14 589.535 1
1 -9 -3 112.212 210.273 1
1 -9 -2 904.176 312.338 1
1 -9 -1 49.6879 111.127 1
1 -9 0 10560.2 865.474 1
-1 9 0 11592.1 468.186 2
-1 9 -1 15997.2 563.238 2
1 -9 1 15345.1 994.485 1
-1 9 -2 4687.39 337.4 2
1 -9 2 4936.52 593.844 1
1 -9 3 991.004 282.272 1
-1 9 -3 1357.65 191.942 2
1 -9 4 66.9715 126.122 1
-1 9 -4 138.198 104.37 2
1 -9 5 1597.15 294.011 1
-1 9 -5 1511.07 217.233 2
1 -9 6 1534.47 277.44 1
-1 9 -6 1466.99 243.437 2
-1 9 -7 472.759 176.897 2
1 -9 7 438.904 158.669 1
-1 9 -8 807.788 225.728 2
1 -9 8 734.635 197.154 1
-1 9 -9 1981.41 315.45 2
-1 9 -10 886.524 236.512 2
-1 9 -11 55.0648 148.526 2
-1 9 -12 52.4736 152.795 2
-1 9 -13 -84.0489 157.42 2
-1 9 -14 -325.233 226.853 2
-1 9 -15 304.628 167.445 2
-1 9 -16 -244.401 281.383 2
-1 9 -17 154.728 223.876 2
-1 9 -18 64.2894 270.572 2
-1 9 -19 94.725 259.532 2
-1 8 14 -290.41 236.23 1
1 -8 -14 -92.5181 184.081 1
-1 8 13 136.363 159.423 1
1 -8 -13 290.811 296.392 1
1 -8 -12 337.63 228.942 1
-1 8 12 -64.6598 155.203 1
1 -8 -11 491.637 282.777 1
1 -8 -10 344.04 230.018 1
1 -8 -9 -71.5701 176.831 1
1 -8 -8 1668.2 590.402 1
1 -8 -7 332.246 194.705 1
1 -8 -6 2127.68 412.952 1
1 -8 -5 894.898 315.318 1
1 -8 -4 180.588 167.12 1
1 -8 -3 27.3152 107.038 1
1 -8 -2 14979.9 996.422 1
1 -8 -1 8303.28 736.512 1
1 -8 0 1233.69 284.269 1
-1 8 0 1384.62 165.351 2
-1 8 -1 97.609 82.9248 2
1 -8 1 -4.83879 86.8949 1
1 -8 2 2392.88 354.119 1
-1 8 -2 2440.29 231.506 2
1 -8 3 6425 566.047 1
-1 8 -3 6855.59 395.033 2
1 -8 4 1234.12 236.901 1
-1 8 -4 1169.5 190.373 2
-1 8 -5 1773.2 221.594 2
1 -8 5 1939.33 299.27 1
1 -8 6 1172.55 216.677 1
-1 8 -6 983.835 190.403 2
1 -8 7 36.6653 80.8388 1
-1 8 -7 185.342 149.077 2
-1 8 -8 130.664 108.779 2
1 -8 8 -39.1411 81.216 1
-1 8 -9 1373.99 260.03 2
-1 8 -10 -55.6184 127.914 2
-1 8 -11 4816.39 508.994 2
-1 8 -12 406.647 212.653 2
-1 8 -13 -413.505 224.203 2
-1 8 -14 4.6872 202.272 2
-1 8 -15 -103.416 165.672 2
-1 8 -16 204.316 208.249 2
-1 8 -17 529.29 328.528 2
-1 8 -18 241.035 217.36 2
-1 8 -19 47.1352 212.233 2
1 -7 -14 49.3609 191.563 1
-1 7 14 -94.3397 144.488 1
-1 7 13 222.019 200.131 1
1 -7 -13 161.398 177.76 1
-1 7 12 120.024 173.131 1
1 -7 -12 113.356 271.946 1
-1 7 11 1242.58 296.201 1
1 -7 -11 1374.1 378.259 1
1 -7 -10 1742.16 412.836 1
1 -7 -9 4276.99 627.777 1
1 -7 -8 586.128 361.114 1
1 -7 -7 14334.2 1041.42 1
1 -7 -6 4783.55 585.852 1
1 -7 -5 1352.69 337.412 1
1 -7 -4 3702.34 498.389 1
1 -7 -3 3333.93 452.918 1
1 -7 -2 5113.13 566.691 1
1 -7 -1 6468.56 603.743 1
1 -7 0 12832.1 804.75 1
-1 7 -1 760.64 115.638 2
1 -7 1 1093.52 228.313 1
-1 7 -2 1483.72 198.165 2
1 -7 2 3528.83 408.908 1
-1 7 -3 16674.2 598.896 2
1 -7 3 17306.8 832.213 1
1 -7 4 20240.4 875.31 1
-1 7 -4 19918.9 681.646 2
-1 7 -5 719.456 161.749 2
1 -7 5 989.486 212.231 1
-1 7 -6 1990.24 245.577 2
1 -7 6 2179.42 272.76 1
1 -7 7 2843.83 283.397 1
-1 7 -7 3048.38 334.53 2
-1 7 -8 2228.02 310.571 2
1 -7 8 2073.01 233.355 1
-1 7 -9 1040.96 265.43 2
-1 7 -10 9165.3 631.898 2
-1 7 -11 1714.72 300.356 2
-1 7 -12 717.698 225.106 2
-1 7 -13 666.962 242.49 2
-1 7 -14 3414.95 489.551 2
-1 7 -15 462.187 263.007 2
-1 7 -16 604.776 338.75 2
-1 7 -17 671.9 318.148 2
-1 7 -18 217.754 189.478 2
-1 7 -19 -395.029 289.818 2
-1 7 -20 316.374 242.121 2
-1 6 14 181.911 179.849 1
1 -6 -14 34.3569 159.228 1
1 -6 -14 -69.0949 162.725 2
-1 6 13 1282.43 302.208 1
1 -6 -13 1900.42 404.568 1
1 -6 -13 1275.45 303.436 2
-1 6 12 136.737 147.609 1
1 -6 -12 395.649 205.454 2
1 -6 -12 308.674 195.617 1
1 -6 -11 85.4343 116.135 2
-1 6 11 256.119 132.22 1
1 -6 -11 260.452 229.356 1
1 -6 -10 3160.89 394.303 2
1 -6 -10 2463.39 445.47 1
1 -6 -9 19980.5 912.569 2
1 -6 -9 20063.8 1195.9 1
1 -6 -8 399.494 226.915 1
1 -6 -7 2404.16 414.595 1
1 -6 -6 4704.84 552.943 1
1 -6 -5 249.544 162.248 1
1 -6 -4 70.8737 113.863 1
1 -6 -3 13674.5 841.168 1
1 -6 -2 69677.5 1834.46 1
1 -6 -1 5625.66 525.143 1
1 -6 0 24552 1021.72 1
1 -6 1 687.939 171.418 1
-1 6 -1 626.254 115.675 2
-1 6 -2 100.033 92.9445 2
1 -6 2 251.747 166.532 1
1 -6 3 37575.9 1119.96 1
-1 6 -3 39116.6 881.022 2
-1 6 -4 7931.09 423.695 2
1 -6 4 8092.92 496.409 1
1 -6 5 4891.53 366.402 1
-1 6 -5 4776.35 349.762 2
-1 6 -6 537.42 159.046 2
1 -6 6 514.232 124.433 1
1 -6 7 1428.57 171.931 1
-1 6 -7 1483.09 222.181 2
-1 6 -8 5686.45 455.376 2
-1 6 -9 -22.5397 138.789 2
-1 6 -10 -9.62815 130.445 2
-1 6 -11 26.0419 122.131 2
-1 6 -12 4119.45 470.089 2
-1 6 -13 383.775 198.2 2
-1 6 -14 654.408 261.695 2
-1 6 -15 -114.341 172.793 2
-1 6 -16 155.069 177.617 2
-1 6 -17 592.575 292.703 2
-1 6 -18 80.5839 230.592 2
-1 6 -19 539.291 309.596 2
-1 6 -20 -208.724 257.986 2
1 -5 -16 439.139 250.059 2
1 -5 -15 1496.26 365.633 2
1 -5 -14 49.0988 146.568 1
-1 5 14 456.801 226.727 1
1 -5 -14 208.685 224.032 2
-1 5 13 398.256 190.977 1
1 -5 -13 287.259 186.824 2
1 -5 -13 123.149 167.618 1
1 -5 -12 99.5837 154.865 2
1 -5 -12 -10.1609 171.765 1
-1 5 12 -116.435 104.33 1
-1 5 11 3534.34 431.226 1
1 -5 -11 3685.91 444.84 2
1 -5 -11 3860.19 553.313 1
1 -5 -10 353.611 185.201 2
1 -5 -10 334.774 188.416 1
-1 5 10 114.514 124.098 1
1 -5 -9 2809.56 334.705 2
1 -5 -9 2911.4 426.202 1
1 -5 -8 187.577 124.022 1
1 -5 -8 158.59 137.788 2
1 -5 -7 4090.92 496.4 1
1 -5 -7 3874.75 355.797 2
1 -5 -6 10128.8 730.618 1
1 -5 -5 3010.2 404.522 1
1 -5 -4 1523.91 275.998 1
1 -5 -3 26256.6 1055.52 1
1 -5 -2 3761.59 377.25 1
1 -5 -1 3851.2 393.592 1
1 -5 0 21744.4 863.316 1
1 -5 1 4239.92 372.82 1
1 -5 2 7793.71 477.74 1
-1 5 -2 8390 362.551 2
-1 5 -3 3013.02 233.606 2
1 -5 3 3127.33 288.332 1
-1 5 -4 8600.08 414.306 2
1 -5 4 8446.04 436.267 1
-1 5 -5 100.465 79.9478 2
1 -5 5 61.8682 61.7464 1
1 -5 6 1674.28 167.235 1
-1 5 -6 1634.56 211.904 2
-1 5 -7 1235.36 175.996 2
-1 5 -7 1160.3 101.379 1
1 -5 7 1254.8 121.846 1
-1 5 -8 9277.16 566.644 2
-1 5 -9 18630.7 833.038 2
-1 5 -10 401.589 154.164 2
-1 5 -11 -263.736 192.862 2
-1 5 -12 1496.67 273.692 2
-1 5 -13 -97.3775 186.59 2
-1 5 -14 683.726 225.004 2
-1 5 -15 819.604 273.292 2
-1 5 -16 261.883 227.938 2
-1 5 -17 -136.844 210.936 2
-1 5 -18 168.801 210.886 2
-1 5 -19 172.636 201.225 2
-1 5 -20 272.019 328.728 2
1 -4 -17 110.491 194.533 2
1 -4 -16 -168.175 165.725 2
1 -4 -15 532.18 237.537 2
1 -4 -14 259.132 234.47 2
-1 4 14 166.754 164.878 1
1 -4 -13 532.147 203.529 1
1 -4 -13 589.318 243.878 2
-1 4 13 476.816 158.514 1
1 -4 -12 1027.81 347.799 1
1 -4 -12 775.088 239.888 2
-1 4 12 1104.8 246.213 1
1 -4 -11 4739.97 547.649 1
1 -4 -11 5170.32 504.414 2
-1 4 11 5038.97 482.771 1
1 -4 -10 2138.86 358.789 1
1 -4 -10 2480.84 337.933 2
-1 4 10 2308.26 328.037 1
1 -4 -9 7598.71 541.067 2
1 -4 -9 8191.2 682.015 1
-1 4 9 8494.21 575.553 1
1 -4 -8 5421.34 457.429 2
1 -4 -8 5015.35 582.646 1
1 -4 -7 1695.3 304.122 2
1 -4 -7 3124.57 425.041 1
1 -4 -6 21787.9 1003.65 1
1 -4 -6 21378.6 758.474 2
1 -4 -5 1851.47 339.061 1
1 -4 -5 1430.02 229.063 2
1 -4 -4 55.6699 106.656 1
1 -4 -3 2958.57 334.829 1
1 -4 -2 1222.8 210.913 1
1 -4 -1 17318.9 715.087 1
1 -4 0 1003.36 177.061 1
1 -4 1 2698.63 256.912 1
1 -4 2 7036.83 397.318 1
-1 4 -2 5428.62 292.419 2
-1 4 -3 6383.5 326.596 2
1 -4 3 6767.69 347.783 1
1 -4 4 12860.4 440.798 1
-1 4 -4 13091.6 494.397 2
-1 4 -5 398.124 109.083 2
1 -4 5 454.92 79.2298 1
1 -4 6 14698.1 330.038 1
-1 4 -6 13863.8 286.412 1
-1 4 -7 9399.93 533.168 2
-1 4 -8 22762.3 865.362 2
-1 4 -9 15189.2 740.038 2
-1 4 -10 2021.7 311.009 2
-1 4 -11 195.048 134.841 2
-1 4 -12 834.539 234.112 2
-1 4 -13 3250.53 447.144 2
-1 4 -14 -123.663 165.744 2
-1 4 -15 220.409 184.675 2
-1 4 -16 62.7505 199.264 2
-1 4 -17 1.42173 199.106 2
-1 4 -18 132.902 296.386 2
-1 4 -19 23.2033 234.782 2
-1 4 -20 35.6413 254.964 2
1 -3 -18 452.889 213.009 2
1 -3 -17 680.31 313.915 2
1 -3 -16 497.434 267.777 2
1 -3 -15 326.266 233.219 2
1 -3 -14 1285.04 329.118 2
1 -3 -13 5916.13 595.603 2
-1 3 13 5863.01 497.082 1
-1 3 12 1363.91 253.492 1
1 -3 -12 1278.91 296.85 2
1 -3 -11 1578.22 287.727 2
-1 3 11 1597.8 264.365 1
1 -3 -11 1227.58 274.141 1
1 -3 -10 8856.44 609.092 2
-1 3 10 9162.28 576.172 1
1 -3 -10 9546.23 690.112 1
1 -3 -9 981.605 191.637 2
-1 3 9 1305.35 232.98 1
1 -3 -9 1439.15 269.455 1
1 -3 -8 2602.22 345.815 1
1 -3 -8 2622.37 295.464 2
-1 3 8 2723.64 299.379 1
1 -3 -7 16890.3 818.432 1
1 -3 -7 17138.9 690.758 2
-1 3 7 17156.5 712.409 1
1 -3 -6 16089.5 628.486 2
1 -3 -6 16604.9 781.805 1
1 -3 -5 64014.6 1165.59 2
1 -3 -5 63689.4 1479.38 1
1 -3 -4 28252.1 730.262 2
1 -3 -4 30288.9 981.184 1
1 -3 -3 23015.4 809.983 1
1 -3 -2 71920 1353.56 1
1 -3 -1 109725 1583.11 1
1 -3 0 45167.4 952.107 1
1 -3 1 494408 2945.69 1
1 -3 2 239280 1868.65 1
-1 3 -2 242145 1765.3 2
-1 3 -3 3700.93 236.522 2
1 -3 3 4190.11 218.638 1
1 -3 4 22614.8 429.11 1
-1 3 -4 21767.7 369.033 1
-1 3 -4 22582.9 624.489 2
-1 3 -5 10475.6 458.574 2
-1 3 -6 3892.04 310.39 2
-1 3 -7 263.675 117.757 2
-1 3 -8 3555.39 339.026 2
-1 3 -9 4780.4 404.006 2
-1 3 -10 18.5663 104.546 2
-1 3 -11 2001.57 311.283 2
-1 3 -12 1863.56 305.199 2
-1 3 -13 543.815 218.654 2
-1 3 -14 2610.12 389.363 2
-1 3 -15 827.411 270.57 2
-1 3 -16 -235.93 226.665 2
-1 3 -17 416.982 211.95 2
-1 3 -18 -30.3065 250.676 2
-1 3 -19 -202.591 254.979 2
-1 3 -20 -520.138 345.116 2
1 -2 -19 -316.087 304.171 2
1 -2 -18 82.7703 188.949 2
1 -2 -17 84.8077 153.106 2
1 -2 -16 196.66 176.532 2
1 -2 -15 576.471 279.111 2
1 -2 -14 201.505 140.822 2
-1 2 13 2417.65 297.233 1
1 -2 -13 2659.16 386.976 2
1 -2 -12 1598.94 303.76 2
-1 2 12 1508.44 233.512 1
1 -2 -11 13647.3 787.471 2
-1 2 11 15081.2 692.11 1
1 -2 -10 13695 744.472 2
-1 2 10 14891.7 666.07 1
1 -2 -9 23345 925.322 1
-1 2 9 23822.1 818.714 1
1 -2 -9 23727.9 927.142 2
1 -2 -8 7074.88 468.617 2
-1 2 8 7479.27 454.408 1
1 -2 -8 7856.77 528.953 1
-1 2 7 612.834 135.718 1
1 -2 -7 841.951 203.951 1
1 -2 -7 1195.02 249.043 2
-1 2 6 352.08 105.632 1
1 -2 -6 298.986 95.4595 1
1 -2 -6 371.034 113.294 2
1 -2 -5 9363.48 447.076 2
1 -2 -5 9870.93 528.663 1
-1 2 5 10354.1 449.943 1
1 -2 -4 946.42 174.537 1
-1 2 4 948.802 142.419 1
1 -2 -4 1015.67 142.904 2
1 -2 -3 1383.56 182.803 1
-1 2 3 1168.24 142.37 1
1 -2 -3 974.186 122.645 2
1 -2 -2 128209 1529.26 1
-1 2 1 32332.6 634.732 1
1 -2 -1 40524 872.058 1
1 -2 0 331907 2122.47 1
-1 2 0 351104 1875.25 1
1 -2 1 290416 1777.15 1
-1 2 -1 304337 1551.6 1
-1 2 -2 124715 1200.63 2
-1 2 -2 127487 897.649 1
-1 2 -3 6414.02 298.955 2
-1 2 -3 6171.26 169.983 1
-1 2 -4 6445.89 321.907 2
-1 2 -5 10803.8 450.157 2
-1 2 -6 1623.44 205.678 2
-1 2 -7 26723.4 841.013 2
-1 2 -8 1035.22 189.685 2
-1 2 -9 1203.17 225.519 2
-1 2 -10 856.786 218.963 2
-1 2 -11 1236.63 250.84 2
-1 2 -12 736.425 254.286 2
-1 2 -13 523.372 186.449 2
-1 2 -14 535.127 226.366 2
-1 2 -15 517.147 253.474 2
-1 2 -16 -157.527 187.86 2
-1 2 -17 1069.31 321.969 2
-1 2 -18 987.966 293.905 2
-1 2 -19 -88.8636 188.04 2
-1 2 -20 -396.227 267.831 2
1 -1 -19 253.544 243.389 2
1 -1 -18 -144.325 203.233 2
1 -1 -17 132.461 161.386 2
1 -1 -16 262.14 229.163 2
1 -1 -15 490.938 210.329 2
1 -1 -14 -126.086 162.887 2
1 -1 -13 349.907 196.648 2
-1 1 12 5102.56 385.766 1
1 -1 -12 5723.45 537.177 2
1 -1 -11 7062.21 576.001 2
-1 1 11 7018.82 436.068 1
-1 1 10 14118.6 594.179 1
1 -1 -10 13355.2 734.937 2
1 -1 -9 924.732 179.535 2
-1 1 9 920.031 165.555 1
1 -1 -8 2392.47 334.66 2
-1 1 8 1277.13 182.465 1
-1 1 7 16337.3 566.843 1
1 -1 -7 15816.5 652.81 2
1 -1 -6 23088.8 794.546 2
-1 1 6 19883.7 619.171 1
1 -1 -5 24411 719.977 2
-1 1 5 23529.6 608.384 1
-1 1 4 15570.7 460.311 1
1 -1 -4 14380.6 504.018 1
1 -1 -4 15345.6 512.227 2
-1 1 3 11900.5 383.925 1
1 -1 -3 11809.2 416.651 2
1 -1 -2 3768.98 209.794 2
-1 1 2 3893.66 196.968 1
-1 1 1 17285.9 382.371 1
-1 1 0 8382.3 241.827 1
-1 1 -1 40858.3 483.726 1
1 -1 2 4244.66 150.151 1
-1 1 -2 4152.42 148.429 1
-1 1 -2 4055.82 202.591 2
-1 1 -3 25647.4 377.676 1
1 -1 3 25591.6 356.691 1
-1 1 -3 24922.7 557.219 2
-1 1 -4 14036.3 465.999 2
-1 1 -4 12355.2 273.42 1
-1 1 -5 49605.7 947.391 2
-1 1 -5 48725.2 590.931 1
-1 1 -6 98245.3 888.173 1
-1 1 -6 99562.6 1457.59 2
-1 1 -7 1870.91 129.926 1
-1 1 -7 2780.52 313.248 2
-1 1 -8 29796.1 908.031 2
-1 1 -8 28768.8 522.877 1
-1 1 -9 784.691 171.599 2
-1 1 -10 1178.02 261.357 2
-1 1 -11 4049.81 427.477 2
-1 1 -12 1427.1 306.927 2
-1 1 -13 517.285 176.923 2
-1 1 -14 211.589 150.557 2
-1 1 -15 799.617 294.881 2
-1 1 -16 62.7293 149.498 2
-1 1 -17 187.485 202.708 2
-1 1 -18 190.31 219.484 2
-1 1 -19 419.858 283.858 2
1 0 -20 466.948 312.334 2
1 0 -19 -244.733 307.294 2
1 0 -18 937.779 337.298 2
1 0 -17 2175.92 423.01 2
1 0 -16 606.021 245.506 2
1 0 -15 93.8418 153.075 2
1 0 -14 2245.03 388.966 2
1 0 -13 2014.53 341.575 2
1 0 -12 1883.16 299.63 2
-1 0 12 1811.02 210.686 1
-1 0 11 938.691 152.677 1
1 0 -11 860.678 210.68 2
1 0 -10 14696.5 752.629 2
-1 0 10 14613 556.091 1
-1 0 9 1402.12 173.998 1
1 0 -9 1276.46 215.691 2
1 0 -8 2586.97 278.202 2
-1 0 8 2907.3 232.183 1
1 0 -7 2827.2 276.909 2
-1 0 7 2797.74 215.3 1
1 0 -6 16285.2 606.19 2
-1 0 6 16806.8 483.602 1
-1 0 5 7668.44 306.077 1
1 0 -5 7814.78 387.206 2
-1 0 4 874.051 101.849 1
1 0 -4 1050.24 141.458 2
-1 0 3 9210.63 300.289 1
1 0 -3 9342.91 348.78 2
-1 0 2 125746 1026.54 1
1 0 -2 125320 1123.73 2
-1 0 1 17267.3 377.622 1
-1 0 0 591.15 82.0405 1
-1 0 -1 43377.7 598.955 1
-1 0 -2 3313.39 176.638 1
-1 0 -2 3197.63 166.185 2
-1 0 -3 128517 1184.18 1
-1 0 -3 129242 1178.96 2
-1 0 -4 2452.01 185.485 2
-1 0 -4 2261.4 169.599 1
-1 0 -5 1073.46 126.377 1
-1 0 -5 1089.37 145.103 2
-1 0 -6 5281.04 294.626 1
-1 0 -6 5358.17 334.179 2
-1 0 -7 23.6855 51.5792 1
-1 0 -7 -32.6618 64.1998 2
-1 0 -8 -112.757 102.766 2
-1 0 -8 215.753 78.7655 1
-1 0 -9 3199.78 325.266 2
-1 0 -9 3009.34 248.577 1
1 0 10 7755.94 354.676 1
-1 0 -10 7568.69 536.397 2
-1 0 -10 7323.5 403.275 1
-1 0 -11 11213.6 685.894 2
-1 0 -12 18199.7 929.585 2
-1 0 -13 477.043 209.813 2
-1 0 -14 234.91 184.529 2
-1 0 -15 751.457 275.15 2
-1 0 -16 510.563 263.953 2
-1 0 -17 382.025 249.284 2
-1 0 -18 -43.928 182.915 2
-1 0 -19 640.822 324.221 2
1 1 -20 1.80754 204.453 2
1 1 -19 487.505 265.397 2
1 1 -18 316.657 246.606 2
1 1 -17 231.051 251.483 2
1 1 -16 233.962 178.31 2
1 1 -15 1110.55 325.171 2
1 1 -14 1810.27 368.219 2
1 1 -13 4319.67 482.714 2
1 1 -12 -96.2315 157.129 2
-1 -1 11 11733.3 485.047 1
1 1 -11 11446.2 726.712 2
1 1 -10 4959.26 455.031 2
-1 -1 10 5254.56 315.804 1
-1 -1 9 540.456 109.502 1
1 1 -9 927.491 226.197 2
1 1 -8 1823.25 274.225 2
-1 -1 8 1487.8 159.669 1
-1 -1 7 223.471 93.604 1
1 1 -7 699.846 209.009 2
1 1 -6 1109 166.301 2
-1 -1 6 1269.73 127.479 1
1 1 -5 34096.9 803.199 2
-1 -1 5 33258.8 642.26 1
-1 -1 4 11740 382.412 1
1 1 -4 13514.7 480.746 2
-1 -1 3 304.101 105.001 1
1 1 -3 1129.3 141.452 2
-1 -1 2 39447.2 669.205 1
1 1 -2 39524.9 606.893 2
-1 -1 1 408.405 79.3019 1
1 1 -1 302.219 52.1566 2
-1 -1 0 303206 1985.52 1
-1 -1 -1 422.461 105.077 1
-1 -1 -2 9430.74 257.043 2
-1 -1 -2 8726.79 367.809 1
-1 -1 -3 44404.9 654.193 2
-1 -1 -3 44696.9 897.362 1
-1 -1 -4 19209.6 514.015 2
-1 -1 -4 20370.5 649.702 1
-1 -1 -5 1041.64 151.364 2
-1 -1 -5 1193.14 178.163 1
-1 -1 -6 12685.6 493.306 2
-1 -1 -6 13092.5 564.249 1
-1 -1 -7 5913.78 373.966 2
-1 -1 -7 5955.94 399.924 1
-1 -1 -8 7162.67 454.71 1
-1 -1 -8 6851.52 430.091 2
-1 -1 -9 6188.19 449.985 2
-1 -1 -9 6575.78 448.164 1
-1 -1 -10 9723.95 613.396 2
-1 -1 -10 9801.69 566.584 1
-1 -1 -11 6628.93 472.045 1
-1 -1 -11 7386.52 558.038 2
-1 -1 -12 2998.68 395.201 2
-1 -1 -13 -138.808 189.447 2
-1 -1 -14 2927.36 450.88 2
-1 -1 -15 586.217 202.661 2
-1 -1 -16 512.743 236.655 2
-1 -1 -17 656.24 248.165 2
-1 -1 -18 1043.64 391.117 2
1 2 -21 534.731 402.888 2
1 2 -20 -144.346 265.457 2
1 2 -19 488.924 304.551 2
1 2 -18 209.858 178.181 2
1 2 -17 736.027 333.449 2
1 2 -16 115.256 199.791 2
1 2 -15 557.82 221.063 2
1 2 -14 -61.7398 181.155 2
1 2 -13 152.268 184.029 2
1 2 -12 8857.18 668.03 2
1 2 -11 3764.36 421.06 2
-1 -2 10 46.0243 45.9955 1
1 2 -10 134.357 125.383 2
1 2 -9 113.317 95.1991 2
-1 -2 9 136.779 65.2916 1
-1 -2 8 20817.7 583.272 1
1 2 -8 20472.8 808.571 2
-1 -2 7 24538.6 625.973 1
1 2 -7 23823.7 807.738 2
1 2 -6 24291.5 748.626 2
-1 -2 6 24941.7 613.1 1
-1 -2 5 56471.6 928.414 1
1 2 -5 56175.9 1057.61 2
1 2 -4 2201.22 208.892 2
-1 -2 4 2337.87 210.794 1
-1 -2 3 1427.06 157.313 1
1 2 -3 1439.96 134.755 2
1 2 -2 5093.79 214.119 2
-1 -2 2 4713.56 287.818 1
1 2 -1 1140.26 84.9513 2
-1 -2 1 1139.49 170.639 1
-1 -2 0 172590 1807.42 1
-1 -2 -1 344.702 96.3186 1
-1 -2 -2 2694.06 125.275 2
-1 -2 -2 2424.88 236.519 1
-1 -2 -3 33520 902.981 1
-1 -2 -3 32978 534.012 2
-1 -2 -4 120999 1203.07 2
-1 -2 -4 121950 1789.58 1
-1 -2 -5 18923.5 549.025 2
-1 -2 -5 19637.8 757.885 1
-1 -2 -6 15567.3 550.134 2
-1 -2 -6 15094.3 698.246 1
-1 -2 -7 1850.08 243.86 2
-1 -2 -7 1463.28 242.946 1
-1 -2 -8 1286.94 187.794 2
-1 -2 -8 1354.14 229.526 1
-1 -2 -9 1555.48 230.173 2
-1 -2 -9 1480.28 259.418 1
-1 -2 -10 5313.07 467.31 1
-1 -2 -10 5641.79 464.145 2
-1 -2 -11 386.031 170.008 2
-1 -2 -11 570.442 182.705 1
-1 -2 -12 4550.5 483.928 2
-1 -2 -12 4310.68 432.021 1
-1 -2 -13 962.893 231.891 2
-1 -2 -14 190.657 142 2
-1 -2 -15 370.319 206.853 2
-1 -2 -16 186.424 137.399 2
-1 -2 -17 492.291 290.623 2
-1 -2 -18 -126.365 224.336 2
1 3 -21 -82.0852 232.348 2
1 3 -20 602.467 325.331 2
1 3 -19 350.697 265.494 2
1 3 -18 402.258 250.776 2
1 3 -17 139.327 187.962 2
1 3 -16 263.702 205.653 2
1 3 -15 128.752 168.437 2
1 3 -14 -39.7353 162.713 2
1 3 -13 2082.85 367.649 2
1 3 -12 7926.59 637.419 2
1 3 -11 220.846 118.184 2
1 3 -10 -90.603 137.84 2
-1 -3 9 84.4492 53.6238 1
1 3 -9 -5.69206 171.94 2
1 3 -8 16298.3 716.188 2
-1 -3 8 15697.1 546.815 1
1 3 -7 14027.8 624.167 2
-1 -3 7 13249.2 507.337 1
1 3 -6 1297.94 186.052 2
-1 -3 6 998.798 145.521 1
-1 -3 5 1796.23 188.179 1
1 3 -5 1955.81 199.646 2
-1 -3 4 174.616 54.7236 1
1 3 -4 117.325 57.9322 2
-1 -3 3 3662.87 281.795 1
1 3 -3 3830.99 218.051 2
-1 -3 2 7122.34 405.914 1
1 3 -2 7558.25 257.627 2
-1 -3 1 6449.1 391.587 1
1 3 -1 6878.73 195.66 2
-1 -3 0 2229.55 244.236 1
-1 -3 -1 129.622 79.8169 1
-1 -3 -2 917.866 67.558 2
-1 -3 -2 773.172 154.774 1
-1 -3 -3 78989.7 806.616 2
-1 -3 -3 75074.4 1530.71 1
-1 -3 -4 52291 794.772 2
-1 -3 -4 52038 1344.13 1
-1 -3 -5 3074.9 218.601 2
-1 -3 -5 3400.49 358.898 1
-1 -3 -6 1307.44 162.23 2
-1 -3 -6 1254.04 225.058 1
-1 -3 -7 1722.37 279.902 1
-1 -3 -7 2026.42 228.584 2
-1 -3 -8 478.025 134.924 2
-1 -3 -8 425.63 159.456 1
-1 -3 -9 7123.7 582.242 1
-1 -3 -9 7645.68 497.803 2
-1 -3 -10 23678.5 1092.75 1
-1 -3 -10 23507.8 936.038 2
-1 -3 -11 1185.41 255.533 1
-1 -3 -11 884.818 198.184 2
-1 -3 -12 2300.82 337.516 2
-1 -3 -12 2259.33 358.154 1
-1 -3 -13 -127.044 154.254 2
-1 -3 -14 197.086 135.339 2
-1 -3 -15 670.102 269.806 2
-1 -3 -16 118.908 203.26 2
1 4 -21 57.0188 280.362 2
1 4 -20 257.673 259.175 2
1 4 -19 -316.126 295.466 2
1 4 -18 82.1468 180.073 2
1 4 -17 371.612 236.942 2
1 4 -16 47.2028 193.504 2
1 4 -15 177.151 191.246 2
1 4 -14 357.889 178.004 2
1 4 -13 10688.4 784.535 2
1 4 -12 2006.3 342.969 2
1 4 -11 10029.7 676.139 2
1 4 -10 298.571 238.009 2
1 4 -9 7949.87 564.281 2
-1 -4 9 7850.59 430.499 1
-1 -4 8 1281.8 177.34 1
1 4 -8 1845.85 262.081 2
-1 -4 7 52865.6 1127.25 1
1 4 -7 53215 1206.04 2
1 4 -6 12274.6 538.224 2
-1 -4 6 11708.2 543.374 1
1 4 -5 39910.8 894.046 2
-1 -4 5 43474.5 1074.17 1
1 4 -4 10659.5 409.701 2
-1 -4 4 10101.2 525.307 1
-1 -4 3 27841 896.801 1
1 4 -3 21969.4 538.632 2
-1 -4 2 60023.4 1332.32 1
1 4 -2 59521 739.151 2
-1 -4 1 2142.66 258.268 1
1 4 -1 1702.19 99.9714 2
-1 -4 0 16607.3 766.368 1
-1 -4 -1 123352 2074.96 1
-1 -4 -2 2035.54 305.636 1
-1 -4 -3 102933 2022.57 1
-1 -4 -3 104134 889.561 2
-1 -4 -4 986.146 143.912 2
-1 -4 -4 1506.93 294.541 1
-1 -4 -5 9755.62 795.505 1
-1 -4 -5 8650.73 408.137 2
-1 -4 -6 605.256 129.774 2
-1 -4 -6 455.09 184.215 1
-1 -4 -7 28925.6 825.973 2
-1 -4 -7 29119.1 1210.04 1
-1 -4 -8 13282.3 610.619 2
-1 -4 -8 12501.6 822.694 1
-1 -4 -9 726.71 300.508 1
-1 -4 -9 401.857 198.907 2
-1 -4 -10 12255.7 866.299 1
-1 -4 -10 11579.1 656.716 2
-1 -4 -11 1741.47 372.664 1
-1 -4 -11 1542.16 294.625 2
-1 -4 -12 384.437 203.777 1
-1 -4 -12 645.144 224.227 2
-1 -4 -13 723.982 251.041 1
-1 -4 -13 1005.03 246.885 2
-1 -4 -14 1332.64 304.948 2
-1 -4 -15 206.945 194.093 2
1 5 -21 273.491 354.198 2
1 5 -20 -192.227 301.966 2
1 5 -19 227.779 232.993 2
1 5 -18 17.329 186.968 2
1 5 -17 -1.45096 162.595 2
1 5 -16 287.126 200.579 2
1 5 -15 1835.85 369.858 2
1 5 -14 212.41 154.884 2
1 5 -13 3349.44 453.993 2
1 5 -12 1091.19 268.923 2
1 5 -11 947.139 242.342 2
1 5 -10 5936.71 502.82 2
1 5 -9 11776.8 655.682 2
-1 -5 9 10358.2 524.108 1
-1 -5 8 3556.49 319.485 1
1 5 -8 3955.64 371.122 2
-1 -5 7 199.116 88.2333 1
1 5 -7 253.445 92.2277 2
-1 -5 6 859.566 190.289 1
1 5 -6 1011.81 155.734 2
1 5 -5 7133.16 377.599 2
-1 -5 5 6782.16 475.533 1
-1 -5 4 3302.59 351.658 1
1 5 -4 3721.71 245.349 2
-1 -5 3 61208.5 1485.44 1
1 5 -3 61988.5 893.441 2
-1 -5 2 59789.4 1493.33 1
1 5 -2 61010.6 760.228 2
1 5 -1 21195 351.079 2
-1 -5 1 21704.5 922.904 1
-1 -5 0 2318.07 354.985 1
-1 -5 -1 21735.4 961.072 1
-1 -5 -2 11390.8 716.027 1
-1 -5 -3 13009.7 782.517 1
-1 -5 -4 21028.4 1042.23 1
-1 -5 -4 20085.1 461.399 2
-1 -5 -5 4099.07 468.236 1
-1 -5 -5 4262.32 253.447 2
-1 -5 -6 4125.08 282.804 2
-1 -5 -6 4317.98 490.933 1
-1 -5 -7 192.74 62.2118 2
-1 -5 -7 151.59 113.227 1
-1 -5 -8 12107 869.799 1
-1 -5 -8 11493.3 575.788 2
-1 -5 -9 3054.52 474.419 1
-1 -5 -9 2820.82 306.518 2
-1 -5 -10 2832.34 470.725 1
-1 -5 -10 2354.06 301.717 2
-1 -5 -11 2030.09 382.591 1
-1 -5 -11 1572.64 260.668 2
-1 -5 -12 264.598 158.851 2
-1 -5 -12 84.6349 136.194 1
-1 -5 -13 52.6515 123.382 2
-1 -5 -13 80.3253 173.116 1
1 6 -20 295.488 279.463 2
1 6 -19 46.7806 232.055 2
1 6 -18 601.127 262.55 2
1 6 -17 290.431 256.862 2
1 6 -16 -321.417 253.439 2
1 6 -15 24.9226 160.427 2
1 6 -14 240.964 130.786 2
1 6 -13 39.6137 125.797 2
1 6 -12 224.133 161.263 2
1 6 -11 157.653 111.117 2
1 6 -10 9812.22 654.475 2
1 6 -9 2505.61 333.092 2
-1 -6 9 1818.76 246.145 1
1 6 -8 508.501 183.024 2
-1 -6 8 157.63 115.988 1
-1 -6 7 2460.58 304.504 1
1 6 -7 2637.09 291.063 2
1 6 -6 692.897 169.08 2
-1 -6 6 703.392 189.425 1
1 6 -5 532.915 120.49 2
-1 -6 5 430.945 156.956 1
1 6 -4 1512.1 168.725 2
-1 -6 4 1741.15 280.926 1
-1 -6 3 7397.8 558.526 1
1 6 -3 7239.55 316.553 2
1 6 -2 40913.4 636.849 2
-1 -6 2 38422.6 1303.77 1
-1 -6 1 12060.9 746.328 1
1 6 -1 10582.4 252.345 2
-1 -6 0 222.495 157.886 1
-1 -6 -1 760.435 216.674 1
-1 -6 -2 994.612 239.983 1
-1 -6 -3 10670.6 787.95 1
-1 -6 -4 5823.91 584.795 1
-1 -6 -5 14139.8 949.551 1
-1 -6 -6 3589.38 264.589 2
-1 -6 -6 3354.91 457.395 1
-1 -6 -7 1239.48 282.195 1
-1 -6 -7 1221.52 170.747 2
-1 -6 -8 716.858 147.943 2
-1 -6 -8 654.123 252.732 1
-1 -6 -9 -64.6154 85.1985 2
-1 -6 -9 24.9408 149.504 1
-1 -6 -10 195.171 199.145 1
-1 -6 -10 -163.722 149.429 2
-1 -6 -11 201.652 186.705 1
-1 -6 -11 354.443 171.217 2
-1 -6 -12 1423.97 335.978 1
-1 -6 -13 44.3231 172.923 1
1 7 -20 -9.45216 292.117 2
1 7 -19 7.06046 256.973 2
1 7 -18 457.312 317.729 2
1 7 -17 257.321 255.625 2
1 7 -16 31.9863 226.633 2
1 7 -15 1279.8 331.912 2
1 7 -14 768.001 265.903 2
1 7 -13 -123.03 157.91 2
1 7 -12 135.055 171.146 2
1 7 -11 1755.69 319.938 2
1 7 -10 5007.07 482.64 2
1 7 -9 5075.42 453.186 2
-1 -7 9 3993.48 399.248 1
-1 -7 8 7533.19 563.433 1
1 7 -8 8406.25 543.299 2
1 7 -7 1287.64 200.422 2
-1 -7 7 1201.53 237.239 1
-1 -7 6 9376.73 648.638 1
1 7 -6 8358.98 466.087 2
1 7 -5 89.1195 64.4206 2
-1 -7 5 246.467 127.488 1
1 7 -4 13465.9 499.234 2
-1 -7 4 13746.6 837.354 1
1 7 -3 3934.98 256.868 2
-1 -7 3 5464.45 544.494 1
-1 -7 2 -0.91928 104.308 1
1 7 -2 66.2433 44.7455 2
-1 -7 1 26.9616 112.488 1
-1 -7 0 15310.2 940.51 1
-1 -7 -1 11853.2 873.853 1
-1 -7 -2 399.849 186.258 1
-1 -7 -3 12069.7 890.391 1
-1 -7 -4 512.517 234.136 1
-1 -7 -5 6385.47 681.338 1
-1 -7 -6 1865.11 444.355 1
-1 -7 -7 464.846 240.38 1
-1 -7 -8 3849.3 552.094 1
-1 -7 -9 5792.01 695.086 1
-1 -7 -10 1297.75 377.4 1
-1 -7 -11 15.9754 146.041 1
-1 -7 -12 192.276 266.636 1
-1 -7 -13 -68.559 174.872 1
1 8 -19 372.801 201.317 2
1 8 -18 375.214 245.537 2
1 8 -17 175.044 281.438 2
1 8 -16 242.265 221.859 2
1 8 -15 204.215 249.855 2
1 8 -14 862.813 273.365 2
1 8 -13 1828.02 363.52 2
1 8 -12 -3.9995 149.791 2
1 8 -11 240.153 138.331 2
1 8 -10 1886.51 316.082 2
-1 -8 9 5860.3 525.844 1
1 8 -9 7226.72 550.988 2
-1 -8 8 109.31 146.389 1
1 8 -8 211.141 118.719 2
-1 -8 7 1286.35 263.447 1
1 8 -7 1384.62 212.445 2
-1 -8 6 7279.37 613.966 1
1 8 -6 7269.59 438.62 2
-1 -8 5 7576.91 645.814 1
1 8 -5 7096.92 404.963 2
-1 -8 4 1499.12 314.543 1
1 8 -4 1568.93 177.059 2
-1 -8 3 194.811 119.278 1
1 8 -3 156.741 75.3527 2
-1 -8 2 1181.89 324.054 1
-1 -8 1 3563.37 487.64 1
-1 -8 0 6103.73 621.824 1
-1 -8 -1 325.357 185.1 1
-1 -8 -2 -2.55452 153.569 1
-1 -8 -3 5780.33 646.007 1
-1 -8 -4 3152.25 508.387 1
-1 -8 -5 739.872 265.855 1
-1 -8 -6 1418.1 359.467 1
-1 -8 -7 -160.79 153.346 1
-1 -8 -8 3669.62 602.996 1
-1 -8 -9 2892.78 531.458 1
-1 -8 -10 623.312 282.891 1
-1 -8 -11 124.687 192.429 1
-1 -8 -12 1183.86 358.913 1
-1 -8 -13 234.607 272.836 1
1 9 -18 -374.261 240.495 2
1 9 -17 -122.158 208.749 2
1 9 -16 -58.5504 168.628 2
1 9 -15 34.9437 228.244 2
1 9 -14 -464.87 239.046 2
1 9 -13 115.907 205.939 2
1 9 -12 232.915 227.349 2
1 9 -11 -83.6162 202.997 2
1 9 -10 2136.88 310.365 2
1 9 -9 2203.89 308.008 2
-1 -9 9 1780.84 314.866 1
-1 -9 8 1269.78 264.124 1
1 9 -8 1383.58 229.831 2
1 9 -7 96.1405 130.979 2
-1 -9 7 23.1473 138.223 1
1 9 -6 2209.86 266.026 2
-1 -9 6 1818.12 364.362 1
1 9 -5 10823.6 514.321 2
-1 -9 5 11381.8 882.644 1
-1 -9 4 2564.29 470.091 1
1 9 -4 2577.53 225.071 2
-1 -9 3 3751.64 512.414 1
-1 -9 2 1461.13 364.532 1
-1 -9 1 2565.86 455.754 1
-1 -9 0 6599.23 708.987 1
-1 -9 -1 25612.8 1448.03 1
-1 -9 -2 4253.66 602.606 1
-1 -9 -3 83.7926 198.565 1
-1 -9 -4 220.801 264.311 1
-1 -9 -5 41.4514 142.455 1
-1 -9 -6 438.897 278.592 1
-1 -9 -7 1061.76 386.429 1
-1 -9 -8 390.345 284.956 1
-1 -9 -9 331.261 285.784 1
-1 -9 -10 290.672 239.293 1
-1 -9 -11 49.4843 228.163 1
-1 -9 -12 476.95 364.403 1
1 10 -17 -434.067 315.257 2
1 10 -16 -360.02 236.308 2
1 10 -15 181.526 219.08 2
1 10 -14 172.792 197.074 2
1 10 -13 325.593 209.458 2
1 10 -12 -139.49 208.151 2
1 10 -11 211.317 191.936 2
1 10 -10 -105.395 115.112 2
-1 -10 9 92.3976 172.16 1
1 10 -9 220.809 124.694 2
1 10 -8 4265.04 408.945 2
-1 -10 8 5017.75 581.516 1
-1 -10 7 4515.06 579.213 1
1 10 -7 4178.11 388.082 2
1 10 -6 191.099 120.148 2
-1 -10 6 94.2963 148.183 1
-1 -10 5 4413.02 598.618 1
-1 -10 4 500.325 264.204 1
-1 -10 3 3190.03 599.204 1
-1 -10 2 9972.24 910.737 1
-1 -10 1 21475.6 1372.24 1
-1 -10 0 5137.2 695.377 1
-1 -10 -1 4301.84 637.206 1
-1 -10 -2 2482.31 493.721 1
-1 -10 -3 369.777 257.871 1
-1 -10 -4 134.829 241.333 1
-1 -10 -5 96.6 192.842 1
-1 -10 -6 680.487 298.482 1
-1 -10 -7 2341.74 498.941 1
-1 -10 -8 604.871 343.883 1
-1 -10 -9 -64.1125 201.697 1
-1 -10 -10 378.838 237.608 1
-1 -10 -11 389.093 335.778 1
-1 -10 -12 712.845 413.08 1
1 11 -14 -148.109 212.767 2
1 11 -13 262.42 213.432 2
1 11 -12 182.728 188.392 2
1 11 -11 99.7729 187.711 2
1 11 -10 577.421 206.655 2
-1 -11 9 327.012 236.155 1
1 11 -9 90.3376 103.954 2
-1 -11 8 131.729 177.024 1
-1 -11 7 422.327 225.684 1
-1 -11 6 279.075 208.388 1
-1 -11 5 80.6894 248.917 1
-1 -11 4 291.465 188.959 1
-1 -11 3 3017.43 552.973 1
-1 -11 2 -111 190.487 1
-1 -11 1 248.104 212.4 1
-1 -11 0 761.328 327.017 1
-1 -11 -1 2247.31 483.633 1
-1 -11 -2 112.849 164.004 1
-1 -11 -3 668.611 314.74 1
-1 -11 -4 1298.49 430.777 1
-1 -11 -5 67.778 186.12 1
-1 -11 -6 1062.22 431.355 1
-1 -11 -7 871.243 407.271 1
-1 -11 -8 280.707 224.386 1
-1 -11 -9 348.397 225.285 1
-1 -11 -10 261.135 315.349 1
-1 -11 -11 93.7686 308.668 1
-1 -12 8 557.676 290.299 1
-1 -12 7 835.229 346.074 1
-1 -12 6 739.981 262.13 1
-1 -12 5 10.0502 201.624 1
-1 -12 4 315.987 305.469 1
-1 -12 3 -19.5661 158.876 1
-1 -12 2 260.71 266.789 1
-1 -12 1 1233.83 412.775 1
-1 -12 0 1186.87 395.239 1
-1 -12 -1 430.741 292.945 1
-1 -12 -2 1249.32 406.182 1
-1 -12 -3 963.37 399.422 1
-1 -12 -4 568.141 335.075 1
-1 -12 -5 137.617 258.363 1
-1 -12 -6 360.693 378.485 1
-1 -12 -7 264.286 352.385 1
-1 -12 -8 123.91 283.159 1
-1 -12 -9 604.774 438.594 1
-1 -12 -10 588.454 464.322 1
-1 -13 7 -225.072 234.745 1
-1 -13 6 354.221 216.84 1
-1 -13 5 141.676 287.443 1
-1 -13 4 2346.37 529.651 1
-1 -13 3 1312.11 406.23 1
-1 -13 2 672.889 298.554 1
-1 -13 1 208.714 203.104 1
-1 -13 0 42.8444 249.76 1
-1 -13 -1 481.504 359.718 1
-1 -13 -2 1022.28 391.739 1
-1 -13 -3 727.745 384.381 1
-1 -13 -4 -2.39109 283.505 1
-1 -13 -5 -12.3648 207.375 1
-1 -13 -6 351.911 274.493 1
-1 -13 -7 679.938 461.99 1
-1 -13 -8 137.899 231.626 1
-1 -13 -9 141.466 325.246 1
-1 -14 6 -16.1077 294.355 1
-1 -14 5 568.895 316.887 1
-1 -14 4 57.714 202.33 1
-1 -14 3 81.3397 250.404 1
-1 -14 2 465.467 368.961 1
-1 -14 1 -27.7694 240.587 1
-1 -14 0 -280.579 330.573 1
-1 -14 -1 63.3289 336.141 1
-1 -14 -2 518.713 393.71 1
-1 -14 -3 1253.21 483.204 1
-1 -14 -4 1031.03 491.266 1
-1 -14 -5 154.705 298.6 1
-1 -14 -6 526.939 408.56 1
-1 -14 -7 604.869 479.69 1
-1 -14 -8 338.418 380.323 1
-1 -15 5 9.2031 324.797 1
-1 -15 4 144.339 376.892 1
-1 -15 3 -87.6474 267.845 1
-1 -15 2 152.539 268.027 1
-1 -15 1 154.02 245.497 1
-1 -15 0 756.714 443.719 1
-1 -15 -1 1545.34 599.5 1
-1 -15 -2 436.694 460.323 1
-1 -15 -3 232.403 319.924 1
-1 -15 -4 190.687 295.253 1
-1 -15 -5 106 340.884 1
-1 -15 -6 78.2994 390.092 1
-1 -16 2 313.307 319.821 1
-1 -16 1 176.306 336.186 1
-1 -16 0 183.62 303.048 1
-1 -16 -1 213.522 393.132 1
-1 -16 -2 -30.1794 266.638 1
-1 -16 -3 -33.7687 368.165 1
-2 16 6 -134.921 233.376 1
2 -16 -6 153.012 328.98 1
2 -16 -5 351.084 337.633 1
-2 16 5 -349.062 259.577 1
2 -16 -4 168.103 267.253 1
-2 16 4 580.523 353.047 1
2 -16 -3 310.575 373.148 1
2 -16 -2 -112.536 276.517 1
2 -16 -1 168.383 328.469 1
2 -16 0 4824.55 1135.93 1
2 -16 1 -339.503 326.45 1
2 -16 2 127.191 248.894 1
2 -15 -8 979.484 503.493 1
-2 15 8 -35.1639 220.504 1
-2 15 7 41.6079 204.669 1
2 -15 -7 -130.886 345.724 1
2 -15 -6 -626.265 462.709 1
-2 15 6 365.602 282.928 1
2 -15 -5 1974.64 721.058 1
2 -15 -4 506.268 389.016 1
2 -15 -3 103.994 285.613 1
2 -15 -2 -204.928 278.272 1
2 -15 -1 233.079 211.521 1
2 -15 0 245.579 362.909 1
2 -15 1 -250.4 293.535 1
2 -15 2 246.116 288.921 1
2 -15 3 134.044 321.778 1
2 -15 4 416.28 297.832 1
2 -14 -10 683.535 433.214 1
-2 14 10 -146.323 188.09 1
-2 14 9 -52.9665 216.986 1
2 -14 -9 264.838 308.597 1
2 -14 -8 277.997 258.34 1
-2 14 8 122.271 179.123 1
-2 14 7 1332.86 398.384 1
2 -14 -7 296.349 440.535 1
2 -14 -6 844.168 438.147 1
2 -14 -5 217.042 302.001 1
2 -14 -4 -20.9412 239.622 1
2 -14 -3 76.8562 259.186 1
2 -14 -2 24.1886 229.388 1
2 -14 -1 108.196 210.483 1
2 -14 0 169.891 191.208 1
2 -14 1 669.471 350.848 1
2 -14 2 741.044 346.933 1
2 -14 3 345.316 274.07 1
2 -14 4 417.635 249.275 1
2 -14 5 405.602 245.442 1
-2 13 11 1.72488 205.075 1
2 -13 -11 30.0419 266.757 1
-2 13 10 144.599 217.963 1
2 -13 -10 -60.9296 333.317 1
2 -13 -9 494.416 332.604 1
-2 13 9 76.7192 202.419 1
2 -13 -8 178.244 287.4 1
-2 13 8 -252.47 264.961 1
2 -13 -7 -16.2547 275.233 1
2 -13 -6 476.817 360.39 1
2 -13 -5 169.714 287.108 1
2 -13 -4 59.3855 211.062 1
2 -13 -3 197.568 236.779 1
2 -13 -2 -117.792 170.679 1
2 -13 -1 297.882 246.783 1
2 -13 0 170.227 198.486 1
2 -13 1 1908.36 464.65 1
2 -13 2 2099.59 466.037 1
2 -13 3 447.4 279.337 1
2 -13 4 -157.496 204.212 1
2 -13 5 296.904 246.595 1
2 -13 6 9.91624 194.847 1
-2 13 -8 886.902 248.12 2
-2 13 -9 -33.448 125.503 2
-2 13 -10 -34.4757 159.789 2
-2 13 -11 -15.7862 159.75 2
2 -12 -12 823.628 436.529 1
-2 12 12 1438.87 420.042 1
2 -12 -11 22.6946 327.837 1
-2 12 11 35.2149 203.82 1
-2 12 10 672.619 305.5 1
2 -12 -10 1031.56 429.13 1
2 -12 -9 326.08 296.12 1
-2 12 9 503.157 281.072 1
-2 12 8 240.289 197.767 1
2 -12 -8 554.216 339.443 1
2 -12 -7 196.444 243.677 1
2 -12 -6 2271.2 529.108 1
2 -12 -5 765.533 297.055 1
2 -12 -4 -71.3756 164.213 1
2 -12 -3 -11.1969 242.549 1
2 -12 -2 173.287 198.274 1
2 -12 -1 558.09 317.183 1
2 -12 0 1879.34 429.895 1
2 -12 1 207.865 144.015 1
2 -12 2 1922.84 465.208 1
2 -12 3 989.435 328.921 1
2 -12 4 1355.92 334.139 1
-2 12 -4 987.96 209.841 2
-2 12 -5 1211.49 225.41 2
2 -12 5 1007.94 309.182 1
-2 12 -6 -63.6455 139.956 2
2 -12 6 -75.1822 149.971 1
-2 12 -7 64.2254 133.947 1
2 -12 7 218.629 192.275 1
-2 12 -7 -67.1231 153.067 2
-2 12 -8 883.979 262.383 2
-2 12 -9 337.759 155.061 2
-2 12 -10 788.291 252.429 2
-2 12 -11 983.059 284.099 2
-2 12 -12 224.009 174.25 2
-2 12 -13 -185.13 217.045 2
-2 12 -14 8.24236 225.462 2
-2 12 -15 49.0734 204.488 2
2 -11 -13 259.074 294.394 1
-2 11 12 54.0555 199.618 1
2 -11 -12 -312.905 334.756 1
2 -11 -11 321.791 344.055 1
-2 11 11 137.469 186.777 1
2 -11 -10 784.642 410.471 1
-2 11 10 -342.576 240.638 1
-2 11 9 280.184 191.317 1
2 -11 -9 550.118 332.698 1
-2 11 8 1738.64 404.403 1
2 -11 -8 2050.73 527.434 1
2 -11 -7 366.038 258.825 1
2 -11 -6 -26.3003 218.678 1
2 -11 -5 -12.6881 244.692 1
2 -11 -4 57.6887 163.784 1
2 -11 -3 886.647 356.275 1
2 -11 -2 121.004 238.637 1
2 -11 -1 361.242 143.062 1
-2 11 0 148.397 106.823 2
2 -11 0 13.3053 135.127 1
-2 11 -1 143.777 93.7114 2
2 -11 1 346.895 215.646 1
2 -11 2 -35.2531 136.805 1
-2 11 -2 170.859 141.49 2
-2 11 -3 20.5247 107.613 2
2 -11 3 81.8028 124.389 1
2 -11 4 232.807 163.836 1
-2 11 -4 205.691 107.508 2
-2 11 -5 363.819 157.29 2
2 -11 5 503.478 225.467 1
-2 11 -6 2532.86 327.742 2
2 -11 6 2186.91 364.863 1
-2 11 -7 334.536 153.444 2
-2 11 -7 300.955 152.214 1
2 -11 7 23.5555 109.556 1
-2 11 -8 1162.68 308.091 2
-2 11 -9 989.13 249.919 2
-2 11 -10 364.033 173.256 2
-2 11 -11 60.1719 137.462 2
-2 11 -12 2465.41 425.088 2
-2 11 -13 1703.8 371.901 2
-2 11 -14 -291.309 269.243 2
-2 11 -15 185.697 254.304 2
-2 11 -16 262.655 184.609 2
-2 10 13 -280.757 264.081 1
2 -10 -13 -253.623 251.919 1
2 -10 -12 41.3283 257.284 1
-2 10 12 263.702 280.073 1
-2 10 11 -85.7117 168.801 1
2 -10 -11 -23.3015 258.791 1
2 -10 -10 1138.98 461.641 1
-2 10 10 1656.4 398.861 1
-2 10 9 808.717 294.87 1
2 -10 -9 451.81 295.253 1
2 -10 -8 477.318 244.322 1
2 -10 -7 1810.31 477.265 1
2 -10 -6 130.422 151.836 1
2 -10 -5 2209.15 464.034 1
2 -10 -4 81.4438 181.147 1
2 -10 -3 8578.77 884.037 1
2 -10 -2 10511.2 936.812 1
2 -10 -1 351.928 210.815 1
2 -10 0 437.771 241.16 1
-2 10 0 412.471 116.485 2
-2 10 -1 27.6757 81.0846 2
2 -10 1 -49.8809 159.325 1
-2 10 -2 131.378 97.1406 2
2 -10 2 92.7892 118.05 1
-2 10 -3 1123.34 184.683 2
2 -10 3 1409.06 326.999 1
2 -10 4 5009.25 551.505 1
-2 10 -4 5780.67 451.464 2
-2 10 -5 1909.22 271.223 2
2 -10 5 1685.49 323.702 1
-2 10 -6 461.115 182.268 2
2 -10 6 547.178 212.306 1
2 -10 7 120.877 137.446 1
-2 10 -7 91.725 121.82 2
-2 10 -7 -203.967 93.8847 1
-2 10 -8 903.053 237.994 2
-2 10 -9 84.9745 148.186 2
-2 10 -10 100.019 143.908 2
-2 10 -11 1001.27 279.68 2
-2 10 -12 736.187 278.957 2
-2 10 -13 -314.746 147.573 2
-2 10 -14 327.109 215.937 2
-2 10 -15 -57.8271 185.483 2
-2 10 -16 413.874 283.088 2
-2 10 -17 976.096 366.523 2
-2 10 -18 -404.006 279.888 2
2 -9 -14 300.934 271.816 1
-2 9 14 542.807 280.466 1
-2 9 13 -160.747 221.202 1
2 -9 -13 -30.3205 218.523 1
-2 9 12 1028.46 322.117 1
2 -9 -12 810.354 365.203 1
-2 9 11 357.833 146.078 1
2 -9 -11 1072.12 393.474 1
2 -9 -10 -319.714 299.932 1
-2 9 10 342.356 139.048 1
-2 9 9 149.461 146.326 1
2 -9 -9 296.769 255.496 1
-2 9 8 371.125 193.784 1
2 -9 -8 121.464 305.283 1
2 -9 -7 453.236 244.776 1
2 -9 -6 -50.2315 141.791 1
2 -9 -5 4991.57 683.859 1
2 -9 -4 6442.17 709.306 1
2 -9 -3 275.708 171.115 1
2 -9 -2 -22.8795 140.418 1
2 -9 -1 327.339 171.534 1
2 -9 0 766.712 228.26 1
-2 9 -1 2411.23 250.917 2
2 -9 1 1950.6 359.86 1
2 -9 2 5954.49 599.082 1
-2 9 -2 5488.66 401.181 2
-2 9 -3 2480.32 284.618 2
2 -9 3 2350.19 360.651 1
-2 9 -4 4393.88 382.143 2
2 -9 4 4519.79 496.84 1
2 -9 5 9353.7 678.536 1
-2 9 -5 8365.98 538.047 2
-2 9 -6 -51.2413 114.093 2
2 -9 6 -110.424 89.2211 1
2 -9 7 90.9547 93.1028 1
-2 9 -7 162.86 86.231 1
-2 9 -7 95.4194 137.958 2
-2 9 -8 213.347 156.876 2
-2 9 -9 344.314 225.05 2
-2 9 -10 277.116 166.543 2
-2 9 -11 229.024 170.699 2
-2 9 -12 341.261 171.365 2
-2 9 -13 12.3766 151.46 2
-2 9 -14 431.357 247.222 2
-2 9 -15 305.241 256.998 2
-2 9 -16 -8.67951 201.37 2
-2 9 -17 825.766 353.287 2
-2 9 -18 438.838 275.786 2
2 -8 -14 633.983 333.169 1
-2 8 14 326.041 192.595 1
2 -8 -13 530.113 308.93 1
-2 8 13 457.317 258.573 1
-2 8 12 340.748 232.423 1
2 -8 -12 241.55 196.18 1
-2 8 11 402.255 193.704 1
2 -8 -11 587.482 349.536 1
-2 8 10 -45.8644 154.296 1
2 -8 -10 788.85 330.223 1
-2 8 9 366.949 224.509 1
2 -8 -9 699.11 313.945 1
-2 8 8 193.615 183.511 1
2 -8 -8 981.6 309.383 1
2 -8 -7 286.554 204.359 1
2 -8 -6 5859.97 683.727 1
2 -8 -5 6521.44 706.596 1
2 -8 -4 494.077 168.612 1
2 -8 -3 483.926 212.56 1
2 -8 -2 720.99 289.271 1
2 -8 -1 8016.95 697.88 1
2 -8 0 1210.12 273.854 1
2 -8 1 15623.1 930.59 1
-2 8 -2 254.255 119.652 2
2 -8 2 270.114 134.69 1
-2 8 -3 2488.86 278.154 2
2 -8 3 2712.24 375.614 1
2 -8 4 2647.45 341.955 1
-2 8 -4 2825.48 302.991 2
-2 8 -5 149.207 117.702 2
2 -8 5 44.4137 76.159 1
-2 8 -6 139.228 107.982 2
2 -8 6 -29.5922 81.1461 1
-2 8 -6 44.9049 80.1731 1
-2 8 -7 366.501 153.112 2
-2 8 -7 348.118 119.419 1
2 -8 7 566.035 186.319 1
-2 8 -8 1525.72 292.93 2
-2 8 -9 2470.23 341.537 2
-2 8 -10 2756.97 403.183 2
-2 8 -11 198.38 205.795 2
-2 8 -12 200.447 159.942 2
-2 8 -13 692.949 199.383 2
-2 8 -14 -385.666 232.398 2
-2 8 -15 1354.79 348.168 2
-2 8 -16 1007.27 347.303 2
-2 8 -17 -331.227 302.507 2
-2 8 -18 378.852 309.064 2
-2 8 -19 -9.14797 260.3 2
-2 7 14 131.951 172.333 1
2 -7 -13 309.079 260.396 1
-2 7 13 -27.5648 145.221 1
-2 7 12 142.793 147.792 1
2 -7 -12 -101.156 198.762 1
-2 7 11 505.257 237.751 1
2 -7 -11 273.545 218.329 1
2 -7 -10 440.513 177.071 1
-2 7 10 531.972 223.667 1
2 -7 -9 213.806 189.457 1
-2 7 9 470.888 190.58 1
-2 7 8 3192.72 411.76 1
2 -7 -8 3174.05 520.096 1
-2 7 7 9254.51 714.728 1
2 -7 -7 9168.5 814.96 1
2 -7 -6 1153.08 279.741 1
2 -7 -5 1503.37 348.229 1
2 -7 -4 7684.8 698.759 1
2 -7 -3 2435.68 388.551 1
2 -7 -2 20070.7 1058.52 1
2 -7 -1 22256.4 1081.05 1
2 -7 0 2869.87 378.342 1
2 -7 1 93.938 94.7566 1
-2 7 -2 1416.97 191.636 2
2 -7 2 1469.73 269.832 1
2 -7 3 3462.15 371.827 1
-2 7 -3 3946.06 328.946 2
-2 7 -4 681.806 162.036 2
2 -7 4 380.508 136.939 1
-2 7 -5 3680.15 349.806 2
2 -7 5 3641.29 347.991 1
-2 7 -5 3519.5 291.096 1
2 -7 6 1202.27 193.09 1
-2 7 -6 1156.05 206.991 2
-2 7 -6 1282.25 173.113 1
-2 7 -7 996.331 142.829 1
-2 7 -7 863.893 215.557 2
-2 7 -8 266.255 149.223 2
-2 7 -9 230.257 143.876 2
-2 7 -10 248.13 158.477 2
-2 7 -11 705.327 206.718 2
-2 7 -12 185.918 128.161 2
-2 7 -13 1151.96 303.466 2
-2 7 -14 590.636 212.255 2
-2 7 -15 -129.188 181.695 2
-2 7 -16 191.789 220.312 2
-2 7 -17 2.98302 240.775 2
-2 7 -18 167.583 225.202 2
-2 7 -19 -28.6049 263.812 2
2 -6 -15 -84.5611 161.078 2
-2 6 14 426.043 254.282 1
2 -6 -14 608.677 263.071 2
-2 6 13 -83.1003 160.233 1
2 -6 -13 196.268 199.498 2
2 -6 -12 2033.12 424.345 1
-2 6 12 2236.79 394.068 1
-2 6 11 1237.96 292.909 1
2 -6 -11 512.915 202.018 1
2 -6 -10 4751.57 609.001 1
-2 6 10 4456.74 505.383 1
2 -6 -9 1686.14 341.097 1
-2 6 9 1877.02 336.136 1
-2 6 8 729.133 225.049 1
2 -6 -8 654.499 257.436 1
2 -6 -7 6037.61 641.477 1
-2 6 7 5594.53 505.444 1
2 -6 -6 7564.26 692.798 1
-2 6 6 7825.61 581.069 1
2 -6 -5 1476.15 299.686 1
2 -6 -4 479.008 214.176 1
2 -6 -3 1152.71 250.336 1
2 -6 -2 2381.96 383.697 1
2 -6 -1 29446.8 1132.31 1
2 -6 0 21491.5 950.772 1
2 -6 1 14937.8 762.763 1
2 -6 2 658.624 264.777 1
2 -6 3 11123.8 592.584 1
-2 6 -3 12321.5 538.864 1
-2 6 -3 10666 519.966 2
-2 6 -4 873.238 140.342 1
-2 6 -4 998.547 173.682 2
2 -6 4 1010.49 175.674 1
-2 6 -5 -28.393 58.6563 1
-2 6 -5 60.7877 102.748 2
2 -6 5 46.8741 54.5629 1
-2 6 -6 364.639 96.2205 1
-2 6 -6 515.409 155.529 2
-2 6 -7 4021.93 372.35 2
-2 6 -7 3768.25 227.649 1
-2 6 -8 2992.21 340.009 2
-2 6 -9 2873.72 360.692 2
-2 6 -10 3952.47 445.231 2
-2 6 -11 90.9174 169.21 2
-2 6 -12 10.2602 139.844 2
-2 6 -13 632.854 252.396 2
-2 6 -14 1345.85 338.65 2
-2 6 -15 1259.64 348.694 2
-2 6 -16 436.544 165.812 2
-2 6 -17 -314 258.359 2
-2 6 -18 158.245 262.12 2
-2 6 -19 283.481 254.804 2
-2 6 -20 118.138 266.857 2
2 -5 -17 516.372 315.443 2
2 -5 -16 1216.9 358.462 2
2 -5 -15 2269.92 455.172 2
-2 5 14 -49.5457 134.234 1
2 -5 -14 56.3213 150.218 2
-2 5 13 302.046 201.629 1
2 -5 -13 -24.6225 139.186 2
-2 5 12 2422.98 358.187 1
2 -5 -12 2431.9 402.83 2
2 -5 -11 734.443 298.749 1
2 -5 -11 670.818 236.606 2
-2 5 11 692.531 226.79 1
2 -5 -10 1180.93 275.934 2
-2 5 10 1065.53 228.477 1
2 -5 -10 1388.42 346.226 1
2 -5 -9 7988.13 735.843 1
2 -5 -9 8175.88 621.47 2
-2 5 9 8160.13 615.252 1
2 -5 -8 9986.35 798.607 1
-2 5 8 10545.7 674.796 1
2 -5 -7 3024.54 439.762 1
-2 5 7 2654.04 333.638 1
2 -5 -6 4601.61 509.036 1
-2 5 6 4842.69 442.124 1
-2 5 5 2272.48 286.51 1
2 -5 -5 2111.1 348.172 1
2 -5 -4 3463.68 461.778 1
-2 5 4 2816.02 334.319 1
2 -5 -3 16589 845.456 1
-2 5 3 19136.1 771.207 1
2 -5 -2 10934.9 668.192 1
2 -5 -1 19557.7 870.21 1
2 -5 0 11631.3 656.803 1
-2 5 0 11029.8 526.208 1
2 -5 1 25504.6 896.811 1
-2 5 -1 25319.7 750.177 1
2 -5 2 43758.7 1108.2 1
-2 5 -2 43364.7 926.124 1
2 -5 3 10439.1 515.75 1
-2 5 -3 9833.6 426.993 1
-2 5 -3 9538.76 472.644 2
-2 5 -4 6810.22 440.318 2
-2 5 -4 7071.24 338.722 1
-2 5 -5 23046.7 799.358 2
-2 5 -5 23522.3 571.41 1
-2 5 -6 1107.81 189.712 2
-2 5 -6 1247.14 126.893 1
-2 5 -7 470.839 176.39 2
-2 5 -8 1714.94 263.802 2
-2 5 -9 990.41 254.29 2
-2 5 -10 1944.91 320.546 2
-2 5 -11 1259.85 279.355 2
-2 5 -12 4467.62 499.473 2
-2 5 -13 598.267 231.199 2
-2 5 -14 316.727 192.813 2
-2 5 -15 362.005 149.305 2
-2 5 -16 255.98 213.202 2
-2 5 -17 456.253 277.858 2
-2 5 -18 160.328 235.304 2
-2 5 -19 198.209 277.76 2
-2 5 -20 845.715 373.609 2
2 -4 -18 82.0415 217.608 2
2 -4 -17 166.419 230.696 2
2 -4 -16 123.511 201.74 2
2 -4 -15 584.941 237.788 2
-2 4 14 287.903 149.93 1
2 -4 -14 -18.2899 155.29 2
-2 4 13 16.2706 139.962 1
2 -4 -13 -51.2829 191.427 2
2 -4 -12 138.201 171.848 2
-2 4 12 307.089 134.256 1
-2 4 11 201.679 122.71 1
2 -4 -11 325.071 142.712 2
-2 4 10 3084.76 366.048 1
2 -4 -10 3631.49 413.932 2
2 -4 -9 20914.3 1060.54 1
-2 4 9 21398.9 925.575 1
2 -4 -9 21199.8 965.486 2
2 -4 -8 18047.1 973.999 1
-2 4 8 18652.9 830.222 1
2 -4 -8 18730 860.221 2
2 -4 -7 6319.61 555.013 1
-2 4 7 6046.47 467.623 1
2 -4 -7 5707.64 451.333 2
-2 4 6 175.084 111.266 1
2 -4 -6 66.771 130.93 1
2 -4 -5 5641.82 509.64 1
-2 4 5 5927.84 428.584 1
2 -4 -4 2221.74 306.604 1
-2 4 4 2481.34 269.704 1
2 -4 -3 1545.05 239.23 1
-2 4 3 1961.1 229.131 1
2 -4 -2 26721.3 947.092 1
-2 4 2 27307.7 795.996 1
2 -4 -1 22456.4 831.257 1
-2 4 1 22681.9 694.282 1
2 -4 0 2289.86 251.076 1
-2 4 0 2144.42 208.951 1
2 -4 1 35209.4 926.453 1
-2 4 -1 38049.9 817.348 1
-2 4 -2 13424.3 467.316 1
2 -4 2 13181.9 522.598 1
-2 4 -3 22520.5 681.245 2
-2 4 -3 21989 558.705 1
-2 4 -4 294.733 116.235 2
-2 4 -4 199.674 58.0291 1
-2 4 -5 2866.61 180.324 1
-2 4 -5 3135.9 287.054 2
-2 4 -6 4776.01 371.891 2
-2 4 -6 4940.3 211.212 1
-2 4 -7 3642.61 348.485 2
-2 4 -8 7250.31 502.428 2
-2 4 -9 13153.6 717.019 2
-2 4 -10 84.5098 124.898 2
-2 4 -11 316.042 126.502 2
-2 4 -12 213.438 145.776 2
-2 4 -13 107.445 133.355 2
-2 4 -14 466.873 183.746 2
-2 4 -15 818.728 313.876 2
-2 4 -16 83.2586 172.72 2
-2 4 -17 -219.802 276.059 2
-2 4 -18 641.805 340.189 2
-2 4 -19 -180.422 205.411 2
-2 4 -20 455.169 351.745 2
2 -3 -18 275.081 256.433 2
2 -3 -17 416.086 289.447 2
2 -3 -16 363.603 179.195 2
2 -3 -15 28.4271 185.843 2
-2 3 14 -275.785 161.995 1
2 -3 -14 60.3211 170.602 2
2 -3 -13 -101.448 151.559 2
-2 3 13 213.513 167.522 1
2 -3 -12 1135.25 266.019 2
-2 3 12 1328.8 264.79 1
-2 3 11 7583.06 558.197 1
2 -3 -11 8116.15 639.377 2
-2 3 10 427.788 163.707 1
2 -3 -10 195.846 111.564 2
2 -3 -9 7163.89 546.242 2
-2 3 9 7071.89 500.18 1
2 -3 -8 985.473 208.258 2
-2 3 8 1080.3 193.795 1
2 -3 -7 3953.48 382.691 2
-2 3 7 3458.88 327.584 1
-2 3 6 22340.6 797.956 1
2 -3 -6 22425.5 830.722 2
2 -3 -6 21281.3 886.583 1
-2 3 5 4238.17 334.476 1
2 -3 -5 4458.24 393.796 1
2 -3 -4 31607.9 1014.19 1
-2 3 4 33349 883.974 1
-2 3 3 69862.4 1221.12 1
2 -3 -3 66900.8 1384.05 1
2 -3 -2 19646.4 725.099 1
-2 3 2 16262.8 570.642 1
2 -3 -1 85262 1391.63 1
-2 3 1 78128.5 1184.23 1
-2 3 0 1827.76 175.721 1
-2 3 -1 92597 1154.94 1
-2 3 -2 28414.6 611.212 1
-2 3 -3 13931.7 410.698 1
-2 3 -3 15366.7 556.589 2
-2 3 -4 7319.47 279.759 1
-2 3 -4 8202.33 434.108 2
-2 3 -5 620.637 83.5122 1
-2 3 -5 745.584 142.177 2
-2 3 -6 4927.54 386.091 2
-2 3 -6 4075.36 179.269 1
-2 3 -7 5792.32 414.904 2
-2 3 -8 61.9552 101.445 2
-2 3 -9 5271.65 455.966 2
-2 3 -10 204.026 167.846 2
-2 3 -11 164.065 156.685 2
-2 3 -12 768.788 226.433 2
-2 3 -13 -162.576 167.91 2
-2 3 -14 -26.7088 130.724 2
-2 3 -15 545.691 222.199 2
-2 3 -16 410.027 280.484 2
-2 3 -17 29.6723 167.021 2
-2 3 -18 -200.457 188.516 2
-2 3 -19 139.491 271.132 2
-2 3 -20 309.13 232.27 2
2 -2 -19 109.342 258.075 2
2 -2 -18 19.5746 212.609 2
2 -2 -17 -317.499 256.67 2
2 -2 -16 1077.01 351.244 2
2 -2 -15 219.454 169.129 2
2 -2 -14 382.663 166.615 2
-2 2 14 322.201 142.655 1
-2 2 13 -306.09 159.979 1
2 -2 -13 -45.2905 141.356 2
2 -2 -12 1224.68 272.204 2
-2 2 12 1449.44 242.825 1
-2 2 11 4971.36 423.647 1
2 -2 -11 3897.55 441.469 2
-2 2 10 855.511 198.394 1
2 -2 -10 609.385 193.75 2
2 -2 -9 1385.75 251.705 2
-2 2 9 1632.83 238.518 1
-2 2 8 10545.2 552.896 1
2 -2 -8 9316.76 581.163 2
2 -2 -7 11894.4 624.671 2
-2 2 7 11441.9 556.254 1
2 -2 -6 16211.7 685.731 2
-2 2 6 16735.3 646.387 1
-2 2 5 565.19 149.973 1
2 -2 -5 366.54 118.7 2
-2 2 4 10696.4 471.839 1
-2 2 3 4618.67 293.35 1
-2 2 2 260.92 179.071 1
-2 2 1 224110 1893.13 1
-2 2 0 162901 1492.35 1
-2 2 -2 85063.6 1006.54 1
-2 2 -3 989.962 140.055 2
-2 2 -3 1187.56 124.959 1
-2 2 -4 21956.5 662.261 2
-2 2 -4 22139.2 495.198 1
-2 2 -5 23822.3 732.549 2
-2 2 -5 24242 508.491 1
-2 2 -6 -16.4404 89.6619 2
-2 2 -6 108.693 41.3411 1
-2 2 -7 15383.9 374.911 1
-2 2 -7 18342.2 712.687 2
-2 2 -8 15020.8 699.603 2
-2 2 -9 368.351 134.472 2
-2 2 -10 3897.77 405.762 2
-2 2 -11 1166.8 250.673 2
-2 2 -12 1912.27 315.204 2
-2 2 -13 5116.45 529.309 2
-2 2 -14 805.847 237.762 2
-2 2 -15 431.317 208.337 2
-2 2 -16 -188.988 162.168 2
-2 2 -17 -156.37 161.101 2
-2 2 -18 139.387 212.989 2
-2 2 -19 143.183 255.604 2
2 -1 -20 221.83 248.991 2
2 -1 -19 299.22 205.651 2
2 -1 -18 -69.0141 240.529 2
2 -1 -17 241.709 213.851 2
2 -1 -16 -136.347 170.331 2
2 -1 -15 195.917 202.238 2
2 -1 -14 -290.331 191.995 2
-2 1 13 7391.79 525.609 1
2 -1 -13 6937.43 642.648 2
-2 1 12 3942.52 364.848 1
2 -1 -12 3563.95 433.102 2
2 -1 -11 1435.42 290.94 2
-2 1 11 1289.07 218.689 1
-2 1 10 714.646 162.726 1
2 -1 -10 1037.33 254.483 2
2 -1 -9 2249.47 305.795 2
-2 1 9 1728.08 218.913 1
2 -1 -8 668.501 136.021 2
-2 1 8 781.434 138.463 1
-2 1 7 5162.45 357.717 1
2 -1 -7 4754.41 392.717 2
2 -1 -6 1957.8 243.111 2
-2 1 6 1861.38 210.513 1
-2 1 5 42342.8 915.154 1
2 -1 -5 41970.1 1014.85 2
-2 1 4 2343.36 220.699 1
2 -1 -4 1920.24 207.527 2
-2 1 3 1010.81 132.422 1
-2 1 2 77330 1080.83 1
-2 1 1 26325.7 617.399 1
-2 1 0 748.36 121.176 1
-2 1 -1 91986 1112.69 1
-2 1 -2 196206 1628.63 1
-2 1 -3 8984.68 350.408 1
-2 1 -3 9018.48 382.121 2
-2 1 -4 112436 1280.34 1
-2 1 -4 113315 1441.04 2
-2 1 -5 315.993 73.1775 1
-2 1 -5 261.369 67.7788 2
-2 1 -6 29.3593 37.0926 1
-2 1 -6 22.4945 76.0198 2
-2 1 -7 7897.47 350.87 1
-2 1 -7 8090.88 461.37 2
-2 1 -8 1520.56 221.902 2
-2 1 -8 1411.68 154.936 1
-2 1 -9 9223.43 566.38 2
-2 1 -10 1078.11 223.45 2
-2 1 -11 98.6517 111.684 2
-2 1 -12 908.289 224.746 2
-2 1 -13 3241.92 444.512 2
-2 1 -14 465.862 202.704 2
-2 1 -15 249.841 185.6 2
-2 1 -16 1298.3 342.006 2
-2 1 -17 324.27 240.121 2
-2 1 -18 678.164 294.946 2
-2 1 -19 -275.474 255.105 2
2 0 -20 -46.5188 274.774 2
2 0 -19 -233.613 254.624 2
2 0 -18 24.0037 217.055 2
2 0 -17 55.942 172.803 2
2 0 -16 198.761 208.43 2
2 0 -15 1118.04 298.115 2
2 0 -14 3326.05 493.5 2
-2 0 13 862.933 176.731 1
2 0 -13 1492.74 299.705 2
2 0 -12 -110.634 131.589 2
-2 0 12 87.9833 95.6255 1
-2 0 11 16264 692.834 1
2 0 -11 16399.8 888.189 2
-2 0 10 1819.65 235.318 1
2 0 -10 2214.68 319.234 2
2 0 -9 -22.8057 101.985 2
-2 0 9 142.395 88.444 1
2 0 -8 609.419 195.232 2
-2 0 8 452.449 133.304 1
-2 0 7 68896.2 1226.69 1
2 0 -7 67538.2 1438.86 2
-2 0 6 31815.5 804.135 1
2 0 -6 30949.1 911.656 2
-2 0 5 21525.9 647.759 1
2 0 -5 22486.7 731.56 2
-2 0 4 22581.1 639.646 1
2 0 -4 23593 702.427 2
-2 0 3 14694.1 508.703 1
2 0 -3 16970.2 578.381 2
-2 0 2 1307.63 167.387 1
-2 0 1 103802 1289.48 1
-2 0 0 104497 1291.52 1
-2 0 -1 13897.4 473.669 1
-2 0 -2 24441.6 653.024 1
-2 0 -3 3105.23 271.062 1
-2 0 -3 1983.55 205.107 2
-2 0 -4 12168.2 494.388 1
-2 0 -4 11348.1 446.629 2
-2 0 -5 21387 671.146 1
-2 0 -5 20597 632.267 2
-2 0 -6 6148.25 427.147 2
-2 0 -6 7894.37 483.414 1
-2 0 -7 2810.76 253.118 1
-2 0 -7 2727.84 274.483 2
-2 0 -8 314.957 139.938 2
-2 0 -8 -84.4131 77.6944 1
-2 0 -9 480.057 133.595 1
-2 0 -9 638.453 156.245 2
-2 0 -10 873.602 243.755 2
-2 0 -10 1076.37 198.542 1
-2 0 -11 650.191 179.446 2
-2 0 -12 51.4768 109.494 2
-2 0 -13 737.171 237.786 2
-2 0 -14 729.82 274.269 2
-2 0 -15 159.091 172.346 2
-2 0 -16 94.0025 157.153 2
-2 0 -17 77.3148 163.526 2
-2 0 -18 -90.9408 228.724 2
2 1 -20 480.555 300.23 2
2 1 -19 399.187 229.37 2
2 1 -18 39.9169 190.709 2
2 1 -17 -1.46846 185.331 2
2 1 -16 748.019 312.444 2
2 1 -15 296.714 212.181 2
2 1 -14 490.127 169.96 2
2 1 -13 -110.36 135.988 2
-2 -1 12 10480.6 561.759 1
2 1 -12 10946.5 751.833 2
2 1 -11 487.223 191.84 2
-2 -1 11 810.199 168.821 1
-2 -1 10 10766.9 538.693 1
2 1 -10 10475.1 666.281 2
-2 -1 9 7519.65 439.508 1
2 1 -9 7231.2 533.125 2
-2 -1 8 3064.63 275.665 1
2 1 -8 2918.63 331.021 2
-2 -1 7 6324.43 383.991 1
2 1 -7 6111.5 431.567 2
-2 -1 6 163472 1872.72 1
2 1 -6 160557 2049.48 2
-2 -1 5 56708.4 1082.21 1
2 1 -5 57493.5 1146.87 2
2 1 -4 40866.1 905.434 2
-2 -1 4 41563.5 908.744 1
2 1 -3 7723.68 368.572 2
-2 -1 3 7419.34 381.687 1
-2 -1 2 43932 915.832 1
-2 -1 1 129871 1592.18 1
-2 -1 0 1818.47 200.024 1
-2 -1 -1 21008.8 673.924 1
-2 -1 -2 57409.1 800.722 2
-2 -1 -2 57230.9 1137.41 1
-2 -1 -3 7559.82 426.049 1
-2 -1 -3 7851.34 321.404 2
-2 -1 -4 7751.8 342.873 2
-2 -1 -4 7486.25 434.835 1
-2 -1 -5 1206.16 154.144 2
-2 -1 -5 1034.36 170.55 1
-2 -1 -6 140.41 92.8576 2
-2 -1 -6 276.498 103.347 1
-2 -1 -7 2141.62 231.56 2
-2 -1 -7 2217.11 262.759 1
-2 -1 -8 606.539 139.219 1
-2 -1 -8 706.132 156.553 2
-2 -1 -9 261.797 123.082 2
-2 -1 -9 68.7104 67.6883 1
-2 -1 -10 1110.69 203.668 2
-2 -1 -10 1206.8 208.863 1
-2 -1 -11 279.326 143.761 2
-2 -1 -11 214.712 124.527 1
-2 -1 -12 4603.56 457.778 2
-2 -1 -13 828.095 209.942 2
-2 -1 -14 665.13 243.139 2
-2 -1 -15 -232.763 249.899 2
-2 -1 -16 -146.938 161.422 2
-2 -1 -17 371.337 232.297 2
2 2 -21 258.651 317.257 2
2 2 -20 -166.236 207.09 2
2 2 -19 -22.5136 257.575 2
2 2 -18 -15.9763 199.876 2
2 2 -17 1102.6 371.487 2
2 2 -16 245.068 209.371 2
2 2 -15 1897.67 398.895 2
2 2 -14 850.995 288.727 2
2 2 -13 187.585 179.521 2
-2 -2 12 12.9303 77.9999 1
2 2 -12 -247.322 218.454 2
2 2 -11 7941.91 610.388 2
-2 -2 11 7444.24 463.005 1
-2 -2 10 12365 580.045 1
2 2 -10 12521.3 726.264 2
2 2 -9 -129.621 106.615 2
-2 -2 9 131.55 86.6535 1
2 2 -8 1978.91 258.647 2
-2 -2 8 2202.74 242.395 1
-2 -2 7 152.804 92.7463 1
2 2 -7 200.204 152.782 2
-2 -2 6 6110.83 385.521 1
2 2 -6 6172.95 400.009 2
2 2 -5 22520.7 711.402 2
-2 -2 5 23076.6 743.377 1
2 2 -4 839.344 145.561 2
-2 -2 4 1107.7 162.3 1
2 2 -3 4072.94 261.932 2
-2 -2 3 3663.63 304.941 1
-2 -2 2 143.823 66.1943 1
-2 -2 1 50355.9 1130.85 1
-2 -2 0 27356.8 848.015 1
-2 -2 -1 11690.5 568.361 1
-2 -2 -2 9792.49 304.988 2
-2 -2 -2 9948.09 533.422 1
-2 -2 -3 13764.9 642.426 1
-2 -2 -3 14174 404.975 2
-2 -2 -4 1801.19 237.203 1
-2 -2 -4 1444.53 141.36 2
-2 -2 -5 24350.6 915.806 1
-2 -2 -5 24122.8 644.791 2
-2 -2 -6 339.678 132.137 1
-2 -2 -6 210.66 94.4862 2
-2 -2 -7 6051.99 486.431 1
-2 -2 -7 5607.05 363.08 2
-2 -2 -8 2305.1 318.423 1
-2 -2 -8 1942.44 237.747 2
-2 -2 -9 164.192 127.196 1
-2 -2 -9 203.22 124.768 2
-2 -2 -10 1212.82 208.733 2
-2 -2 -10 1617.8 268.317 1
-2 -2 -11 4419.65 469.769 1
-2 -2 -11 4382.69 441.464 2
-2 -2 -12 2517.74 357.345 2
-2 -2 -13 -0.9249 117.193 2
-2 -2 -14 478.059 239.268 2
-2 -2 -15 686.527 269.277 2
-2 -2 -16 60.9754 193.066 2
-2 -2 -17 459.047 234.394 2
2 3 -21 60.5293 258.739 2
2 3 -20 432.194 356.966 2
2 3 -19 377.622 288.309 2
2 3 -18 379.377 306.746 2
2 3 -17 292.039 260.629 2
2 3 -16 361.092 259.298 2
2 3 -15 110.333 189.871 2
2 3 -14 577.371 191.369 2
2 3 -13 274.213 125.9 2
2 3 -12 20677.3 1034.07 2
2 3 -11 811.006 315.124 2
-2 -3 11 763.687 212.643 1
2 3 -10 15337.1 812.506 2
-2 -3 10 13747.2 646.526 1
-2 -3 9 8059.56 494.396 1
2 3 -9 8528.44 565.391 2
2 3 -8 13969.9 684.188 2
-2 -3 8 14777.4 652.726 1
2 3 -7 15133.1 665.16 2
-2 -3 7 14234.1 647.091 1
2 3 -6 2353.39 302.215 2
-2 -3 6 3128.36 358.873 1
-2 -3 5 45561.3 1153.99 1
2 3 -5 45414.3 993.545 2
-2 -3 4 13389.8 642.312 1
2 3 -4 13035.8 507.652 2
-2 -3 3 41994.9 1126.01 1
2 3 -3 42666.6 824.169 2
-2 -3 2 25756.2 893.144 1
2 3 -2 20350.2 556.334 2
-2 -3 1 74008.4 1534.61 1
-2 -3 0 54994.7 1348.38 1
-2 -3 -1 11276.8 621.474 1
-2 -3 -2 14092.3 324.515 2
-2 -3 -2 13679.6 726.771 1
-2 -3 -3 7478.97 607.001 1
-2 -3 -3 4357.81 245.648 2
-2 -3 -4 27724.1 590.886 2
-2 -3 -4 27038.7 1043.46 1
-2 -3 -5 5757.09 495.932 1
-2 -3 -5 5089.69 297.914 2
-2 -3 -6 2772.26 379.811 1
-2 -3 -6 2528.43 250.237 2
-2 -3 -7 6122.74 557.066 1
-2 -3 -7 6674.65 392.39 2
-2 -3 -8 17330.8 698.016 2
-2 -3 -8 16988.6 937.387 1
-2 -3 -9 20344.1 1024.32 1
-2 -3 -9 20185.7 804.485 2
-2 -3 -10 803.959 299.739 1
-2 -3 -10 577.833 258.47 2
-2 -3 -11 676.385 150.557 2
-2 -3 -11 714.258 218.009 1
-2 -3 -12 924.507 255.413 1
-2 -3 -12 963.207 231.017 2
-2 -3 -13 1267.02 269.225 2
-2 -3 -14 324.267 182.239 2
-2 -3 -15 314.755 221.203 2
2 4 -21 -209.695 309.317 2
2 4 -20 -60.6259 226.606 2
2 4 -19 -439.424 254.039 2
2 4 -18 711.458 320.708 2
2 4 -17 871.503 318.858 2
2 4 -16 566.556 274.307 2
2 4 -15 101.158 151.611 2
2 4 -14 3.3382 131.106 2
2 4 -13 -47.5946 169.898 2
2 4 -12 322.099 147.82 2
-2 -4 11 229.078 74.7823 1
2 4 -11 471.956 179.104 2
-2 -4 10 19388.9 805.187 1
2 4 -10 19964.9 920.154 2
2 4 -9 1741.32 267.661 2
-2 -4 9 1546.08 231.257 1
-2 -4 8 270.365 107.212 1
2 4 -8 309.844 119.233 2
2 4 -7 3318.18 311.294 2
-2 -4 7 2972.78 324.587 1
-2 -4 6 1522.98 238.738 1
2 4 -6 1637.25 205.278 2
2 4 -5 2704.68 242.096 2
-2 -4 5 2594.94 308.907 1
2 4 -4 16816.5 562.779 2
-2 -4 4 16223 762.432 1
2 4 -3 48954.6 870.449 2
-2 -4 3 47099.5 1307.89 1
2 4 -2 -15.1167 41.6062 2
-2 -4 2 82.9964 98.9559 1
-2 -4 1 26092.6 998.249 1
-2 -4 0 49.5582 82.6063 1
-2 -4 -1 16238.5 815.823 1
-2 -4 -2 1652.15 270.432 1
-2 -4 -2 1242.01 83.4416 2
-2 -4 -3 2311.24 331.945 1
-2 -4 -3 2149.25 127.426 2
-2 -4 -4 37450.9 1320.41 1
-2 -4 -4 37543.7 641.976 2
-2 -4 -5 7330.1 593.891 1
-2 -4 -5 7829.03 339.215 2
-2 -4 -6 1465.88 287.178 1
-2 -4 -6 1434.79 170.188 2
-2 -4 -7 9320.32 730.09 1
-2 -4 -7 9838.44 475.808 2
-2 -4 -8 587.99 148.438 2
-2 -4 -8 625.464 196.466 1
-2 -4 -9 697.17 162.396 2
-2 -4 -9 600.659 180.529 1
-2 -4 -10 6075.64 632.26 1
-2 -4 -10 6173.53 486.146 2
-2 -4 -11 425.589 161.455 2
-2 -4 -11 363.174 166.407 1
-2 -4 -12 388.633 138.293 2
-2 -4 -12 574.625 236.954 1
-2 -4 -13 173.506 169.593 2
-2 -4 -14 38.8491 138.842 2
2 5 -20 1018.63 431.484 2
2 5 -19 634.379 332.434 2
2 5 -18 466.894 298.409 2
2 5 -17 91.7731 208.838 2
2 5 -16 485.236 260.351 2
2 5 -15 209.271 233.946 2
2 5 -14 1553.86 341.224 2
2 5 -13 2858.73 440.534 2
2 5 -12 4352.15 479.487 2
2 5 -11 1410.38 255.395 2
-2 -5 11 1522.01 246.568 1
2 5 -10 4597.59 457.606 2
-2 -5 10 4398.65 418.254 1
-2 -5 9 147.988 135.108 1
2 5 -9 305.559 159.383 2
-2 -5 8 5313.96 464.777 1
2 5 -8 6024.48 451.063 2
2 5 -7 839.774 195.341 2
-2 -5 7 365.321 182.222 1
2 5 -6 254.219 113.847 2
-2 -5 6 131.303 134.633 1
-2 -5 5 1840.81 311.761 1
2 5 -5 2444.99 250.723 2
-2 -5 4 8668.51 670.09 1
2 5 -4 9478.26 456.993 2
-2 -5 3 1948.49 315.186 1
2 5 -3 1790.16 183.254 2
-2 -5 2 14758.5 812.16 1
2 5 -2 16754.9 455.342 2
-2 -5 1 7006.84 603.156 1
-2 -5 0 7512.91 605.648 1
-2 -5 -1 47081.4 1533.46 1
-2 -5 -2 8498.56 667.499 1
-2 -5 -3 2799.09 378.96 1
-2 -5 -4 5046.39 521.274 1
-2 -5 -4 5177.07 223.572 2
-2 -5 -5 949.903 131.304 2
-2 -5 -5 990.075 272.785 1
-2 -5 -6 4576.11 526.446 1
-2 -5 -6 4327.95 279.129 2
-2 -5 -7 7158.5 693.703 1
-2 -5 -7 7251.71 401.219 2
-2 -5 -8 1523.74 207.926 2
-2 -5 -8 1484.59 341.146 1
-2 -5 -9 5396.25 415.721 2
-2 -5 -9 5433.65 616.442 1
-2 -5 -10 6788.6 710.261 1
-2 -5 -10 5967.71 464.417 2
-2 -5 -11 152.329 95.766 2
-2 -5 -11 269.395 198.818 1
-2 -5 -12 544.175 261.814 1
2 6 -20 -100.673 200.672 2
2 6 -19 429.408 291.794 2
2 6 -18 -222.956 314.405 2
2 6 -17 450.959 267.231 2
2 6 -16 383.202 254.618 2
2 6 -15 -33.9927 144.138 2
2 6 -14 755.763 262.237 2
2 6 -13 298.32 188.832 2
2 6 -12 377.762 190.787 2
2 6 -11 3343.46 404.388 2
-2 -6 10 -186.716 120.666 1
2 6 -10 61.4831 154.743 2
-2 -6 9 1475.17 274.271 1
2 6 -9 1338.46 256.717 2
2 6 -8 561.296 165.874 2
-2 -6 8 683.578 229.358 1
-2 -6 7 7720.89 630.672 1
2 6 -7 6273.45 440.585 2
2 6 -6 92.9399 89.0639 2
-2 -6 6 160.28 124.339 1
-2 -6 5 948.81 352.341 1
2 6 -5 71.5608 114.841 2
-2 -6 4 1555.75 301.582 1
2 6 -4 1722.09 186.033 2
-2 -6 3 644.799 248.792 1
2 6 -3 512.681 110.58 2
-2 -6 2 2566.48 417.602 1
2 6 -2 1531.89 136.344 2
-2 -6 1 11427.4 786.173 1
-2 -6 0 7479.71 655.213 1
-2 -6 -1 999.489 272.694 1
-2 -6 -2 17525.5 1011.71 1
-2 -6 -3 257.344 147.57 1
-2 -6 -4 19019.1 1109.7 1
-2 -6 -5 6493.86 666.886 1
-2 -6 -6 7489.93 730.482 1
-2 -6 -7 3324.16 508.815 1
-2 -6 -8 378.262 223.853 1
-2 -6 -9 5448.96 656.869 1
-2 -6 -10 604.164 218.291 1
-2 -6 -11 748.944 288.851 1
-2 -6 -12 80.3289 159.996 1
2 7 -19 181.035 273.448 2
2 7 -18 141.73 173.538 2
2 7 -17 198.934 181.276 2
2 7 -16 53.172 159.888 2
2 7 -15 655.826 263.945 2
2 7 -14 348.45 172.332 2
2 7 -13 1625.47 324.083 2
2 7 -12 1765.86 342.169 2
2 7 -11 -57.6026 156.146 2
-2 -7 10 4538.25 494.6 1
2 7 -10 4578.21 460.2 2
-2 -7 9 6195.99 579.436 1
2 7 -9 7181.8 534.966 2
-2 -7 8 12319.9 810.726 1
2 7 -8 12843.1 664.564 2
-2 -7 7 5771.12 568.133 1
2 7 -7 6142.86 436.815 2
-2 -7 6 8193.18 681.639 1
2 7 -6 9031.11 489.633 2
-2 -7 5 4678.69 538.482 1
2 7 -5 4577.71 310.606 2
2 7 -4 71.8755 50.3589 2
-2 -7 4 -129.223 99.4239 1
-2 -7 3 772.607 241.494 1
2 7 -3 1188.86 143.826 2
-2 -7 2 4802.42 556.618 1
-2 -7 1 3545.3 476.638 1
-2 -7 0 25.6107 114.559 1
-2 -7 -1 1814.84 348.314 1
-2 -7 -2 11485.1 873.313 1
-2 -7 -3 3811.03 530.647 1
-2 -7 -4 -280.866 234.649 1
-2 -7 -5 2376.33 414.888 1
-2 -7 -6 -29.7378 142.94 1
-2 -7 -7 725.023 269.755 1
-2 -7 -8 618.158 218.475 1
-2 -7 -9 -130.87 169.823 1
-2 -7 -10 -38.711 189.162 1
-2 -7 -11 521.358 290.003 1
-2 -7 -12 477.438 296.093 1
2 8 -19 244.902 255.958 2
2 8 -18 -27.169 235.891 2
2 8 -17 152.878 214.423 2
2 8 -16 44.2563 168.68 2
2 8 -15 359.016 244.707 2
2 8 -14 28.7606 159.728 2
2 8 -13 -44.7386 136.27 2
2 8 -12 218.248 168.01 2
2 8 -11 1203.86 281.122 2
-2 -8 10 6918.89 642.377 1
2 8 -10 7636.33 601.693 2
2 8 -9 2847.3 345.668 2
-2 -8 9 2652.99 413.223 1
2 8 -8 1584.74 247.314 2
-2 -8 8 1361.8 301.749 1
2 8 -7 142.135 92.7571 2
-2 -8 7 406.784 199.017 1
-2 -8 6 11085.2 856.391 1
2 8 -6 9323.96 501.946 2
2 8 -5 991.877 170.312 2
-2 -8 5 1093.02 303.099 1
-2 -8 4 8984.26 772.195 1
2 8 -4 8833.61 405.206 2
-2 -8 3 7079.46 698.584 1
-2 -8 2 569.513 201.081 1
-2 -8 1 3682.68 540.811 1
-2 -8 0 5859.07 675.906 1
-2 -8 -1 6317.62 693.587 1
-2 -8 -2 14173.2 1075.98 1
-2 -8 -3 1361.66 361.919 1
-2 -8 -4 87.447 143.304 1
-2 -8 -5 286.766 301.943 1
-2 -8 -6 1037.14 394.786 1
-2 -8 -7 1331.15 397.566 1
-2 -8 -8 1107.11 359.89 1
-2 -8 -9 271.621 242.117 1
-2 -8 -10 79.2566 173.182 1
-2 -8 -11 2012.63 483.903 1
-2 -8 -12 171.873 181.629 1
2 9 -17 -130.416 191.339 2
2 9 -16 1174.13 356.593 2
2 9 -15 486.967 230.917 2
2 9 -14 457.688 199.79 2
2 9 -13 135.704 136.403 2
2 9 -12 -22.1908 169.555 2
2 9 -11 29.9749 121.137 2
-2 -9 10 -106.747 148.38 1
2 9 -10 86.2085 126.624 2
2 9 -9 1527.14 262.23 2
-2 -9 9 1327.57 320.265 1
2 9 -8 1538.62 248.759 2
-2 -9 8 1710.04 382.352 1
2 9 -7 38.6397 84.3025 2
-2 -9 7 111.851 117.426 1
-2 -9 6 2030.81 382.385 1
2 9 -6 1951.09 235.394 2
-2 -9 5 2772.37 474.843 1
-2 -9 4 887.64 271.388 1
-2 -9 3 2855.78 480.901 1
-2 -9 2 10617.3 934.882 1
-2 -9 1 459.431 212.883 1
-2 -9 0 3292.02 529.124 1
-2 -9 -1 786.721 298.582 1
-2 -9 -2 121.881 186.187 1
-2 -9 -3 -146.207 216.956 1
-2 -9 -4 2079.15 445.556 1
-2 -9 -5 4646.93 704.255 1
-2 -9 -6 215.983 180.423 1
-2 -9 -7 693.577 205.809 1
-2 -9 -8 95.9739 199.572 1
-2 -9 -9 676.736 337.327 1
-2 -9 -10 -406.114 310.574 1
-2 -9 -11 85.024 199.856 1
-2 -9 -12 593.418 349.3 1
2 10 -15 21.7563 175.64 2
2 10 -14 -184.872 199.272 2
2 10 -13 -30.527 139.572 2
2 10 -12 -221.893 165.271 2
2 10 -11 -55.3522 133.574 2
2 10 -10 1109.29 263.081 2
2 10 -9 944.413 245.508 2
-2 -10 9 546.811 237.974 1
2 10 -8 179.988 133.972 2
-2 -10 8 61.915 156.33 1
-2 -10 7 1575.8 371.42 1
-2 -10 6 455.213 222.632 1
-2 -10 5 752.352 299.116 1
-2 -10 4 847.763 305.323 1
-2 -10 3 -53.8592 144.398 1
-2 -10 2 -146.462 202.34 1
-2 -10 1 543.739 282.12 1
-2 -10 0 1840.88 423.907 1
-2 -10 -1 2208.23 467.769 1
-2 -10 -2 -104.94 216.511 1
-2 -10 -3 363.159 160.895 1
-2 -10 -4 610.937 336.127 1
-2 -10 -5 364.054 258.606 1
-2 -10 -6 449.694 260.238 1
-2 -10 -7 714.451 348.407 1
-2 -10 -8 1569.56 471.075 1
-2 -10 -9 378.56 197.492 1
-2 -10 -10 1650.49 504.607 1
-2 -10 -11 806.332 398.788 1
-2 -11 9 185.104 240.46 1
-2 -11 8 433.58 269.166 1
-2 -11 7 361.165 237.841 1
-2 -11 6 64.5333 168.48 1
-2 -11 5 607.421 243.165 1
-2 -11 4 4378.32 685.386 1
-2 -11 3 2303.94 506.152 1
-2 -11 2 737.668 354.938 1
-2 -11 1 846.919 372.233 1
-2 -11 0 747.521 364.044 1
-2 -11 -1 360.75 282.195 1
-2 -11 -2 3820.49 674.412 1
-2 -11 -3 398.052 288.929 1
-2 -11 -4 487.849 317.172 1
-2 -11 -5 438.978 310.078 1
-2 -11 -6 241.858 267.329 1
-2 -11 -7 954.492 385.573 1
-2 -11 -8 559.215 334.251 1
-2 -11 -9 1141.03 442.941 1
-2 -11 -10 -53.826 259.377 1
-2 -12 8 106.946 259.571 1
-2 -12 7 1057.07 363.089 1
-2 -12 6 2152.3 507.467 1
-2 -12 5 1727.01 469.517 1
-2 -12 4 -21.1882 203.179 1
-2 -12 3 1042.76 381.313 1
-2 -12 2 -233.869 297.085 1
-2 -12 1 206.039 205.058 1
-2 -12 0 1032.82 428.723 1
-2 -12 -1 2002.83 522.391 1
-2 -12 -2 227.563 276.626 1
-2 -12 -3 -107.518 221.21 1
-2 -12 -4 -274.019 361.853 1
-2 -12 -5 601.091 379.571 1
-2 -12 -6 -495.918 429.63 1
-2 -12 -7 1028.24 406.608 1
-2 -12 -8 10.1841 332.186 1
-2 -12 -9 283.795 333.618 1
-2 -12 -10 347.272 395.836 1
-2 -13 7 9.832 231.44 1
-2 -13 6 18.283 222.433 1
-2 -13 5 533.617 317.382 1
-2 -13 4 -14.955 214.744 1
-2 -13 3 119.766 195.383 1
-2 -13 2 869.79 384.919 1
-2 -13 1 2160.42 586.118 1
-2 -13 0 389.697 357.755 1
-2 -13 -1 -231.969 358.511 1
-2 -13 -2 14.4844 293.094 1
-2 -13 -3 78.8564 256.271 1
-2 -13 -4 237.389 269.392 1
-2 -13 -5 294.071 320.843 1
-2 -13 -6 245.837 286.849 1
-2 -13 -7 133.38 372.317 1
-2 -13 -8 442.798 372.249 1
-2 -14 6 620.058 431.793 1
-2 -14 5 164.246 290.875 1
-2 -14 4 736.564 423.053 1
-2 -14 3 478.96 387.902 1
-2 -14 2 -365.288 373.813 1
-2 -14 1 1751.03 514.83 1
-2 -14 0 2060.44 620.737 1
-2 -14 -1 -75.3906 230.663 1
-2 -14 -2 1144.94 466.381 1
-2 -14 -3 54.2864 313.154 1
-2 -14 -4 69.1053 283.834 1
-2 -14 -5 -306.322 310.073 1
-2 -14 -6 953.612 564.045 1
-2 -14 -7 -603.564 426.22 1
-2 -15 4 148.615 231.063 1
-2 -15 3 501.194 382.478 1
-2 -15 2 1345.29 576.391 1
-2 -15 1 139.731 357.119 1
-2 -15 0 58.6688 324.142 1
-2 -15 -1 -54.1001 308.328 1
-2 -15 -2 522.433 426.331 1
-2 -15 -3 -178.24 287.022 1
-2 -15 -4 434.763 411.865 1
-2 -15 -5 186.882 383.609 1
3 -16 -6 970.119 557.621 1
-3 16 6 514.014 332.262 1
3 -16 -5 595.251 386.259 1
-3 16 5 324.021 302.619 1
3 -16 -4 344.848 397.265 1
-3 16 4 -405.563 347.176 1
-3 16 3 -594.753 316.334 1
3 -16 -3 -211.658 322.823 1
-3 16 2 -353.629 248.442 1
3 -16 -2 -761.476 441.284 1
3 -16 -1 106.665 249.904 1
-3 16 1 154.764 190.684 1
-3 16 0 402.28 285.098 1
3 -16 0 405.182 296.31 1
-3 16 -1 539.95 288.675 1
3 -16 1 11.8684 272.136 1
-3 16 -2 -123.123 211.166 1
-3 15 8 36.7872 191.279 1
3 -15 -8 661.537 454.594 1
-3 15 7 129.947 278.496 1
3 -15 -7 16.8524 285.438 1
3 -15 -6 211.466 339.948 1
-3 15 6 445.627 281.266 1
-3 15 5 -71.2322 180.769 1
3 -15 -5 -103.692 226.503 1
-3 15 4 41.8571 281.096 1
3 -15 -4 405.792 274.568 1
3 -15 -3 -178.546 265.146 1
-3 15 3 236.983 237.679 1
-3 15 2 1319.4 363.557 1
3 -15 -2 242.057 279.071 1
3 -15 -1 78.6632 218.427 1
-3 15 1 82.0433 195.416 1
3 -15 0 91.5725 228.796 1
-3 15 0 134.755 188.572 1
3 -15 1 163.852 216.642 1
-3 15 -1 498.467 240.575 1
-3 15 -2 116.686 195.666 1
3 -15 2 176.666 242.921 1
-3 15 -3 12.8245 164.735 1
3 -15 3 459.03 342.312 1
-3 15 -4 -242.06 202.889 1
-3 14 10 370.121 232.36 1
3 -14 -10 741.872 502.777 1
-3 14 9 26.4338 217.082 1
3 -14 -9 274.701 437.218 1
-3 14 8 209.351 185.135 1
3 -14 -8 -315.887 326.331 1
3 -14 -7 -73.1293 303.973 1
-3 14 7 1.62901 209.053 1
3 -14 -6 93.342 226.675 1
-3 14 6 316.981 272.605 1
-3 14 5 -65.7533 190.563 1
3 -14 -5 -267.44 240.834 1
3 -14 -4 220.391 259.401 1
-3 14 4 724.159 292.107 1
3 -14 -3 103.887 200.884 1
-3 14 3 130.211 252.031 1
3 -14 -2 -332.863 300.865 1
-3 14 2 211.546 194.695 1
-3 14 1 -1.34304 203.152 1
3 -14 -1 341.797 325.985 1
-3 14 0 621.773 293.719 1
3 -14 0 -137.404 261.76 1
-3 14 -1 129.816 173.604 1
3 -14 1 -212.178 245.111 1
3 -14 2 534.622 279.981 1
-3 14 -2 1013.26 269.157 1
3 -14 3 828.558 366.428 1
-3 14 -3 1005.6 331.281 1
3 -14 4 -97.2812 181.249 1
-3 14 -4 -135.3 142.301 1
3 -14 5 181.604 229.415 1
-3 14 -5 142.003 170.801 1
3 -13 -11 -179.974 299.593 1
-3 13 11 54.3998 243.162 1
-3 13 10 -1.68242 215.741 1
3 -13 -10 83.7364 310.858 1
-3 13 9 -243.528 213.124 1
3 -13 -9 -187.428 279.249 1
3 -13 -8 41.8242 279.693 1
-3 13 8 648.329 360.891 1
3 -13 -7 469.913 385.146 1
-3 13 7 1019.26 288.78 1
-3 13 6 -301.054 217.829 1
3 -13 -6 92.2056 249.975 1
-3 13 5 489.307 219.828 1
3 -13 -5 793.022 351.26 1
-3 13 4 116.481 206.156 1
3 -13 -4 -98.0121 213.812 1
3 -13 -3 147.473 231.252 1
-3 13 3 228.345 219.208 1
-3 13 2 49.3461 198.63 1
3 -13 -2 -204.734 267.37 1
-3 13 1 403.891 158.135 1
3 -13 -1 995.503 346.83 1
3 -13 0 212.945 211.014 1
-3 13 0 269.534 180.374 1
-3 13 -1 1269.45 320.08 1
3 -13 1 1104.65 378.434 1
3 -13 2 245.757 203.399 1
-3 13 -2 544.853 213.144 1
-3 13 -3 100.865 125.593 1
3 -13 3 148.913 210.808 1
-3 13 -4 819.298 239.44 1
3 -13 4 986.264 324.736 1
-3 13 -5 124.128 149.474 2
3 -13 5 -104.073 151.466 1
-3 13 -5 79.2511 136.616 1
-3 13 -6 204.559 160.228 2
-3 13 -6 84.5283 144.609 1
3 -13 6 157.469 163.603 1
-3 13 -7 -17.7448 129.019 2
-3 13 -8 10.0567 136.197 2
-3 13 -9 406.104 224.057 2
-3 13 -10 284.704 179.476 2
-3 13 -11 -126.269 214.954 2
-3 13 -12 54.1488 232.695 2
3 -12 -12 271.913 312.5 1
-3 12 12 372.821 298.308 1
-3 12 11 151.798 258.048 1
3 -12 -11 4.89587 279.804 1
-3 12 10 694.139 308.863 1
3 -12 -10 82.0172 220.249 1
-3 12 9 897.387 367.722 1
3 -12 -9 372.405 345.149 1
3 -12 -8 -50.1398 223.021 1
-3 12 8 661.215 329.643 1
-3 12 7 1119.16 320.908 1
3 -12 -7 560.692 295.341 1
-3 12 6 198.63 191.526 1
3 -12 -6 191.094 325.443 1
3 -12 -5 12.088 227.748 1
-3 12 5 114.331 166.488 1
-3 12 4 48.1699 199.358 1
3 -12 -4 102.328 197.739 1
3 -12 -3 1427.34 439.609 1
-3 12 3 2153.6 399.492 1
-3 12 2 3285.11 507.649 1
3 -12 -2 3693.59 639.772 1
-3 12 1 1034.24 263.017 1
3 -12 -1 633.949 314.129 1
-3 12 0 -1.06318 127.15 1
3 -12 0 -13.0654 146.43 1
-3 12 -1 -70.1845 97.7391 2
-3 12 -1 118.704 179.424 1
3 -12 1 -25.0761 139.364 1
-3 12 -2 -136.893 180.326 1
-3 12 -2 274.494 142.536 2
3 -12 2 148.839 237.534 1
-3 12 -3 -32.0599 127.455 2
-3 12 -3 336.469 156.645 1
-3 12 -4 175.615 139.238 1
-3 12 -4 196.96 135.26 2
-3 12 -5 2139.79 336.478 2
-3 12 -5 2142.84 346.073 1
3 -12 5 1639.04 377.269 1
-3 12 -6 1382.78 294.75 2
-3 12 -6 1534.88 294.643 1
3 -12 6 1586.7 345.755 1
-3 12 -7 82.8364 122.453 2
-3 12 -8 367.713 165.431 2
-3 12 -9 -134.638 156.541 2
-3 12 -10 324.944 190.964 2
-3 12 -11 -179.218 196.952 2
-3 12 -12 833.942 336.188 2
-3 12 -13 35.6227 202.932 2
-3 12 -14 176.842 175.984 2
-3 12 -15 230.048 214.43 2
-3 11 13 471.422 276.151 1
3 -11 -12 20.5294 244.411 1
-3 11 12 225.18 266.449 1
3 -11 -11 -65.4433 236.162 1
-3 11 11 -10.5927 168.496 1
-3 11 10 -330.211 221.908 1
3 -11 -10 241.672 339.99 1
-3 11 9 15.3191 181.018 1
3 -11 -9 162.113 264.382 1
3 -11 -8 237.428 300.284 1
-3 11 8 733.108 274.167 1
3 -11 -7 105.78 224.795 1
-3 11 7 -165.94 193.456 1
-3 11 6 1148.18 336.976 1
3 -11 -6 700.331 338.721 1
3 -11 -5 1133.76 360.244 1
-3 11 5 1763 393.613 1
3 -11 -4 4538.34 703.227 1
-3 11 4 4720.58 574.756 1
3 -11 -3 2988.22 565.525 1
-3 11 3 3235.49 482.217 1
-3 11 2 119.456 192.952 1
3 -11 -2 19.1433 190.358 1
-3 11 1 -270.38 169.395 1
3 -11 -1 82.3937 196.276 1
-3 11 0 308.035 119.402 1
3 -11 0 78.8308 141.664 1
-3 11 -1 314.948 152.641 1
-3 11 -1 190.718 111.819 2
3 -11 1 111.756 128.602 1
-3 11 -2 4852.14 441.03 2
3 -11 2 5140.14 649.673 1
-3 11 -2 5814.87 557.188 1
3 -11 3 4873.21 586.901 1
-3 11 -3 5693.73 536.039 1
-3 11 -3 5348.02 463.18 2
-3 11 -4 1025.23 228.557 2
3 -11 4 773.887 258.948 1
-3 11 -4 1035.1 246.366 1
-3 11 -5 259.577 170.534 2
-3 11 -5 -5.40388 120.756 1
3 -11 5 -71.0405 117.388 1
-3 11 -6 331.523 170.557 1
-3 11 -6 66.9038 120.091 2
3 -11 6 56.2797 122.172 1
-3 11 -7 -70.18 124.633 2
3 -11 7 169.687 124.633 1
-3 11 -8 205.25 137.927 2
-3 11 -9 29.2805 151.178 2
-3 11 -10 -98.4576 178.506 2
-3 11 -11 18.3058 181.394 2
-3 11 -12 -388.124 264.818 2
-3 11 -13 183.896 194.565 2
-3 11 -14 404.875 202.52 2
-3 11 -15 256.798 217.161 2
-3 11 -16 234.265 325.814 2
-3 10 13 -180.07 213.885 1
-3 10 12 265.264 250.478 1
3 -10 -12 2.10252 264.376 1
3 -10 -11 -336.046 285.087 1
-3 10 11 446.276 222.374 1
-3 10 10 583.086 233.544 1
3 -10 -10 229.354 199.374 1
-3 10 9 505.875 228.179 1
3 -10 -9 411.459 252.168 1
-3 10 8 100.271 198.375 1
3 -10 -8 -195.299 171.893 1
3 -10 -7 400.993 252.168 1
-3 10 7 724.498 243.193 1
-3 10 6 1726.63 369.423 1
3 -10 -6 1781.77 454.454 1
-3 10 5 2559.01 424.412 1
3 -10 -5 2537 549.698 1
3 -10 -4 4.71745 159.406 1
-3 10 4 -139.578 155.044 1
-3 10 3 -104.778 186.472 1
3 -10 -3 86.9501 214.719 1
-3 10 2 102.084 193.73 1
3 -10 -2 117.175 162.026 1
3 -10 -1 1233 342.386 1
-3 10 1 1265 287.867 1
-3 10 0 1989.31 336.402 1
3 -10 0 1715.02 366.259 1
-3 10 -1 2394.15 348.148 1
3 -10 1 2624.48 451.132 1
-3 10 -2 1975.31 270.818 2
-3 10 -2 2283.75 336.897 1
3 -10 2 2287.02 412.277 1
-3 10 -3 163.181 102.4 2
3 -10 3 159.494 206.362 1
-3 10 -3 132.627 128.371 1
-3 10 -4 1190.32 223.318 2
-3 10 -4 1286.68 236.526 1
3 -10 4 989.658 253.469 1
-3 10 -5 -82.2732 121.608 2
3 -10 5 181.433 186.223 1
-3 10 -5 137.33 134.893 1
-3 10 -6 54.8916 117.945 2
3 -10 6 35.6976 100.282 1
-3 10 -6 -91.893 91.7589 1
-3 10 -7 62.6619 119.59 2
-3 10 -7 104.635 104.707 1
-3 10 -8 39.1051 127.957 2
-3 10 -9 -247.669 166.755 2
-3 10 -10 388.675 178.65 2
-3 10 -11 178.117 218.09 2
-3 10 -12 348.349 219.132 2
-3 10 -13 -181.71 191.203 2
-3 10 -14 131.647 209.745 2
-3 10 -15 283.746 191.03 2
-3 10 -16 51.215 201.12 2
-3 10 -17 247.654 275.701 2
-3 9 14 -2.90263 229.451 1
-3 9 13 -410.68 288.046 1
-3 9 12 -69.8723 153.505 1
-3 9 11 -28.2704 164.659 1
3 -9 -11 359.212 293.53 1
3 -9 -10 165.55 217.816 1
-3 9 10 -196.355 218.983 1
-3 9 9 -43.2827 181.113 1
3 -9 -9 -15.9459 195.085 1
-3 9 8 175.657 163.058 1
3 -9 -8 471.326 253.609 1
3 -9 -7 137.944 260.491 1
-3 9 7 302.017 185.448 1
3 -9 -6 3874.86 592.915 1
-3 9 6 3806.27 475.893 1
-3 9 5 2353.98 370.938 1
3 -9 -5 2403.95 475.221 1
-3 9 4 -198.545 142.115 1
3 -9 -4 146.763 219.595 1
3 -9 -3 167.72 205.185 1
-3 9 3 -11.4145 157.137 1
3 -9 -2 -6.37234 192.405 1
-3 9 2 -46.0285 134.262 1
3 -9 -1 -14.5278 120.074 1
-3 9 1 -63.0152 110.482 1
3 -9 0 11211.5 860.445 1
-3 9 0 11020.5 695.945 1
3 -9 1 5770.03 623.609 1
-3 9 -1 5084.27 477.139 1
-3 9 -2 617.055 190.667 1
-3 9 -2 631.312 211.231 2
3 -9 2 844.638 276.514 1
-3 9 -3 965.422 213.789 2
-3 9 -3 921.537 187.529 1
3 -9 3 916.252 250.609 1
-3 9 -4 851.285 196.198 1
-3 9 -4 606.645 180.731 2
3 -9 4 505.085 207.293 1
3 -9 5 313.831 157.037 1
-3 9 -5 260.311 145.271 2
-3 9 -5 300.238 126.982 1
-3 9 -6 -186.825 158.401 2
-3 9 -6 3.90179 102.873 1
-3 9 -7 309.576 116.066 1
-3 9 -7 511.349 170.405 2
-3 9 -8 967.279 271.062 2
-3 9 -9 314.761 151.686 2
-3 9 -10 318.292 190.19 2
-3 9 -11 -50.7517 176.297 2
-3 9 -12 123.109 174.945 2
-3 9 -13 -101.838 149.875 2
-3 9 -14 965.628 313.346 2
-3 9 -15 295.837 224.657 2
-3 9 -16 -48.1594 193.332 2
-3 9 -17 50.3128 189.27 2
-3 9 -18 -126.423 267.62 2
-3 8 14 530.233 285.101 1
-3 8 13 529.962 242.8 1
-3 8 12 -97.0534 186.172 1
-3 8 11 104.111 181.542 1
3 -8 -11 366.855 273.161 1
3 -8 -10 738.009 305.999 1
-3 8 10 567.015 235.376 1
-3 8 9 3108.39 454.306 1
3 -8 -9 3031.3 559.214 1
3 -8 -8 6065.79 744.263 1
-3 8 8 7309.22 682.144 1
-3 8 7 401.236 218.192 1
3 -8 -7 29.365 155.729 1
3 -8 -6 600.562 243.038 1
-3 8 6 325.219 156.301 1
-3 8 5 4560.89 486.282 1
3 -8 -5 5129.54 637.371 1
-3 8 4 340.089 189.84 1
3 -8 -4 176.78 130.665 1
3 -8 -3 3428.36 510.904 1
-3 8 3 4099.28 451.672 1
3 -8 -2 9117.2 781.78 1
-3 8 2 9373.48 635.907 1
3 -8 -1 7277.18 675.024 1
-3 8 1 7056.28 535.067 1
-3 8 0 944.717 196.287 1
3 -8 0 1475.74 317.75 1
3 -8 1 69.5828 101.1 1
-3 8 -1 74.8594 98.5363 1
3 -8 2 2452.4 362.585 1
-3 8 -2 2777.3 326.803 1
3 -8 3 -18.1962 86.4234 1
-3 8 -3 -69.289 92.3825 1
-3 8 -3 65.2801 104.917 2
3 -8 4 2565.29 332.526 1
-3 8 -4 3009.63 312.207 1
-3 8 -4 3068.7 338.03 2
-3 8 -5 6775.63 459.463 1
-3 8 -5 6497.34 498.484 2
-3 8 -6 3841.74 406.826 2
-3 8 -6 3838.93 323.583 1
-3 8 -7 110.397 92.5394 1
-3 8 -7 215.34 116.643 2
-3 8 -8 703.338 180.084 2
-3 8 -9 -208.989 183.116 2
-3 8 -10 1198.26 298.535 2
-3 8 -11 233.985 227.709 2
-3 8 -12 375.836 187.521 2
-3 8 -13 771.725 255.071 2
-3 8 -14 331.349 149.023 2
-3 8 -15 -16.9881 199.853 2
-3 8 -16 478.603 264.514 2
-3 8 -17 195.634 188.105 2
-3 8 -18 313.013 199.258 2
-3 8 -19 36.0933 294.804 2
-3 7 14 2237.3 432.647 1
-3 7 13 137.376 195.168 1
-3 7 12 -91.5027 165.927 1
-3 7 11 347.499 148.722 1
-3 7 10 1351.58 306.806 1
3 -7 -10 1485.28 387.003 1
3 -7 -9 642.84 346.69 1
-3 7 9 229.991 176.643 1
-3 7 8 1511.31 329.824 1
3 -7 -8 1116 290.111 1
3 -7 -7 8972.74 833.858 1
-3 7 7 8994 686.955 1
-3 7 6 62.804 162.965 1
3 -7 -6 315.605 170.096 1
3 -7 -5 11406 891.836 1
-3 7 5 9762.96 677.806 1
3 -7 -4 3492.66 475.78 1
-3 7 4 3267.04 396.528 1
3 -7 -3 5073.19 553.613 1
-3 7 3 5362.77 462.96 1
3 -7 -2 16055.3 967.597 1
-3 7 2 15540.5 781.273 1
3 -7 -1 3625.07 455.881 1
-3 7 1 2278.84 310.547 1
3 -7 0 17372.2 931.247 1
-3 7 0 18550.2 801.868 1
-3 7 -1 1472.18 248.731 1
3 -7 1 4456.19 468.054 1
-3 7 -2 10155.1 553.239 1
3 -7 2 9968.68 663.465 1
3 -7 3 3573.57 406.8 1
-3 7 -3 2864.02 317.241 1
-3 7 -3 2645.61 323.103 2
-3 7 -4 59.8124 97.896 1
-3 7 -4 387.184 144.726 2
-3 7 -5 1805.52 269.447 2
-3 7 -5 1438.4 207.066 1
-3 7 -6 1402.47 281.151 2
-3 7 -6 737.374 141.364 1
-3 7 -7 2075.4 217.789 1
-3 7 -7 1941.75 302.982 2
-3 7 -8 947.758 234.947 2
-3 7 -9 970.467 242.301 2
-3 7 -10 3708.3 442.14 2
-3 7 -11 327.016 224.971 2
-3 7 -12 120.862 138.304 2
-3 7 -13 1366.03 339.702 2
-3 7 -14 1190.49 324.53 2
-3 7 -15 -269.686 228.626 2
-3 7 -16 -197.903 228.285 2
-3 7 -17 35.706 190.173 2
-3 7 -18 25.9921 201.76 2
-3 7 -19 -1.76504 276.719 2
-3 6 15 85.3664 182.46 1
-3 6 14 -35.858 134.38 1
-3 6 13 -246.037 182.896 1
-3 6 12 949.862 267.293 1
-3 6 11 268.554 133.667 1
-3 6 10 770.683 229.615 1
-3 6 9 2854.1 404.9 1
-3 6 8 3978.71 474.938 1
3 -6 -8 3229.36 494.426 1
3 -6 -7 -81.059 100.041 1
-3 6 7 -77.5772 113.682 1
3 -6 -6 738.391 254.751 1
-3 6 6 514.723 209.288 1
3 -6 -5 5761.04 585.042 1
-3 6 5 5852.16 515.921 1
3 -6 -4 3620.04 484.548 1
-3 6 4 3134.73 376.177 1
-3 6 3 -184.991 106.929 1
3 -6 -3 146.596 111.403 1
3 -6 -2 8298.5 627.167 1
-3 6 2 8276.43 544.709 1
3 -6 -1 5233.96 496.45 1
-3 6 1 5279.37 418.215 1
3 -6 0 9471.46 630.584 1
-3 6 0 10125.6 552.184 1
3 -6 1 3485.44 369.046 1
-3 6 -1 3565.9 331.321 1
-3 6 -2 1823.75 226.366 1
-3 6 -3 3558.57 315.776 1
-3 6 -4 853.219 185.708 2
-3 6 -4 643.91 134.866 1
-3 6 -5 10789.8 489.344 1
-3 6 -5 11018.2 609.978 2
-3 6 -6 21.3178 108.131 2
-3 6 -6 8.24488 72.2339 1
-3 6 -7 2390.25 209.574 1
-3 6 -7 2472.88 331.653 2
-3 6 -8 1857.35 305.335 2
-3 6 -9 4757.88 458.93 2
-3 6 -10 6084.54 550.607 2
-3 6 -11 1885.24 363.989 2
-3 6 -12 177.752 145.692 2
-3 6 -13 18.2729 135.783 2
-3 6 -14 31.9353 145.035 2
-3 6 -15 237.234 216.408 2
-3 6 -16 367.736 241.509 2
-3 6 -17 -84.3466 240.66 2
-3 6 -18 -387.359 247.918 2
-3 6 -19 622.152 315.293 2
-3 5 15 -23.4264 139.638 1
-3 5 14 94.9222 143.022 1
-3 5 13 1.01732 138.726 1
-3 5 12 2426.72 386.251 1
-3 5 11 2106.98 347.956 1
-3 5 10 1703.51 310.384 1
-3 5 9 5198.49 508.445 1
-3 5 8 1594.99 272.944 1
-3 5 7 274.12 137.676 1
-3 5 6 7032.17 532.246 1
3 -5 -5 11164.1 745.663 1
-3 5 5 12492.1 683.299 1
3 -5 -4 12581.9 784.174 1
-3 5 4 13787 686.229 1
3 -5 -3 30579.3 1150.37 1
-3 5 3 31995.9 1005.06 1
-3 5 2 -61.7651 117.019 1
-3 5 1 4009.72 329.435 1
-3 5 0 14190.7 605.579 1
-3 5 -1 19311.9 688.19 1
-3 5 -2 52551.4 1091.34 1
-3 5 -3 65938.5 1187.37 1
-3 5 -4 12308.5 493.465 1
-3 5 -4 12925.9 618.062 2
-3 5 -5 2539.75 222.643 1
-3 5 -5 2351.51 272.61 2
-3 5 -6 549.329 164.185 2
-3 5 -6 559.005 114.455 1
-3 5 -7 649.598 176.678 2
-3 5 -7 459.401 92.8539 1
-3 5 -8 160.757 155.246 2
-3 5 -9 684.841 202.282 2
-3 5 -10 2365.56 342.685 2
-3 5 -11 781.976 243.123 2
-3 5 -12 169.074 183.926 2
-3 5 -13 -65.0873 158.765 2
-3 5 -14 -37.4814 156.657 2
-3 5 -15 531.433 271.763 2
-3 5 -16 -115.256 218.034 2
-3 5 -17 198.994 231.81 2
-3 5 -18 130.029 215.451 2
-3 5 -19 -85.7297 220.098 2
3 -4 -18 260.137 273.62 2
3 -4 -17 110.058 229.636 2
3 -4 -16 357.119 256.682 2
3 -4 -15 282.302 235.794 2
-3 4 14 190.666 142.231 1
3 -4 -14 279.188 171.947 2
3 -4 -13 -180.047 185.401 2
-3 4 13 267.9 190.082 1
-3 4 12 4885.68 510.049 1
3 -4 -12 5126.95 610.196 2
3 -4 -11 189.137 136.597 2
-3 4 11 239.037 144.23 1
-3 4 10 4892.01 478.336 1
3 -4 -10 5106.6 546.282 2
-3 4 9 8474.29 605.112 1
-3 4 8 8113.66 575.781 1
-3 4 7 2580.01 321.431 1
-3 4 6 4250.27 397.599 1
-3 4 5 2518.53 302.82 1
-3 4 4 4369.79 374.087 1
-3 4 3 8849.99 532.901 1
-3 4 2 7052.2 527.81 1
-3 4 1 8253.44 468.393 1
-3 4 0 916.171 146.698 1
-3 4 -1 50958.1 1046.09 1
-3 4 -2 201900 2010.46 1
-3 4 -3 75784 1206.34 1
-3 4 -4 2524.53 280.572 2
-3 4 -4 2513.2 219.474 1
-3 4 -5 80.2875 153.339 2
-3 4 -5 -102.674 69.2008 1
-3 4 -6 2217.09 197.869 1
-3 4 -6 2177.04 297.439 2
-3 4 -7 388.372 172.592 2
-3 4 -7 260.136 71.3075 1
-3 4 -8 6282.71 494.38 2
-3 4 -9 3656.71 413.137 2
-3 4 -10 1248.99 302.929 2
-3 4 -11 502.469 190.078 2
-3 4 -12 -115.197 130.88 2
-3 4 -13 177.417 189.866 2
-3 4 -14 652.22 268.485 2
-3 4 -15 274.47 196.723 2
-3 4 -16 202.701 258.91 2
-3 4 -17 740.039 316.803 2
-3 4 -18 26.308 194.279 2
-3 4 -19 627.2 322.307 2
3 -3 -19 89.2689 305.445 2
3 -3 -18 -533.575 324.976 2
3 -3 -17 -166.079 192.512 2
3 -3 -16 -78.3428 216.087 2
3 -3 -15 61.9212 182.425 2
-3 3 14 901.061 256.794 1
3 -3 -14 639.862 272.688 2
3 -3 -13 521.146 185.945 2
-3 3 13 574.528 178.036 1
-3 3 12 72.8883 129.595 1
3 -3 -12 131.844 118.015 2
-3 3 11 3348.23 391.637 1
3 -3 -11 4361.47 507.985 2
-3 3 10 3497.37 397.275 1
3 -3 -10 3906.39 468.001 2
3 -3 -9 1288.25 257.619 2
-3 3 9 1241.45 239.252 1
3 -3 -8 510.081 199.215 2
-3 3 8 292.385 115.163 1
-3 3 7 179.5 136.557 1
-3 3 6 6875.95 474.8 1
-3 3 5 1613.51 235.364 1
-3 3 4 290.516 82.3166 1
-3 3 3 6814.02 419.577 1
-3 3 2 37.7918 95.0892 1
-3 3 1 23155.5 722.191 1
-3 3 0 30402.9 798.542 1
-3 3 -1 208.705 85.9774 1
-3 3 -2 588.305 111.466 1
-3 3 -3 34507.8 799.582 1
-3 3 -4 2913.82 232.798 1
-3 3 -4 2515.57 258.878 2
-3 3 -5 12677.2 468.217 1
-3 3 -5 12109.3 588.749 2
-3 3 -6 7633.38 360.758 1
-3 3 -6 7832.79 497.514 2
-3 3 -7 18599.8 547.323 1
-3 3 -7 19555.3 809.708 2
-3 3 -8 394.276 155.097 2
-3 3 -9 -51.7855 122.644 2
-3 3 -10 494.726 201.606 2
-3 3 -11 849.172 237.274 2
-3 3 -12 353.523 218.358 2
-3 3 -13 1075.19 265.149 2
-3 3 -14 -181.422 234.148 2
-3 3 -15 -172.476 219.644 2
-3 3 -16 64.2669 168.945 2
-3 3 -17 -412.183 298.061 2
-3 3 -18 163.065 182.941 2
-3 3 -19 252.87 265.156 2
3 -2 -19 82.9774 208.593 2
3 -2 -18 403.515 305.917 2
3 -2 -17 845.398 305.082 2
3 -2 -16 644.329 287.371 2
3 -2 -15 223.166 236.806 2
3 -2 -14 1818.72 395.694 2
-3 2 14 1066.36 239.512 1
3 -2 -13 5111.25 585.51 2
-3 2 13 6121.45 538.896 1
-3 2 12 -99.4816 146.53 1
3 -2 -12 -164.848 201.347 2
-3 2 11 3275.85 372.506 1
3 -2 -11 2888.97 412.778 2
3 -2 -10 3993.91 464.261 2
-3 2 10 4352.21 411.613 1
-3 2 9 3751.61 380.941 1
3 -2 -9 3277.42 385.368 2
-3 2 8 12034.3 641.383 1
3 -2 -8 12133.4 729.336 2
-3 2 7 6901.81 471.411 1
3 -2 -7 6917.91 536.196 2
-3 2 6 715.727 168.774 1
-3 2 5 38962.6 1031.96 1
-3 2 4 23881.5 776.053 1
-3 2 3 326.608 111.199 1
-3 2 2 5399.76 343.108 1
-3 2 1 21828.1 672.857 1
-3 2 0 1772.01 197.769 1
-3 2 -1 12566.6 497.937 1
-3 2 -2 -19.6396 71.4752 1
-3 2 -3 552.769 112.607 1
-3 2 -4 867.995 132.35 1
-3 2 -4 847.952 161.008 2
-3 2 -5 18.7631 41.1683 1
-3 2 -5 291.399 112.725 2
-3 2 -6 473.073 141.471 2
-3 2 -6 328.198 92.8376 1
-3 2 -7 156.081 71.6331 1
-3 2 -7 84.4614 109.98 2
-3 2 -8 203.369 100.229 2
-3 2 -8 245.586 71.9194 1
-3 2 -9 313.638 167.324 2
-3 2 -10 2378.77 322.259 2
-3 2 -11 -239.399 183.635 2
-3 2 -12 1552.18 311.098 2
-3 2 -13 4389.44 497.91 2
-3 2 -14 793.321 250.945 2
-3 2 -15 -99.8665 158.041 2
-3 2 -16 266.32 148.898 2
-3 2 -17 79.3169 167.06 2
-3 2 -18 464.176 306.684 2
3 -1 -20 -218.865 225.692 2
3 -1 -19 160.225 248.161 2
3 -1 -18 -229.379 298.709 2
3 -1 -17 20.3783 211.537 2
3 -1 -16 131.46 179.76 2
3 -1 -15 1315.55 357.96 2
-3 1 14 1468.22 285.024 1
3 -1 -14 1310.35 339.985 2
-3 1 13 1344.83 258.222 1
3 -1 -13 1245.64 310.074 2
-3 1 12 507.16 147.155 1
3 -1 -12 712.04 250.304 2
-3 1 11 1780.73 275.676 1
3 -1 -11 1927.92 322.698 2
3 -1 -10 9639.84 690.7 2
-3 1 10 10367.9 616.533 1
-3 1 9 13600.8 676.179 1
3 -1 -9 14140.2 788.867 2
-3 1 8 17117.7 746.352 1
3 -1 -8 17139.7 845.296 2
-3 1 7 7729.53 472.665 1
3 -1 -7 7285.1 528.984 2
3 -1 -6 178.637 159.641 2
-3 1 6 195.991 110.946 1
-3 1 5 29996.7 876.939 1
-3 1 4 186.067 120.474 1
-3 1 3 28611 824.786 1
-3 1 2 7288.59 406.845 1
-3 1 1 16715.1 603.68 1
-3 1 0 3540.19 287.991 1
-3 1 -1 3735.41 292.67 1
-3 1 -2 16743.1 613.574 1
-3 1 -3 1187.68 169.027 1
-3 1 -4 39791.9 963.323 2
-3 1 -4 39903.2 959.082 1
-3 1 -5 3885.01 305.509 1
-3 1 -5 3995.65 315.355 2
-3 1 -6 287.016 162.943 2
-3 1 -6 359.571 122.136 1
-3 1 -7 2075.57 253.721 1
-3 1 -7 2439.46 309.59 2
-3 1 -8 526.595 152.842 1
-3 1 -8 734.688 221.638 2
-3 1 -9 139.191 86.3083 1
-3 1 -9 -30.4179 116.362 2
-3 1 -10 1516.18 287.892 2
-3 1 -11 4527.13 452.157 2
-3 1 -12 3140.4 394.405 2
-3 1 -13 3538.77 449.647 2
-3 1 -14 235.402 182.436 2
-3 1 -15 989.236 308.086 2
-3 1 -16 259.867 178.48 2
-3 1 -17 274.339 292.501 2
-3 1 -18 -260.245 271.237 2
3 0 -20 502.583 342.605 2
3 0 -19 -108.872 182.664 2
3 0 -18 238.218 244.023 2
3 0 -17 -385.438 299.331 2
3 0 -16 648.975 259.427 2
3 0 -15 -208.618 220.704 2
3 0 -14 145.748 140.496 2
3 0 -13 1345.43 300.753 2
-3 0 13 1017.82 211.284 1
-3 0 12 -7.01164 101.892 1
3 0 -12 217.448 141.096 2
-3 0 11 10438.9 632.915 1
3 0 -11 10696.6 745.724 2
-3 0 10 8262.54 554.652 1
3 0 -10 7942.14 611.404 2
-3 0 9 201.034 127.999 1
3 0 -9 -117.829 102.929 2
-3 0 8 189.163 93.4943 1
3 0 -8 142.985 124.155 2
3 0 -7 14933.3 733.414 2
-3 0 7 15934.3 684.231 1
3 0 -6 1466.4 234.973 2
-3 0 6 1083.29 180.937 1
-3 0 5 9041.49 489.806 1
3 0 -5 9026.06 537.986 2
-3 0 4 48575.3 1123.03 1
-3 0 3 27497.2 830.3 1
-3 0 2 2949.57 273.202 1
-3 0 1 2422.13 243.68 1
-3 0 0 4326.75 323.215 1
-3 0 -1 131.29 78.2159 1
-3 0 -2 31195.5 889.584 1
-3 0 -3 13743.4 519.567 2
-3 0 -3 14485.9 620.389 1
-3 0 -4 14088.3 546.58 2
-3 0 -4 12991.7 600.93 1
-3 0 -5 59086.6 1296.3 1
-3 0 -5 59518.1 1171.7 2
-3 0 -6 6563.29 441.729 1
-3 0 -6 6270.92 395.608 2
-3 0 -7 169.632 104.998 2
-3 0 -7 80.0465 70.9498 1
-3 0 -8 916.764 181.772 1
-3 0 -8 956.545 188.706 2
-3 0 -9 1803.09 247.808 1
-3 0 -9 2442.28 308.948 2
-3 0 -10 1025.92 185.091 1
-3 0 -10 1250.06 220.153 2
-3 0 -11 653.174 230.475 2
-3 0 -12 1117.2 249.566 2
-3 0 -13 599.249 212.899 2
-3 0 -14 -262.761 226.497 2
-3 0 -15 208.868 207.119 2
-3 0 -16 763.704 315.064 2
-3 0 -17 588.896 278.622 2
3 1 -20 23.3049 240.897 2
3 1 -19 178.466 271.814 2
3 1 -18 -109.687 197.97 2
3 1 -17 980.113 318.552 2
3 1 -16 1339.76 369.879 2
3 1 -15 459.22 225.706 2
3 1 -14 -127.871 178.451 2
3 1 -13 139.758 152.722 2
-3 -1 13 42.7509 115.462 1
3 1 -12 306.239 203.218 2
-3 -1 12 267.937 103.16 1
-3 -1 11 10140.4 611.993 1
3 1 -11 10690.7 743.141 2
-3 -1 10 156.276 116.161 1
3 1 -10 494.422 184.764 2
3 1 -9 2675.19 332.929 2
-3 -1 9 2442.09 299.271 1
-3 -1 8 3301.93 349.949 1
3 1 -8 4053.58 415.66 2
-3 -1 7 1476.14 232.341 1
3 1 -7 2226.21 310.749 2
-3 -1 6 2544.28 315.191 1
3 1 -6 3950.71 408.429 2
-3 -1 5 22523.7 806.484 1
3 1 -5 22622 823.812 2
-3 -1 4 250.917 103.708 1
-3 -1 3 5271.3 384.338 1
-3 -1 2 10830.7 544.544 1
-3 -1 1 262.622 109.704 1
-3 -1 0 4439.2 368.007 1
-3 -1 -1 5846.02 412.999 1
-3 -1 -2 862.578 165.658 1
-3 -1 -3 4251.34 289.478 2
-3 -1 -3 4645.81 415.355 1
-3 -1 -4 26036 931.442 1
-3 -1 -4 25739.6 711.342 2
-3 -1 -5 8728.08 544.829 1
-3 -1 -5 8907.39 440.17 2
-3 -1 -6 7583.93 531.801 1
-3 -1 -6 7758.19 431.398 2
-3 -1 -7 1207.81 200.74 2
-3 -1 -7 1159.54 214.27 1
-3 -1 -8 1957.82 266.379 2
-3 -1 -8 2361.95 304.582 1
-3 -1 -9 1751.42 296.781 1
-3 -1 -9 1640.6 260.948 2
-3 -1 -10 4085.64 414.274 1
-3 -1 -10 4081.22 408.758 2
-3 -1 -11 5131.13 475.197 2
-3 -1 -12 -118.938 119.8 2
-3 -1 -13 548.512 221.759 2
-3 -1 -14 114.542 141.253 2
-3 -1 -15 206.972 170.918 2
-3 -1 -16 228.057 172.556 2
3 2 -20 -58.2115 271.331 2
3 2 -19 775.159 330.344 2
3 2 -18 278.04 223.303 2
3 2 -17 102.484 183.123 2
3 2 -16 -387.137 303.427 2
3 2 -15 367.74 203.678 2
3 2 -14 -199.457 195.329 2
3 2 -13 134.642 136.9 2
-3 -2 13 10.8095 111.256 1
-3 -2 12 4018.84 402.243 1
3 2 -12 3848.93 467.87 2
-3 -2 11 940.853 230.792 1
3 2 -11 670.753 200.849 2
3 2 -10 439.456 271.64 2
-3 -2 10 227.523 157.554 1
3 2 -9 1141.6 234.706 2
-3 -2 9 1222.21 219.445 1
-3 -2 8 362.844 154.608 1
3 2 -8 235.667 165.265 2
-3 -2 7 301.007 192.597 1
3 2 -7 175.763 130.406 2
-3 -2 6 34713.2 1071.45 1
3 2 -6 36876.4 1067.71 2
-3 -2 5 1537.21 224.411 1
3 2 -5 1402.25 220.652 2
3 2 -4 23668.4 795.758 2
-3 -2 4 27202.4 998.653 1
-3 -2 3 94360.4 1729.83 1
-3 -2 2 19696.2 800.349 1
-3 -2 1 11197.3 625.639 1
-3 -2 0 1025.03 309.003 1
-3 -2 -1 4492.28 469.462 1
-3 -2 -2 107614 1976.01 1
-3 -2 -3 4156.2 393.29 1
-3 -2 -3 4021.02 259.531 2
-3 -2 -4 5930.14 514.018 1
-3 -2 -4 5282.13 314.301 2
-3 -2 -5 13755.8 519.994 2
-3 -2 -5 13889.5 751.37 1
-3 -2 -6 6312.15 523.612 1
-3 -2 -6 5711.85 367.283 2
-3 -2 -7 1843.85 239.431 2
-3 -2 -7 1870.1 286.629 1
-3 -2 -8 25021.3 1068.43 1
-3 -2 -8 25727 871.858 2
-3 -2 -9 2910.28 370.693 1
-3 -2 -9 3412.96 334.853 2
-3 -2 -10 182.68 115.291 1
-3 -2 -10 421.635 163.988 2
-3 -2 -11 325.181 148.145 2
-3 -2 -11 -69.5827 124.611 1
-3 -2 -12 300.539 136.707 2
-3 -2 -13 2397.6 384.905 2
-3 -2 -14 2668.72 414.017 2
-3 -2 -15 530.542 262.951 2
3 3 -20 277.27 281.517 2
3 3 -19 269.176 290.108 2
3 3 -18 284.415 235.583 2
3 3 -17 497.147 236.878 2
3 3 -16 369.265 225.983 2
3 3 -15 521.272 263.033 2
3 3 -14 20.0986 159.143 2
3 3 -13 -87.3393 141.649 2
-3 -3 12 -35.2496 104.362 1
3 3 -12 -315.217 204.177 2
-3 -3 11 512.328 173.204 1
3 3 -11 808.301 209.385 2
3 3 -10 2653.89 351.544 2
-3 -3 10 2185.66 309.585 1
3 3 -9 16529.1 838.395 2
-3 -3 9 16526.7 807.736 1
3 3 -8 745.032 169.819 2
-3 -3 8 601.111 163.561 1
3 3 -7 3859.53 362.742 2
-3 -3 7 3777.22 387.562 1
3 3 -6 15691.6 688.653 2
-3 -3 6 15473.5 764.176 1
3 3 -5 22056.7 784.703 2
-3 -3 5 21263.2 888.721 1
-3 -3 4 13745.8 720.899 1
3 3 -4 15455.3 629.501 2
-3 -3 3 34952.9 1159.94 1
-3 -3 2 41017.4 1261.21 1
-3 -3 1 7849.35 553.502 1
-3 -3 0 48266.3 1376.66 1
-3 -3 -1 21096.2 936.569 1
-3 -3 -2 457.476 78.5387 2
-3 -3 -2 528.061 158.466 1
-3 -3 -3 33279 675.588 2
-3 -3 -3 33281.9 1222.6 1
-3 -3 -4 1325.7 149.245 2
-3 -3 -4 1874.27 293.483 1
-3 -3 -5 11073.1 732.081 1
-3 -3 -5 11680.9 458.291 2
-3 -3 -6 -61.4557 79.2328 2
-3 -3 -6 50.9452 87.1145 1
-3 -3 -7 3954.57 453.996 1
-3 -3 -7 4223.21 337.54 2
-3 -3 -8 109.083 108.2 1
-3 -3 -8 310.917 132.06 2
-3 -3 -9 662.803 248.523 1
-3 -3 -9 403.537 113.399 2
-3 -3 -10 7373.44 673.627 1
-3 -3 -10 7026.17 506.823 2
-3 -3 -11 631.001 180.682 2
-3 -3 -11 402.077 180.453 1
-3 -3 -12 370.478 171.188 2
-3 -3 -13 531.443 224.24 2
-3 -3 -14 147.07 178.769 2
3 4 -20 447.498 286.677 2
3 4 -19 244.376 233.495 2
3 4 -18 169.204 246.021 2
3 4 -17 -75.6055 184.933 2
3 4 -16 319.353 197.851 2
3 4 -15 348.63 216.121 2
3 4 -14 205.624 211.116 2
3 4 -13 1459.44 299.463 2
3 4 -12 753.82 220.42 2
-3 -4 12 322.544 185.153 1
3 4 -11 985.288 252.427 2
-3 -4 11 430.211 189.14 1
3 4 -10 2733.9 383.045 2
-3 -4 10 2696.6 379.577 1
-3 -4 9 3325.45 443.448 1
3 4 -9 3403.35 441.927 2
-3 -4 8 3915.98 420.599 1
3 4 -8 4101.7 401.774 2
3 4 -7 4624.09 398.601 2
-3 -4 7 4575.92 473.922 1
-3 -4 6 283.938 125.935 1
3 4 -6 431.377 139.785 2
-3 -4 5 8451.82 616.799 1
3 4 -5 8076.17 473.408 2
-3 -4 4 833.444 206.566 1
3 4 -4 979.821 178.264 2
-3 -4 3 6013.83 530.337 1
-3 -4 2 5556 533.967 1
-3 -4 1 38344.1 1331.9 1
-3 -4 0 27105.5 1130.88 1
-3 -4 -1 765.762 215.043 1
-3 -4 -2 605.891 90.8921 2
-3 -4 -2 1280.7 286.851 1
-3 -4 -3 355.115 75.1395 2
-3 -4 -3 259.752 142.696 1
-3 -4 -4 3109.7 420.299 1
-3 -4 -4 3265.82 221.968 2
-3 -4 -5 3209.72 441.184 1
-3 -4 -5 2853.65 226.587 2
-3 -4 -6 22597.3 1146.79 1
-3 -4 -6 21510.2 649.447 2
-3 -4 -7 9338.56 765.341 1
-3 -4 -7 8946.6 456.268 2
-3 -4 -8 -47.7325 91.3933 2
-3 -4 -8 36.9125 121.558 1
-3 -4 -9 518.46 206.605 1
-3 -4 -9 794.382 169.375 2
-3 -4 -10 329.863 170.383 1
-3 -4 -10 442.13 164.892 2
-3 -4 -11 1018.94 211.484 2
-3 -4 -11 767.771 279.368 1
-3 -4 -12 276.643 157.927 2
-3 -4 -12 163.184 138.42 1
3 5 -20 566.737 367.424 2
3 5 -19 -51.2067 206.761 2
3 5 -18 395.535 254.541 2
3 5 -17 1777.93 445.007 2
3 5 -16 27.211 167.34 2
3 5 -15 497.436 270.387 2
3 5 -14 524.222 257.988 2
3 5 -13 1621.76 344.176 2
3 5 -12 1494.98 295.294 2
-3 -5 12 1460.41 263.632 1
3 5 -11 1768.9 297.095 2
-3 -5 11 1633.04 307.552 1
3 5 -10 2298.46 326.531 2
-3 -5 10 1919.3 320.32 1
3 5 -9 4601.74 445.08 2
-3 -5 9 4083.55 449.496 1
-3 -5 8 18431.4 967.414 1
3 5 -8 19179.9 846.516 2
-3 -5 7 20606.5 1013.41 1
3 5 -7 19577.3 808.446 2
3 5 -6 1818.86 235.428 2
-3 -5 6 1692.42 305.801 1
-3 -5 5 25087.5 1138.9 1
3 5 -5 25495 825.717 2
-3 -5 4 3551.67 461.652 1
3 5 -4 3957.92 316.797 2
-3 -5 3 3610.66 449.653 1
-3 -5 2 80.3921 133.648 1
-3 -5 1 9244.26 701.43 1
-3 -5 0 10819.8 770.398 1
-3 -5 -1 10129.5 767.345 1
-3 -5 -2 3267.08 472.683 1
-3 -5 -3 4997.6 545.494 1
-3 -5 -4 3661.07 504.829 1
-3 -5 -5 2122.88 361.178 1
-3 -5 -6 237.909 197.032 1
-3 -5 -7 299.057 79.8728 2
-3 -5 -7 411.404 185.798 1
-3 -5 -8 504.663 209.934 1
-3 -5 -9 87.4098 151.38 1
-3 -5 -10 1789.58 405.799 1
-3 -5 -11 468.684 206.078 1
-3 -5 -12 177.513 211.123 1
3 6 -19 35.1287 241.473 2
3 6 -18 360.753 240.6 2
3 6 -17 -197.257 222.239 2
3 6 -16 -240.768 178.72 2
3 6 -15 911.272 324.412 2
3 6 -14 357.311 216.85 2
3 6 -13 -38.6197 136.485 2
3 6 -12 1533.85 291.939 2
-3 -6 11 528.607 192.081 1
3 6 -11 653.971 219.154 2
3 6 -10 2356.38 342.099 2
-3 -6 10 2401.78 388.895 1
-3 -6 9 5307.59 547.359 1
3 6 -9 6188.92 524.625 2
-3 -6 8 20014.8 1072.16 1
3 6 -8 20881.5 889.684 2
-3 -6 7 1309.95 288.558 1
3 6 -7 1262.6 220.121 2
-3 -6 6 667.621 213.005 1
3 6 -6 549.26 147.948 2
-3 -6 5 3232.17 430.138 1
3 6 -5 3234.02 300.316 2
-3 -6 4 7709.64 670.655 1
3 6 -4 8001.1 438.41 2
-3 -6 3 1354.86 308.576 1
-3 -6 2 12904 880.981 1
-3 -6 1 4028.26 483.591 1
-3 -6 0 4892.41 561.453 1
-3 -6 -1 159.134 109.65 1
-3 -6 -2 81.8208 139.153 1
-3 -6 -3 701.276 254.696 1
-3 -6 -4 5532.59 620.533 1
-3 -6 -5 -44.7724 137.437 1
-3 -6 -6 741.142 270.434 1
-3 -6 -7 1228.85 354.736 1
-3 -6 -8 1832.72 403.431 1
-3 -6 -9 114.97 151.039 1
-3 -6 -10 601.275 231.28 1
-3 -6 -11 233.348 199.569 1
-3 -6 -12 406.057 298.738 1
3 7 -19 -299.521 327.28 2
3 7 -18 268.515 303.215 2
3 7 -17 334.352 224.535 2
3 7 -16 667.768 309.303 2
3 7 -15 688.47 235.257 2
3 7 -14 132.667 147.208 2
3 7 -13 57.0576 146.171 2
3 7 -12 340.348 189.377 2
3 7 -11 531.616 205.282 2
-3 -7 11 955.399 283.583 1
3 7 -10 1423.2 275.226 2
-3 -7 10 1152.77 283.522 1
3 7 -9 2965.96 354.271 2
-3 -7 9 3138.19 463.874 1
3 7 -8 926.615 212.803 2
-3 -7 8 330.299 167.331 1
-3 -7 7 550.865 240.117 1
3 7 -7 622.853 171.893 2
-3 -7 6 4728.09 572.081 1
3 7 -6 2302.44 314.336 2
-3 -7 5 20802.3 1160.94 1
3 7 -5 20180.7 735.762 2
-3 -7 4 14269.3 974.46 1
-3 -7 3 564.895 209.807 1
-3 -7 2 3835.09 634.218 1
-3 -7 1 2434.78 421.663 1
-3 -7 0 11975.9 943.805 1
-3 -7 -1 13500.9 1026.71 1
-3 -7 -2 20979 1273.62 1
-3 -7 -3 3537.61 512.369 1
-3 -7 -4 273.216 214.886 1
-3 -7 -5 556.922 242.492 1
-3 -7 -6 1321.82 361.987 1
-3 -7 -7 1737.06 424.183 1
-3 -7 -8 -115.191 148.777 1
-3 -7 -9 679.95 317.176 1
-3 -7 -10 2278.96 512.9 1
-3 -7 -11 100.944 176.26 1
-3 -7 -12 462.452 285.834 1
3 8 -18 -19.3195 261.208 2
3 8 -17 339.196 249.79 2
3 8 -16 1187.43 351.621 2
3 8 -15 -143.598 169.58 2
3 8 -14 512.091 270.515 2
3 8 -13 14.7569 162.488 2
3 8 -12 -289.987 193.346 2
3 8 -11 158.662 118.204 2
-3 -8 11 215.164 149.913 1
3 8 -10 560.437 188.936 2
-3 -8 10 355.189 207.9 1
3 8 -9 3120.33 359.18 2
-3 -8 9 3391.27 505.057 1
-3 -8 8 181.794 139.349 1
3 8 -8 433.333 144.885 2
-3 -8 7 6943 715.696 1
3 8 -7 7241.93 493.816 2
-3 -8 6 4845.76 595.267 1
3 8 -6 4966.17 390.93 2
-3 -8 5 843.218 285.458 1
3 8 -5 512.868 120.604 2
-3 -8 4 7025.69 735.865 1
-3 -8 3 13382.2 1037.67 1
-3 -8 2 9544.4 865.622 1
-3 -8 1 18000 1207.42 1
-3 -8 0 23099.7 1370.63 1
-3 -8 -1 2339.13 447.19 1
-3 -8 -2 4274.53 591.285 1
-3 -8 -3 6622.52 770.607 1
-3 -8 -4 2760.17 491.561 1
-3 -8 -5 122.412 144.839 1
-3 -8 -6 80.871 207.152 1
-3 -8 -7 483.633 304.128 1
-3 -8 -8 2554.27 528.762 1
-3 -8 -9 1193.74 422.57 1
-3 -8 -10 230.085 283.454 1
-3 -8 -11 875.481 393.623 1
3 9 -16 -46.8977 198.709 2
3 9 -15 318.812 249.111 2
3 9 -14 92.459 165.715 2
3 9 -13 714.555 266.903 2
3 9 -12 520.018 219.291 2
3 9 -11 856.236 271.12 2
3 9 -10 -118.469 145.973 2
-3 -9 10 -318.376 243.19 1
3 9 -9 242.043 138.197 2
-3 -9 9 546.219 273.063 1
-3 -9 8 -72.9261 143.812 1
3 9 -8 367.431 154.295 2
-3 -9 7 138.347 241.085 1
-3 -9 6 1353.76 341.029 1
-3 -9 5 459.044 203.337 1
-3 -9 4 2459.45 490.159 1
-3 -9 3 74.0134 244.547 1
-3 -9 2 3423.66 547.749 1
-3 -9 1 116.513 246.978 1
-3 -9 0 -137.932 179.591 1
-3 -9 -1 17.9916 206.021 1
-3 -9 -2 2406.36 469.363 1
-3 -9 -3 3698.68 594.948 1
-3 -9 -4 379.706 237.259 1
-3 -9 -5 405.794 255.515 1
-3 -9 -6 204.508 280.027 1
-3 -9 -7 482.962 244.594 1
-3 -9 -8 1897.15 497.125 1
-3 -9 -9 627.326 292.796 1
-3 -9 -10 1017.11 399.696 1
-3 -9 -11 -163.163 240.706 1
-3 -10 10 317.389 230.254 1
-3 -10 9 168.978 259.84 1
-3 -10 8 722.592 314.591 1
-3 -10 7 581 309.579 1
-3 -10 6 1792.23 463.002 1
-3 -10 5 2258.5 482.314 1
-3 -10 4 1286.33 398.295 1
-3 -10 3 -98.3086 217.976 1
-3 -10 2 -49.8788 159.997 1
-3 -10 1 174.451 187.796 1
-3 -10 0 2831.5 580.185 1
-3 -10 -1 4816.22 730.504 1
-3 -10 -2 3566.03 635.849 1
-3 -10 -3 419.742 299.826 1
-3 -10 -4 1682.15 461.488 1
-3 -10 -5 536.365 282.299 1
-3 -10 -6 189.226 281.966 1
-3 -10 -7 19.5807 238.044 1
-3 -10 -8 675.886 378.917 1
-3 -10 -9 580.672 347.322 1
-3 -10 -10 67.4861 279.858 1
-3 -11 9 -31.9018 176.195 1
-3 -11 8 342.385 246.96 1
-3 -11 7 643.497 313.798 1
-3 -11 6 417.898 254.016 1
-3 -11 5 1579.33 438.417 1
-3 -11 4 172.286 252.214 1
-3 -11 3 2435.26 522.197 1
-3 -11 2 1223.56 406.323 1
-3 -11 1 1434.88 414.918 1
-3 -11 0 2669.77 609.531 1
-3 -11 -1 573.066 283.991 1
-3 -11 -2 180.31 240.515 1
-3 -11 -3 1197.42 449.438 1
-3 -11 -4 587.841 299.444 1
-3 -11 -5 6.88443 196.967 1
-3 -11 -6 547.913 397.378 1
-3 -11 -7 -88.3013 267.547 1
-3 -11 -8 -397.52 328.187 1
-3 -11 -9 -434.287 455.268 1
-3 -11 -10 -553.184 418.033 1
-3 -12 8 479.644 281.644 1
-3 -12 7 102.497 199.023 1
-3 -12 6 477.091 337.532 1
-3 -12 5 -102.673 307.858 1
-3 -12 4 201.124 315.637 1
-3 -12 3 96.1153 196.664 1
-3 -12 2 1184.46 370.797 1
-3 -12 1 633.996 304.159 1
-3 -12 0 205.7 218.554 1
-3 -12 -1 442.138 317.858 1
-3 -12 -2 259.423 214.725 1
-3 -12 -3 427.263 406.569 1
-3 -12 -4 1238.43 487.711 1
-3 -12 -5 913.387 451.76 1
-3 -12 -6 308.9 281.354 1
-3 -12 -7 -190.67 316.236 1
-3 -12 -8 472.042 344.8 1
-3 -13 7 -59.5161 263.409 1
-3 -13 6 -263.683 259.142 1
-3 -13 5 480.886 361.348 1
-3 -13 4 1053.86 397.175 1
-3 -13 3 390.497 365.403 1
-3 -13 2 78.1833 235.65 1
-3 -13 1 1257.34 461.519 1
-3 -13 0 78.3916 263.887 1
-3 -13 -1 1100.4 520.41 1
-3 -13 -2 880.062 436.216 1
-3 -13 -3 411.052 317.626 1
-3 -13 -4 609.789 500.475 1
-3 -13 -5 899.29 540.402 1
-3 -13 -6 -103.501 282.998 1
-3 -13 -7 675.128 458.598 1
-3 -14 6 126.514 363.444 1
-3 -14 5 676.797 437.045 1
-3 -14 4 383.637 338.815 1
-3 -14 3 2.62622 259.255 1
-3 -14 2 503.631 448.614 1
-3 -14 1 154.894 364.455 1
-3 -14 0 -306.282 344.172 1
-3 -14 -1 70.0673 345.38 1
-3 -14 -2 294.378 411.572 1
-3 -14 -3 -351.382 459.301 1
-3 -14 -4 428.825 409.874 1
-3 -14 -5 50.7553 265.49 1
-3 -15 3 539.335 455.699 1
-3 -15 2 127.401 244.483 1
-3 -15 1 137.872 389.155 1
-3 -15 0 278.034 432.836 1
-3 -15 -1 -239.788 361.28 1
-3 -15 -2 605.185 441.871 1
4 -16 -5 410.934 391.374 1
-4 16 5 37.9944 196.948 1
4 -16 -4 695.638 464.014 1
-4 16 4 854.918 360.526 1
-4 16 3 84.5145 270.892 1
4 -16 -3 870.545 474.657 1
-4 16 2 411.348 331.739 1
4 -16 -2 104.237 279.132 1
-4 16 1 211.29 190.777 1
4 -16 -1 -22.1158 250.311 1
-4 16 0 -120.099 185.146 1
4 -16 0 -104.497 326.194 1
-4 16 -1 -160.796 204.603 1
4 -15 -8 5.5269 320.152 1
-4 15 8 139.892 250.661 1
4 -15 -7 -29.723 270.78 1
-4 15 7 -176.494 182.502 1
4 -15 -6 -47.7443 284.432 1
-4 15 6 398.79 264.626 1
-4 15 5 -300.015 204.991 1
4 -15 -5 347.436 421.915 1
-4 15 4 440.406 277.695 1
4 -15 -4 112.575 236.331 1
-4 15 3 -177.968 243.794 1
4 -15 -3 410.272 379.989 1
-4 15 2 -117.416 189.928 1
4 -15 -2 351.567 348.218 1
-4 15 1 140.348 245.693 1
4 -15 -1 422.337 310.933 1
-4 15 0 349.487 279.807 1
4 -15 0 6.50392 297.025 1
-4 15 -1 106.814 229.808 1
4 -15 1 83.7013 237.683 1
4 -15 2 488.61 307.297 1
-4 15 -2 758.129 317.822 1
4 -15 3 83.313 189.587 1
-4 15 -3 48.8691 142.659 1
4 -14 -9 667.277 434.372 1
-4 14 9 220.401 207.405 1
4 -14 -8 -455.7 370.804 1
-4 14 8 -217.562 294.302 1
4 -14 -7 68.4773 262.152 1
-4 14 7 206.169 259.27 1
-4 14 6 326.099 243.833 1
4 -14 -6 -68.3898 232.624 1
-4 14 5 549.866 304.624 1
4 -14 -5 259.547 297.807 1
-4 14 4 123.443 172.449 1
4 -14 -4 -540.876 389.417 1
-4 14 3 253.3 161.557 1
4 -14 -3 -127.033 248.893 1
-4 14 2 440.904 237.22 1
4 -14 -2 -77.2461 247.549 1
-4 14 1 86.7899 197.394 1
4 -14 -1 -80.5977 192.75 1
-4 14 0 -86.4465 199.715 1
4 -14 0 284.738 249.394 1
-4 14 -1 543.124 242.674 1
4 -14 1 573.704 308.423 1
4 -14 2 3900.45 649.301 1
-4 14 -2 -395.932 243.732 1
4 -14 3 356.715 238.925 1
-4 14 -3 357.623 140.263 1
4 -14 4 604.381 340.388 1
-4 14 -4 666.377 241.151 1
-4 13 11 -410.683 342.921 1
-4 13 10 211.753 244.601 1
4 -13 -9 81.0883 309.004 1
-4 13 9 307.012 314.88 1
4 -13 -8 -129.078 326.368 1
-4 13 8 524.944 322.332 1
4 -13 -7 350.181 310.048 1
-4 13 7 588.114 280.358 1
4 -13 -6 327.35 259.502 1
-4 13 6 783.323 343.738 1
-4 13 5 -133.383 165.217 1
4 -13 -5 -21.8023 214.699 1
-4 13 4 232.931 238.275 1
4 -13 -4 524.488 335.41 1
4 -13 -3 -172.646 277.977 1
-4 13 3 160.128 202.168 1
-4 13 2 265.669 176.036 1
4 -13 -2 312.233 251.971 1
-4 13 1 328.138 215.651 1
4 -13 -1 363.911 260.519 1
-4 13 0 180.031 189.025 1
4 -13 0 339.167 215.166 1
-4 13 -1 63.8058 181.681 1
4 -13 1 -130.588 247.471 1
-4 13 -2 -34.1051 159.316 2
4 -13 2 60.4204 210.897 1
-4 13 -2 14.3968 154.89 1
-4 13 -3 387.04 195.558 2
4 -13 3 32.4738 162.226 1
-4 13 -3 134.1 137.191 1
-4 13 -4 804.223 231.659 2
4 -13 4 798.937 291.575 1
-4 13 -4 348.197 165.821 1
-4 13 -5 174.317 144.538 2
-4 13 -5 96.5886 126.718 1
-4 13 -6 202.189 135.723 2
-4 13 -7 313.324 169.384 2
-4 13 -8 -138.414 143.537 2
-4 13 -9 318.477 228.307 2
-4 13 -10 -119.108 183.109 2
-4 13 -11 -213.48 222.935 2
-4 13 -12 -460.52 307.892 2
-4 12 12 -175.306 223.69 1
-4 12 11 -14.9493 194.028 1
-4 12 10 165.155 240.608 1
4 -12 -9 72.6063 261.4 1
-4 12 9 278.977 224.804 1
4 -12 -8 4.40161 261.904 1
-4 12 8 -162.047 230.479 1
4 -12 -7 165.051 280.712 1
-4 12 7 -217.565 227.315 1
4 -12 -6 -75.9703 187.765 1
-4 12 6 343.072 241.069 1
-4 12 5 -242.572 236.847 1
4 -12 -5 316.654 330.066 1
-4 12 4 996.734 296.686 1
4 -12 -4 734.431 297.35 1
-4 12 3 -38.4267 139.808 1
4 -12 -3 406.243 243.793 1
-4 12 2 692.969 239.284 1
4 -12 -2 750.553 344.018 1
-4 12 1 677.909 199.709 1
4 -12 -1 327.699 243.364 1
-4 12 0 126.689 137.798 1
4 -12 0 206.471 187.988 1
-4 12 -1 16.5424 142.446 1
-4 12 -1 594.383 200.762 2
4 -12 1 415.115 261.13 1
-4 12 -2 553.146 209.989 2
4 -12 2 320.268 214.649 1
-4 12 -3 -0.84533 111.251 2
4 -12 3 107.086 129.488 1
-4 12 -3 -308.248 178.22 1
-4 12 -4 457.259 154.779 2
-4 12 -4 789.801 241.104 1
-4 12 -5 1112.68 252.755 1
-4 12 -5 1378.22 302.814 2
-4 12 -6 121.079 141.373 1
-4 12 -6 -108.975 129.095 2
-4 12 -7 141.025 127.305 2
-4 12 -8 207.941 168.89 2
-4 12 -9 236.118 207.58 2
-4 12 -10 299.326 156.331 2
-4 12 -11 153.599 160.249 2
-4 12 -12 428.232 231.318 2
-4 12 -13 -1.41961 203.453 2
-4 12 -14 -326.951 288.736 2
-4 11 13 -26.684 207.401 1
-4 11 12 -43.3591 190.312 1
-4 11 11 -192.108 207.783 1
-4 11 10 89.3801 164.152 1
-4 11 9 393.15 245.145 1
4 -11 -8 409.874 273.905 1
-4 11 8 763.426 247.023 1
4 -11 -7 429.033 285.139 1
-4 11 7 242.884 176.75 1
4 -11 -6 -61.9256 229.927 1
-4 11 6 -85.4629 194.026 1
-4 11 5 -76.5607 149.244 1
4 -11 -5 94.4066 210.242 1
-4 11 4 99.7913 193.777 1
4 -11 -4 265.404 198.036 1
-4 11 3 -89.1125 146.3 1
4 -11 -3 46.425 199.774 1
-4 11 2 353.641 141.831 1
4 -11 -2 336.149 210.023 1
-4 11 1 1023.56 274.008 1
4 -11 -1 635.729 272.15 1
4 -11 0 685.685 247.365 1
-4 11 0 651.159 213.932 1
4 -11 1 130.543 123.483 1
-4 11 -1 373.935 188.956 1
-4 11 -2 149.496 137.636 2
4 -11 2 156.763 126.408 1
-4 11 -2 -99.1697 157.103 1
-4 11 -3 117.195 124.831 2
-4 11 -3 488.688 201.714 1
-4 11 -4 22.528 118.583 2
-4 11 -4 -173.461 148.275 1
-4 11 -5 654.689 229.509 1
-4 11 -5 1000.68 260.584 2
-4 11 -6 2180.78 336.941 2
-4 11 -6 2284.48 342.157 1
-4 11 -7 219.231 128.613 2
-4 11 -8 -6.9496 163.016 2
-4 11 -9 76.6815 165.143 2
-4 11 -10 337.987 232.188 2
-4 11 -11 615.683 227.249 2
-4 11 -12 114.44 180.523 2
-4 11 -13 373.868 279.123 2
-4 11 -14 -625.699 340.809 2
-4 11 -15 390.972 221.773 2
-4 11 -16 644.561 331.97 2
-4 10 13 -26.5755 265.464 1
-4 10 12 346.461 249.972 1
-4 10 11 220.323 188.288 1
-4 10 10 494.35 283.019 1
-4 10 9 922.716 339.642 1
4 -10 -8 -16.2098 195.766 1
-4 10 8 508.313 242.167 1
4 -10 -7 503.369 317.772 1
-4 10 7 659.391 252.656 1
4 -10 -6 -171.802 256.621 1
-4 10 6 16.0897 138.201 1
4 -10 -5 208.776 235.429 1
-4 10 5 197.481 134.909 1
4 -10 -4 590.658 284.396 1
-4 10 4 829.369 260.484 1
4 -10 -3 1043.18 358.837 1
-4 10 3 1457.71 330.321 1
-4 10 2 77.2939 131.767 1
4 -10 -2 262.877 199.586 1
4 -10 -1 -121.389 199.723 1
-4 10 1 82.3363 168.959 1
4 -10 0 598.128 258.252 1
-4 10 0 233.065 139.16 1
4 -10 1 144.84 129.132 1
-4 10 -1 206.39 146.951 1
-4 10 -2 704.074 198.79 2
-4 10 -2 56.1583 110.262 1
-4 10 -3 -65.4949 98.8046 2
-4 10 -3 -23.4924 102.162 1
-4 10 -4 3223.21 381.324 2
-4 10 -4 2925.13 379.619 1
-4 10 -5 2013.26 310.396 2
-4 10 -5 1367.79 247.824 1
-4 10 -6 417.12 179.023 2
-4 10 -6 653.783 189.203 1
-4 10 -7 442.107 190.109 2
-4 10 -8 197.545 132.34 2
-4 10 -9 -33.1508 139.414 2
-4 10 -10 342.362 199.602 2
-4 10 -11 869.531 292.001 2
-4 10 -12 -119.231 231.829 2
-4 10 -13 63.4527 159.192 2
-4 10 -14 582.313 273.717 2
-4 10 -15 326.064 282.778 2
-4 10 -16 401.623 297.149 2
-4 10 -17 146.868 206.858 2
-4 9 14 115.876 188.628 1
-4 9 13 369.473 307.105 1
-4 9 12 -226.418 231.884 1
-4 9 11 88.1393 183.564 1
-4 9 10 363.323 213.677 1
-4 9 9 822.355 265.423 1
-4 9 8 289.496 167.797 1
-4 9 7 264.965 158.839 1
4 -9 -6 210.773 139.977 1
-4 9 6 -45.3441 165.364 1
4 -9 -5 196.719 253.666 1
-4 9 5 198.882 158.84 1
4 -9 -4 3154.61 523.914 1
-4 9 4 3945.58 481.946 1
4 -9 -3 2628.92 471.416 1
-4 9 3 2459.05 354.758 1
4 -9 -2 385.606 256.99 1
-4 9 2 482.474 168.641 1
4 -9 -1 4344.29 557.42 1
-4 9 1 3825.34 446.904 1
4 -9 0 -93.0714 137.012 1
-4 9 0 -75.6807 129.748 1
-4 9 -1 135.081 156.577 1
-4 9 -2 5851.29 499.724 1
-4 9 -3 4329.62 427.551 1
-4 9 -3 4183.82 426.5 2
-4 9 -4 984.735 191.294 2
-4 9 -4 1256.43 230.959 1
-4 9 -5 217.127 164.61 2
-4 9 -5 -90.0048 107.692 1
-4 9 -6 179.543 104.706 2
-4 9 -6 676.259 171.061 1
-4 9 -7 -313.366 192.077 2
-4 9 -7 252.731 132.122 1
-4 9 -8 298.99 159.545 2
-4 9 -9 126.808 130.51 2
-4 9 -10 564.391 222.629 2
-4 9 -11 559.806 202.594 2
-4 9 -12 -42.24 161.76 2
-4 9 -13 303.224 220.794 2
-4 9 -14 -56.522 212.966 2
-4 9 -15 464.795 297.192 2
-4 9 -16 328.367 245.515 2
-4 9 -17 -385.497 264.566 2
-4 8 14 328.858 284.917 1
-4 8 13 333.864 241.996 1
-4 8 12 122.56 178.124 1
-4 8 11 411.035 248.431 1
-4 8 10 808.669 256.121 1
-4 8 9 284.089 152.172 1
-4 8 8 322.954 214.71 1
-4 8 7 323.857 189.332 1
-4 8 6 2065.67 363.603 1
-4 8 5 910.015 248.402 1
-4 8 4 829.716 231.059 1
-4 8 3 174.016 211.94 1
-4 8 2 1409.42 277.448 1
-4 8 1 731.258 213.725 1
-4 8 0 13232.3 764.983 1
-4 8 -1 7572.51 549.226 1
-4 8 -2 5386.26 462.929 1
-4 8 -3 2206.73 292.815 1
-4 8 -4 2110.05 308.917 2
-4 8 -4 2600.58 311.766 1
-4 8 -5 4009.18 368.411 1
-4 8 -5 3500.44 412.434 2
-4 8 -6 1340.07 219.15 1
-4 8 -6 1144.84 216.054 2
-4 8 -7 130.176 79.3835 1
-4 8 -7 434.461 178.183 2
-4 8 -8 2416.07 370.119 2
-4 8 -9 571.17 243.693 2
-4 8 -10 319.216 209.463 2
-4 8 -11 819.103 264.337 2
-4 8 -12 1303.16 300.919 2
-4 8 -13 421.847 206.84 2
-4 8 -14 233.555 219.755 2
-4 8 -15 704.631 322.658 2
-4 8 -16 304.473 250.66 2
-4 8 -17 320.712 284.134 2
-4 8 -18 -452.605 319.67 2
-4 7 14 675.202 298.314 1
-4 7 13 150.153 220.589 1
-4 7 12 -62.0625 158.545 1
-4 7 11 3512.96 508.831 1
-4 7 10 2705.29 443.191 1
-4 7 9 561.287 198.754 1
-4 7 8 8763.08 705.599 1
-4 7 7 1408.34 303.682 1
-4 7 6 -37.3046 141.303 1
-4 7 5 8146.41 651.913 1
-4 7 4 4150.39 452.423 1
-4 7 3 3208.86 386.461 1
-4 7 2 2649.21 353.676 1
-4 7 1 327.331 150.204 1
-4 7 0 351.51 147.398 1
-4 7 -1 896.579 189.082 1
-4 7 -2 6842.17 489.143 1
-4 7 -3 10669.9 588.855 1
-4 7 -4 7871.89 505.253 1
-4 7 -4 7983.05 555.38 2
-4 7 -5 70.8886 110.503 2
-4 7 -5 142.653 106.162 1
-4 7 -6 5651.01 408.545 1
-4 7 -6 5828.61 525.911 2
-4 7 -7 688.144 195.341 2
-4 7 -7 917.638 178.918 1
-4 7 -8 272.847 164.859 2
-4 7 -9 449.207 205.262 2
-4 7 -10 558.241 181.484 2
-4 7 -11 430.712 185.809 2
-4 7 -12 -128.187 159.745 2
-4 7 -13 929.704 302.417 2
-4 7 -14 419.345 276.856 2
-4 7 -15 -367.966 272.446 2
-4 7 -16 296.195 250.526 2
-4 7 -17 -123.555 189.325 2
-4 7 -18 200.606 186.855 2
-4 6 15 11.7834 158.909 1
-4 6 14 -195.227 191.322 1
-4 6 13 788.77 282.415 1
-4 6 12 1010.91 289.63 1
-4 6 11 414.955 204.819 1
-4 6 10 537.898 228.757 1
-4 6 9 1480.8 286.362 1
-4 6 8 6061.95 572.467 1
-4 6 7 12006.5 789.181 1
-4 6 6 6400.86 562.289 1
-4 6 5 862.803 203.382 1
-4 6 4 2167.26 320.582 1
-4 6 3 -13.0684 103.096 1
-4 6 2 -57.4327 98.4784 1
-4 6 1 862.879 188.397 1
-4 6 0 12320.1 663.504 1
-4 6 -1 1417.34 227.425 1
-4 6 -2 52.3331 93.0686 1
-4 6 -3 8502.08 509.967 1
-4 6 -4 4242.5 349.806 1
-4 6 -4 4454.53 411.253 2
-4 6 -5 -322.254 165.91 2
-4 6 -5 -58.4482 80.2277 1
-4 6 -6 1532.46 267.582 2
-4 6 -6 1159.26 187.067 1
-4 6 -7 630.332 212.045 2
-4 6 -7 572.643 149.76 1
-4 6 -8 553.256 198.299 2
-4 6 -9 -13.5165 142.541 2
-4 6 -10 230.398 195.082 2
-4 6 -11 542.091 210.386 2
-4 6 -12 321.261 185.05 2
-4 6 -13 177.078 156.551 2
-4 6 -14 463.414 217.634 2
-4 6 -15 85.0945 159.544 2
-4 6 -16 196.089 221.954 2
-4 6 -17 185.103 213.804 2
-4 6 -18 321.739 275.429 2
-4 5 15 47.8259 204.895 1
-4 5 14 84.6665 188.713 1
-4 5 13 444.991 221.576 1
-4 5 12 249.37 144.369 1
-4 5 11 800.427 261.601 1
-4 5 10 2985.21 415.962 1
-4 5 9 1978.68 349.123 1
-4 5 8 898.153 244.936 1
-4 5 7 353.863 185.305 1
-4 5 6 1663.76 270.208 1
-4 5 5 1003.98 228.896 1
-4 5 4 1025.53 233.389 1
-4 5 3 157.437 177.694 1
-4 5 2 4204.72 384.402 1
-4 5 1 2005.57 255.838 1
-4 5 0 674.068 152.565 1
-4 5 -1 7947.65 501.979 1
-4 5 -2 999.556 196.341 1
-4 5 -3 6410.69 423.188 1
-4 5 -4 1323.16 250.96 2
-4 5 -4 1364.69 202.244 1
-4 5 -5 814.496 196.715 2
-4 5 -5 1132.52 192.017 1
-4 5 -6 636.865 223.951 2
-4 5 -6 722.832 153.528 1
-4 5 -7 8417.63 446.415 1
-4 5 -7 8603.65 604.464 2
-4 5 -8 3778.39 424.493 2
-4 5 -9 11.3423 117.611 2
-4 5 -10 768.141 244.653 2
-4 5 -11 -227.483 176.73 2
-4 5 -12 38.7331 217.493 2
-4 5 -13 11.1507 171.946 2
-4 5 -14 565.635 259.051 2
-4 5 -15 41.2529 172.407 2
-4 5 -16 -452.77 246.134 2
-4 5 -17 278.765 209.722 2
-4 5 -18 235.354 196.37 2
-4 4 15 857.183 259.593 1
-4 4 14 -355.977 218.904 1
-4 4 13 920.696 290.185 1
-4 4 12 1082.52 267.88 1
-4 4 11 1222.87 291.747 1
-4 4 10 1316.37 299.211 1
-4 4 9 234.735 142.299 1
-4 4 8 3753.48 422.532 1
-4 4 7 19979.1 934.315 1
-4 4 6 2280.03 307.893 1
-4 4 5 1197.75 235.556 1
-4 4 4 11926.2 650.633 1
-4 4 3 128.596 143.874 1
-4 4 2 6695.6 477.081 1
-4 4 1 18919.5 764.444 1
-4 4 0 12606.6 608.794 1
-4 4 -1 54428.8 1223.76 1
-4 4 -2 67008.7 1331.26 1
-4 4 -3 322.786 101.146 1
-4 4 -4 4805.19 360.199 1
-4 4 -4 4227.06 381.736 2
-4 4 -5 24611.8 800.242 1
-4 4 -5 25008.7 947.077 2
-4 4 -6 8941.18 578.42 2
-4 4 -6 8715.27 467.833 1
-4 4 -7 453.577 183.556 2
-4 4 -7 169.723 82.969 1
-4 4 -8 4774.6 457.752 2
-4 4 -9 588.486 216.294 2
-4 4 -10 304.29 179.673 2
-4 4 -11 1415.8 303.955 2
-4 4 -12 873.073 264.745 2
-4 4 -13 2017.08 377.261 2
-4 4 -14 1345.64 332.069 2
-4 4 -15 -116.024 200.177 2
-4 4 -16 148.304 198.583 2
-4 4 -17 -31.6443 219.338 2
-4 4 -18 -96.7605 217.918 2
4 -3 -18 342.273 290.406 2
4 -3 -17 -201.779 208.233 2
4 -3 -16 597.639 289.682 2
-4 3 15 490.718 260.445 1
4 -3 -15 96.2485 168.477 2
4 -3 -14 1788.15 390.847 2
-4 3 14 1952.12 352.726 1
-4 3 13 616.114 207.586 1
4 -3 -13 386.908 205.421 2
-4 3 12 5453.61 524.174 1
-4 3 11 1690.2 302.595 1
-4 3 10 831.865 212.288 1
-4 3 9 4590.15 458.787 1
-4 3 8 7990.96 586.27 1
-4 3 7 433.116 143.082 1
-4 3 6 775.474 228.928 1
-4 3 5 10621.5 610.09 1
-4 3 4 6169.03 476.044 1
-4 3 3 4493.97 385.225 1
-4 3 2 1687.8 228.647 1
-4 3 1 3492.79 307.611 1
-4 3 0 529.689 151.27 1
-4 3 -1 5109.41 385.359 1
-4 3 -2 31485.1 924.891 1
-4 3 -3 53709.4 1205.88 1
-4 3 -4 184.712 102.272 1
-4 3 -4 379.028 152.55 2
-4 3 -5 16039.8 752.877 2
-4 3 -5 16327.2 649.569 1
-4 3 -6 4.95821 106.743 2
-4 3 -6 117.435 71.3663 1
-4 3 -7 432.289 179.902 2
-4 3 -7 477.789 120.516 1
-4 3 -8 422.659 214.35 2
-4 3 -8 362.785 107.668 1
-4 3 -9 519.66 172.487 2
-4 3 -10 2490.55 367.793 2
-4 3 -11 1164.27 282.104 2
-4 3 -12 -42.98 130.892 2
-4 3 -13 660.874 239.593 2
-4 3 -14 2307.57 425.75 2
-4 3 -15 460.721 231.454 2
-4 3 -16 196.194 200.971 2
-4 3 -17 511.744 263.099 2
-4 3 -18 247.357 209.599 2
4 -2 -19 481.359 353.394 2
4 -2 -18 668.039 367.56 2
4 -2 -17 262.907 318.963 2
4 -2 -16 -342.723 296.777 2
4 -2 -15 350.37 182.381 2
4 -2 -14 442.112 218.758 2
-4 2 14 407.191 167.853 1
-4 2 13 2601.66 361.134 1
4 -2 -13 2405.5 451.982 2
4 -2 -12 958.226 287.295 2
-4 2 12 1456.39 298.856 1
-4 2 11 -28.526 139.946 1
4 -2 -11 129.927 168.165 2
-4 2 10 8900.03 655.474 1
4 -2 -10 9394.27 738.317 2
-4 2 9 621.498 195.629 1
-4 2 8 2412.37 322.759 1
-4 2 7 126.373 132.233 1
-4 2 6 19660.5 830.94 1
-4 2 5 2667 315.501 1
-4 2 4 15794 710.835 1
-4 2 3 28122.6 937.06 1
-4 2 2 2103.99 270.066 1
-4 2 1 1132.57 196.416 1
-4 2 0 843.896 182.15 1
-4 2 -1 2493.83 263.604 1
-4 2 -2 4008.14 372.776 1
-4 2 -3 6390.72 434.116 1
-4 2 -4 2721.8 286.342 2
-4 2 -4 2771.08 275.496 1
-4 2 -5 4380.34 410.585 2
-4 2 -5 4644.99 370.937 1
-4 2 -6 3824.05 339.389 1
-4 2 -6 4064.97 365.94 2
-4 2 -7 1180.1 229.939 2
-4 2 -7 1137.42 194.713 1
-4 2 -8 290.638 138.237 2
-4 2 -8 -63.1138 85.8501 1
-4 2 -9 267.117 219.62 2
-4 2 -10 479.796 182.218 2
-4 2 -11 240.771 156.645 2
-4 2 -12 -255.957 211.276 2
-4 2 -13 209.712 208.121 2
-4 2 -14 -253.287 176.178 2
-4 2 -15 -18.7894 146.031 2
-4 2 -16 -56.4064 188.725 2
-4 2 -17 -285.873 221.76 2
4 -1 -20 247.864 279.128 2
4 -1 -19 53.9022 214.792 2
4 -1 -18 834.006 306.386 2
4 -1 -17 257.907 251.912 2
4 -1 -16 291.018 158.966 2
4 -1 -15 105.269 210.813 2
4 -1 -14 174.138 209.216 2
-4 1 14 28.026 137.203 1
4 -1 -13 259.038 214.166 2
-4 1 13 178.442 179.277 1
-4 1 12 -269.883 130.576 1
4 -1 -12 19.6637 134.007 2
-4 1 11 2266.98 313.279 1
4 -1 -11 2399.29 388.181 2
-4 1 10 5386.94 490.087 1
4 -1 -10 5020.44 555.846 2
-4 1 9 2580.76 346.205 1
4 -1 -9 2424.92 373.417 2
-4 1 8 1865.46 286.257 1
-4 1 7 227.028 102.989 1
-4 1 6 330.059 132.045 1
-4 1 5 79586.1 1656.96 1
-4 1 4 14893.8 706.675 1
-4 1 3 3109.32 319.452 1
-4 1 2 1348.98 201.618 1
-4 1 1 6318.58 436.643 1
-4 1 0 14897 664.423 1
-4 1 -1 93.6944 91.6755 1
-4 1 -2 7174.87 475.006 1
-4 1 -3 17613 734.567 1
-4 1 -4 1383.96 202.595 2
-4 1 -4 1846.59 243.93 1
-4 1 -5 684.583 157.734 2
-4 1 -5 581.757 147.341 1
-4 1 -6 223.62 105.958 2
-4 1 -6 13.1831 70.4919 1
-4 1 -7 935.317 195.901 2
-4 1 -7 1079.67 189.383 1
-4 1 -8 869.586 201.308 2
-4 1 -8 876.256 186.413 1
-4 1 -9 1116.3 235.533 2
-4 1 -9 844.891 182.247 1
-4 1 -10 439.76 174.486 2
-4 1 -11 1319.06 276.483 2
-4 1 -12 77.4346 119.754 2
-4 1 -13 532.955 176.755 2
-4 1 -14 232.643 191.951 2
-4 1 -15 -98.4756 171.274 2
-4 1 -16 11.4343 156.463 2
-4 1 -17 35.1025 204.961 2
4 0 -20 -173.429 245.698 2
4 0 -19 699.311 366.218 2
4 0 -18 533.386 304.142 2
4 0 -17 -105.572 222.121 2
4 0 -16 503.032 303.344 2
4 0 -15 352.217 252.175 2
-4 0 14 1846.91 335.432 1
4 0 -14 1753.6 395.074 2
-4 0 13 906.96 247.47 1
4 0 -13 1224.83 317.81 2
-4 0 12 438.945 199.958 1
4 0 -12 540.83 220.495 2
-4 0 11 5070.13 492.231 1
4 0 -11 5712.51 602.614 2
-4 0 10 1433.8 281.225 1
4 0 -10 1689.16 456.138 2
-4 0 9 8262.63 605.455 1
4 0 -9 7990.64 641.173 2
-4 0 8 8237.54 583.746 1
4 0 -8 7904.01 615.21 2
-4 0 7 148.216 138.925 1
-4 0 6 1399.97 241.599 1
-4 0 5 8101 544.646 1
-4 0 4 7714.14 527.544 1
-4 0 3 2745.1 303.468 1
-4 0 2 6070.52 458.557 1
-4 0 1 2461.4 288.486 1
-4 0 0 19698.3 801.561 1
-4 0 -1 900.532 172.412 1
-4 0 -2 6874.18 484.146 1
-4 0 -3 1034.57 208.684 1
-4 0 -4 960.183 182.264 2
-4 0 -4 709.708 160.898 1
-4 0 -5 3603.78 366.908 1
-4 0 -5 4082.88 352.991 2
-4 0 -6 2527.8 293.267 2
-4 0 -6 3058.85 366.972 1
-4 0 -7 2902.72 357.538 1
-4 0 -7 3083.69 341.462 2
-4 0 -8 2646.01 322.142 2
-4 0 -8 2449.64 321.044 1
-4 0 -9 7154.91 554.484 1
-4 0 -9 7614.08 546.122 2
-4 0 -10 631.045 188.94 1
-4 0 -10 579.283 179.481 2
-4 0 -11 412.008 197.098 2
-4 0 -12 522.411 216.825 2
-4 0 -13 115.587 166.779 2
-4 0 -14 499.338 209.966 2
-4 0 -15 818.4 244.232 2
-4 0 -16 562.417 272.086 2
4 1 -20 -95.4564 237.085 2
4 1 -19 -602.581 343.414 2
4 1 -18 78.3889 184.751 2
4 1 -17 73.7892 214.987 2
4 1 -16 -110.577 206.168 2
4 1 -15 50.036 177.589 2
-4 -1 14 229.271 217.179 1
4 1 -14 273.971 215.799 2
-4 -1 13 1215.76 284.829 1
4 1 -13 1576.28 304.124 2
-4 -1 12 903.827 222.947 1
4 1 -12 767.042 209.278 2
-4 -1 11 14390.6 837.376 1
4 1 -11 15934 967.739 2
-4 -1 10 448.448 195.818 1
4 1 -10 227.209 152.442 2
-4 -1 9 5646.07 485.579 1
4 1 -9 5801.68 539.194 2
-4 -1 8 15496.6 809.423 1
4 1 -8 16590.7 872.652 2
-4 -1 7 2184.05 302.772 1
4 1 -7 2595.18 344.464 2
-4 -1 6 12201.5 693.54 1
-4 -1 5 474.827 152.483 1
-4 -1 4 2198.89 289.299 1
-4 -1 3 1301.15 350.1 1
-4 -1 2 563.06 203.757 1
-4 -1 1 637.044 177.41 1
-4 -1 0 14104.9 714.995 1
-4 -1 -1 75243.9 1695.01 1
-4 -1 -2 6952.43 523.006 1
-4 -1 -3 737.255 192.883 1
-4 -1 -4 85.8324 105.096 2
-4 -1 -4 248.952 124.162 1
-4 -1 -5 761.037 166.609 2
-4 -1 -5 674.32 173.425 1
-4 -1 -6 635.927 157.127 2
-4 -1 -6 437.108 173.63 1
-4 -1 -7 10061.5 667.958 1
-4 -1 -7 9567.57 550.144 2
-4 -1 -8 8463.49 641.229 1
-4 -1 -8 8695.17 545.924 2
-4 -1 -9 5738.57 527.483 1
-4 -1 -9 5879.02 483.159 2
-4 -1 -10 4259.9 470.619 1
-4 -1 -10 4335.14 434.56 2
-4 -1 -11 440.556 182.213 2
-4 -1 -12 237.837 177.089 2
-4 -1 -13 573.076 198.944 2
-4 -1 -14 42.1572 154.004 2
-4 -1 -15 -385.242 244.986 2
4 2 -20 135.655 247.407 2
4 2 -19 292.924 194.068 2
4 2 -18 -1.75546 192.62 2
4 2 -17 82.8158 183.363 2
4 2 -16 601.473 280.42 2
4 2 -15 417.721 213.291 2
4 2 -14 -148.432 194.29 2
-4 -2 13 -5.4724 106.284 1
4 2 -13 52.4893 124.683 2
-4 -2 12 1847.01 319.706 1
4 2 -12 2632.87 416.211 2
-4 -2 11 2534.75 365.669 1
4 2 -11 3012.37 419.959 2
-4 -2 10 1234.26 251.35 1
4 2 -10 1348.35 291.578 2
4 2 -9 4165.06 450.461 2
-4 -2 9 4571.21 462.537 1
-4 -2 8 737.529 205.106 1
4 2 -8 334.447 170.749 2
4 2 -7 2650.6 335.279 2
-4 -2 7 2289.34 322.957 1
-4 -2 6 7658.08 570.891 1
-4 -2 5 235.567 103.801 1
-4 -2 4 170.529 114.951 1
-4 -2 3 17552.6 843.174 1
-4 -2 2 2165.56 308.465 1
-4 -2 1 -64.7807 83.9122 1
-4 -2 0 31873.5 1183.05 1
-4 -2 -1 19195.7 920.97 1
-4 -2 -2 92.3914 73.6426 1
-4 -2 -3 10434.5 699.429 1
-4 -2 -3 10965 491.41 2
-4 -2 -4 923.255 156.969 2
-4 -2 -4 1519.47 298.603 1
-4 -2 -5 6635.24 566.544 1
-4 -2 -5 7237.66 423.878 2
-4 -2 -6 4305.27 340.373 2
-4 -2 -6 4474.31 473.767 1
-4 -2 -7 2717.36 377.779 1
-4 -2 -7 2975.06 306.978 2
-4 -2 -8 560.545 169.629 1
-4 -2 -8 373.39 130.756 2
-4 -2 -9 513.596 215.204 1
-4 -2 -9 478.421 169.503 2
-4 -2 -10 10.2514 112.936 1
-4 -2 -10 96.8114 128.197 2
-4 -2 -11 528.615 182.198 2
-4 -2 -12 -60.1226 202.129 2
-4 -2 -13 -261.49 182.312 2
-4 -2 -14 194.971 153.278 2
4 3 -20 239.237 294.916 2
4 3 -19 -5.67843 203.013 2
4 3 -18 -311.83 298.444 2
4 3 -17 1302.16 424.171 2
4 3 -16 1782.64 425.457 2
4 3 -15 236.251 171.379 2
4 3 -14 435.73 216.445 2
-4 -3 13 1075.15 281.818 1
4 3 -13 1127.68 297.722 2
-4 -3 12 414.941 164.051 1
4 3 -12 617.57 209.573 2
-4 -3 11 1017.51 251.675 1
4 3 -11 1332.35 307.641 2
4 3 -10 120.633 110.475 2
-4 -3 10 160.312 89.6435 1
4 3 -9 247.494 203.039 2
-4 -3 9 153.043 182.3 1
4 3 -8 1837.48 300.673 2
-4 -3 8 1639.86 305.479 1
4 3 -7 12548.2 730.571 2
-4 -3 7 11461.9 746.742 1
-4 -3 6 2234.77 343.728 1
-4 -3 5 2321.52 437.459 1
-4 -3 4 1931.07 306.024 1
-4 -3 3 4313.84 446.753 1
-4 -3 2 168.507 147.166 1
-4 -3 1 522.604 170.582 1
-4 -3 0 3790.26 449.067 1
-4 -3 -1 3151.76 416.359 1
-4 -3 -2 27032 1187.01 1
-4 -3 -3 3597.37 441.739 1
-4 -3 -3 3544.71 264.255 2
-4 -3 -4 3143.49 449.816 1
-4 -3 -4 1929.74 223.604 2
-4 -3 -5 1742.46 211.035 2
-4 -3 -5 2140.04 377.667 1
-4 -3 -6 4719.31 516.083 1
-4 -3 -6 4678.49 342.011 2
-4 -3 -7 216.289 100.376 2
-4 -3 -7 421.595 202.56 1
-4 -3 -8 6393.01 630.543 1
-4 -3 -8 5805.11 430.009 2
-4 -3 -9 776.121 264.187 1
-4 -3 -9 895.269 194.144 2
-4 -3 -10 534.261 234.063 1
-4 -3 -10 319.643 138.05 2
-4 -3 -11 2644.64 435.002 1
-4 -3 -11 2854.11 360.365 2
-4 -3 -12 1644.29 295.163 2
4 4 -20 -336.785 315.189 2
4 4 -19 439.758 328.93 2
4 4 -18 390.05 309.053 2
4 4 -17 659.927 340.649 2
4 4 -16 134.551 204.115 2
4 4 -15 -224.22 208.921 2
4 4 -14 -178.228 144.223 2
-4 -4 13 169.516 109.899 1
4 4 -13 51.0486 145.875 2
-4 -4 12 -261.627 162.735 1
4 4 -12 172.407 165.466 2
4 4 -11 1734.29 324.924 2
-4 -4 11 1468.42 284.199 1
-4 -4 10 7930.83 676.849 1
4 4 -10 8045.7 632.531 2
-4 -4 9 350.817 143.292 1
4 4 -9 536.798 204.43 2
4 4 -8 554.747 164.101 2
-4 -4 8 162.756 126.016 1
-4 -4 7 4591.75 514.587 1
4 4 -7 4589.12 434.036 2
-4 -4 6 1959.64 340.506 1
-4 -4 5 1897.33 320.381 1
-4 -4 4 7804.75 639.679 1
-4 -4 3 11671.3 795.99 1
-4 -4 2 1505.52 286.828 1
-4 -4 1 288.86 119.061 1
-4 -4 0 9071.98 723.72 1
-4 -4 -1 73.1622 150.799 1
-4 -4 -2 383.156 88.7616 2
-4 -4 -2 450.727 197.243 1
-4 -4 -3 15996.3 993.53 1
-4 -4 -3 15616 504.583 2
-4 -4 -4 916.706 141.679 2
-4 -4 -4 718.67 215.938 1
-4 -4 -5 3532.62 481.107 1
-4 -4 -5 3106.58 249.132 2
-4 -4 -6 1746.03 205.611 2
-4 -4 -6 1834.88 355.379 1
-4 -4 -7 6914.85 701.535 1
-4 -4 -7 5800.25 384.418 2
-4 -4 -8 1501.29 343.283 1
-4 -4 -8 1868.34 235.92 2
-4 -4 -9 45.5346 183.211 1
-4 -4 -9 85.7801 110.784 2
-4 -4 -10 2924.69 495.552 1
-4 -4 -11 997.958 316.762 1
4 5 -19 -3.81246 244.007 2
4 5 -18 -116.45 211.208 2
4 5 -17 244.575 276.658 2
4 5 -16 36.0655 208.315 2
4 5 -15 270.95 173.661 2
4 5 -14 180.283 172.941 2
4 5 -13 397.084 204.068 2
-4 -5 12 1516.87 311.528 1
4 5 -12 2080.63 366.96 2
-4 -5 11 1789.32 347.913 1
4 5 -11 1885.98 360.136 2
-4 -5 10 -68.6527 134.81 1
4 5 -10 74.3538 128.875 2
-4 -5 9 1668.27 318.244 1
4 5 -9 1344.21 281.03 2
-4 -5 8 607.755 235.679 1
4 5 -8 1350.09 280.463 2
-4 -5 7 2300.95 404.017 1
4 5 -7 2604.23 365.86 2
-4 -5 6 9025.86 748.178 1
-4 -5 5 29716 1341.85 1
-4 -5 4 11440 828.745 1
-4 -5 3 1500.73 321.589 1
-4 -5 2 723.075 246.866 1
-4 -5 1 665.32 225.892 1
-4 -5 0 923.581 365.577 1
-4 -5 -1 6674.1 716.123 1
-4 -5 -2 12542.4 914.781 1
-4 -5 -3 8174.04 750.184 1
-4 -5 -4 4704.23 597.943 1
-4 -5 -5 440.63 181.775 1
-4 -5 -6 387.81 197.003 1
-4 -5 -7 394.291 210.188 1
-4 -5 -8 950.908 298.32 1
-4 -5 -9 581.375 252.926 1
-4 -5 -10 545.243 308.341 1
-4 -5 -11 176.043 227.036 1
4 6 -19 501.223 383.89 2
4 6 -18 112.012 253.178 2
4 6 -17 -27.9292 250.221 2
4 6 -16 493.655 231.936 2
4 6 -15 -176.864 267.851 2
4 6 -14 355.39 221.85 2
4 6 -13 240.203 134.956 2
-4 -6 12 -13.0819 124.574 1
4 6 -12 93.3184 145.02 2
-4 -6 11 316.515 200.668 1
4 6 -11 333.587 179.511 2
-4 -6 10 578.032 221.667 1
4 6 -10 -0.89952 102.4 2
-4 -6 9 1464.11 344.735 1
4 6 -9 1152.9 267.221 2
-4 -6 8 3706.57 573.336 1
4 6 -8 4204.76 451.23 2
-4 -6 7 3728.94 520.862 1
4 6 -7 4329.96 423.396 2
-4 -6 6 1924.4 361.488 1
-4 -6 5 10962.5 880.049 1
-4 -6 4 2709.34 568.45 1
-4 -6 3 4352.49 550.967 1
-4 -6 2 4499.13 574.444 1
-4 -6 1 56.6859 169.681 1
-4 -6 0 23801 1308.03 1
-4 -6 -1 11388.9 943.067 1
-4 -6 -2 2126.97 408.069 1
-4 -6 -3 6743.25 733.318 1
-4 -6 -4 13746 1061.45 1
-4 -6 -5 2835.91 493.72 1
-4 -6 -6 113.071 215.777 1
-4 -6 -7 1677.96 408.018 1
-4 -6 -8 759.244 244.57 1
-4 -6 -9 1613.46 408.99 1
-4 -6 -10 1071.78 399.628 1
-4 -6 -11 43.3191 188.143 1
4 7 -18 347.923 296.282 2
4 7 -17 -121.023 227.511 2
4 7 -16 840.295 315.619 2
4 7 -15 1407.57 412.238 2
4 7 -14 -30.9339 190.144 2
4 7 -13 1350.49 337.301 2
-4 -7 12 782.903 259.175 1
4 7 -12 972.829 258.535 2
-4 -7 11 3.90198 132.63 1
4 7 -11 -114.547 174.877 2
-4 -7 10 40.7056 175.293 1
4 7 -10 -119.994 106.462 2
-4 -7 9 158.531 186.884 1
4 7 -9 -206.885 159.802 2
4 7 -8 1022.79 228.113 2
-4 -7 8 1168.68 272.54 1
4 7 -7 808.038 202.849 2
-4 -7 7 786.599 257.974 1
-4 -7 6 743.934 256.727 1
-4 -7 5 -55.1817 185.789 1
-4 -7 4 479.229 197.819 1
-4 -7 3 3321.27 516.332 1
-4 -7 2 12295.3 982.697 1
-4 -7 1 9278.75 849.775 1
-4 -7 0 644.211 261.247 1
-4 -7 -1 732.525 233.546 1
-4 -7 -2 19.9394 210.758 1
-4 -7 -3 4375.43 629.458 1
-4 -7 -4 342.487 154.867 1
-4 -7 -5 5758.57 714.716 1
-4 -7 -6 3716.48 594.208 1
-4 -7 -7 -376.289 251.329 1
-4 -7 -8 576.311 302.449 1
-4 -7 -9 490.751 307.453 1
-4 -7 -10 107.741 193.954 1
-4 -7 -11 225.609 204.826 1
4 8 -16 373.04 205.094 2
4 8 -15 609.312 261.555 2
4 8 -14 975.886 313.546 2
4 8 -13 365.05 250.078 2
4 8 -12 253.398 187.238 2
-4 -8 11 319.007 190.094 1
4 8 -11 231.375 157.239 2
-4 -8 10 349.341 232.518 1
4 8 -10 292.351 203.767 2
-4 -8 9 46.1215 154.693 1
4 8 -9 465.832 194.723 2
-4 -8 8 2472.37 446.285 1
4 8 -8 3088.35 378.613 2
-4 -8 7 566.578 255.341 1
-4 -8 6 4.45808 132.602 1
-4 -8 5 1205.04 348.535 1
-4 -8 4 429.513 205.163 1
-4 -8 3 1594.98 379.258 1
-4 -8 2 957.363 311.092 1
-4 -8 1 489.549 236.076 1
-4 -8 0 3020.18 537.375 1
-4 -8 -1 308.489 247.531 1
-4 -8 -2 194.154 288.97 1
-4 -8 -3 200.33 270.58 1
-4 -8 -4 589.96 299.308 1
-4 -8 -5 1183.44 305.065 1
-4 -8 -6 259.308 289.709 1
-4 -8 -7 539.04 326.653 1
-4 -8 -8 326.116 311.658 1
-4 -8 -9 212.611 231.647 1
-4 -8 -10 497.261 351.816 1
4 9 -13 -319.389 234.256 2
4 9 -12 216.286 170.909 2
-4 -9 11 119.809 187.599 1
4 9 -11 -58.8894 136.635 2
-4 -9 10 447.552 243.897 1
-4 -9 9 486.545 300.563 1
-4 -9 8 192.027 203.324 1
-4 -9 7 117.748 235.442 1
-4 -9 6 299.522 222.66 1
-4 -9 5 -192.045 249.326 1
-4 -9 4 1004.85 364.598 1
-4 -9 3 2100.18 494.799 1
-4 -9 2 4804.94 716.254 1
-4 -9 1 593.208 288.694 1
-4 -9 0 1344.19 396.44 1
-4 -9 -1 1779.98 448.396 1
-4 -9 -2 -235.187 213.797 1
-4 -9 -3 1826.23 471.051 1
-4 -9 -4 957.059 338.298 1
-4 -9 -5 1349.8 452.355 1
-4 -9 -6 1399.13 431.487 1
-4 -9 -7 21.5269 283.771 1
-4 -9 -8 898.125 424.243 1
-4 -9 -9 3849.02 852.91 1
-4 -9 -10 270.752 269.172 1
-4 -10 10 506.691 334.924 1
-4 -10 9 191.148 209.32 1
-4 -10 8 1561.16 452.425 1
-4 -10 7 68.6054 215.087 1
-4 -10 6 533.012 300.859 1
-4 -10 5 292.369 254.161 1
-4 -10 4 1824.76 454.773 1
-4 -10 3 2267.78 520.26 1
-4 -10 2 -157.162 267.023 1
-4 -10 1 34.661 192.837 1
-4 -10 0 435.393 330.148 1
-4 -10 -1 200.885 174.439 1
-4 -10 -2 -186.42 227.11 1
-4 -10 -3 844.389 323.025 1
-4 -10 -4 1458.85 476.15 1
-4 -10 -5 895.969 426.095 1
-4 -10 -6 396.096 295.716 1
-4 -10 -7 271.112 323.226 1
-4 -10 -8 165.85 341.29 1
-4 -10 -9 -46.2665 268.834 1
-4 -11 9 353.261 290.449 1
-4 -11 8 79.231 243.554 1
-4 -11 7 -96.1476 284.177 1
-4 -11 6 -49.7499 176.856 1
-4 -11 5 413.527 266.353 1
-4 -11 4 833.849 337.122 1
-4 -11 3 414.664 332.204 1
-4 -11 2 490.972 323.498 1
-4 -11 1 861.434 393.852 1
-4 -11 0 -439.784 309.559 1
-4 -11 -1 409.087 228.739 1
-4 -11 -2 619.381 291.428 1
-4 -11 -3 1054.89 432.856 1
-4 -11 -4 -75.3096 230.234 1
-4 -11 -5 571.726 371.643 1
-4 -11 -6 210.098 355.268 1
-4 -11 -7 1109.71 479.437 1
-4 -11 -8 -114.542 323.359 1
-4 -12 8 210.203 218.432 1
-4 -12 7 1097.72 426.357 1
-4 -12 6 53.2103 277.43 1
-4 -12 5 303.829 274.864 1
-4 -12 4 562.674 225.535 1
-4 -12 3 77.0155 270.925 1
-4 -12 2 629.462 400.515 1
-4 -12 1 180.682 285.479 1
-4 -12 0 3643.8 752.39 1
-4 -12 -1 4414.41 831.768 1
-4 -12 -2 -531.518 471.399 1
-4 -12 -3 548.749 349.259 1
-4 -12 -4 -16.0112 319.671 1
-4 -12 -5 119.018 260.222 1
-4 -12 -6 -403.509 346.396 1
-4 -12 -7 255.898 367.37 1
-4 -13 7 159.437 243.398 1
-4 -13 6 403.137 338.943 1
-4 -13 5 -234.857 313.384 1
-4 -13 4 -109.213 270.381 1
-4 -13 3 276.04 269.093 1
-4 -13 2 669.302 394.454 1
-4 -13 1 786.644 457.145 1
-4 -13 0 474.721 398.541 1
-4 -13 -1 -311.435 311.347 1
-4 -13 -2 292.908 391.347 1
-4 -13 -3 11.4371 294.928 1
-4 -13 -4 86.7348 305.259 1
-4 -13 -5 -26.3262 346.851 1
-4 -13 -6 -56.4364 356.213 1
-4 -14 5 243.343 372.861 1
-4 -14 4 208.048 331.235 1
-4 -14 3 -85.7898 327.629 1
-4 -14 2 448.989 463.113 1
-4 -14 1 267.906 406.273 1
-4 -14 0 68.6307 341.326 1
-4 -14 -1 516.995 402.653 1
-4 -14 -2 417.209 437.17 1
-4 -14 -3 -518.548 485.908 1
-5 16 3 -137.078 242.306 1
-5 16 2 -269.136 214.256 1
-5 15 7 58.045 257.982 1
-5 15 6 196.78 214.109 1
-5 15 5 397.541 308.064 1
-5 15 4 -46.0369 206.162 1
-5 15 3 -120.929 184.881 1
-5 15 2 -23.1011 191.646 1
-5 15 1 187.865 177.684 1
-5 15 0 130.097 274.175 1
-5 15 -1 124.612 170.564 1
-5 15 -2 272.534 226.386 1
-5 14 9 -79.8385 215.977 1
-5 14 8 7.00814 242.264 1
-5 14 7 103.334 193.039 1
-5 14 6 652.935 278.654 1
-5 14 5 104.182 210.42 1
-5 14 4 79.2669 190.12 1
-5 14 3 5.88942 191.451 1
-5 14 2 125.192 169.891 1
-5 14 1 488.213 197.81 1
-5 14 0 640.507 254.433 1
-5 14 -1 137.864 186.459 1
-5 14 -2 345.334 231.809 1
-5 14 -3 -134.506 161.26 1
-5 13 10 274.943 273.514 1
-5 13 9 -518.168 314.753 1
-5 13 8 -121.037 259.291 1
-5 13 7 331.216 256.172 1
-5 13 6 -103.351 186.575 1
-5 13 5 -680.178 335.182 1
-5 13 4 -67.6615 176.163 1
-5 13 3 763.715 291.649 1
-5 13 2 887.383 291.897 1
-5 13 1 363.086 208.517 1
-5 13 0 -35.4744 182.085 1
-5 13 0 -240.181 169.599 2
-5 13 -1 105.187 154.968 1
-5 13 -1 242.347 173.031 2
-5 13 -2 -1.1451 137.178 1
-5 13 -2 131.727 182.429 2
-5 13 -3 295.139 167.898 1
-5 13 -3 537.945 252.234 2
-5 13 -4 381.648 186.834 2
-5 13 -4 72.2161 174.243 1
-5 13 -5 -33.99 138.807 2
-5 13 -6 179.425 176.109 2
-5 13 -7 -43.0912 186.931 2
-5 13 -8 -43.6262 165.487 2
-5 13 -9 -139.532 183.591 2
-5 13 -10 -159.653 162.082 2
-5 13 -11 34.4285 189.257 2
-5 12 12 149.935 172.414 1
-5 12 11 108.354 266.773 1
-5 12 10 -155.151 243.356 1
-5 12 9 -172.932 201.299 1
-5 12 8 106.639 186.6 1
-5 12 7 33.6957 167.765 1
-5 12 6 101.433 176.917 1
-5 12 5 291.205 153.758 1
-5 12 4 565.313 266.666 1
-5 12 3 195.293 196.634 1
-5 12 2 440.453 253.419 1
-5 12 1 90.6946 138.302 1
-5 12 0 189.451 155.517 1
-5 12 -1 24.9355 141.556 1
-5 12 -2 -28.3257 127.119 1
-5 12 -2 -116.638 162.977 2
-5 12 -3 224.116 132.505 2
-5 12 -3 511.319 200.367 1
-5 12 -4 609.872 222.098 2
-5 12 -4 673.764 230.943 1
-5 12 -5 124.14 196.332 2
-5 12 -5 102.56 158.083 1
-5 12 -6 -126.911 181.589 2
-5 12 -7 -258.99 249.485 2
-5 12 -8 7.9344 138.499 2
-5 12 -9 66.5075 190.191 2
-5 12 -10 165.357 163.381 2
-5 12 -11 245.554 204.279 2
-5 12 -12 -185.735 208.447 2
-5 12 -13 -190.971 203.654 2
-5 12 -14 263.206 299.415 2
-5 11 12 -382.451 237.531 1
-5 11 11 151.494 225.459 1
-5 11 10 222.807 237.489 1
-5 11 9 88.9293 199.41 1
-5 11 8 -161.838 163.899 1
-5 11 7 201.143 181.889 1
-5 11 6 19.5554 164.87 1
-5 11 5 519.048 259.795 1
-5 11 4 590.708 252.153 1
-5 11 3 334.36 212.352 1
-5 11 2 -189.43 159.79 1
-5 11 1 541.283 225.758 1
-5 11 0 282.704 198.809 1
-5 11 -1 1528.74 298.18 1
-5 11 -2 2126.98 359.687 2
-5 11 -2 2079.32 355.893 1
-5 11 -3 159.632 129.131 2
-5 11 -3 478.606 208.451 1
-5 11 -4 578.632 214.192 2
-5 11 -4 113.797 160.932 1
-5 11 -5 -33.1577 138.622 2
-5 11 -5 276.706 170.731 1
-5 11 -6 96.9326 122.385 2
-5 11 -7 548.189 236.407 2
-5 11 -8 4.38672 163.501 2
-5 11 -9 303.753 196.341 2
-5 11 -10 40.7151 151.307 2
-5 11 -11 50.6035 191.133 2
-5 11 -12 -105.207 188.397 2
-5 11 -13 -360.484 241.823 2
-5 11 -14 395.795 275.367 2
-5 11 -15 -61.9627 213.68 2
-5 10 13 317.576 267.386 1
-5 10 12 174.162 208.977 1
-5 10 11 202.726 227.104 1
-5 10 10 528.187 244.384 1
-5 10 9 938.346 322.74 1
-5 10 8 457.212 227.517 1
-5 10 7 1468.66 384.925 1
-5 10 6 242.829 142.537 1
-5 10 5 1058.25 311.98 1
-5 10 4 3251.12 474.432 1
-5 10 3 821.684 264.644 1
-5 10 2 441.927 220.743 1
-5 10 1 1049.36 278.828 1
-5 10 0 314.525 144.571 1
-5 10 -1 812.268 229.15 1
-5 10 -2 758.24 237.368 1
-5 10 -3 407.388 189.465 2
-5 10 -3 91.4051 132.718 1
-5 10 -4 -106.749 133.866 2
-5 10 -4 -170.864 130.631 1
-5 10 -5 139.471 104.16 1
-5 10 -5 -90.621 127.362 2
-5 10 -6 135.358 133.941 1
-5 10 -6 340.764 178.109 2
-5 10 -7 1295.54 318.139 2
-5 10 -8 173.52 196.818 2
-5 10 -9 -108.335 161.021 2
-5 10 -10 -118.596 209.141 2
-5 10 -11 -114.313 178.127 2
-5 10 -12 456.408 233.129 2
-5 10 -13 -261.986 240.367 2
-5 10 -14 292.259 237.324 2
-5 10 -15 34.2007 186.209 2
-5 10 -16 303.54 231.494 2
-5 9 14 470.391 304.697 1
-5 9 13 699.644 303.158 1
-5 9 12 -150.032 270.427 1
-5 9 11 152.201 155.032 1
-5 9 10 -27.1905 184.953 1
-5 9 9 214.924 202.909 1
-5 9 8 128.222 157.854 1
-5 9 7 2757.64 437.475 1
-5 9 6 3563.18 500.682 1
-5 9 5 -97.2602 173.506 1
-5 9 4 572.066 239.147 1
-5 9 3 27.4438 121.226 1
-5 9 2 1288.29 280.519 1
-5 9 1 899.477 248.296 1
-5 9 0 828.688 261.141 1
-5 9 -1 575.826 209.003 1
-5 9 -2 -8.07854 121.23 1
-5 9 -3 405.547 187.91 1
-5 9 -4 -64.0498 127.831 1
-5 9 -4 467.17 190.001 2
-5 9 -5 129.214 125.994 1
-5 9 -5 23.2899 117.449 2
-5 9 -6 315.87 148.078 1
-5 9 -6 508.981 213.386 2
-5 9 -7 965.073 274.498 2
-5 9 -8 122.133 178.305 2
-5 9 -9 190.723 162.745 2
-5 9 -10 6.64641 147.918 2
-5 9 -11 -205.951 208.782 2
-5 9 -12 3.72715 190.153 2
-5 9 -13 225.941 206.393 2
-5 9 -14 368.059 220.601 2
-5 9 -15 107.217 257.085 2
-5 9 -16 518.433 320.938 2
-5 9 -17 -310.713 289.879 2
-5 8 14 142.715 177.669 1
-5 8 13 224.427 196.6 1
-5 8 12 178.018 250.7 1
-5 8 11 -371.411 281.131 1
-5 8 10 -170.012 203.687 1
-5 8 9 175.614 175.537 1
-5 8 8 110.651 147.079 1
-5 8 7 -109.394 182.747 1
-5 8 6 985.386 301.541 1
-5 8 5 3589.92 466.606 1
-5 8 4 1979.19 371.012 1
-5 8 3 -70.6163 129.92 1
-5 8 2 360.62 166.091 1
-5 8 1 130.801 147.781 1
-5 8 0 936.538 244.162 1
-5 8 -1 174.17 151.147 1
-5 8 -2 -122.176 138.564 1
-5 8 -3 57.4082 102.637 1
-5 8 -4 267.223 120.17 1
-5 8 -4 182.341 142.355 2
-5 8 -5 413.276 184.337 1
-5 8 -5 150.951 149.808 2
-5 8 -6 -206.329 180.857 2
-5 8 -6 392.016 161.486 1
-5 8 -7 137.696 188.408 2
-5 8 -8 -32.2873 133.403 2
-5 8 -9 255.023 169.285 2
-5 8 -10 476.328 188.53 2
-5 8 -11 2338.45 421.375 2
-5 8 -12 818.517 276.333 2
-5 8 -13 529.589 253.552 2
-5 8 -14 -256.092 186.798 2
-5 8 -15 338.94 237.62 2
-5 8 -16 -280.288 259.104 2
-5 8 -17 165.522 238.955 2
-5 7 14 59.6449 177.778 1
-5 7 13 324.027 220.032 1
-5 7 12 -173.027 217.667 1
-5 7 11 144.647 193.289 1
-5 7 10 265.173 184.188 1
-5 7 9 1063.56 305.02 1
-5 7 8 707.441 250.672 1
-5 7 7 1597.5 322.023 1
-5 7 6 2211.85 384.166 1
-5 7 5 250.085 133.199 1
-5 7 4 1776.32 331 1
-5 7 3 1019.02 228.267 1
-5 7 2 2658.03 395.37 1
-5 7 1 785.573 231.292 1
-5 7 0 331.044 194.228 1
-5 7 -1 3563.82 403.21 1
-5 7 -2 431.53 182.272 1
-5 7 -3 6915.25 528.641 1
-5 7 -4 6048.44 486.182 1
-5 7 -4 5662.51 524.16 2
-5 7 -5 350.729 181.011 2
-5 7 -5 255.464 136.842 1
-5 7 -6 131.411 117.901 2
-5 7 -6 69.4557 112.584 1
-5 7 -7 1895.19 332.479 2
-5 7 -7 1402.23 242.598 1
-5 7 -8 1265.72 289.028 2
-5 7 -9 495.342 234.71 2
-5 7 -10 446.72 205.357 2
-5 7 -11 48.2018 179.702 2
-5 7 -12 99.8461 206.34 2
-5 7 -13 273.761 190.19 2
-5 7 -14 -27.0886 224.011 2
-5 7 -15 211.433 215.55 2
-5 7 -16 -330.143 245.776 2
-5 7 -17 125.296 224.656 2
-5 6 15 -173.042 199.169 1
-5 6 14 251.22 228.572 1
-5 6 13 43.2938 176.415 1
-5 6 12 368.183 241.833 1
-5 6 11 477.732 170.594 1
-5 6 10 -2.25219 138.949 1
-5 6 9 265.702 218.978 1
-5 6 8 2077.07 349.285 1
-5 6 7 622.823 191.439 1
-5 6 6 -347.328 211.558 1
-5 6 5 582.179 243.396 1
-5 6 4 2596.31 377.72 1
-5 6 3 2647.8 424.479 1
-5 6 2 1295.25 255.536 1
-5 6 1 351.919 191.145 1
-5 6 0 394.934 124.201 1
-5 6 -1 302.637 114.529 1
-5 6 -2 7682.78 542.136 1
-5 6 -3 22747.5 927.256 1
-5 6 -4 19490.3 840.834 1
-5 6 -5 7718.88 532.192 1
-5 6 -5 7944.62 614.249 2
-5 6 -6 2522.57 365.91 2
-5 6 -6 2387.13 308.553 1
-5 6 -7 414.157 164.479 1
-5 6 -7 469.469 219.747 2
-5 6 -8 120.746 133.941 2
-5 6 -9 174.831 149.379 2
-5 6 -10 19.8235 165.58 2
-5 6 -11 40.252 189.319 2
-5 6 -12 1510.44 362.151 2
-5 6 -13 486.279 238.853 2
-5 6 -14 561.033 235.239 2
-5 6 -15 520.507 312.865 2
-5 6 -16 -425.759 260.411 2
-5 6 -17 -308.649 258.601 2
-5 5 15 5.41449 220.656 1
-5 5 14 -146.364 161.686 1
-5 5 13 386.727 204.535 1
-5 5 12 -123.856 145.852 1
-5 5 11 643.856 238.544 1
-5 5 10 1828.03 335.793 1
-5 5 9 14.126 165.056 1
-5 5 8 -106.304 193.746 1
-5 5 7 963.248 215.224 1
-5 5 6 301.848 160.891 1
-5 5 5 2208.94 313.824 1
-5 5 4 1551.75 263.62 1
-5 5 3 2212.33 327.259 1
-5 5 2 4500.62 443.794 1
-5 5 1 1301.51 258.023 1
-5 5 0 5307.85 454.011 1
-5 5 -1 3087.86 356.069 1
-5 5 -2 341.935 132.543 1
-5 5 -3 3723.84 377.528 1
-5 5 -4 18456.9 811.343 1
-5 5 -5 473.996 174.8 1
-5 5 -5 531.45 190.422 2
-5 5 -6 2626.97 312.284 1
-5 5 -6 2706.43 367.6 2
-5 5 -7 1443.8 228.147 1
-5 5 -7 1473.37 289.597 2
-5 5 -8 239.529 151.008 2
-5 5 -9 -256.19 176.431 2
-5 5 -10 380.284 175.812 2
-5 5 -11 859.394 244.214 2
-5 5 -12 221.729 143.681 2
-5 5 -13 511.276 275.835 2
-5 5 -14 -403.201 195.65 2
-5 5 -15 661.333 303.061 2
-5 5 -16 238.24 173.901 2
-5 5 -17 19.7896 187.715 2
-5 4 15 -196.013 193.104 1
-5 4 14 222.03 235.98 1
-5 4 13 1704.07 368.262 1
-5 4 12 3596.27 492.17 1
-5 4 11 249.261 175.997 1
-5 4 10 273.69 158.997 1
-5 4 9 5583.87 550.944 1
-5 4 8 1224.56 250.353 1
-5 4 7 1038.94 243.769 1
-5 4 6 5173.05 490.848 1
-5 4 5 2801.54 371.089 1
-5 4 4 12863.9 746.232 1
-5 4 3 5179.37 472.63 1
-5 4 2 84.244 131.976 1
-5 4 1 2956.46 347.217 1
-5 4 0 2607.03 351.84 1
-5 4 -1 2257.22 308.841 1
-5 4 -2 810.091 185.945 1
-5 4 -3 3232.88 365.834 1
-5 4 -4 554.321 181.14 1
-5 4 -5 4796.15 414.856 1
-5 4 -5 5070.28 462.137 2
-5 4 -6 1548.14 235.546 1
-5 4 -6 1315.12 246.477 2
-5 4 -7 362.619 196.109 2
-5 4 -7 226.623 100.583 1
-5 4 -8 346.474 205.172 2
-5 4 -9 -27.9584 123.102 2
-5 4 -10 222.438 123.343 2
-5 4 -11 549.786 236.578 2
-5 4 -12 6.41769 182.067 2
-5 4 -13 -188.937 251.389 2
-5 4 -14 344.944 239.836 2
-5 4 -15 61.3933 159.781 2
-5 4 -16 324.865 298.29 2
-5 4 -17 144.909 197.833 2
-5 3 15 496.63 245.637 1
-5 3 14 489.842 215.784 1
-5 3 13 653.698 231.522 1
-5 3 12 517.046 235.225 1
-5 3 11 218.151 148.398 1
-5 3 10 1935.47 336.055 1
-5 3 9 -30.2168 132.844 1
-5 3 8 5534.98 547.221 1
-5 3 7 15540.6 857.348 1
-5 3 6 -108.257 189.996 1
-5 3 5 747.341 240.002 1
-5 3 4 9120.71 623.16 1
-5 3 3 9359.37 628.273 1
-5 3 2 652.703 200.346 1
-5 3 1 3671.06 383.103 1
-5 3 0 13194.1 707.764 1
-5 3 -1 585.194 169.551 1
-5 3 -2 -14.1217 96.455 1
-5 3 -3 9729.83 597.521 1
-5 3 -4 4074.64 385.365 1
-5 3 -5 2395.77 291.833 1
-5 3 -5 2632.39 337.395 2
-5 3 -6 1768.48 300.559 2
-5 3 -6 2196.11 278.513 1
-5 3 -7 1564.97 291.995 2
-5 3 -7 1443.77 229.951 1
-5 3 -8 553.32 206.587 2
-5 3 -8 789.919 183.048 1
-5 3 -9 159.699 152.23 2
-5 3 -10 418.364 210.954 2
-5 3 -11 63.3303 135.745 2
-5 3 -12 395.948 204.834 2
-5 3 -13 1489.19 370.225 2
-5 3 -14 2204.89 432.499 2
-5 3 -15 45.6794 177.601 2
-5 3 -16 46.3079 181.973 2
-5 3 -17 433.031 286.777 2
-5 2 15 -216.59 167.932 1
-5 2 14 -25.5921 175.382 1
-5 2 13 1159.9 259.385 1
-5 2 12 3199.25 456.621 1
-5 2 11 238.957 182.447 1
-5 2 10 6650.57 602.34 1
-5 2 9 6886.63 612.278 1
-5 2 8 325.409 135.483 1
-5 2 7 323.789 182.614 1
-5 2 6 647.667 206.056 1
-5 2 5 2035.49 326.208 1
-5 2 4 468.244 194.148 1
-5 2 3 2849.82 338.42 1
-5 2 2 11469.7 673.23 1
-5 2 1 2950.27 337.77 1
-5 2 0 -12.7856 123.899 1
-5 2 -1 728.263 195.119 1
-5 2 -2 2872.17 334.168 1
-5 2 -3 2243.72 306.234 1
-5 2 -4 258.732 167.485 1
-5 2 -5 882.451 214.323 2
-5 2 -5 876.484 188.088 1
-5 2 -6 15454.7 779.803 1
-5 2 -6 14434.2 770.539 2
-5 2 -7 -112.284 162.808 2
-5 2 -7 -103.297 114.29 1
-5 2 -8 50.2706 113.91 2
-5 2 -8 15.8056 86.2387 1
-5 2 -9 1933.72 319.944 2
-5 2 -10 254.684 159.474 2
-5 2 -11 640.001 260.101 2
-5 2 -12 239.621 211.208 2
-5 2 -13 138.131 172.054 2
-5 2 -14 -70.6428 162.931 2
-5 2 -15 289.159 189.841 2
-5 2 -16 417.952 229.46 2
5 -1 -17 197.081 241.007 2
5 -1 -16 325.446 246.904 2
-5 1 14 1290.48 317.383 1
-5 1 13 546.258 249.493 1
-5 1 12 501.138 218.887 1
-5 1 11 727.004 246.927 1
-5 1 10 5117.61 548.199 1
-5 1 9 720.195 225.313 1
-5 1 8 2987.11 407.93 1
-5 1 7 4296.86 469.29 1
-5 1 6 2511.48 366.532 1
-5 1 5 847.609 240.011 1
-5 1 4 7496.21 574.333 1
-5 1 3 -26.9052 124.682 1
-5 1 2 2754.59 331.508 1
-5 1 1 377.248 151.829 1
-5 1 0 260.028 138.849 1
-5 1 -1 1592.31 255.049 1
-5 1 -2 13184.6 730.851 1
-5 1 -3 8334.54 575.83 1
-5 1 -4 5466.42 450.064 2
-5 1 -4 5716.03 481.022 1
-5 1 -5 4150.4 421.779 1
-5 1 -5 3758.37 386.522 2
-5 1 -6 830.711 236.081 2
-5 1 -6 447.439 190.753 1
-5 1 -7 3280.63 385.677 1
-5 1 -7 3735.4 406.488 2
-5 1 -8 5698.16 511.826 1
-5 1 -8 5640.48 507.545 2
-5 1 -9 -111.376 141.408 2
-5 1 -9 110.988 125.803 1
-5 1 -10 1469.37 297.471 2
-5 1 -11 2619.84 390.075 2
-5 1 -12 248.863 188.798 2
-5 1 -13 116.968 179.571 2
-5 1 -14 1041.13 313.634 2
-5 1 -15 197.314 206.423 2
5 0 -20 259.052 344.725 2
5 0 -19 -12.6621 206.611 2
5 0 -18 131.346 272.862 2
5 0 -17 -200.867 224.815 2
5 0 -16 731.871 309.189 2
5 0 -15 596.281 295.768 2
5 0 -14 232.908 161.297 2
-5 0 14 128.801 136.273 1
-5 0 13 109.97 176.691 1
5 0 -13 436.248 296.669 2
-5 0 12 -27.1935 145.59 1
-5 0 11 139.318 168.508 1
-5 0 10 80.6841 144.387 1
-5 0 9 5006.61 516.961 1
-5 0 8 4480.81 478.54 1
-5 0 7 382.49 175.709 1
-5 0 6 71.3921 138.454 1
-5 0 5 5054.78 481.346 1
-5 0 4 3776.78 410.461 1
-5 0 3 954.882 203.92 1
-5 0 2 43435 1358.99 1
-5 0 1 7612.77 582.878 1
-5 0 0 1549.51 277.301 1
-5 0 -1 5515.48 487.309 1
-5 0 -2 166.16 113.94 1
-5 0 -3 17526.3 888.221 1
-5 0 -4 56.4685 108.664 2
-5 0 -4 12.5646 91.2749 1
-5 0 -5 2500.5 338.194 1
-5 0 -5 2566.67 328.296 2
-5 0 -6 5051.32 490.03 1
-5 0 -6 4614.74 397.463 2
-5 0 -7 6960.9 586.462 1
-5 0 -7 6374.71 498.716 2
-5 0 -8 182.538 136.301 2
-5 0 -8 35.3221 109.203 1
-5 0 -9 5645.79 536.59 1
-5 0 -9 5993.84 507.751 2
-5 0 -10 1205.46 259.752 2
-5 0 -11 204.409 115.438 2
-5 0 -12 609.417 213.23 2
-5 0 -13 629.072 227.864 2
-5 0 -14 330.578 208.276 2
-5 0 -15 815.339 312.531 2
5 1 -20 -347.455 360.672 2
5 1 -19 -156.603 327.953 2
5 1 -18 773.15 332.302 2
5 1 -17 637.846 295.596 2
5 1 -16 1526.75 436.577 2
5 1 -15 487.389 246.385 2
-5 -1 14 86.8451 129.141 1
5 1 -14 -27.5345 188.96 2
-5 -1 13 227.319 165.943 1
5 1 -13 292.579 225.795 2
-5 -1 12 48.5029 144.168 1
5 1 -12 289.141 175.189 2
-5 -1 11 1195.12 307.721 1
5 1 -11 1095.01 301.562 2
-5 -1 10 1235.89 292.225 1
-5 -1 9 321.631 184.814 1
-5 -1 8 5383.37 539.268 1
-5 -1 7 121.751 180.131 1
-5 -1 6 1590.42 302.136 1
-5 -1 5 2630.29 358.028 1
-5 -1 4 6022.42 550.253 1
-5 -1 3 7502.05 595.167 1
-5 -1 2 4445.3 450.297 1
-5 -1 1 1445.9 269.512 1
-5 -1 0 949.944 230.797 1
-5 -1 -1 22416.6 1045.46 1
-5 -1 -2 5511.33 534.671 1
-5 -1 -3 3036.06 397.954 1
-5 -1 -4 20446.7 1021.92 1
-5 -1 -4 21332 820.744 2
-5 -1 -5 227.907 149.195 2
-5 -1 -5 326.638 197.902 1
-5 -1 -6 484.82 160.529 2
-5 -1 -6 585.842 205.145 1
-5 -1 -7 209.027 117.776 2
-5 -1 -7 336.622 167.17 1
-5 -1 -8 882.589 226.786 2
-5 -1 -8 624.522 208.483 1
-5 -1 -9 952.721 221.52 2
-5 -1 -9 1083.44 261.025 1
-5 -1 -10 369.434 179.307 1
-5 -1 -10 576.047 197.186 2
-5 -1 -11 2130.54 355.896 2
-5 -1 -12 -39.0344 148.722 2
-5 -1 -13 -89.2692 160.769 2
5 2 -20 -204.548 252.308 2
5 2 -19 -35.0711 267.493 2
5 2 -18 -140.341 277.307 2
5 2 -17 847.17 364.725 2
5 2 -16 -126.072 251.514 2
5 2 -15 364.531 185.446 2
-5 -2 14 219.667 186.197 1
5 2 -14 -84.1107 178.052 2
-5 -2 13 755.461 259.587 1
5 2 -13 655.506 276.514 2
-5 -2 12 415.27 186.122 1
5 2 -12 364.427 204.617 2
-5 -2 11 402.042 161.014 1
5 2 -11 64.1443 157.603 2
-5 -2 10 2481.02 409.936 1
-5 -2 9 3902.41 483.289 1
-5 -2 8 3760.79 453.725 1
-5 -2 7 1989.13 336.149 1
-5 -2 6 122.572 138.426 1
-5 -2 5 1743.12 331.801 1
-5 -2 4 131.695 149.573 1
-5 -2 3 9022.32 705.545 1
-5 -2 2 491.814 180.811 1
-5 -2 1 2151.95 331.976 1
-5 -2 0 7991.2 675.449 1
-5 -2 -1 209.696 133.385 1
-5 -2 -2 4044.73 491.683 1
-5 -2 -3 1850.65 240.378 2
-5 -2 -3 2065.02 359.127 1
-5 -2 -4 811.942 164.773 2
-5 -2 -4 1031.3 266.235 1
-5 -2 -5 2717.82 422.494 1
-5 -2 -5 3276.09 327.051 2
-5 -2 -6 552.446 161.64 2
-5 -2 -6 344.65 207.246 1
-5 -2 -7 7513.94 684.5 1
-5 -2 -7 6727.53 480.054 2
-5 -2 -8 4250.4 521.262 1
-5 -2 -8 3876.06 383.078 2
-5 -2 -9 209.044 134.478 1
-5 -2 -9 423.296 164.541 2
-5 -2 -10 623.464 255.283 1
-5 -2 -10 546.643 175.332 2
-5 -2 -11 940.085 240.122 2
-5 -2 -12 850.864 232.571 2
5 3 -19 -63.8368 299.107 2
5 3 -18 355.77 284.892 2
5 3 -17 142.168 186.617 2
5 3 -16 660.957 285.549 2
5 3 -15 10.6902 166.935 2
5 3 -14 86.2734 188.412 2
-5 -3 13 370.979 242.554 1
5 3 -13 296.847 175.446 2
5 3 -12 1133.42 310.514 2
-5 -3 12 1178.81 312.81 1
5 3 -11 5848.93 625.632 2
-5 -3 11 4910.08 571.707 1
5 3 -10 1109.6 287.958 2
-5 -3 10 1103.64 294.4 1
-5 -3 9 -163.454 175.976 1
-5 -3 8 726.423 238.202 1
-5 -3 7 11757.5 827.468 1
-5 -3 6 16434.6 969.227 1
-5 -3 5 6617.72 618.219 1
-5 -3 4 36957.3 1443.04 1
-5 -3 3 798.803 254.442 1
-5 -3 2 2159.17 347.724 1
-5 -3 1 6484.02 611.983 1
-5 -3 0 321.654 173.325 1
-5 -3 -1 15349 949.836 1
-5 -3 -2 1006.53 270.955 1
-5 -3 -3 878.525 174.721 2
-5 -3 -3 917.076 266.924 1
-5 -3 -4 525.398 124.438 2
-5 -3 -4 373.463 153.173 1
-5 -3 -5 196.151 77.5784 2
-5 -3 -5 384.846 176.559 1
-5 -3 -6 373.745 124.048 2
-5 -3 -6 87.2884 111.477 1
-5 -3 -7 479.838 161.165 2
-5 -3 -7 918.291 276.735 1
-5 -3 -8 390.098 129.437 2
-5 -3 -8 305.501 202.7 1
-5 -3 -9 -96.586 122.067 1
-5 -3 -9 146.654 144.508 2
-5 -3 -10 453.592 246.601 1
-5 -3 -10 68.9291 124.181 2
5 4 -19 1091.16 433.119 2
5 4 -18 -587.357 350.896 2
5 4 -17 335.21 271.815 2
5 4 -16 53.9716 210.282 2
5 4 -15 265.017 241.873 2
5 4 -14 918.82 342.613 2
-5 -4 13 498.983 240.213 1
5 4 -13 723.603 298.615 2
-5 -4 12 105.145 144.027 1
5 4 -12 130.968 150.654 2
-5 -4 11 9.67441 157.601 1
5 4 -11 195.94 195.243 2
-5 -4 10 -82.0642 139.607 1
5 4 -10 329.184 198.956 2
-5 -4 9 2894.24 453.661 1
-5 -4 8 12664.2 925.999 1
-5 -4 7 12353.8 896.465 1
-5 -4 6 2737.52 428.544 1
-5 -4 5 4797.91 561.511 1
-5 -4 4 771.161 241.467 1
-5 -4 3 3356.31 505.887 1
-5 -4 2 1418.5 310.023 1
-5 -4 1 13101.2 920.651 1
-5 -4 0 4558.46 549.513 1
-5 -4 -1 1337.89 320.173 1
-5 -4 -2 1541.29 357.954 1
-5 -4 -2 1813.92 213.423 2
-5 -4 -3 3011.83 538.146 1
-5 -4 -3 2556.68 253.099 2
-5 -4 -4 4666.82 606.722 1
-5 -4 -4 2990.27 276.772 2
-5 -4 -5 9534.8 852.463 1
-5 -4 -5 8367.26 453.587 2
-5 -4 -6 1024.22 292.256 1
-5 -4 -7 27.0922 140.426 1
-5 -4 -8 118.652 185.902 1
-5 -4 -9 255.086 180.802 1
-5 -4 -10 183.854 256.61 1
5 5 -18 319.885 326.449 2
5 5 -17 -259.879 257.813 2
5 5 -16 -52.4234 172.911 2
5 5 -15 785.338 288.414 2
5 5 -14 302.843 170.844 2
-5 -5 13 202.173 178.62 1
5 5 -13 -82.2514 156.208 2
-5 -5 12 137.116 154.876 1
5 5 -12 466.177 201.172 2
-5 -5 11 -15.8563 145.12 1
5 5 -11 176.191 168.243 2
-5 -5 10 977.192 292.288 1
5 5 -10 1594.55 308.512 2
-5 -5 9 857.603 281.932 1
-5 -5 8 2203.65 409.84 1
-5 -5 7 1454.24 344.157 1
-5 -5 6 4439.06 585.698 1
-5 -5 5 139.732 173.735 1
-5 -5 4 17818.4 1128.38 1
-5 -5 3 7278.76 724.91 1
-5 -5 2 3262.76 503.036 1
-5 -5 1 746.218 273.031 1
-5 -5 0 9626.26 868.482 1
-5 -5 -1 5786.04 657.796 1
-5 -5 -2 6772.97 726.033 1
-5 -5 -3 3718.31 536.348 1
-5 -5 -4 362.911 180.715 1
-5 -5 -5 40.2806 174.017 1
-5 -5 -6 3498.52 552.316 1
-5 -5 -7 1489.07 363.064 1
-5 -5 -8 378.853 205.328 1
-5 -5 -9 349.253 270.006 1
-5 -5 -10 117.688 165.054 1
5 6 -17 -108.206 241.467 2
5 6 -16 223.492 244.372 2
5 6 -15 250.813 196.078 2
5 6 -14 469.189 280.606 2
5 6 -13 3017.57 494.602 2
-5 -6 12 348.443 207.858 1
5 6 -12 430.963 236.326 2
-5 -6 11 134.411 201.637 1
5 6 -11 749.712 270.58 2
-5 -6 10 803.292 264.009 1
5 6 -10 998.224 276.997 2
-5 -6 9 1244.36 336.791 1
-5 -6 8 2088.37 427.963 1
-5 -6 7 -279.23 170.076 1
-5 -6 6 -58.7682 129.151 1
-5 -6 5 1382.44 328.251 1
-5 -6 4 -55.2063 153.427 1
-5 -6 3 2893.81 472.972 1
-5 -6 2 5416.86 685.829 1
-5 -6 1 3172.71 499.979 1
-5 -6 0 4275.62 617.107 1
-5 -6 -1 1263.05 344.891 1
-5 -6 -2 432.915 215.355 1
-5 -6 -3 2723.4 481.573 1
-5 -6 -4 5106.46 703.652 1
-5 -6 -5 2800.32 506.156 1
-5 -6 -6 160.433 191.356 1
-5 -6 -7 55.7898 202.839 1
-5 -6 -8 398.178 248.813 1
-5 -6 -9 439.424 234.808 1
-5 -6 -10 99.7545 230.369 1
5 7 -16 557.272 318.915 2
5 7 -15 403.954 321.224 2
5 7 -14 253.755 225.249 2
5 7 -13 727.943 269.221 2
-5 -7 12 951.931 337.396 1
5 7 -12 1117.83 320.051 2
5 7 -11 848.445 264.44 2
-5 -7 11 1027.02 349.949 1
-5 -7 10 1646.39 410.457 1
-5 -7 9 530.29 290.227 1
-5 -7 8 472.583 245.015 1
-5 -7 7 886.035 317.943 1
-5 -7 6 353.475 239.259 1
-5 -7 5 5158.29 680.246 1
-5 -7 4 351.788 162.991 1
-5 -7 3 703.809 259.584 1
-5 -7 2 797.708 301.011 1
-5 -7 1 567.566 202.539 1
-5 -7 0 1202.2 387.167 1
-5 -7 -1 2270.31 495.435 1
-5 -7 -2 -68.4581 188.734 1
-5 -7 -3 -17.5385 165.126 1
-5 -7 -4 2055.84 474.761 1
-5 -7 -5 1100.91 370.232 1
-5 -7 -6 692.15 250.137 1
-5 -7 -7 467.753 298.375 1
-5 -7 -8 503.365 331.612 1
-5 -7 -9 885.497 281.747 1
-5 -7 -10 1048.31 407.854 1
5 8 -13 111.364 196.674 2
5 8 -12 32.7474 200.372 2
-5 -8 11 154.312 164.048 1
5 8 -11 -6.72826 138.105 2
-5 -8 10 67.5224 177.545 1
-5 -8 9 1140.37 371.311 1
-5 -8 8 -35.6662 185.573 1
-5 -8 7 219.489 248.448 1
-5 -8 6 107.391 184.996 1
-5 -8 5 1175.02 408.753 1
-5 -8 4 1273.14 348.946 1
-5 -8 3 5562.83 736.191 1
-5 -8 2 2283.23 482.67 1
-5 -8 1 10.7521 205.398 1
-5 -8 0 1075.61 351.975 1
-5 -8 -1 1375.39 395.833 1
-5 -8 -2 957.744 350.014 1
-5 -8 -3 2162.44 511.654 1
-5 -8 -4 2005.71 501.053 1
-5 -8 -5 120.617 173.511 1
-5 -8 -6 112.172 207.4 1
-5 -8 -7 178.8 255.924 1
-5 -8 -8 25.9626 246.022 1
-5 -8 -9 284.354 342.893 1
-5 -9 10 -9.18709 205.78 1
-5 -9 9 427.729 276.228 1
-5 -9 8 366.926 203.488 1
-5 -9 7 -164.728 216.807 1
-5 -9 6 1004.33 310.463 1
-5 -9 5 860.175 363.608 1
-5 -9 4 2918.05 584.851 1
-5 -9 3 559.507 314.942 1
-5 -9 2 580.76 288.037 1
-5 -9 1 271.224 256.738 1
-5 -9 0 2199.71 525.285 1
-5 -9 -1 1122.6 380.021 1
-5 -9 -2 1369.85 390.3 1
-5 -9 -3 1263.3 390.769 1
-5 -9 -4 918.581 347.669 1
-5 -9 -5 1590.5 482.486 1
-5 -9 -6 259.066 299.357 1
-5 -9 -7 -340.873 273.964 1
-5 -9 -8 -28.7638 224.455 1
-5 -9 -9 -114.449 307.692 1
-5 -10 10 283.8 263.606 1
-5 -10 9 36.9007 220.15 1
-5 -10 8 1125.37 441.654 1
-5 -10 7 1188.43 395.066 1
-5 -10 6 1351.78 434.112 1
-5 -10 5 224.539 229.482 1
-5 -10 4 105.099 192.362 1
-5 -10 3 47.6195 199.96 1
-5 -10 2 -54.6841 242.306 1
-5 -10 1 809.276 351.09 1
-5 -10 0 361.877 274.472 1
-5 -10 -1 1332.54 465.797 1
-5 -10 -2 2607.38 616.281 1
-5 -10 -3 -404.313 373.775 1
-5 -10 -4 333.314 336.188 1
-5 -10 -5 254.022 323.378 1
-5 -10 -6 -251.664 241.363 1
-5 -10 -7 -238.428 378.855 1
-5 -10 -8 1066.31 432.892 1
-5 -11 9 788.177 375.234 1
-5 -11 8 3109.06 711.172 1
-5 -11 7 1412.17 493.997 1
-5 -11 6 -82.3881 225.834 1
-5 -11 5 442.231 353.339 1
-5 -11 4 345.304 269.182 1
-5 -11 3 903.262 426.341 1
-5 -11 2 1388.97 492.471 1
-5 -11 1 1689.2 525.066 1
-5 -11 0 2466.88 604.789 1
-5 -11 -1 209.517 269.314 1
-5 -11 -2 127.341 219.263 1
-5 -11 -3 96.7218 253.646 1
-5 -11 -4 416.773 394.514 1
-5 -11 -5 123.128 417.766 1
-5 -11 -6 767.935 364.11 1
-5 -11 -7 22.2019 243.934 1
-5 -12 7 12.0193 227.799 1
-5 -12 6 235.892 299.339 1
-5 -12 5 -183.374 238.971 1
-5 -12 4 691.575 406.216 1
-5 -12 3 -158.942 393.692 1
-5 -12 2 602.405 366.684 1
-5 -12 1 316.1 377.616 1
-5 -12 0 -23.8839 357.272 1
-5 -12 -1 447.431 384.804 1
-5 -12 -2 -153.684 280.994 1
-5 -12 -3 289.147 354.608 1
-5 -12 -4 100.515 320.813 1
-5 -12 -5 -323.317 387.559 1
-5 -12 -6 212.045 368.251 1
-5 -13 5 -117.212 285.571 1
-5 -13 4 -162.806 325.572 1
-5 -13 3 -282.722 395.022 1
-5 -13 2 698.586 423.474 1
-5 -13 1 441.764 477.86 1
-5 -13 0 -364.238 356.516 1
-5 -13 -1 -578.544 390.222 1
-5 -13 -2 -396.256 483.115 1
-5 -13 -3 156.431 335.08 1
-6 15 6 563.822 331.739 1
-6 15 5 -234.555 278.857 1
-6 15 4 22.0382 180.46 1
-6 15 3 318.552 260.836 1
-6 15 2 122.506 219.112 1
-6 15 1 75.8441 180.91 1
-6 15 0 -153.119 196.001 1
-6 14 8 200.918 245.094 1
-6 14 7 564.558 336.599 1
-6 14 6 299.207 247.376 1
-6 14 5 -405.992 286.389 1
-6 14 4 -49.0533 211.684 1
-6 14 3 183.612 206.021 1
-6 14 2 161.954 241.11 1
-6 14 1 243.129 219.488 1
-6 14 0 -291.242 275.957 1
-6 14 -1 -87.0856 218.406 1
-6 14 -2 108.489 215.451 1
-6 13 10 -88.6521 318.512 1
-6 13 9 -224.447 227.058 1
-6 13 8 -224.793 246.036 1
-6 13 7 121.96 213.102 1
-6 13 6 -95.3665 188.544 1
-6 13 5 19.9285 176.167 1
-6 13 4 -178.962 254.092 1
-6 13 3 298.427 214.88 1
-6 13 2 212.464 211.313 1
-6 13 1 251.956 246.021 1
-6 13 0 548.82 266.19 1
-6 13 -1 131.946 190.432 2
-6 13 -1 131.04 223.994 1
-6 13 -2 224.497 150.831 2
-6 13 -2 403.418 270.699 1
-6 13 -3 9.04769 161.569 2
-6 13 -3 -390.265 222.226 1
-6 13 -4 -229.562 216.259 2
-6 13 -5 206.317 201.403 2
-6 13 -6 347.965 244.087 2
-6 13 -7 595.368 259.381 2
-6 13 -8 -1.28913 157.943 2
-6 13 -9 355.056 283.766 2
-6 13 -10 -240.756 245.01 2
-6 12 11 220.927 211.928 1
-6 12 10 -172.325 327.801 1
-6 12 9 -97.107 231.38 1
-6 12 8 -472.399 277.28 1
-6 12 7 540.407 274.315 1
-6 12 6 470.901 300.458 1
-6 12 5 -55.6986 231.021 1
-6 12 4 19.2576 174.904 1
-6 12 3 73.249 176.875 1
-6 12 2 79.6737 152.258 1
-6 12 1 65.9358 166.321 1
-6 12 0 -176.056 207.76 1
-6 12 -1 185.298 212.75 1
-6 12 -2 305.391 206.218 2
-6 12 -2 -29.697 169.889 1
-6 12 -3 286.851 150.05 2
-6 12 -3 879.222 294.402 1
-6 12 -4 382.593 234.232 1
-6 12 -4 56.6481 179.643 2
-6 12 -5 361.293 141.476 2
-6 12 -6 553.121 256.358 2
-6 12 -7 385.714 218.848 2
-6 12 -8 129.828 154.922 2
-6 12 -9 -150.615 223.433 2
-6 12 -10 190.9 166.969 2
-6 12 -11 -12.656 171.862 2
-6 12 -12 162.398 226.087 2
-6 11 12 -271.652 293.613 1
-6 11 11 -212.814 248.532 1
-6 11 10 -210.523 204.97 1
-6 11 9 -351.152 265.589 1
-6 11 8 299.567 291.208 1
-6 11 7 -63.8001 209.192 1
-6 11 6 242.337 194.441 1
-6 11 5 236.876 175.349 1
-6 11 4 34.7452 170.954 1
-6 11 3 919.054 315.626 1
-6 11 2 396.271 263.61 1
-6 11 1 223.92 203.387 1
-6 11 0 542.174 261.434 1
-6 11 -1 421.488 164.824 1
-6 11 -2 590.579 240.018 1
-6 11 -3 443.493 190.661 1
-6 11 -3 871.419 288.304 2
-6 11 -4 449.759 189.564 1
-6 11 -4 930.031 259.963 2
-6 11 -5 156.057 151.827 1
-6 11 -5 -263.677 232.581 2
-6 11 -6 -217.241 177.005 2
-6 11 -7 538.811 214.348 2
-6 11 -8 444.926 236.073 2
-6 11 -9 -133.364 170.155 2
-6 11 -10 -323.034 184.793 2
-6 11 -11 -250.159 196.09 2
-6 11 -12 -218.729 224.966 2
-6 11 -13 -500.485 276.288 2
-6 11 -14 399.886 307.504 2
-6 10 13 703.305 329.328 1
-6 10 12 154.15 326.264 1
-6 10 11 172.156 274.664 1
-6 10 10 113.369 209.624 1
-6 10 9 29.8023 231.472 1
-6 10 8 -287.244 216.432 1
-6 10 7 -252.444 201.814 1
-6 10 6 182.18 184.957 1
-6 10 5 79.8923 156.138 1
-6 10 4 441.055 212.815 1
-6 10 3 274.217 215.163 1
-6 10 2 -23.3861 132.544 1
-6 10 1 347.31 165.389 1
-6 10 0 -236.456 206.495 1
-6 10 -1 1894.26 356.12 1
-6 10 -2 409.923 191.314 1
-6 10 -3 890.564 232.405 1
-6 10 -3 1543.29 343.007 2
-6 10 -4 95.6705 159.789 1
-6 10 -4 379.702 204.038 2
-6 10 -5 473.429 191.859 2
-6 10 -5 69.5225 122.636 1
-6 10 -6 199.129 172.941 2
-6 10 -7 95.026 175.952 2
-6 10 -8 209.757 222.344 2
-6 10 -9 -58.043 186.608 2
-6 10 -10 142.906 240.541 2
-6 10 -11 -115.626 196.046 2
-6 10 -12 -398.713 230.271 2
-6 10 -13 207.533 245.238 2
-6 10 -14 101.611 197.87 2
-6 10 -15 291.043 238.842 2
-6 9 13 695.639 365.694 1
-6 9 12 149.934 272.981 1
-6 9 11 -308.051 308.999 1
-6 9 10 89.737 165.674 1
-6 9 9 974.006 336.297 1
-6 9 8 149.098 161.756 1
-6 9 7 2153.28 443.368 1
-6 9 6 -307.399 238.09 1
-6 9 5 111.442 177.805 1
-6 9 4 1378.93 344 1
-6 9 3 893.891 287.917 1
-6 9 2 904.339 261.69 1
-6 9 1 1204.14 323.579 1
-6 9 0 116.853 163.618 1
-6 9 -1 309.368 188.238 1
-6 9 -2 601.122 220.548 1
-6 9 -3 471.669 192.418 1
-6 9 -4 1019.19 264.559 2
-6 9 -4 1062.59 257.675 1
-6 9 -5 4529.21 496.072 1
-6 9 -5 3739.11 477.771 2
-6 9 -6 648.337 209.849 2
-6 9 -6 773.686 214.263 1
-6 9 -7 130.459 154.434 2
-6 9 -8 242.943 201.611 2
-6 9 -9 103.48 149.741 2
-6 9 -10 254.196 199.4 2
-6 9 -11 82.7338 160.202 2
-6 9 -12 -68.3664 168.377 2
-6 9 -13 189.868 238.084 2
-6 9 -14 74.4614 221.624 2
-6 9 -15 612.082 317.195 2
-6 8 14 -219.939 296.949 1
-6 8 13 302.107 290.571 1
-6 8 12 -343.242 253.034 1
-6 8 11 344.367 271.174 1
-6 8 10 309.566 190.27 1
-6 8 9 157.82 168.605 1
-6 8 8 291.463 250.688 1
-6 8 7 3318.43 494.927 1
-6 8 6 5923.14 664.967 1
-6 8 5 948.606 277.573 1
-6 8 4 235.412 183.544 1
-6 8 3 1622.31 323.266 1
-6 8 2 411.633 155.667 1
-6 8 1 442.363 206.903 1
-6 8 0 21.2106 118.63 1
-6 8 -1 1059.13 273.166 1
-6 8 -2 188.362 119.254 1
-6 8 -3 1058.71 276.796 1
-6 8 -4 4381.06 473.28 1
-6 8 -4 4233.77 515.592 2
-6 8 -5 1572.43 308.963 2
-6 8 -5 2015.84 330.75 1
-6 8 -6 408.011 222.685 2
-6 8 -6 445.423 210.229 1
-6 8 -7 317.766 192.035 2
-6 8 -8 -263.572 163.927 2
-6 8 -9 492.827 247.014 2
-6 8 -10 -112.592 210.224 2
-6 8 -11 371.467 199.34 2
-6 8 -12 102.735 199.12 2
-6 8 -13 -57.8352 198.755 2
-6 8 -14 7.55221 181.748 2
-6 8 -15 268.562 271.328 2
-6 8 -16 188.342 291.027 2
-6 7 14 -128.21 260.926 1
-6 7 13 42.475 210.608 1
-6 7 12 206.156 241.762 1
-6 7 11 704.235 270.39 1
-6 7 10 725.658 293.888 1
-6 7 9 672.55 274.74 1
-6 7 8 -115.322 182.321 1
-6 7 7 -1.1464 172.232 1
-6 7 6 141.207 206.434 1
-6 7 5 1729.4 383.872 1
-6 7 4 1140.18 292.478 1
-6 7 3 287.74 170.521 1
-6 7 2 -200.62 157.063 1
-6 7 1 324.58 153.348 1
-6 7 0 -21.733 147.42 1
-6 7 -1 284.702 184.156 1
-6 7 -2 2697.55 368.041 1
-6 7 -3 326.794 154.221 1
-6 7 -4 30.4287 138.472 1
-6 7 -5 315.481 163.773 2
-6 7 -5 603.711 207.956 1
-6 7 -6 1063.31 269.904 2
-6 7 -6 1344.69 282.218 1
-6 7 -7 65.5261 128.819 2
-6 7 -8 1287.81 324.245 2
-6 7 -9 618.798 247.487 2
-6 7 -10 225.975 163.233 2
-6 7 -11 -186.673 235.367 2
-6 7 -12 3.78865 207.713 2
-6 7 -13 -145.998 256.669 2
-6 7 -14 344.379 246.005 2
-6 7 -15 188.43 189.947 2
-6 7 -16 -315.865 293.689 2
-6 6 14 255.728 207.446 1
-6 6 13 62.1138 189.1 1
-6 6 12 714.628 288.905 1
-6 6 11 1208.25 321.98 1
-6 6 10 809.972 288.267 1
-6 6 9 1260.23 316.474 1
-6 6 8 4176.27 534.782 1
-6 6 7 4.33806 189.464 1
-6 6 6 8206.01 711.177 1
-6 6 5 745.271 216.87 1
-6 6 4 406.926 189.123 1
-6 6 3 1373.72 285.348 1
-6 6 2 1440.39 302.873 1
-6 6 1 94.6265 164.572 1
-6 6 0 1906.39 313.28 1
-6 6 -1 1096.4 259.938 1
-6 6 -2 1309.34 273.664 1
-6 6 -3 1279.56 279.963 1
-6 6 -4 201.815 142.709 1
-6 6 -5 1444.74 272.911 1
-6 6 -5 1364.36 313.568 2
-6 6 -6 1333.84 262.918 1
-6 6 -6 1031.13 290.672 2
-6 6 -7 464.396 191.625 1
-6 6 -7 630.125 251.226 2
-6 6 -8 327.569 224.517 2
-6 6 -9 96.1087 148.725 2
-6 6 -10 572.375 275.33 2
-6 6 -11 569.614 259.069 2
-6 6 -12 -298.282 227.567 2
-6 6 -13 117.047 211.944 2
-6 6 -14 307.211 215.262 2
-6 6 -15 399.664 289.649 2
-6 6 -16 -849.966 340.61 2
-6 5 15 89.1031 223.482 1
-6 5 14 94.0025 179.206 1
-6 5 13 1432.48 404.097 1
-6 5 12 -68.5961 228.253 1
-6 5 11 434.678 253.023 1
-6 5 10 487.49 237.428 1
-6 5 9 256.026 215.569 1
-6 5 8 7469.05 700.255 1
-6 5 7 5983.82 615.307 1
-6 5 6 1060.7 272.753 1
-6 5 5 636.822 269.116 1
-6 5 4 2853.87 427.559 1
-6 5 3 -119.229 133.768 1
-6 5 2 180.795 168.6 1
-6 5 1 1067.19 234.994 1
-6 5 0 1697.72 321.169 1
-6 5 -1 1673.81 289.118 1
-6 5 -2 36.8914 129.842 1
-6 5 -3 8615.32 621.424 1
-6 5 -4 2613.15 355.081 1
-6 5 -5 638.709 191.436 1
-6 5 -5 635.37 240.987 2
-6 5 -6 492.025 183.612 1
-6 5 -6 602.561 219.795 2
-6 5 -7 2412.25 344.766 1
-6 5 -7 2645.04 401.589 2
-6 5 -8 394.638 203.874 2
-6 5 -9 430.444 214.421 2
-6 5 -10 192.194 150.193 2
-6 5 -11 79.9986 162.449 2
-6 5 -12 -157.711 217.07 2
-6 5 -13 -115.267 187.42 2
-6 5 -14 579.974 267.114 2
-6 5 -15 367.975 236.419 2
-6 5 -16 -144.781 246.987 2
-6 4 15 -141.262 200.946 1
-6 4 14 -32.7678 227.207 1
-6 4 13 327.247 250.328 1
-6 4 12 218.763 178.051 1
-6 4 11 876.789 268.101 1
-6 4 10 1454.84 337.174 1
-6 4 9 4302.46 508.042 1
-6 4 8 -133.63 170.041 1
-6 4 7 -123.473 180.968 1
-6 4 6 -92.0172 157.527 1
-6 4 5 -120.554 153.17 1
-6 4 4 -60.1217 140.957 1
-6 4 3 8941.68 670.2 1
-6 4 2 7652.93 629.095 1
-6 4 1 544.251 218.289 1
-6 4 0 -62.7799 127.426 1
-6 4 -1 312.863 172.674 1
-6 4 -2 346.611 204.231 1
-6 4 -3 956.51 218.811 1
-6 4 -4 321.876 144.903 1
-6 4 -5 1169.89 232.232 1
-6 4 -5 1384.26 287.829 2
-6 4 -6 1899.22 304.43 1
-6 4 -6 2181.38 353.143 2
-6 4 -7 1255.04 291.149 2
-6 4 -7 730.613 201.868 1
-6 4 -8 440.507 218.299 2
-6 4 -9 575.805 196.934 2
-6 4 -10 -19.6414 170.084 2
-6 4 -11 582.499 236.947 2
-6 4 -12 428.167 259.478 2
-6 4 -13 562.51 194.307 2
-6 4 -14 -237.319 199.167 2
-6 4 -15 543.787 261.454 2
-6 4 -16 -300.861 197.704 2
-6 3 15 364.633 248.531 1
-6 3 14 188.176 204.837 1
-6 3 13 839.768 293.516 1
-6 3 12 -174.443 260.684 1
-6 3 11 -139.701 223.071 1
-6 3 10 277.358 193.722 1
-6 3 9 1301.25 303.91 1
-6 3 8 3235.64 447.593 1
-6 3 7 1885.21 362.279 1
-6 3 6 4714.16 536.869 1
-6 3 5 860.282 256.204 1
-6 3 4 23541.8 1105.42 1
-6 3 3 2596.96 383.133 1
-6 3 2 1426.06 302.196 1
-6 3 1 600.507 203.971 1
-6 3 0 869.546 217.091 1
-6 3 -1 300.586 183.166 1
-6 3 -2 1082.24 300.265 1
-6 3 -3 103.765 104.073 1
-6 3 -4 1193.81 262.957 1
-6 3 -5 1761.02 300.119 1
-6 3 -5 2010.47 323.738 2
-6 3 -6 590.576 248.196 2
-6 3 -6 136.838 123.952 1
-6 3 -7 -226.683 139.308 2
-6 3 -7 -190.243 150.396 1
-6 3 -8 781.558 226.293 2
-6 3 -8 577.25 185.657 1
-6 3 -9 1225.52 273.772 2
-6 3 -10 90.058 145.176 2
-6 3 -11 693.678 255.019 2
-6 3 -12 397.557 194.592 2
-6 3 -13 -294.374 216.294 2
-6 3 -14 296.165 159.994 2
-6 3 -15 118.244 204.43 2
-6 2 15 258.225 255.109 1
-6 2 14 -124.293 175.926 1
-6 2 13 364.145 254.294 1
-6 2 12 436.541 271.889 1
-6 2 11 1174.84 343.006 1
-6 2 10 3292.26 503.927 1
-6 2 9 41.0286 176.52 1
-6 2 8 293.373 223.862 1
-6 2 7 801.468 271.193 1
-6 2 6 2472 406.677 1
-6 2 5 -36.8804 159.439 1
-6 2 4 1324.97 296.211 1
-6 2 3 1127.96 296.511 1
-6 2 2 2646.98 371.942 1
-6 2 1 2271.6 345.539 1
-6 2 0 602.915 183.798 1
-6 2 -1 3748.31 430.868 1
-6 2 -2 384.765 154.114 1
-6 2 -3 877.879 205.661 1
-6 2 -4 598.671 202.861 1
-6 2 -5 1437.3 264.487 2
-6 2 -5 1148.14 258.398 1
-6 2 -6 -196.605 158.884 2
-6 2 -6 173.315 157.215 1
-6 2 -7 -1.69016 113.178 2
-6 2 -7 26.0174 131.849 1
-6 2 -8 1191.34 289.905 2
-6 2 -8 1028.79 250.297 1
-6 2 -9 319.121 191.627 2
-6 2 -10 2479.14 411.892 2
-6 2 -11 456.808 205.034 2
-6 2 -12 19.0574 157.643 2
-6 2 -13 -179.164 217.064 2
-6 2 -14 -34.1563 160.131 2
-6 2 -15 107.282 207.166 2
-6 1 14 54.9367 199.535 1
-6 1 13 -327.658 304.787 1
-6 1 12 1193.49 323.24 1
-6 1 11 586.669 231.976 1
-6 1 10 4391.48 549.658 1
-6 1 9 979.586 264.347 1
-6 1 8 102.281 156.708 1
-6 1 7 7212.99 651.329 1
-6 1 6 1380.64 335.324 1
-6 1 5 687.862 233.567 1
-6 1 4 -191.32 182.152 1
-6 1 3 3147.14 428.286 1
-6 1 2 4268.07 466.187 1
-6 1 1 642.508 172.638 1
-6 1 0 2521.58 354.596 1
-6 1 -1 6737 565.14 1
-6 1 -2 9075.31 673.147 1
-6 1 -3 2636.05 375.098 1
-6 1 -4 3321 416.422 1
-6 1 -5 667.849 193.171 2
-6 1 -5 361.998 139.194 1
-6 1 -6 129.116 152.882 2
-6 1 -6 217.286 141.242 1
-6 1 -7 565.034 214.439 2
-6 1 -7 519.97 202.258 1
-6 1 -8 2439.17 369.767 2
-6 1 -8 2011.02 352.271 1
-6 1 -9 1548.18 295.837 2
-6 1 -10 361.986 156.088 2
-6 1 -11 233.9 190.406 2
-6 1 -12 74.5736 148.984 2
-6 1 -13 595.253 241.796 2
-6 1 -14 -186.689 202.2 2
-6 0 14 260.748 181.439 1
-6 0 13 17.9714 145.318 1
-6 0 12 65.563 148.943 1
-6 0 11 2734.53 455.075 1
-6 0 10 319.469 200.877 1
-6 0 9 -163.133 176.218 1
-6 0 8 455.132 275.769 1
-6 0 7 142.805 146.583 1
-6 0 6 6814.39 641.99 1
-6 0 5 9073.78 698.032 1
-6 0 4 57.1829 132.982 1
-6 0 3 377.421 194.331 1
-6 0 2 670.368 193.336 1
-6 0 1 301.057 180.508 1
-6 0 0 534.837 181.04 1
-6 0 -1 1844.85 330.497 1
-6 0 -2 11025.4 765.706 1
-6 0 -3 5239.96 546.469 1
-6 0 -4 811.133 210.611 2
-6 0 -4 194.106 135.19 1
-6 0 -5 1725.94 285.09 2
-6 0 -5 1685.36 311.929 1
-6 0 -6 754.369 180.023 2
-6 0 -6 324.201 179.157 1
-6 0 -7 -100.767 119.242 2
-6 0 -7 27.6428 120.74 1
-6 0 -8 1204.56 251.469 2
-6 0 -8 1724.47 341.461 1
-6 0 -9 1389.01 291.251 2
-6 0 -9 1172.24 295.401 1
-6 0 -10 628.434 210.029 2
-6 0 -11 520.17 226.895 2
-6 0 -12 303.922 177.276 2
-6 0 -13 197.74 161.432 2
-6 -1 14 699.105 210.894 1
-6 -1 13 2176.56 427.352 1
-6 -1 12 550.07 278.595 1
-6 -1 11 -179.036 155.486 1
-6 -1 10 638.412 254.737 1
-6 -1 9 1951.64 359.62 1
-6 -1 8 1274.68 276.922 1
-6 -1 7 6202.39 596.279 1
-6 -1 6 11984.2 831.547 1
-6 -1 5 581.057 186.076 1
-6 -1 4 3290.7 459.868 1
-6 -1 3 9029.14 722.676 1
-6 -1 2 1.98322 100.236 1
-6 -1 1 335.761 160.469 1
-6 -1 0 656.867 255.747 1
-6 -1 -1 2959.21 417.219 1
-6 -1 -2 254.373 159.931 1
-6 -1 -3 516.546 229.197 1
-6 -1 -4 1194.12 247.649 2
-6 -1 -4 1500.12 313.064 1
-6 -1 -5 508.541 163.014 2
-6 -1 -5 85.1627 110.449 1
-6 -1 -6 8.41138 129.825 2
-6 -1 -6 13.0641 133.793 1
-6 -1 -7 737.372 217.749 2
-6 -1 -7 517.999 187.807 1
-6 -1 -8 88.0558 132.121 2
-6 -1 -8 248.421 195.015 1
-6 -1 -9 340.024 189.91 2
-6 -1 -9 100.282 166.956 1
-6 -1 -10 300.614 164.151 2
-6 -1 -11 -46.274 121.11 2
-6 -2 14 205.277 185.716 1
-6 -2 13 88.3024 211.468 1
-6 -2 12 159.193 146.987 1
-6 -2 11 323.251 181.445 1
-6 -2 10 896.004 279.664 1
-6 -2 9 3445.41 466.315 1
-6 -2 8 532.071 242.71 1
-6 -2 7 302.457 185.663 1
-6 -2 6 1410.19 324.385 1
-6 -2 5 8466.64 728.702 1
-6 -2 4 12539.9 877.1 1
-6 -2 3 3329.89 443.117 1
-6 -2 2 12563 866.825 1
-6 -2 1 7216.01 661.383 1
-6 -2 0 105.342 140.577 1
-6 -2 -1 1989.23 385.113 1
-6 -2 -2 5276.35 578.327 1
-6 -2 -3 -94.5917 104.469 2
-6 -2 -3 -4.77404 152.244 1
-6 -2 -4 6674.35 677.693 1
-6 -2 -4 7642.68 527.861 2
-6 -2 -5 720.306 182.764 2
-6 -2 -5 781.25 261.915 1
-6 -2 -6 1544.11 246.432 2
-6 -2 -6 2123.45 422.9 1
-6 -2 -7 205.548 140.356 2
-6 -2 -7 242.326 175.122 1
-6 -2 -8 913.384 213.265 2
-6 -2 -8 742.532 228.714 1
-6 -2 -9 290.182 163.71 2
-6 -2 -9 392.83 228.104 1
-6 -2 -10 182.018 118.056 2
-6 -3 13 324.349 195.871 1
-6 -3 12 230.248 261.76 1
-6 -3 11 368.945 227.545 1
-6 -3 10 265.37 237.532 1
-6 -3 9 644.215 268.084 1
-6 -3 8 422.456 238.857 1
-6 -3 7 774.838 289.541 1
-6 -3 6 -42.3651 188.091 1
-6 -3 5 668.855 235.315 1
-6 -3 4 9468.04 817.443 1
-6 -3 3 19168.7 1144.66 1
-6 -3 2 45.3585 124.848 1
-6 -3 1 4215.03 557.566 1
-6 -3 0 2967.82 494.304 1
-6 -3 -1 5641.65 648.802 1
-6 -3 -2 1207.93 320.904 1
-6 -3 -3 8746.02 834.169 1
-6 -3 -3 8295.26 517.607 2
-6 -3 -4 4457.09 589.956 1
-6 -3 -4 4729.35 397.016 2
-6 -3 -5 1047.15 214.336 2
-6 -3 -5 1585.07 356.534 1
-6 -3 -6 630.041 180.344 2
-6 -3 -6 403.98 214.379 1
-6 -3 -7 20.7608 120.461 2
-6 -3 -7 127.239 203.844 1
-6 -3 -8 378.382 216.77 1
-6 -3 -9 331.102 200.063 1
-6 -4 13 52.4745 152.101 1
-6 -4 12 101.075 184.255 1
-6 -4 11 8.64217 191.011 1
-6 -4 10 949.018 267.091 1
-6 -4 9 515.117 244.465 1
-6 -4 8 -256.443 187.471 1
-6 -4 7 1254.19 337.32 1
-6 -4 6 198.865 164.769 1
-6 -4 5 299.38 187.496 1
-6 -4 4 9108.98 835.567 1
-6 -4 3 161.603 183.041 1
-6 -4 2 1286.41 314.221 1
-6 -4 1 6757.8 711.958 1
-6 -4 0 310.393 190.847 1
-6 -4 -1 4938.85 642.235 1
-6 -4 -2 6895.01 750.363 1
-6 -4 -2 7123.75 447.78 2
-6 -4 -3 2058.53 448.548 1
-6 -4 -4 2391.13 457.151 1
-6 -4 -5 7453.53 794.257 1
-6 -4 -6 4077.38 581.842 1
-6 -4 -7 65.1438 187.388 1
-6 -4 -8 -50.1566 156.281 1
-6 -4 -9 124.536 215.403 1
-6 -5 13 376.871 276.631 1
-6 -5 12 1158.09 360.92 1
-6 -5 11 609.975 259.048 1
-6 -5 10 970.77 315.644 1
-6 -5 9 1110.69 402.585 1
-6 -5 8 -94.2017 229.606 1
-6 -5 7 -71.0901 166.842 1
-6 -5 6 -10.2521 152.862 1
-6 -5 5 1785.63 376.814 1
-6 -5 4 1911.7 453.744 1
-6 -5 3 2453.21 452.849 1
-6 -5 2 1147.84 360.3 1
-6 -5 1 2839.19 520.271 1
-6 -5 0 154.027 185.066 1
-6 -5 -1 100.268 184.297 1
-6 -5 -2 1668.21 383.231 1
-6 -5 -3 530.963 272.6 1
-6 -5 -4 1242.79 402.664 1
-6 -5 -5 1609.12 393.602 1
-6 -5 -6 136.216 183.651 1
-6 -5 -7 1224.28 406.578 1
-6 -5 -8 272.848 267.932 1
-6 -5 -9 121.576 273.43 1
-6 -6 12 -135.136 217.713 1
-6 -6 11 734.483 327.579 1
-6 -6 10 -323.508 257.834 1
-6 -6 9 352.347 270.283 1
-6 -6 8 462.311 297.837 1
-6 -6 7 727.48 309.049 1
-6 -6 6 1173.49 372.223 1
-6 -6 5 995.566 333.199 1
-6 -6 4 -142.891 193.93 1
-6 -6 3 1242.58 381.522 1
-6 -6 2 4925.78 682.747 1
-6 -6 1 1621.7 407.289 1
-6 -6 0 1637.43 412.275 1
-6 -6 -1 2013.86 465.765 1
-6 -6 -2 22.1638 210.396 1
-6 -6 -3 -26.5341 162.204 1
-6 -6 -4 2158.27 488.328 1
-6 -6 -5 151.691 197.612 1
-6 -6 -6 105.766 167.633 1
-6 -6 -7 972.776 341.635 1
-6 -6 -8 633.78 359.538 1
-6 -6 -9 -86.6949 195.097 1
-6 -7 11 330.941 263.391 1
-6 -7 10 99.1542 182.826 1
-6 -7 9 1676.04 471.68 1
-6 -7 8 624.834 312.431 1
-6 -7 7 -163.758 197.283 1
-6 -7 6 871.762 336.706 1
-6 -7 5 729.955 268.854 1
-6 -7 4 -37.166 204.119 1
-6 -7 3 847.814 307.04 1
-6 -7 2 711.525 285.138 1
-6 -7 1 417.901 256.098 1
-6 -7 0 986.354 357.012 1
-6 -7 -1 3466.25 627.867 1
-6 -7 -2 3206.7 627.374 1
-6 -7 -3 1158.09 389.256 1
-6 -7 -4 433.461 298.908 1
-6 -7 -5 652.378 310.083 1
-6 -7 -6 818.042 350.629 1
-6 -7 -7 1073.55 394.108 1
-6 -7 -8 278.069 360.967 1
-6 -7 -9 39.8059 230.916 1
-6 -8 11 26.9128 222.72 1
-6 -8 10 444.666 222.656 1
-6 -8 9 32.7057 211.031 1
-6 -8 8 28.8147 249.525 1
-6 -8 7 3186.42 606.506 1
-6 -8 6 2354.78 531.198 1
-6 -8 5 11.621 215.97 1
-6 -8 4 -61.9188 176.77 1
-6 -8 3 -286.013 285.004 1
-6 -8 2 133.255 179.636 1
-6 -8 1 814.123 318.941 1
-6 -8 0 2895.46 618.305 1
-6 -8 -1 265.546 349.596 1
-6 -8 -2 -114.305 210.6 1
-6 -8 -3 -114.685 256.155 1
-6 -8 -4 513.14 335.199 1
-6 -8 -5 926.16 385.961 1
-6 -8 -6 561.016 415.701 1
-6 -8 -7 490.376 360.304 1
-6 -8 -8 63.7605 317.61 1
-6 -9 10 70.2653 196.235 1
-6 -9 9 -161.716 270.108 1
-6 -9 8 1416.67 488.939 1
-6 -9 7 985.488 422.41 1
-6 -9 6 -18.9023 219.165 1
-6 -9 5 116.798 235.556 1
-6 -9 4 -42.7838 209.15 1
-6 -9 3 -92.9275 316.923 1
-6 -9 2 1575.97 499.36 1
-6 -9 1 490.942 281.854 1
-6 -9 0 -265.45 265.987 1
-6 -9 -1 632.014 362.365 1
-6 -9 -2 571.097 353.207 1
-6 -9 -3 268.823 301.624 1
-6 -9 -4 415.667 326.703 1
-6 -9 -5 95.5491 261.037 1
-6 -9 -6 9.84047 299.477 1
-6 -9 -7 563.986 464.316 1
-6 -10 9 778.141 370.91 1
-6 -10 8 166.109 266.589 1
-6 -10 7 1241.82 488.411 1
-6 -10 6 673.159 416.177 1
-6 -10 5 110.355 262.728 1
-6 -10 4 -177.665 347.5 1
-6 -10 3 1869.16 578.79 1
-6 -10 2 1000.46 404.727 1
-6 -10 1 417.298 310.555 1
-6 -10 0 540.433 391.533 1
-6 -10 -1 592.898 255.978 1
-6 -10 -2 594.359 305.746 1
-6 -10 -3 444.558 403.589 1
-6 -10 -4 -274.976 347.845 1
-6 -10 -5 747.463 385.454 1
-6 -10 -6 869.961 490.483 1
-6 -11 8 98.5859 326.97 1
-6 -11 7 254.434 306.823 1
-6 -11 6 1116.37 474.218 1
-6 -11 5 1066.38 446.733 1
-6 -11 4 -319.044 381.132 1
-6 -11 3 245.892 341.241 1
-6 -11 2 92.7949 259.631 1
-6 -11 1 86.9623 226.371 1
-6 -11 0 90.8002 258.259 1
-6 -11 -1 81.8007 294.543 1
-6 -11 -2 1140.51 538.543 1
-6 -11 -3 -132.206 248.403 1
-6 -11 -4 -81.3248 311.636 1
-6 -11 -5 -240.672 264.884 1
-6 -12 6 -188.628 417.921 1
-6 -12 5 -59.0903 238.179 1
-6 -12 4 -151.667 271.091 1
-6 -12 3 109.506 270.21 1
-6 -12 2 406.769 391.618 1
-6 -12 1 496.212 459.215 1
-6 -12 0 538.378 348.452 1
-6 -12 -1 92.9845 359.219 1
-6 -12 -2 498.183 376.916 1
-6 -12 -3 95.9147 439.526 1
-7 14 7 478.695 302.7 1
-7 14 6 -209.97 249.346 1
-7 14 5 57.324 291.777 1
-7 14 4 -602.132 338.241 1
-7 14 3 -72.0328 178.963 1
-7 14 2 -23.8108 203.875 1
-7 14 1 661.912 319.738 1
-7 14 0 339.357 242.345 1
-7 13 9 -17.0088 272.384 1
-7 13 8 -105.963 197.119 1
-7 13 7 532.779 366.389 1
-7 13 6 266.659 295.613 1
-7 13 5 178.872 275.767 1
-7 13 4 -341.088 199.922 1
-7 13 3 -58.3319 210.891 1
-7 13 2 -11.9407 192.426 1
-7 13 1 376.36 270.088 1
-7 13 0 -21.2787 165.455 1
-7 13 -1 22.1975 218.918 1
-7 13 -1 91.822 183.03 2
-7 13 -2 111.007 237.606 1
-7 13 -2 -24.5375 198.807 2
-7 13 -3 -259.667 196.454 2
-7 13 -4 114.807 224.437 2
-7 13 -5 -283.721 193.947 2
-7 13 -6 546.322 255.411 2
-7 13 -7 41.5815 206.752 2
-7 13 -8 4.27555 181.094 2
-7 13 -9 84.0825 191.787 2
-7 12 10 35.5339 199.424 1
-7 12 9 -39.5112 224.537 1
-7 12 8 535.209 295.848 1
-7 12 7 359.323 260.031 1
-7 12 6 -295.115 221.185 1
-7 12 5 -156.26 259.024 1
-7 12 4 679.593 314.341 1
-7 12 3 150.699 201 1
-7 12 2 -450.164 220.009 1
-7 12 1 -142.102 214.779 1
-7 12 0 -16.0092 154.608 1
-7 12 -1 -446.009 257.338 1
-7 12 -2 127.187 160.924 1
-7 12 -2 360.872 232.38 2
-7 12 -3 445.651 235.146 1
-7 12 -3 483.854 236.398 2
-7 12 -4 -69.8797 162.223 2
-7 12 -5 -11.4343 197.052 2
-7 12 -6 -58.2259 168.389 2
-7 12 -7 448.109 200.307 2
-7 12 -8 67.7943 209.157 2
-7 12 -9 -431.025 256.542 2
-7 12 -10 -260.556 256.911 2
-7 12 -11 -228.65 270.123 2
-7 11 11 120.436 226.189 1
-7 11 10 -80.213 199.032 1
-7 11 9 -332.861 291.668 1
-7 11 8 620.995 337.543 1
-7 11 7 -316.115 287.846 1
-7 11 6 1895.31 458.284 1
-7 11 5 1364.84 361.798 1
-7 11 4 255.809 180.016 1
-7 11 3 -477.613 278.697 1
-7 11 2 -2.65441 197.947 1
-7 11 1 802.94 316.107 1
-7 11 0 -107.823 151.43 1
-7 11 -1 -310.4 241.302 1
-7 11 -2 63.3568 145.636 1
-7 11 -3 653.886 312.509 1
-7 11 -3 -108.682 185.736 2
-7 11 -4 124.014 180.675 2
-7 11 -4 456.244 250.745 1
-7 11 -5 236.983 173.035 2
-7 11 -6 261.055 197.466 2
-7 11 -7 34.7678 179.653 2
-7 11 -8 -36.0889 165.143 2
-7 11 -9 406.514 274.779 2
-7 11 -10 -330.758 233.988 2
-7 11 -11 -238.607 213.986 2
-7 11 -12 417.998 257.411 2
-7 10 12 315.222 268.476 1
-7 10 11 327.802 257.119 1
-7 10 10 -104.905 262.612 1
-7 10 9 35.7788 221.166 1
-7 10 8 84.173 230.359 1
-7 10 7 244.099 232.407 1
-7 10 6 -4.31826 193.266 1
-7 10 5 196.641 163.47 1
-7 10 4 1145.84 366.106 1
-7 10 3 350.866 221.581 1
-7 10 2 -12.4955 221.04 1
-7 10 1 539.793 222.893 1
-7 10 0 -16.5213 189.422 1
-7 10 -1 -39.183 136.941 1
-7 10 -2 106.266 226.211 1
-7 10 -3 411.218 193.142 1
-7 10 -4 -4.56517 138.304 2
-7 10 -4 85.9362 184.509 1
-7 10 -5 283.306 236.773 2
-7 10 -5 -80.6179 150.542 1
-7 10 -6 -255.892 180.282 2
-7 10 -7 -239.555 222.073 2
-7 10 -8 170.647 244.467 2
-7 10 -9 617.409 283.559 2
-7 10 -10 425.879 196.86 2
-7 10 -11 -100.289 255.421 2
-7 10 -12 481.112 269.392 2
-7 10 -13 492.073 316.821 2
-7 9 13 -672.785 357.132 1
-7 9 12 325.426 251.278 1
-7 9 11 1133.81 398.806 1
-7 9 10 418.5 269.537 1
-7 9 9 21.5741 193.23 1
-7 9 8 39.9111 247.358 1
-7 9 7 56.7287 194.91 1
-7 9 6 108.927 153.819 1
-7 9 5 734.152 306.684 1
-7 9 4 102.03 162.904 1
-7 9 3 356.701 226.193 1
-7 9 2 307.734 233.093 1
-7 9 1 291.782 224.822 1
-7 9 0 -188.718 179.641 1
-7 9 -1 -213.773 200.002 1
-7 9 -2 519.305 225.725 1
-7 9 -3 500.827 243.929 1
-7 9 -4 914.966 298.591 2
-7 9 -4 754.491 267.693 1
-7 9 -5 1122.2 329.45 2
-7 9 -5 244.369 155.19 1
-7 9 -6 462.247 225.17 2
-7 9 -7 472.283 263.163 2
-7 9 -8 452.404 267.286 2
-7 9 -9 473.082 261.587 2
-7 9 -10 168.721 219.015 2
-7 9 -11 178.26 178.289 2
-7 9 -12 -210.856 246.974 2
-7 9 -13 -38.2247 218.079 2
-7 9 -14 -83.8283 231.268 2
-7 8 13 298.058 231.235 1
-7 8 12 324.365 233.19 1
-7 8 11 294.532 175.244 1
-7 8 10 278.833 299.801 1
-7 8 9 -399.309 220.286 1
-7 8 8 123.537 234.278 1
-7 8 7 271.785 206.463 1
-7 8 6 9.0345 230.803 1
-7 8 5 294.359 183.516 1
-7 8 4 184.036 162.637 1
-7 8 3 338.256 219.903 1
-7 8 2 171.241 179.021 1
-7 8 1 193.699 188.357 1
-7 8 0 73.4816 202.245 1
-7 8 -1 956.844 284.35 1
-7 8 -2 254.446 172.937 1
-7 8 -3 517.473 214.996 1
-7 8 -4 1520.62 339.904 2
-7 8 -4 1722.4 372.816 1
-7 8 -5 2257.7 387.026 2
-7 8 -5 2446.69 414.189 1
-7 8 -6 2108.29 386.902 2
-7 8 -7 1200.34 335.289 2
-7 8 -8 -26.7336 174.94 2
-7 8 -9 423.622 249.033 2
-7 8 -10 303.227 263.867 2
-7 8 -11 -105.711 175.506 2
-7 8 -12 -34.1013 233.777 2
-7 8 -13 455.174 283.373 2
-7 8 -14 -81.9568 186.706 2
-7 7 14 -187.514 218.09 1
-7 7 13 679.226 375.12 1
-7 7 12 249.91 269.82 1
-7 7 11 -111.789 223.207 1
-7 7 10 148.144 200.355 1
-7 7 9 334.501 230.728 1
-7 7 8 81.725 159.884 1
-7 7 7 19.248 195.061 1
-7 7 6 129.189 240.949 1
-7 7 5 -158.835 196.592 1
-7 7 4 -34.2182 208.054 1
-7 7 3 23.1804 150.992 1
-7 7 2 1645.87 362.318 1
-7 7 1 2566.27 413.715 1
-7 7 0 774.999 251.204 1
-7 7 -1 -81.3742 130.25 1
-7 7 -2 -122.858 176.197 1
-7 7 -3 107.877 144.9 1
-7 7 -4 2897.93 421.09 1
-7 7 -5 4098.41 498.731 1
-7 7 -5 4316.01 546.211 2
-7 7 -6 124.788 151.405 1
-7 7 -6 447.705 232.641 2
-7 7 -7 106.632 139.054 2
-7 7 -8 405.776 217.659 2
-7 7 -9 -281.887 204.148 2
-7 7 -10 -199.001 155.949 2
-7 7 -11 531.914 225.61 2
-7 7 -12 138.545 288.399 2
-7 7 -13 -448.775 259.617 2
-7 7 -14 359.802 281.031 2
-7 7 -15 252.836 309.817 2
-7 6 14 -271.608 254.152 1
-7 6 13 -485.967 281.891 1
-7 6 12 329.925 247.586 1
-7 6 11 213.632 217.343 1
-7 6 10 88.0356 169.247 1
-7 6 9 111.692 191.41 1
-7 6 8 1596.67 391.737 1
-7 6 7 242.914 159.986 1
-7 6 6 125.333 157.206 1
-7 6 5 154.799 203.517 1
-7 6 4 460.549 210.779 1
-7 6 3 4209.42 534.903 1
-7 6 2 3470.26 487.378 1
-7 6 1 437.3 233.705 1
-7 6 0 27.4619 155.474 1
-7 6 -1 691.799 228.284 1
-7 6 -2 806.853 252.709 1
-7 6 -3 -94.8025 174.023 1
-7 6 -4 553.396 213.14 1
-7 6 -5 144.934 142.851 1
-7 6 -5 344.129 207.12 2
-7 6 -6 1619.06 335.522 1
-7 6 -6 1508.26 357.036 2
-7 6 -7 480.105 205.256 2
-7 6 -8 -316.458 221.565 2
-7 6 -9 -333.104 219.97 2
-7 6 -10 295.77 264.783 2
-7 6 -11 560.673 261.493 2
-7 6 -12 241.547 204.13 2
-7 6 -13 -145.104 185.034 2
-7 6 -14 -319.454 310.604 2
-7 6 -15 -334.229 258.213 2
-7 5 14 340.565 272.536 1
-7 5 13 90.848 202.989 1
-7 5 12 -74.7307 212.594 1
-7 5 11 67.0113 204.74 1
-7 5 10 -181.214 251.947 1
-7 5 9 645.411 313.398 1
-7 5 8 969.896 304.806 1
-7 5 7 -23.2294 194.667 1
-7 5 6 292.126 243.41 1
-7 5 5 295.297 211.188 1
-7 5 4 226.481 209.153 1
-7 5 3 3408.6 468.261 1
-7 5 2 2346.55 379.141 1
-7 5 1 311.3 143.67 1
-7 5 0 116.156 180.41 1
-7 5 -1 52.4694 134.534 1
-7 5 -2 93.4095 177.158 1
-7 5 -3 1279.06 295.021 1
-7 5 -4 2287.35 368.667 1
-7 5 -5 68.9445 157.63 1
-7 5 -5 77.3572 129.891 2
-7 5 -6 -216.61 146.393 1
-7 5 -6 -254.014 208.37 2
-7 5 -7 128.867 181.024 2
-7 5 -8 -13.3798 135.126 2
-7 5 -9 -58.496 185.345 2
-7 5 -10 163.154 175.513 2
-7 5 -11 -5.01222 192.547 2
-7 5 -12 -121.721 200.773 2
-7 5 -13 -396.177 277.975 2
-7 5 -14 530.764 309.723 2
-7 4 14 -21.0505 243.963 1
-7 4 13 245.143 255.44 1
-7 4 12 366.348 216.374 1
-7 4 11 830.767 251.874 1
-7 4 10 401.689 241.646 1
-7 4 9 436.442 238.904 1
-7 4 8 1301.35 356.318 1
-7 4 7 164.664 189.674 1
-7 4 6 341.704 233.95 1
-7 4 5 455.099 242.798 1
-7 4 4 1449.28 323.35 1
-7 4 3 -71.1601 155.601 1
-7 4 2 134.357 150.533 1
-7 4 1 -88.6319 220.208 1
-7 4 0 -189.209 194.374 1
-7 4 -1 1226.9 291.008 1
-7 4 -2 3942.5 494.135 1
-7 4 -3 57.5136 160.873 1
-7 4 -4 409.046 204.176 1
-7 4 -5 214.113 125.152 1
-7 4 -5 909.529 257.496 2
-7 4 -6 394.451 233.879 2
-7 4 -6 400.424 218.159 1
-7 4 -7 1406.66 318.619 2
-7 4 -7 1362.41 309.658 1
-7 4 -8 13.0094 156.664 2
-7 4 -9 -1.13433 155.413 2
-7 4 -10 273.143 218.443 2
-7 4 -11 -88.9319 222.333 2
-7 4 -12 88.4757 169.33 2
-7 4 -13 420.998 252.398 2
-7 4 -14 76.8405 229.618 2
-7 3 14 377.458 277.032 1
-7 3 13 -24.2724 210.577 1
-7 3 12 227.283 227.794 1
-7 3 11 329.123 203.173 1
-7 3 10 185.754 179.063 1
-7 3 9 2119.65 468.795 1
-7 3 8 11.0574 155.598 1
-7 3 7 491.095 225.209 1
-7 3 6 218.677 193.94 1
-7 3 5 554.699 279.636 1
-7 3 4 -62.0892 161.52 1
-7 3 3 41.7335 148.162 1
-7 3 2 -48.6803 145.275 1
-7 3 1 417.999 197.595 1
-7 3 0 446.958 221.839 1
-7 3 -1 149.921 139.778 1
-7 3 -2 -122.845 124.761 1
-7 3 -3 2997.28 412.721 1
-7 3 -4 6031.5 594.539 1
-7 3 -5 100.608 136.489 2
-7 3 -5 -100.056 139.581 1
-7 3 -6 369.665 216.639 2
-7 3 -6 31.8636 148.793 1
-7 3 -7 429.331 195.476 2
-7 3 -7 611.116 236.842 1
-7 3 -8 695.698 243.771 2
-7 3 -9 985.125 263.253 2
-7 3 -10 100.252 170.341 2
-7 3 -11 -54.375 144.259 2
-7 3 -12 -100.935 229.222 2
-7 3 -13 66.0529 214.763 2
-7 3 -14 -317.003 295.964 2
-7 2 14 -340.129 269.844 1
-7 2 13 523.865 258.263 1
-7 2 12 -118.423 184.89 1
-7 2 11 41.6126 160.646 1
-7 2 10 564.248 275.349 1
-7 2 9 93.6864 204.026 1
-7 2 8 418.014 211.571 1
-7 2 7 -14.2122 183.52 1
-7 2 6 132.274 195.486 1
-7 2 5 2914.59 451.484 1
-7 2 4 245.577 177.619 1
-7 2 3 256.108 163.708 1
-7 2 2 189.678 181.731 1
-7 2 1 3171.89 454.675 1
-7 2 0 -77.47 189.806 1
-7 2 -1 484.29 162.831 1
-7 2 -2 6059.3 598.642 1
-7 2 -3 467.047 209.328 1
-7 2 -4 94.9386 147.364 1
-7 2 -5 244.834 142.761 2
-7 2 -5 2.21117 110.809 1
-7 2 -6 2411.7 384.645 2
-7 2 -6 2593.28 402.463 1
-7 2 -7 1142.42 281.944 2
-7 2 -7 1129.88 290.944 1
-7 2 -8 1279.16 313.885 2
-7 2 -9 128.3 172.303 2
-7 2 -10 253.762 211.59 2
-7 2 -11 172.578 222.43 2
-7 2 -12 154.891 222.864 2
-7 2 -13 734.328 264.053 2
-7 1 14 944.509 340.068 1
-7 1 13 317.025 252.01 1
-7 1 12 -74.9719 154.353 1
-7 1 11 457.796 304.357 1
-7 1 10 99.8313 191.779 1
-7 1 9 147.4 172.201 1
-7 1 8 548.274 250.721 1
-7 1 7 672.46 248.299 1
-7 1 6 2527.42 439.21 1
-7 1 5 466.146 219.415 1
-7 1 4 1504.91 315.684 1
-7 1 3 939.798 247.252 1
-7 1 2 1711.69 343.448 1
-7 1 1 474.029 190.346 1
-7 1 0 6545.39 633.79 1
-7 1 -1 118.897 160.515 1
-7 1 -2 9705.32 779.503 1
-7 1 -3 995.173 265.534 1
-7 1 -4 718.63 206.842 2
-7 1 -4 1123.21 286.678 1
-7 1 -5 3055.83 425.218 2
-7 1 -5 3554.41 487.56 1
-7 1 -6 315.275 147.797 2
-7 1 -6 65.407 150.339 1
-7 1 -7 424.622 200.498 2
-7 1 -7 4.93294 153.351 1
-7 1 -8 105.841 177.733 2
-7 1 -8 229.428 197.611 1
-7 1 -9 141.325 130.882 2
-7 1 -10 766.362 259.091 2
-7 1 -11 120.406 189.641 2
-7 1 -12 118.341 161.139 2
-7 0 14 -326.094 259.126 1
-7 0 13 450.151 315.292 1
-7 0 12 380.402 230.908 1
-7 0 11 388.828 192.587 1
-7 0 10 51.1311 196.654 1
-7 0 9 1709.42 376.171 1
-7 0 8 2352.51 433.655 1
-7 0 7 1363.16 360.705 1
-7 0 6 1066.38 306.039 1
-7 0 5 661.661 232.942 1
-7 0 4 5992.68 644.435 1
-7 0 3 308.468 201.536 1
-7 0 2 10831.4 827.419 1
-7 0 1 4004.5 516.274 1
-7 0 0 2615.66 426.247 1
-7 0 -1 2132.13 369.153 1
-7 0 -2 1232.23 329.581 1
-7 0 -3 190.674 157.899 1
-7 0 -4 97.1315 160.208 2
-7 0 -4 249.812 177.818 1
-7 0 -5 4191.08 548.647 1
-7 0 -5 4969.49 508.471 2
-7 0 -6 2280.45 359.804 2
-7 0 -6 1372.51 324.042 1
-7 0 -7 473.768 196.811 2
-7 0 -7 207.208 148.873 1
-7 0 -8 2441.78 383.927 2
-7 0 -8 1513.11 355.877 1
-7 0 -9 72.7798 154.88 2
-7 0 -10 23.1228 130.846 2
-7 0 -11 395.515 202.967 2
-7 -1 14 34.1736 191.805 1
-7 -1 13 191.957 200.309 1
-7 -1 12 140.874 207.192 1
-7 -1 11 936.057 352.795 1
-7 -1 10 1286.23 342.334 1
-7 -1 9 282.068 257.237 1
-7 -1 8 1376.13 365.584 1
-7 -1 7 432.358 268.857 1
-7 -1 6 4431.27 580.506 1
-7 -1 5 4094.65 543.154 1
-7 -1 4 1210.53 295.623 1
-7 -1 3 14296 982.694 1
-7 -1 2 3337.14 502.948 1
-7 -1 1 -9.70576 208.295 1
-7 -1 0 1671.59 369.967 1
-7 -1 -1 98.24 176.951 1
-7 -1 -2 -222.376 199.281 1
-7 -1 -3 2842.92 458.277 1
-7 -1 -4 6799.79 701.012 1
-7 -1 -4 7529.05 591.18 2
-7 -1 -5 405.012 180.598 2
-7 -1 -5 488.755 220.745 1
-7 -1 -6 211.291 156.118 2
-7 -1 -6 133.168 181.455 1
-7 -1 -7 317.535 188.617 2
-7 -1 -7 670.192 296.803 1
-7 -1 -8 -141.589 183.213 2
-7 -1 -8 -34.7956 153.993 1
-7 -1 -9 134.213 164.669 2
-7 -2 13 566.777 315.9 1
-7 -2 12 873.406 329.32 1
-7 -2 11 61.7858 179.657 1
-7 -2 10 336.389 166.316 1
-7 -2 9 809.661 276.863 1
-7 -2 8 -80.5404 187.47 1
-7 -2 7 5473.1 637.828 1
-7 -2 6 4400.21 594.937 1
-7 -2 5 1785.86 371.38 1
-7 -2 4 3937.6 537.312 1
-7 -2 3 2294.12 402.767 1
-7 -2 2 -183.997 171.237 1
-7 -2 1 227.119 167.435 1
-7 -2 0 2739.42 493.212 1
-7 -2 -1 80.8831 131.593 1
-7 -2 -2 2714.25 477.632 1
-7 -2 -3 2716.64 490.029 1
-7 -2 -3 3086.31 381.844 2
-7 -2 -4 189.914 130.041 2
-7 -2 -4 390.357 225.478 1
-7 -2 -5 723.861 211.426 2
-7 -2 -5 754.468 283.903 1
-7 -2 -6 4535.44 628.267 1
-7 -2 -6 4180.17 440.169 2
-7 -2 -7 2181.1 322.406 2
-7 -2 -7 2676.12 492.151 1
-7 -2 -8 629.679 313.241 1
-7 -3 13 512.886 278.474 1
-7 -3 12 -88.3056 209.469 1
-7 -3 11 -209 150.756 1
-7 -3 10 390.197 256.111 1
-7 -3 9 146.993 164.633 1
-7 -3 8 642.93 291.923 1
-7 -3 7 136.213 161.769 1
-7 -3 6 943.977 288.787 1
-7 -3 5 908.98 239.322 1
-7 -3 4 420.451 237.213 1
-7 -3 3 1408.31 366.106 1
-7 -3 2 170.171 124.805 1
-7 -3 1 1152.31 285.003 1
-7 -3 0 48.1131 129.113 1
-7 -3 -1 3203.74 530.982 1
-7 -3 -2 1358.06 386.671 1
-7 -3 -3 333.637 141.912 2
-7 -3 -3 462.496 219.376 1
-7 -3 -4 110.682 101.558 2
-7 -3 -4 127.017 154.714 1
-7 -3 -5 802.01 320.666 1
-7 -3 -6 516.577 257.504 1
-7 -3 -7 1043.21 381.28 1
-7 -3 -8 532.107 289.584 1
-7 -4 13 544.004 302.362 1
-7 -4 12 1022.05 380.626 1
-7 -4 11 -119.833 153.092 1
-7 -4 10 526.812 289.292 1
-7 -4 9 -292.685 226.713 1
-7 -4 8 3340.98 562.845 1
-7 -4 7 1163.72 385.838 1
-7 -4 6 122.334 172.346 1
-7 -4 5 1389.41 372.745 1
-7 -4 4 1324.89 370.008 1
-7 -4 3 -201.848 189.68 1
-7 -4 2 184.119 206.47 1
-7 -4 1 782.225 323.282 1
-7 -4 0 664.683 291.203 1
-7 -4 -1 499.427 243.165 1
-7 -4 -2 1116.18 329.567 1
-7 -4 -3 90.85 246.887 1
-7 -4 -4 392.034 244.349 1
-7 -4 -5 2474.97 493.674 1
-7 -4 -6 422.074 290.731 1
-7 -4 -7 46.4992 191.324 1
-7 -4 -8 821.387 329.555 1
-7 -5 12 122.174 192.533 1
-7 -5 11 -370.854 269.083 1
-7 -5 10 78.0916 211.297 1
-7 -5 9 2962.92 570.802 1
-7 -5 8 484.137 227.878 1
-7 -5 7 -80.1634 149.776 1
-7 -5 6 1108.28 351.003 1
-7 -5 5 167.102 246.688 1
-7 -5 4 913.814 319.073 1
-7 -5 3 276.802 229.844 1
-7 -5 2 289.593 248.402 1
-7 -5 1 -219.672 248.905 1
-7 -5 0 818.466 340.557 1
-7 -5 -1 1613.53 384.462 1
-7 -5 -2 -253.255 233.604 1
-7 -5 -3 -82.2488 149.818 1
-7 -5 -4 57.1589 202.328 1
-7 -5 -5 -327.585 299.412 1
-7 -5 -6 535.878 290.158 1
-7 -5 -7 812.035 356.963 1
-7 -5 -8 806.952 358.496 1
-7 -6 12 117.524 229.172 1
-7 -6 11 81.5735 208.678 1
-7 -6 10 -43.2021 224.015 1
-7 -6 9 565.394 375.07 1
-7 -6 8 -37.0512 215.144 1
-7 -6 7 88.8193 220.71 1
-7 -6 6 1253.55 399.019 1
-7 -6 5 365.536 268.424 1
-7 -6 4 363.105 158.565 1
-7 -6 3 523.436 284.592 1
-7 -6 2 2305.31 479.986 1
-7 -6 1 753.299 264.886 1
-7 -6 0 689.149 290.132 1
-7 -6 -1 251.83 167.797 1
-7 -6 -2 747.548 349.579 1
-7 -6 -3 23.9311 268.821 1
-7 -6 -4 120.73 271.085 1
-7 -6 -5 1368.46 445.581 1
-7 -6 -6 826.128 330.491 1
-7 -6 -7 94.9167 215.662 1
-7 -6 -8 -357.685 278.873 1
-7 -7 11 455.995 301.182 1
-7 -7 10 1077.88 433.857 1
-7 -7 9 98.2521 266.645 1
-7 -7 8 646.33 344.722 1
-7 -7 7 2182.87 532.787 1
-7 -7 6 -90.5449 228.491 1
-7 -7 5 1120.04 375.145 1
-7 -7 4 382.811 272.883 1
-7 -7 3 1094.25 369.422 1
-7 -7 2 463.885 253.706 1
-7 -7 1 624.06 360.81 1
-7 -7 0 -170.275 273.206 1
-7 -7 -1 788.486 384.654 1
-7 -7 -2 574.241 337.581 1
-7 -7 -3 685.038 358.436 1
-7 -7 -4 1127.07 472.035 1
-7 -7 -5 689.32 399.729 1
-7 -7 -6 -22.9214 273.061 1
-7 -7 -7 315.633 244.884 1
-7 -8 10 238.798 339.862 1
-7 -8 9 590.789 345.14 1
-7 -8 8 -243.247 376.585 1
-7 -8 7 -82.2322 249.781 1
-7 -8 6 407.742 280.678 1
-7 -8 5 1631.04 464.948 1
-7 -8 4 167.672 254.647 1
-7 -8 3 825.051 343.855 1
-7 -8 2 67.4487 306.225 1
-7 -8 1 109.139 271.416 1
-7 -8 0 226.713 270.179 1
-7 -8 -1 420.92 303.076 1
-7 -8 -2 1375.82 475.054 1
-7 -8 -3 1242.15 489.875 1
-7 -8 -4 -183.942 245.434 1
-7 -8 -5 116.088 221.88 1
-7 -8 -6 327.848 380.465 1
-7 -9 9 567.33 394.522 1
-7 -9 8 -46.8597 269.412 1
-7 -9 7 941.057 382.241 1
-7 -9 6 140.821 298.358 1
-7 -9 5 1331.51 483.124 1
-7 -9 4 932.688 386.997 1
-7 -9 3 162.557 321.689 1
-7 -9 2 644.276 330.318 1
-7 -9 1 350.724 324.066 1
-7 -9 0 1373.3 454.993 1
-7 -9 -1 1345.36 495.222 1
-7 -9 -2 228.132 228.1 1
-7 -9 -3 590.384 370.494 1
-7 -9 -4 175.486 317.649 1
-7 -9 -5 628.215 432.94 1
-7 -10 8 48.681 318.035 1
-7 -10 7 107.812 276.463 1
-7 -10 6 755.554 437.306 1
-7 -10 5 -597.408 428.472 1
-7 -10 4 -10.4267 319.807 1
-7 -10 3 304.903 389.392 1
-7 -10 2 207.43 304.106 1
-7 -10 1 171.582 345.447 1
-7 -10 0 219.318 322.408 1
-7 -10 -1 -265.063 409.797 1
-7 -10 -2 239.905 323.257 1
-7 -10 -3 65.6134 285.163 1
-7 -10 -4 -36.1116 366.865 1
-7 -11 6 180.176 298.418 1
-7 -11 5 223.286 295.948 1
-7 -11 4 110.779 317.335 1
-7 -11 3 -2.85635 349.148 1
-7 -11 2 136.725 289.833 1
-7 -11 1 -137.95 315.558 1
-7 -11 0 8.43758 279.414 1
-7 -11 -1 410.943 457.369 1
-7 -11 -2 495.709 367.751 1
-8 13 7 60.6112 289.805 1
-8 13 6 44.013 239.151 1
-8 13 5 -165.192 230.201 1
-8 13 4 486.637 327.584 1
-8 13 3 219.364 193.667 1
-8 13 2 -381.584 306.118 1
-8 13 1 497.629 293.987 1
-8 13 0 164.567 239.394 1
-8 13 -1 -168.01 167.213 2
-8 13 -2 -119.342 164.968 2
-8 13 -3 -334.478 206.759 2
-8 13 -4 -345.036 250.106 2
-8 13 -5 -24.6434 206.203 2
-8 13 -6 730.559 294.131 2
-8 12 9 -218.718 202.439 1
-8 12 8 144.064 281.353 1
-8 12 7 1098.67 406.954 1
-8 12 6 392.358 253.554 1
-8 12 5 -430.116 318.287 1
-8 12 4 -211.156 278.681 1
-8 12 3 826.906 370.274 1
-8 12 2 424.704 247.269 1
-8 12 1 -462.196 276.498 1
-8 12 0 550.552 287.879 1
-8 12 -1 425.406 241.364 1
-8 12 -2 404.575 242.286 2
-8 12 -3 -68.8139 191.208 2
-8 12 -4 118.455 201.203 2
-8 12 -5 306.614 218.167 2
-8 12 -6 527.715 308.831 2
-8 12 -7 23.5463 193.034 2
-8 12 -8 619.341 258.908 2
-8 12 -9 -796.112 352.014 2
-8 11 10 36.4508 226.493 1
-8 11 9 266.171 311.906 1
-8 11 8 -62.4168 205.615 1
-8 11 7 378.523 308.147 1
-8 11 6 377.006 305.011 1
-8 11 5 -192.56 237.515 1
-8 11 4 79.1758 192.011 1
-8 11 3 -259.264 318.614 1
-8 11 2 8.80795 175.769 1
-8 11 1 351.072 265.831 1
-8 11 0 -8.41164 182.637 1
-8 11 -1 462.2 262.687 1
-8 11 -2 -705.618 322.005 1
-8 11 -3 75.6604 163.311 2
-8 11 -3 -481.298 300.12 1
-8 11 -4 -85.7832 213.763 2
-8 11 -5 -52.357 206.158 2
-8 11 -6 -30.8973 231.823 2
-8 11 -7 323.897 205.484 2
-8 11 -8 290.622 275.967 2
-8 11 -9 21.2982 226.579 2
-8 11 -10 34.0396 194.944 2
-8 10 11 -565.605 355.69 1
-8 10 10 -90.018 204.869 1
-8 10 9 -38.9444 257.15 1
-8 10 8 814.316 340.725 1
-8 10 7 -299.752 295.367 1
-8 10 6 219.533 219.854 1
-8 10 5 1431.42 434.295 1
-8 10 4 266.162 198.194 1
-8 10 3 155.206 224.695 1
-8 10 2 235.178 269.734 1
-8 10 1 298.072 225.841 1
-8 10 0 800.003 290.448 1
-8 10 -1 131.437 165.05 1
-8 10 -2 75.7591 161.294 1
-8 10 -3 -317.669 222.718 1
-8 10 -4 342.2 203.918 2
-8 10 -5 846.294 290.921 2
-8 10 -6 714.775 307.128 2
-8 10 -7 301.908 267.17 2
-8 10 -8 1226.17 410.048 2
-8 10 -9 -217.437 179.337 2
-8 10 -10 -31.8283 198.432 2
-8 10 -11 -158.078 182.416 2
-8 10 -12 39.0334 191.254 2
-8 9 12 1.90861 265.222 1
-8 9 11 263.176 284.364 1
-8 9 10 3.53164 228.028 1
-8 9 9 609.948 349.855 1
-8 9 8 -752.714 368.396 1
-8 9 7 23.5226 251.164 1
-8 9 6 -222.096 227.698 1
-8 9 5 279.336 185.375 1
-8 9 4 653.122 293.692 1
-8 9 3 221.275 170.71 1
-8 9 2 -61.9829 164.205 1
-8 9 1 107.347 169.414 1
-8 9 0 -122.307 215.063 1
-8 9 -1 505.166 251.241 1
-8 9 -2 -225.153 180.824 1
-8 9 -3 -137.354 194.791 1
-8 9 -4 7.52344 162.525 2
-8 9 -4 -245.071 192.064 1
-8 9 -5 24.6021 171.636 2
-8 9 -6 364.275 201.18 2
-8 9 -7 -237.387 170.345 2
-8 9 -8 -9.80043 177.174 2
-8 9 -9 122.321 221.798 2
-8 9 -10 469.624 266.343 2
-8 9 -11 301.414 274.733 2
-8 9 -12 321.641 273.969 2
-8 8 12 -292.921 258.772 1
-8 8 11 891.004 397.057 1
-8 8 10 -90.6557 198.031 1
-8 8 9 62.4704 229.896 1
-8 8 8 240.187 214.656 1
-8 8 7 1991.08 435.681 1
-8 8 6 459.604 313.42 1
-8 8 5 594.439 273.379 1
-8 8 4 467.308 241.421 1
-8 8 3 355.511 229.718 1
-8 8 2 634.528 272.522 1
-8 8 1 602.246 284.371 1
-8 8 0 49.4662 180.708 1
-8 8 -1 -136.341 174.579 1
-8 8 -2 444.157 216.456 1
-8 8 -3 92.5551 181.995 1
-8 8 -4 57.9931 144.07 1
-8 8 -4 313.639 223.716 2
-8 8 -5 -112.99 155.706 1
-8 8 -5 226.902 163.294 2
-8 8 -6 545.753 298.411 2
-8 8 -7 146.229 208.142 2
-8 8 -8 -24.5661 172.052 2
-8 8 -9 85.2693 248.629 2
-8 8 -10 -20.3892 186.726 2
-8 8 -11 26.9786 228.008 2
-8 8 -12 197.988 247.536 2
-8 8 -13 -162.921 180.279 2
-8 7 13 -281.121 337.199 1
-8 7 12 971.029 447.487 1
-8 7 11 -393.896 312.919 1
-8 7 10 -132.875 228.361 1
-8 7 9 1677.96 461.473 1
-8 7 8 -56.9682 261.208 1
-8 7 7 1405.03 402.185 1
-8 7 6 2017.68 425.843 1
-8 7 5 514.436 222.362 1
-8 7 4 -36.3115 201.992 1
-8 7 3 -86.3328 178.21 1
-8 7 2 26.8042 176.209 1
-8 7 1 192.901 159.393 1
-8 7 0 189.73 167.097 1
-8 7 -1 39.1664 186.331 1
-8 7 -2 634.974 280.754 1
-8 7 -3 -465.439 266.162 1
-8 7 -4 317.202 161.298 1
-8 7 -5 379.881 223.968 1
-8 7 -5 94.1147 154.883 2
-8 7 -6 124.95 218.011 2
-8 7 -7 -352.91 259.511 2
-8 7 -8 250.427 184.026 2
-8 7 -9 -221.441 199.122 2
-8 7 -10 547.941 274.688 2
-8 7 -11 724.13 324.24 2
-8 7 -12 -1.52605 186.089 2
-8 7 -13 395.915 277.44 2
-8 6 13 441.639 328.064 1
-8 6 12 77.7371 217.588 1
-8 6 11 594.369 332.426 1
-8 6 10 175.627 212.499 1
-8 6 9 -126.474 253.809 1
-8 6 8 376.495 203.203 1
-8 6 7 -213.508 274.555 1
-8 6 6 174.226 210.19 1
-8 6 5 406.437 198.731 1
-8 6 4 13.0674 174.122 1
-8 6 3 -214.979 242.363 1
-8 6 2 452.409 261.214 1
-8 6 1 717.184 263.635 1
-8 6 0 -123.517 184.991 1
-8 6 -1 -41.8954 148.199 1
-8 6 -2 167.298 180.969 1
-8 6 -3 308.641 188.527 1
-8 6 -4 53.8482 196.434 1
-8 6 -5 -43.0286 148.436 1
-8 6 -5 233.752 203.731 2
-8 6 -6 189.196 180.133 2
-8 6 -7 423.367 287.493 2
-8 6 -8 345.985 187.727 2
-8 6 -9 337.951 193.101 2
-8 6 -10 257.275 170.488 2
-8 6 -11 141.629 188.355 2
-8 6 -12 -231.395 269.893 2
-8 6 -13 -15.6288 194.472 2
-8 5 13 583.815 281.136 1
-8 5 12 625.089 338.179 1
-8 5 11 420.364 289.333 1
-8 5 10 410.058 232.14 1
-8 5 9 196.148 239.578 1
-8 5 8 781.924 344.497 1
-8 5 7 590.173 236.624 1
-8 5 6 238.269 199.703 1
-8 5 5 1234.54 394.33 1
-8 5 4 -176.384 208.228 1
-8 5 3 714.064 341.899 1
-8 5 2 295.302 166.877 1
-8 5 1 239.244 231.944 1
-8 5 0 132.902 170.07 1
-8 5 -1 125.898 172.753 1
-8 5 -2 -218.565 196.168 1
-8 5 -3 -125.305 183.358 1
-8 5 -4 440.822 178.952 1
-8 5 -5 -34.7618 184.079 1
-8 5 -5 18.6412 173.133 2
-8 5 -6 290.501 225.207 2
-8 5 -6 397.776 223.655 1
-8 5 -7 811.749 278.42 2
-8 5 -8 33.0116 208.976 2
-8 5 -9 367.87 308.356 2
-8 5 -10 148.226 181.25 2
-8 5 -11 -9.7798 217.316 2
-8 5 -12 95.2118 200.197 2
-8 5 -13 -155.598 228.279 2
-8 4 14 196.98 320.255 1
-8 4 13 -262.315 280.109 1
-8 4 12 -159.115 207.889 1
-8 4 11 -51.9553 212.067 1
-8 4 10 399.396 278.918 1
-8 4 9 476.838 220.094 1
-8 4 8 80.7838 184.564 1
-8 4 7 -451.463 255.526 1
-8 4 6 30.9513 191.745 1
-8 4 5 -186.64 232.85 1
-8 4 4 251.467 190.933 1
-8 4 3 1333.61 356.974 1
-8 4 2 229.374 147.66 1
-8 4 1 93.6387 215.378 1
-8 4 0 -68.7458 140.778 1
-8 4 -1 4.7979 175.196 1
-8 4 -2 789.774 304.689 1
-8 4 -3 36.1556 137.125 1
-8 4 -4 724.344 257.464 1
-8 4 -5 48.9223 139.485 2
-8 4 -5 122.28 169.319 1
-8 4 -6 179.614 211.987 2
-8 4 -6 -111.693 169.837 1
-8 4 -7 -265.212 251.104 2
-8 4 -8 288.493 220.442 2
-8 4 -9 609.632 271.192 2
-8 4 -10 72.2319 176.76 2
-8 4 -11 450.869 264.372 2
-8 4 -12 56.8353 177.254 2
-8 3 14 32.5776 207.231 1
-8 3 13 -413.886 254.634 1
-8 3 12 397.2 207.399 1
-8 3 11 -341.523 247.456 1
-8 3 10 468.032 238.816 1
-8 3 9 311.724 240.703 1
-8 3 8 412.443 288.04 1
-8 3 7 30.6869 167.341 1
-8 3 6 545.317 263.489 1
-8 3 5 506.315 224.585 1
-8 3 4 429.796 228.266 1
-8 3 3 -129.526 149.042 1
-8 3 2 -315.124 208.535 1
-8 3 1 548.984 269.075 1
-8 3 0 1771.32 378.476 1
-8 3 -1 42.5698 202.392 1
-8 3 -2 3407.64 490.922 1
-8 3 -3 1835.6 359.194 1
-8 3 -4 286.805 121.89 1
-8 3 -5 290.765 208.434 2
-8 3 -5 351.344 217.606 1
-8 3 -6 1220.95 340.038 2
-8 3 -6 425.844 205.354 1
-8 3 -7 323.744 206.822 2
-8 3 -8 86.5827 180.933 2
-8 3 -9 694.209 296.508 2
-8 3 -10 494.513 295.093 2
-8 3 -11 -600.285 297.663 2
-8 2 14 448.453 314.37 1
-8 2 13 5.18148 213.851 1
-8 2 12 145.037 186.612 1
-8 2 11 70.4536 192.174 1
-8 2 10 777.702 265.163 1
-8 2 9 361.541 267.487 1
-8 2 8 -44.6928 164.344 1
-8 2 7 1703.01 406.988 1
-8 2 6 679.739 307.176 1
-8 2 5 2243.2 418.801 1
-8 2 4 3237.26 521.147 1
-8 2 3 -248.625 225.464 1
-8 2 2 31.3651 135.073 1
-8 2 1 1044.3 287.252 1
-8 2 0 377.413 220.955 1
-8 2 -1 888.164 272.79 1
-8 2 -2 792.631 266.959 1
-8 2 -3 189.921 189.46 1
-8 2 -4 902.558 256.958 2
-8 2 -4 604.44 250.751 1
-8 2 -5 523.604 243.948 2
-8 2 -5 379.236 250.886 1
-8 2 -6 211.643 146.543 2
-8 2 -6 50.0646 158.913 1
-8 2 -7 250.697 197.92 2
-8 2 -7 -12.5026 169.867 1
-8 2 -8 -5.82186 164.942 2
-8 2 -9 282.973 196.181 2
-8 2 -10 -63.7366 158.53 2
-8 2 -11 375.999 250.614 2
-8 1 14 310.644 207.624 1
-8 1 13 -487.641 236.098 1
-8 1 12 78.062 209.011 1
-8 1 11 612.953 276.708 1
-8 1 10 602.876 310.475 1
-8 1 9 1207.28 341.25 1
-8 1 8 523.36 262.79 1
-8 1 7 233.979 274.15 1
-8 1 6 1284.58 377.267 1
-8 1 5 3933.22 552.506 1
-8 1 4 1519.33 332.043 1
-8 1 3 2908.33 485.439 1
-8 1 2 2469.49 424.355 1
-8 1 1 370.179 172.479 1
-8 1 0 423.767 222.371 1
-8 1 -1 200.664 227.925 1
-8 1 -2 58.5539 145.262 1
-8 1 -3 187.886 177.651 1
-8 1 -4 1264.21 284.402 2
-8 1 -4 1386.74 382.616 1
-8 1 -5 342.554 224.047 2
-8 1 -5 -178.394 177.331 1
-8 1 -6 -30.9625 175.333 2
-8 1 -6 -24.6331 155.83 1
-8 1 -7 68.3401 155.09 2
-8 1 -7 22.34 143.573 1
-8 1 -8 390.269 178.181 2
-8 1 -9 203.39 202.151 2
-8 1 -10 -161.486 152.11 2
-8 0 13 387.405 304.593 1
-8 0 12 -128.795 264.651 1
-8 0 11 406.711 274.14 1
-8 0 10 166.349 205.392 1
-8 0 9 546.014 308.105 1
-8 0 8 59.2201 162.531 1
-8 0 7 -465.153 262.388 1
-8 0 6 962.658 294.709 1
-8 0 5 2407.91 474.856 1
-8 0 4 4238.71 589.849 1
-8 0 3 3084.99 506.482 1
-8 0 2 293.367 197.307 1
-8 0 1 1404.38 349.643 1
-8 0 0 3087.79 510.735 1
-8 0 -1 302.165 210.641 1
-8 0 -2 99.9544 189.616 1
-8 0 -3 2900.65 498.13 1
-8 0 -4 114.81 169.743 2
-8 0 -4 215.25 160.287 1
-8 0 -5 1734.09 312.188 2
-8 0 -5 1836.7 388.089 1
-8 0 -6 144.134 200.091 2
-8 0 -6 249.431 231.339 1
-8 0 -7 1018.03 251.956 2
-8 0 -7 845.22 311.864 1
-8 0 -8 441.012 230.268 2
-8 -1 13 225.41 194.763 1
-8 -1 12 13.5812 209.197 1
-8 -1 11 85.7896 164.946 1
-8 -1 10 41.6734 146.828 1
-8 -1 9 -21.8143 184.315 1
-8 -1 8 249.18 165.424 1
-8 -1 7 535.118 245.064 1
-8 -1 6 351.02 226.309 1
-8 -1 5 96.6287 167.14 1
-8 -1 4 -229.775 172.348 1
-8 -1 3 43.0473 126.615 1
-8 -1 2 1999 421.213 1
-8 -1 1 196.223 155.76 1
-8 -1 0 -85.6992 137.92 1
-8 -1 -1 -156.422 194.616 1
-8 -1 -2 -3.06852 150.161 1
-8 -1 -3 217.624 198.557 1
-8 -1 -4 1006.84 285.796 2
-8 -1 -4 285.261 206.287 1
-8 -1 -5 621.385 201.059 2
-8 -1 -5 89.504 181.684 1
-8 -1 -6 644.786 241.342 2
-8 -1 -6 426.02 286.355 1
-8 -1 -7 460.844 308.679 1
-8 -2 13 -402.787 328.607 1
-8 -2 12 758.481 385.911 1
-8 -2 11 115.797 181.697 1
-8 -2 10 -45.4901 176.855 1
-8 -2 9 -141.318 161.138 1
-8 -2 8 370.703 201.79 1
-8 -2 7 398.662 266.883 1
-8 -2 6 318.357 216.869 1
-8 -2 5 -18.5507 142.38 1
-8 -2 4 72.2229 148.324 1
-8 -2 3 415.567 243.291 1
-8 -2 2 -209.388 230.61 1
-8 -2 1 265.109 142.751 1
-8 -2 0 1058.14 314.102 1
-8 -2 -1 111.147 180.029 1
-8 -2 -2 434.674 276.885 1
-8 -2 -3 -27.0061 115.795 2
-8 -2 -3 56.3026 154.964 1
-8 -2 -4 86.5712 153.715 2
-8 -2 -4 287.013 207.124 1
-8 -2 -5 2563.34 506.435 1
-8 -2 -6 2050.12 450.248 1
-8 -2 -7 164.48 224.47 1
-8 -3 12 -119.528 237.439 1
-8 -3 11 1367.62 425.902 1
-8 -3 10 -194.976 296.5 1
-8 -3 9 157.55 179.879 1
-8 -3 8 694.591 287.053 1
-8 -3 7 742.177 316.136 1
-8 -3 6 134.741 257.744 1
-8 -3 5 241.447 224.662 1
-8 -3 4 233.699 228.853 1
-8 -3 3 1936.6 428.999 1
-8 -3 2 2754.11 501.717 1
-8 -3 1 80.8998 159.992 1
-8 -3 0 -121.499 187.287 1
-8 -3 -1 1193.48 368.984 1
-8 -3 -2 345.198 176.36 1
-8 -3 -3 1655.98 442.531 1
-8 -3 -4 881.46 365.238 1
-8 -3 -5 -143.746 196.886 1
-8 -3 -6 -28.4835 208.468 1
-8 -3 -7 -114.942 239.055 1
-8 -4 12 7.96876 276.078 1
-8 -4 11 52.5548 268.158 1
-8 -4 10 -80.7593 257.875 1
-8 -4 9 777.964 344.589 1
-8 -4 8 478.817 301.956 1
-8 -4 7 -42.257 199.011 1
-8 -4 6 447.141 310.093 1
-8 -4 5 95.6411 227.663 1
-8 -4 4 168.665 235.608 1
-8 -4 3 -208.671 161.174 1
-8 -4 2 1298.96 373.017 1
-8 -4 1 3160.8 590.112 1
-8 -4 0 95.6749 194.911 1
-8 -4 -1 -73.1627 163.181 1
-8 -4 -2 521.659 266.641 1
-8 -4 -3 163.933 207.941 1
-8 -4 -4 39.4597 200.276 1
-8 -4 -5 1556.38 418.987 1
-8 -4 -6 94.4822 245.069 1
-8 -4 -7 29.6926 222.427 1
-8 -5 11 502.892 343.628 1
-8 -5 10 1539.93 465.553 1
-8 -5 9 324.065 235.89 1
-8 -5 8 708.072 345.602 1
-8 -5 7 -31.1313 167.774 1
-8 -5 6 370.55 247.855 1
-8 -5 5 -184.178 208.77 1
-8 -5 4 574.288 263.02 1
-8 -5 3 1430.46 435.138 1
-8 -5 2 1007.74 433.114 1
-8 -5 1 55.2216 177.661 1
-8 -5 0 292.977 253.049 1
-8 -5 -1 392.49 313.719 1
-8 -5 -2 598.747 364.435 1
-8 -5 -3 1735.14 515.049 1
-8 -5 -4 743.271 376.013 1
-8 -5 -5 162.895 227.039 1
-8 -5 -6 -24.6119 218.941 1
-8 -6 11 1031.86 415.82 1
-8 -6 10 393.35 396.923 1
-8 -6 9 346.456 263.702 1
-8 -6 8 -133.571 194.836 1
-8 -6 7 -90.2546 222.224 1
-8 -6 6 651.755 327.197 1
-8 -6 5 1427.08 457.16 1
-8 -6 4 1120.75 403.423 1
-8 -6 3 21.0582 203.973 1
-8 -6 2 -10.5541 216.113 1
-8 -6 1 728.563 373.669 1
-8 -6 0 180.884 305.58 1
-8 -6 -1 659.913 377.901 1
-8 -6 -2 354.837 365.654 1
-8 -6 -3 1022.34 456.147 1
-8 -6 -4 386.743 370.766 1
-8 -6 -5 357.528 359.446 1
-8 -6 -6 203.595 274.708 1
-8 -7 10 160.629 332.499 1
-8 -7 9 464.297 322.15 1
-8 -7 8 -275.011 273.539 1
-8 -7 7 113.97 243.56 1
-8 -7 6 1206.87 413.227 1
-8 -7 5 856.157 361.533 1
-8 -7 4 195.919 248.571 1
-8 -7 3 24.7235 215.306 1
-8 -7 2 -49.8147 272.031 1
-8 -7 1 -64.054 216.26 1
-8 -7 0 439.203 309.937 1
-8 -7 -1 -197.96 223.657 1
-8 -7 -2 713.628 428.593 1
-8 -7 -3 262.278 283.756 1
-8 -7 -4 575.481 313.876 1
-8 -7 -5 -130.378 336.986 1
-8 -8 9 83.0967 312.548 1
-8 -8 8 245.648 287.988 1
-8 -8 7 48.4181 282.6 1
-8 -8 6 -181.799 246.949 1
-8 -8 5 -119.146 224.707 1
-8 -8 4 497.991 347.543 1
-8 -8 3 -16.9836 284.68 1
-8 -8 2 457.864 361.304 1
-8 -8 1 222.962 206.237 1
-8 -8 0 1090.39 483.957 1
-8 -8 -1 211.818 290.377 1
-8 -8 -2 177.178 272.591 1
-8 -8 -3 247.125 281.969 1
-8 -8 -4 -302.237 383.173 1
-8 -9 7 162.922 333.37 1
-8 -9 6 -578.382 423.546 1
-8 -9 5 140.466 257.034 1
-8 -9 4 275.717 366.538 1
-8 -9 3 -340.819 360.689 1
-8 -9 2 349.328 389.286 1
-8 -9 1 654.372 375.212 1
-8 -9 0 585.645 461.438 1
-8 -9 -1 122.323 232.017 1
-8 -9 -2 -362.883 358.868 1
-8 -9 -3 565.812 394.546 1
-8 -10 5 -193.06 355.553 1
-8 -10 4 77.1955 379.16 1
-8 -10 3 -138.204 303.616 1
-8 -10 2 -298.389 453.106 1
-8 -10 1 503.696 413.501 1
-8 -10 0 138.787 279.038 1
-9 12 6 72.128 282.965 1
-9 12 5 -330.876 320.869 1
-9 12 4 793.792 423.913 1
-9 12 3 -178.168 274.937 1
-9 12 2 -79.8821 229.033 1
-9 12 1 41.03 214.253 1
-9 12 -2 426.792 306.978 2
-9 12 -3 33.1972 200.298 2
-9 12 -4 97.8931 200.582 2
-9 12 -5 -485.145 276.89 2
-9 12 -6 -49.34 241.175 2
-9 11 8 64.778 284.958 1
-9 11 7 77.9001 241.75 1
-9 11 6 -1.84018 221.605 1
-9 11 5 570.938 257.045 1
-9 11 4 -349.929 212.242 1
-9 11 3 -381.256 315.746 1
-9 11 2 493.379 289.038 1
-9 11 1 115.294 256.817 1
-9 11 0 295.188 291.068 1
-9 11 -1 -454.649 256.472 1
-9 11 -3 -259.917 243.724 2
-9 11 -4 36.108 213.781 2
-9 11 -5 260.479 233.217 2
-9 11 -6 -444.469 267.663 2
-9 11 -7 36.5772 208.906 2
-9 11 -8 -650.372 316.064 2
-9 10 10 -14.3671 237.538 1
-9 10 9 891.671 371.786 1
-9 10 8 138.873 302.084 1
-9 10 7 553.612 391.801 1
-9 10 6 710.439 369.042 1
-9 10 5 -342.469 261.314 1
-9 10 4 248.066 237.079 1
-9 10 3 -206.834 263.644 1
-9 10 2 -132.674 238.003 1
-9 10 1 237.017 223.793 1
-9 10 0 -7.81835 191.272 1
-9 10 -1 182.428 196.849 1
-9 10 -2 -161.233 176.677 1
-9 10 -3 307.847 180.259 2
-9 10 -4 89.0368 178.973 2
-9 10 -5 460.557 278.118 2
-9 10 -6 249.845 254.701 2
-9 10 -7 402.712 310.066 2
-9 10 -8 -11.1847 205.779 2
-9 10 -9 472.715 283.071 2
-9 9 11 210.903 274.68 1
-9 9 10 411.5 395.463 1
-9 9 9 151.933 233.291 1
-9 9 8 -278.511 282.988 1
-9 9 7 487.879 351.768 1
-9 9 6 31.312 271.881 1
-9 9 5 -128.072 235.777 1
-9 9 4 65.6148 253.648 1
-9 9 3 -246.514 237.497 1
-9 9 2 -551.333 356.582 1
-9 9 1 145.93 169.226 1
-9 9 0 -227.935 195.933 1
-9 9 -1 -424.329 262.446 1
-9 9 -2 -166.874 238.842 1
-9 9 -3 506.221 278.932 1
-9 9 -4 65.5484 210.536 2
-9 9 -5 467.703 173.451 2
-9 9 -6 398.973 245.594 2
-9 9 -7 -662.1 338.68 2
-9 9 -8 -225.406 215.325 2
-9 9 -9 -25.9152 193.909 2
-9 9 -10 75.8587 274.054 2
-9 8 11 182.64 263.856 1
-9 8 10 -129.761 349.539 1
-9 8 9 115.82 221.579 1
-9 8 8 594.847 281.658 1
-9 8 7 710.019 380.444 1
-9 8 6 -10.0964 221.199 1
-9 8 5 319.519 265.395 1
-9 8 4 141.289 220.886 1
-9 8 3 175.064 216.736 1
-9 8 2 721.408 354.628 1
-9 8 1 591.284 311.5 1
-9 8 0 542.032 307.24 1
-9 8 -1 285.489 250.986 1
-9 8 -2 2.93882 179.563 1
-9 8 -3 250.79 262.536 1
-9 8 -4 560.553 270.187 2
-9 8 -5 261.277 254.092 2
-9 8 -6 542.353 279.574 2
-9 8 -7 731.222 318.249 2
-9 8 -8 495.452 289.939 2
-9 8 -9 -231.957 222.401 2
-9 8 -10 160.263 246.518 2
-9 7 12 -373.288 347.894 1
-9 7 11 274.15 247.743 1
-9 7 10 169.285 311.596 1
-9 7 9 10.8798 229.342 1
-9 7 8 -138.161 223.81 1
-9 7 7 368.111 253.372 1
-9 7 6 -57.3779 244.424 1
-9 7 5 -193.842 219.621 1
-9 7 4 74.4164 200.287 1
-9 7 3 -42.4963 229.414 1
-9 7 2 952.872 292.615 1
-9 7 1 581.21 287.902 1
-9 7 0 59.768 207.5 1
-9 7 -1 243.48 183.798 1
-9 7 -2 439.008 234.845 1
-9 7 -3 347.392 202.324 1
-9 7 -4 -450.333 275.145 1
-9 7 -4 116.181 202.311 2
-9 7 -5 392.5 217.714 2
-9 7 -6 17.3801 205.95 2
-9 7 -7 -172.203 241.075 2
-9 7 -8 -97.7587 180.088 2
-9 7 -9 -315.449 230.574 2
-9 7 -10 -33.3572 199.869 2
-9 7 -11 738.017 366.576 2
-9 6 12 634.33 427.053 1
-9 6 11 760.279 455.555 1
-9 6 10 -382.134 273.927 1
-9 6 9 -8.89739 267.82 1
-9 6 8 -161.346 264.6 1
-9 6 7 412.795 212.103 1
-9 6 6 329.441 251.251 1
-9 6 5 205.76 322.293 1
-9 6 4 217.35 258.396 1
-9 6 3 406.992 272.044 1
-9 6 2 -192.735 239.139 1
-9 6 1 43.6166 189.528 1
-9 6 0 -380.903 270.26 1
-9 6 -1 334.643 210.035 1
-9 6 -2 504.506 237.144 1
-9 6 -3 794.146 203.787 1
-9 6 -4 201.421 214.443 1
-9 6 -4 441.094 265.155 2
-9 6 -5 82.3353 218.017 2
-9 6 -6 -117.857 248.667 2
-9 6 -7 -114.448 241.784 2
-9 6 -8 -35.3789 238.704 2
-9 6 -9 129.822 263.718 2
-9 6 -10 -558.972 367.603 2
-9 5 12 -1.94536 242.208 1
-9 5 11 601.575 294.952 1
-9 5 10 -32.5228 186.369 1
-9 5 9 -125.442 231.028 1
-9 5 8 40.3545 203.379 1
-9 5 7 612.71 320.778 1
-9 5 6 -115.084 242.96 1
-9 5 5 61.8546 175.739 1
-9 5 4 386.234 261.533 1
-9 5 3 -83.0045 186.937 1
-9 5 2 343.571 253.457 1
-9 5 1 491.477 265.243 1
-9 5 0 -25.6833 201.238 1
-9 5 -1 -322.62 267.971 1
-9 5 -2 136.533 147.532 1
-9 5 -3 125.46 150.696 1
-9 5 -4 382.911 223.911 1
-9 5 -4 758.998 304.588 2
-9 5 -5 717.148 264.218 2
-9 5 -5 15.8754 156.157 1
-9 5 -6 452.214 297.023 2
-9 5 -7 59.3455 166.876 2
-9 5 -8 297.275 263.362 2
-9 5 -9 -200.284 273.694 2
-9 5 -10 -202.592 178.798 2
-9 4 13 157.973 296.17 1
-9 4 12 88.9117 228.433 1
-9 4 11 -152.802 310.681 1
-9 4 10 625.602 343.294 1
-9 4 9 168.279 291.746 1
-9 4 8 209.49 265.138 1
-9 4 7 -160.746 176.839 1
-9 4 6 200.244 196.497 1
-9 4 5 460.085 248.186 1
-9 4 4 1295.23 365.887 1
-9 4 3 1228.37 363.585 1
-9 4 2 142.177 247.3 1
-9 4 1 -168.231 241.165 1
-9 4 0 20.0275 172.11 1
-9 4 -1 596.964 281.518 1
-9 4 -2 161.461 188.943 1
-9 4 -3 1476.26 345.226 1
-9 4 -4 443.609 226.829 2
-9 4 -4 213.274 214.455 1
-9 4 -5 -108.045 264.792 2
-9 4 -5 187.751 198.268 1
-9 4 -6 253.19 193.317 2
-9 4 -7 211.304 241.526 2
-9 4 -8 831.791 360.196 2
-9 4 -9 304.033 291.865 2
-9 4 -10 274.692 230.063 2
-9 3 13 -75.1075 254.848 1
-9 3 12 462.371 273.914 1
-9 3 11 396.887 241.884 1
-9 3 10 465.321 303.864 1
-9 3 9 -199.825 205.919 1
-9 3 8 -496.602 327.919 1
-9 3 7 384.714 328.407 1
-9 3 6 436.604 300.187 1
-9 3 5 839.353 290.433 1
-9 3 4 -243.227 272.798 1
-9 3 3 362.485 247.426 1
-9 3 2 956.646 330.814 1
-9 3 1 2890.08 509.411 1
-9 3 0 184.964 229.079 1
-9 3 -1 2382.3 456.489 1
-9 3 -2 70.0783 149.358 1
-9 3 -3 824.887 302.478 1
-9 3 -4 21.4444 215.71 2
-9 3 -4 -4.55935 192.445 1
-9 3 -5 -203.119 153.022 2
-9 3 -5 100.147 198.372 1
-9 3 -6 250.313 220.468 2
-9 3 -7 -202.495 207.562 2
-9 3 -8 175.37 188.874 2
-9 3 -9 42.2178 243.441 2
-9 2 13 -219.451 344.215 1
-9 2 12 -440.406 278.051 1
-9 2 11 446.341 332.696 1
-9 2 10 -207.879 185.45 1
-9 2 9 -55.0269 210.945 1
-9 2 8 -33.3294 206.366 1
-9 2 7 -137.871 245.752 1
-9 2 6 434.243 283.655 1
-9 2 5 122.064 217.898 1
-9 2 4 668.835 297.982 1
-9 2 3 989.984 332.885 1
-9 2 2 284.461 266.069 1
-9 2 1 909.409 274.226 1
-9 2 0 336.829 209.714 1
-9 2 -1 68.7614 179.647 1
-9 2 -2 -98.8833 190.782 1
-9 2 -3 275.071 251.943 1
-9 2 -4 532.011 259.872 2
-9 2 -4 420.896 286.393 1
-9 2 -5 -41.7619 162.758 2
-9 2 -5 170.661 219.181 1
-9 2 -6 499.23 253.517 2
-9 2 -7 499.835 253.988 2
-9 2 -8 322.117 243.985 2
-9 1 13 -11.764 254.364 1
-9 1 12 -338.772 343.86 1
-9 1 11 -51.6639 217.262 1
-9 1 10 291.501 316.036 1
-9 1 9 -29.4841 228.88 1
-9 1 8 62.3192 171.108 1
-9 1 7 1075.04 350.072 1
-9 1 6 529.488 271.433 1
-9 1 5 776.087 321.993 1
-9 1 4 1102.11 354.293 1
-9 1 3 -102.387 207.883 1
-9 1 2 1270.83 340.094 1
-9 1 1 900.542 326.22 1
-9 1 0 791.763 319.449 1
-9 1 -1 295.367 202.362 1
-9 1 -2 423.13 246.355 1
-9 1 -3 192.269 257.889 1
-9 1 -4 212.977 213.583 2
-9 1 -4 84.039 186.474 1
-9 1 -5 839.559 301.896 2
-9 1 -5 628.402 309.24 1
-9 1 -6 293.001 204.054 2
-9 1 -6 1004.03 341.986 1
-9 1 -7 439.765 195.511 2
-9 0 12 500.374 329.769 1
-9 0 11 -7.45223 174.457 1
-9 0 10 200.907 166.12 1
-9 0 9 540.152 323.014 1
-9 0 8 810.097 313.242 1
-9 0 7 122.147 248.749 1
-9 0 6 526.106 297.29 1
-9 0 5 -69.7244 168.852 1
-9 0 4 522.759 172.116 1
-9 0 3 792.197 251.984 1
-9 0 2 608.224 280.514 1
-9 0 1 459.023 289.761 1
-9 0 0 -26.1429 196.088 1
-9 0 -1 -118.157 170.991 1
-9 0 -2 -184.282 178.283 1
-9 0 -3 376.407 213.172 2
-9 0 -3 377.104 322.309 1
-9 0 -4 90.7932 180.717 2
-9 0 -4 -73.5631 239.684 1
-9 0 -5 288.674 168.898 2
-9 0 -5 509.238 314.64 1
-9 0 -6 183.425 186.665 1
-9 -1 12 -143.231 222.033 1
-9 -1 11 803.017 371.023 1
-9 -1 10 413.457 281.334 1
-9 -1 9 584.473 342.682 1
-9 -1 8 42.718 247.891 1
-9 -1 7 1521.09 405.481 1
-9 -1 6 -18.9468 190.667 1
-9 -1 5 419.653 256.768 1
-9 -1 4 347.452 243.019 1
-9 -1 3 13.5779 163.108 1
-9 -1 2 75.2634 157.029 1
-9 -1 1 582.593 309.907 1
-9 -1 0 1135.77 388.647 1
-9 -1 -1 -163.34 218.062 1
-9 -1 -2 229.983 261.578 1
-9 -1 -3 183.924 231.319 1
-9 -1 -4 165.781 270.785 1
-9 -1 -5 -9.58087 222.885 1
-9 -1 -6 486.195 261.833 1
-9 -2 12 444.057 350.747 1
-9 -2 11 -267.469 269.884 1
-9 -2 10 212.012 246.081 1
-9 -2 9 581.321 342.346 1
-9 -2 8 1321.57 451.529 1
-9 -2 7 472.453 288.243 1
-9 -2 6 302.091 266.23 1
-9 -2 5 56.4233 175.217 1
-9 -2 4 313.719 214.042 1
-9 -2 3 5.44379 163.068 1
-9 -2 2 98.6691 184.288 1
-9 -2 1 202.377 147.977 1
-9 -2 0 126.101 221.156 1
-9 -2 -1 74.3841 173.834 1
-9 -2 -2 -50.8471 210.084 1
-9 -2 -3 380.982 277.632 1
-9 -2 -4 231.355 304.92 1
-9 -2 -5 -382.431 321.36 1
-9 -2 -6 285.051 284.265 1
-9 -3 11 173.426 256.267 1
-9 -3 10 -18.6532 198.547 1
-9 -3 9 -52.8182 200.209 1
-9 -3 8 255.441 267.705 1
-9 -3 7 707.631 309.195 1
-9 -3 6 233.065 220.051 1
-9 -3 5 -95.3285 200.086 1
-9 -3 4 509.585 304.018 1
-9 -3 3 306.204 258.962 1
-9 -3 2 367.905 279.955 1
-9 -3 1 390.437 301.729 1
-9 -3 0 298.274 212.529 1
-9 -3 -1 65.7257 232.162 1
-9 -3 -2 44.7083 292.85 1
-9 -3 -3 155.877 256.523 1
-9 -3 -4 511.444 299.854 1
-9 -3 -5 656.487 388.756 1
-9 -4 11 -305.791 297.167 1
-9 -4 10 151.863 314.429 1
-9 -4 9 -363.509 381.225 1
-9 -4 8 -97.9249 215.199 1
-9 -4 7 290.574 316.169 1
-9 -4 6 214.653 291.772 1
-9 -4 5 1339.34 456.993 1
-9 -4 4 1993.91 504.576 1
-9 -4 3 48.6782 214.001 1
-9 -4 2 668.135 316.72 1
-9 -4 1 369.436 308.42 1
-9 -4 0 466.1 310.247 1
-9 -4 -1 8.58194 220.483 1
-9 -4 -2 225.919 216.579 1
-9 -4 -3 30.6872 224.722 1
-9 -4 -4 565.508 421.37 1
-9 -4 -5 580.29 356.859 1
-9 -5 10 -245.173 227.136 1
-9 -5 9 -616.861 345.245 1
-9 -5 8 13.3457 208.831 1
-9 -5 7 540.465 328.575 1
-9 -5 6 1014.62 394.321 1
-9 -5 5 129.145 190.341 1
-9 -5 4 127.265 284.073 1
-9 -5 3 -92.4928 228.018 1
-9 -5 2 106.959 266.105 1
-9 -5 1 255.41 226.889 1
-9 -5 0 878.799 416.802 1
-9 -5 -1 72.8158 235.336 1
-9 -5 -2 -191.398 305.459 1
-9 -5 -3 -135.758 305.37 1
-9 -5 -4 640.211 373.094 1
-9 -6 9 -346.961 312.693 1
-9 -6 8 271.261 322.157 1
-9 -6 7 -88.3998 295.707 1
-9 -6 6 -575.714 413.309 1
-9 -6 5 346.158 295.736 1
-9 -6 4 194.189 291.91 1
-9 -6 3 256.113 347.09 1
-9 -6 2 144.793 264.386 1
-9 -6 1 -185.304 285.873 1
-9 -6 0 -38.4318 295.359 1
-9 -6 -1 299.538 290.082 1
-9 -6 -2 -117.26 332.499 1
-9 -6 -3 20.1222 326.083 1
-9 -7 8 228.255 290.185 1
-9 -7 7 -170.81 270.499 1
-9 -7 6 -136.848 257.991 1
-9 -7 5 274.95 343.22 1
-9 -7 4 363.864 289.823 1
-9 -7 3 627.684 387.063 1
-9 -7 2 -193.003 319.124 1
-9 -7 1 203.462 250.684 1
-9 -7 0 175.77 329.152 1
-9 -7 -1 -52.2618 265.005 1
-9 -7 -2 -157.192 245.181 1
-9 -8 6 243.126 328.079 1
-9 -8 5 500.922 363.443 1
-9 -8 4 898.838 461.548 1
-9 -8 3 336.61 408.424 1
-9 -8 2 21.6023 235.087 1
-9 -8 1 402.346 408.022 1
-9 -8 0 -205.696 320.887 1
-10 11 -2 435.117 289.204 2
-10 11 -3 -44.4007 220.716 2
-10 10 7 234.715 313.458 1
-10 10 6 422.01 264.705 1
-10 10 5 -286.655 291.895 1
-10 10 4 103.015 291.144 1
-10 10 3 555.172 345.215 1
-10 10 2 -325.588 334.489 1
-10 10 1 -37.9732 286.638 1
-10 10 -3 -146.788 215.33 2
-10 10 -4 -8.24949 203.649 2
-10 10 -5 -291.784 263.399 2
-10 10 -6 -97.3631 223.025 2
-10 9 8 -336.987 301.864 1
-10 9 7 -318.811 328.909 1
-10 9 6 704.799 361.169 1
-10 9 5 245.297 244.524 1
-10 9 4 608.753 353.486 1
-10 9 3 -142.113 291.426 1
-10 9 2 12.5229 201.517 1
-10 9 1 434.656 294.921 1
-10 9 0 298.02 225.645 1
-10 9 -3 199.627 203.171 2
-10 9 -4 -29.0209 194.557 2
-10 9 -5 -114.823 240.812 2
-10 9 -6 99.3805 263.174 2
-10 9 -7 -112.834 236.796 2
-10 8 9 -108.608 237.159 1
-10 8 8 560.427 395.245 1
-10 8 7 119.654 235.512 1
-10 8 6 85.8515 224.454 1
-10 8 5 324.774 353.46 1
-10 8 4 458.904 372.141 1
-10 8 3 7.1033 239.242 1
-10 8 2 -57.5391 250.999 1
-10 8 1 158.461 250.141 1
-10 8 0 292.635 258.685 1
-10 8 -1 -289.204 293.018 1
-10 8 -4 -248.774 258.77 2
-10 8 -5 183.285 230.911 2
-10 8 -6 296.315 310.367 2
-10 8 -7 -42.0766 245.335 2
-10 7 10 -812.736 451.226 1
-10 7 9 624.404 338.299 1
-10 7 8 372.059 324.573 1
-10 7 7 424.033 311.909 1
-10 7 6 65.2152 236.954 1
-10 7 5 653.764 329.992 1
-10 7 4 -69.7969 193.883 1
-10 7 3 278.215 298.465 1
-10 7 2 -285.513 219.267 1
-10 7 1 -213.6 217.333 1
-10 7 0 481.465 269.569 1
-10 7 -1 296.513 255.452 1
-10 7 -2 -58.7713 224.064 1
-10 7 -4 191.827 218.855 2
-10 7 -5 223.862 220.865 2
-10 7 -6 9.82996 202.683 2
-10 7 -7 -244.275 237.904 2
-10 7 -8 -74.3679 226.961 2
-10 6 11 -684.598 322.388 1
-10 6 10 952.393 411.61 1
-10 6 9 -195.672 258.805 1
-10 6 8 -519.731 329.785 1
-10 6 7 -373.459 377.402 1
-10 6 6 218.466 315.901 1
-10 6 5 -173.31 261.557 1
-10 6 4 -420.124 262.03 1
-10 6 3 -270.237 235.869 1
-10 6 2 176.003 269.814 1
-10 6 1 383.13 231.863 1
-10 6 0 362.226 316.018 1
-10 6 -1 364.302 175.243 1
-10 6 -2 196.95 285.056 1
-10 6 -4 675.446 310.674 2
-10 6 -5 -356.557 283.719 2
-10 6 -6 251.391 295.826 2
-10 6 -7 -361.588 289.006 2
-10 6 -8 235.914 201.957 2
-10 5 11 299.593 353.317 1
-10 5 10 115.202 232.821 1
-10 5 9 312.733 256.905 1
-10 5 8 129.334 235.412 1
-10 5 7 -48.794 297.688 1
-10 5 6 229.963 319.596 1
-10 5 5 78.5804 250.136 1
-10 5 4 -64.667 177.658 1
-10 5 3 178.456 209.416 1
-10 5 2 468.197 361.301 1
-10 5 1 164.586 247.25 1
-10 5 0 230.54 206.445 1
-10 5 -1 659.499 288.975 1
-10 5 -2 329.028 250.427 1
-10 5 -3 272.41 244.658 1
-10 5 -4 684.051 258.646 2
-10 5 -5 -60.7469 209.886 2
-10 5 -6 -123.449 192.914 2
-10 5 -7 -91.1099 252.337 2
-10 4 11 132.402 269.565 1
-10 4 10 -419.405 336.695 1
-10 4 9 -250.545 272.545 1
-10 4 8 551.08 394.638 1
-10 4 7 57.6751 210.417 1
-10 4 6 -248.802 317.427 1
-10 4 5 -145.382 245.767 1
-10 4 4 737.451 306.697 1
-10 4 3 384.469 237.982 1
-10 4 2 -154.261 264.066 1
-10 4 1 -87.7007 237.439 1
-10 4 0 435.681 283.074 1
-10 4 -1 -15.0883 212.358 1
-10 4 -2 79.4293 227.808 1
-10 4 -3 137.705 219.896 1
-10 4 -4 -708.733 365.644 2
-10 4 -5 -29.0221 206.984 2
-10 4 -6 220.719 239.041 2
-10 4 -7 -339.303 258.388 2
-10 3 11 -95.9517 256.585 1
-10 3 10 -131.477 230.869 1
-10 3 9 440.556 261.107 1
-10 3 8 500.405 288.441 1
-10 3 7 -92.8998 279.355 1
-10 3 6 439.314 302.591 1
-10 3 5 -67.5663 195.425 1
-10 3 4 -326.998 282.429 1
-10 3 3 787.016 389.604 1
-10 3 2 1265.91 428.619 1
-10 3 1 358.523 333.826 1
-10 3 0 252.61 250.686 1
-10 3 -1 378.069 266.257 1
-10 3 -2 66.3863 213.927 1
-10 3 -3 112.269 173.396 1
-10 3 -4 368.522 282.176 2
-10 3 -4 -445.228 284.984 1
-10 3 -5 119.414 187.954 2
-10 3 -6 486.465 242.207 2
-10 2 11 250.61 202.071 1
-10 2 10 148.041 220.54 1
-10 2 9 -167.454 193.131 1
-10 2 8 -496.25 310.932 1
-10 2 7 43.0627 239.983 1
-10 2 6 -3.65881 198.207 1
-10 2 5 170.295 264.366 1
-10 2 4 740.397 304.727 1
-10 2 3 820.078 268.514 1
-10 2 2 943.425 286.391 1
-10 2 1 140.895 237.712 1
-10 2 0 -165.206 275.093 1
-10 2 -1 -155.736 230.797 1
-10 2 -2 16.3305 184.58 1
-10 2 -3 392.069 214.239 1
-10 2 -4 1002.12 350.981 2
-10 2 -4 680.335 344.006 1
-10 1 11 493.169 425.29 1
-10 1 10 612.408 327.824 1
-10 1 9 -23.8385 183.102 1
-10 1 8 -32.9035 287.263 1
-10 1 7 -54.8764 207.469 1
-10 1 6 198.426 289.793 1
-10 1 5 284.458 222.803 1
-10 1 4 143.385 237.737 1
-10 1 3 163.896 234.169 1
-10 1 2 232.362 179.062 1
-10 1 1 441.029 315.078 1
-10 1 0 36.6987 175.847 1
-10 1 -1 -1.86244 221.59 1
-10 1 -2 -166.248 206.127 1
-10 1 -3 405.026 299.804 2
-10 1 -3 -203.815 219.994 1
-10 1 -4 149.616 205.818 1
-10 0 11 547.516 322.012 1
-10 0 10 181.53 224.601 1
-10 0 9 -71.2118 207.144 1
-10 0 8 405.201 321.363 1
-10 0 7 95.6471 213.144 1
-10 0 6 345.821 335.947 1
-10 0 5 353.941 263.255 1
-10 0 4 -388.855 301.846 1
-10 0 3 438.252 166.457 1
-10 0 2 -24.6815 228.175 1
-10 0 1 188.849 204.102 1
-10 0 0 529.178 318.586 1
-10 0 -1 560.036 318.714 1
-10 0 -2 517.39 368.374 1
-10 0 -3 132.817 223.26 1
-10 0 -4 447.813 327.312 1
-10 -1 11 291.322 346.333 1
-10 -1 10 53.9047 292.38 1
-10 -1 9 -256.383 331.201 1
-10 -1 8 -273.634 328.825 1
-10 -1 7 339.505 291.346 1
-10 -1 6 705.9 357.193 1
-10 -1 5 -238.401 263.202 1
-10 -1 4 -211.639 248.433 1
-10 -1 3 -23.9322 214.403 1
-10 -1 2 -38.2431 219.833 1
-10 -1 1 650.201 341.557 1
-10 -1 0 293.365 282.104 1
-10 -1 -1 -197.439 301.748 1
-10 -1 -2 294.533 306.281 1
-10 -1 -3 395.976 352.208 1
-10 -1 -4 -13.0024 217.902 1
-10 -2 10 194.969 233.92 1
-10 -2 9 71.0708 294.271 1
-10 -2 8 -187.294 272.55 1
-10 -2 7 25.8744 176.653 1
-10 -2 6 -49.2558 200.269 1
-10 -2 5 170.071 255.247 1
-10 -2 4 21.1612 176.328 1
-10 -2 3 122.505 230.283 1
-10 -2 2 137.62 215.782 1
-10 -2 1 -222.577 219.822 1
-10 -2 0 644.412 325.09 1
-10 -2 -1 64.2309 243.239 1
-10 -2 -2 131.353 275.561 1
-10 -2 -3 -146.271 267.312 1
-10 -3 9 -51.5372 219.334 1
-10 -3 8 368.415 294.53 1
-10 -3 7 -314.555 338.465 1
-10 -3 6 245.753 307.887 1
-10 -3 5 114.114 240.959 1
-10 -3 4 -357.996 356.352 1
-10 -3 3 2.2085 275.067 1
-10 -3 2 245.861 312.349 1
-10 -3 1 126.121 227.015 1
-10 -3 0 457.552 361.938 1
-10 -3 -1 988.402 492.401 1
-10 -3 -2 296.502 304.204 1
-10 -3 -3 345.237 281.468 1
-10 -4 9 -119.959 246.45 1
-10 -4 8 -622.366 370.892 1
-10 -4 7 -252.057 258.072 1
-10 -4 6 342.844 293.679 1
-10 -4 5 102.097 250.17 1
-10 -4 4 415.707 320.221 1
-10 -4 3 363.312 320.145 1
-10 -4 2 361.239 310.867 1
-10 -4 1 263.669 286.936 1
-10 -4 0 50.5911 272.284 1
-10 -4 -1 552.031 381.433 1
-10 -4 -2 848.071 455.966 1
-10 -5 7 95.0213 317.921 1
-10 -5 6 152.333 240.698 1
-10 -5 5 97.3076 249.279 1
-10 -5 4 466.316 304.818 1
-10 -5 3 625.975 360.451 1
-10 -5 2 719.317 438.31 1
-10 -5 1 108.512 244.285 1
-10 -5 0 -35.4736 300.575 1
-10 -5 -1 117.743 254.481 1
-10 -6 5 151.38 308.951 1
-10 -6 4 248.953 341.645 1
-10 -6 3 -267.048 369.113 1
-10 -6 2 367.434 340.333 1
-10 -6 1 284.578 285.14 1
-11 8 4 270.653 301.777 1
-11 7 7 -314.885 336.914 1
-11 7 6 69.995 296.783 1
-11 7 5 -352.267 293.57 1
-11 7 4 -120.155 286.184 1
-11 7 3 184.101 281.441 1
-11 7 2 -25.6978 275.691 1
-11 7 -3 754.44 335.879 2
-11 6 8 350.129 330.388 1
-11 6 7 -49.3631 216.764 1
-11 6 6 479.433 341.305 1
-11 6 5 247.847 336.328 1
-11 6 4 98.6143 207.977 1
-11 6 3 441.851 300.244 1
-11 6 2 -368.769 313.66 1
-11 6 1 172.869 318.974 1
-11 6 -3 13.6963 224.34 2
-11 5 8 -213.514 349.048 1
-11 5 7 284.984 326.055 1
-11 5 6 317.645 309.034 1
-11 5 5 221.937 301.103 1
-11 5 4 -80.063 267.403 1
-11 5 3 370.874 295.119 1
-11 5 2 41.1118 237.568 1
-11 5 1 414.86 301.498 1
-11 5 0 17.3832 226.238 1
-11 5 -3 324.058 267.217 2
-11 4 9 -380.781 314.958 1
-11 4 8 1008.39 437.849 1
-11 4 7 -341.091 289.372 1
-11 4 6 382.975 357.052 1
-11 4 5 -465.587 333.324 1
-11 4 4 678.913 371.337 1
-11 4 3 -148.031 251.331 1
-11 4 2 309.322 259.62 1
-11 4 1 62.294 258.717 1
-11 4 0 -91.7229 246.384 1
-11 3 9 140.281 279.78 1
-11 3 8 62.9499 245.054 1
-11 3 7 161.136 199.607 1
-11 3 6 33.2028 289.803 1
-11 3 5 -108.22 295.36 1
-11 3 4 -305.725 242.556 1
-11 3 3 61.6047 244.022 1
-11 3 2 81.3148 221.525 1
-11 3 1 -9.93719 242.352 1
-11 3 0 213.271 232.645 1
-11 3 -1 253.999 272.394 1
-11 2 9 -156.086 343.266 1
-11 2 8 148.244 294.159 1
-11 2 7 453.948 359.52 1
-11 2 6 -432.871 351.765 1
-11 2 5 41.4271 260.767 1
-11 2 4 387.399 322.36 1
-11 2 3 356.035 338.294 1
-11 2 2 139.427 276.524 1
-11 2 1 165.97 232.683 1
-11 2 0 254.596 306.608 1
-11 2 -1 -10.4918 304.295 1
-11 1 9 356.643 272.596 1
-11 1 8 -330.881 328.267 1
-11 1 7 -80.8348 235.504 1
-11 1 6 357.074 301.096 1
-11 1 5 189.428 260.031 1
-11 1 4 51.0338 282.208 1
-11 1 3 309.157 274.407 1
-11 1 2 -503.461 369.47 1
-11 1 1 -269.153 267.406 1
-11 1 0 -273.231 294.894 1
-11 1 -1 109.769 303.066 1
-11 0 8 -135.8 265.487 1
-11 0 7 139.951 286.631 1
-11 0 6 399.711 355.143 1
-11 0 5 148.385 225.726 1
-11 0 4 -378.401 299.252 1
-11 0 3 476.563 314.928 1
-11 0 2 -11.1117 265.606 1
-11 0 1 -233.078 288.182 1
-11 0 0 386.218 326.332 1
-11 0 -1 528.219 365.178 1
-11 -1 8 247.142 354.333 1
-11 -1 7 -77.7918 296.331 1
-11 -1 6 231.572 203.737 1
-11 -1 5 -88.4979 217.671 1
-11 -1 4 -20.8594 238.45 1
-11 -1 3 43.9442 245.677 1
-11 -1 2 2.32081 256.241 1
-11 -1 1 172.005 313.115 1
-11 -1 0 11.6463 234.713 1
-11 -2 7 -562.077 378.681 1
-11 -2 6 135.052 247.827 1
-11 -2 5 29.2047 258.381 1
-11 -2 4 346.131 309.002 1
-11 -2 3 21.6956 256.701 1
-11 -2 2 820.539 437.493 1
-11 -2 1 117.069 338.634 1
-11 -3 5 289.435 299.218 1
-11 -3 4 -32.4381 267.409 1
-11 -3 3 99.8542 307.297 1
-11 -3 2 647.023 415.023 1
loop_
_cod_related_entry_id
_cod_related_entry_database
_cod_related_entry_code
1 PubChem 139051697
