#------------------------------------------------------------------------------
#$Date: 2025-08-19 00:06:14 +0300 (Tue, 19 Aug 2025) $
#$Revision: 301780 $
#$URL: file:///home/coder/svn-repositories/cod/cif/1/55/31/1553162.cif $
#------------------------------------------------------------------------------
#
# This file is available in the Crystallography Open Database (COD),
# http://www.crystallography.net/
#
# All data on this site have been placed in the public domain by the
# contributors.
#
data_1553162
loop_
_publ_author_name
'Yang, Hai-Bin'
'Fan, Xing'
'Wei, Yin'
'Shi, Min'
_publ_section_title
;
 Solvent-controlled nucleophilic trifluoromethylthiolation of
 Morita--Baylis--Hillman carbonates: dual roles of DABCO in activating the
 Zard's trifluoromethylthiolation reagent and the MBH carbonates
;
_journal_issue                   9
_journal_name_full               'Organic Chemistry Frontiers'
_journal_page_first              1088
_journal_paper_doi               10.1039/C5QO00198F
_journal_volume                  2
_journal_year                    2015
_chemical_formula_moiety         'C10 H9 F3 O2 S2'
_chemical_formula_sum            'C10 H9 F3 O2 S2'
_chemical_formula_weight         282.29
_space_group_crystal_system      monoclinic
_space_group_IT_number           14
_space_group_name_Hall           '-P 2yn'
_space_group_name_H-M_alt        'P 1 21/n 1'
_atom_sites_solution_hydrogens   geom
_atom_sites_solution_primary     direct
_audit_creation_date             2015-01-27
_audit_creation_method
;
Olex2 1.2
(compiled 2014.07.22 svn.r2960 for OlexSys, GUI svn.r4862)
;
_audit_update_record
;
2015-02-10 deposited with the CCDC.
2015-07-20 downloaded from the CCDC.
;
_cell_angle_alpha                90
_cell_angle_beta                 100.2830(10)
_cell_angle_gamma                90
_cell_formula_units_Z            4
_cell_length_a                   9.4647(7)
_cell_length_b                   5.7312(5)
_cell_length_c                   22.1678(18)
_cell_measurement_reflns_used    5942
_cell_measurement_temperature    130
_cell_measurement_theta_max      30.520
_cell_measurement_theta_min      2.526
_cell_volume                     1183.16(17)
_computing_cell_refinement       'SAINT v7.68A (Bruker, 2009)'
_computing_data_reduction        'SAINT v7.68A (Bruker, 2009)'
_computing_molecular_graphics    'Olex2 (Dolomanov et al., 2009)'
_computing_publication_material  'Olex2 (Dolomanov et al., 2009)'
_computing_structure_refinement  'XL (Sheldrick, 2008)'
_computing_structure_solution    'ShelXS (Sheldrick, 2008)'
_diffrn_ambient_temperature      130
_diffrn_measured_fraction_theta_full 0.999
_diffrn_measured_fraction_theta_max 0.998
_diffrn_measurement_device_type  'Bruker APEX-II CCD'
_diffrn_measurement_method       '\f and \w scans'
_diffrn_radiation_monochromator  graphite
_diffrn_radiation_type           MoK\a
_diffrn_radiation_wavelength     0.71073
_diffrn_reflns_av_R_equivalents  0.0171
_diffrn_reflns_av_unetI/netI     0.0181
_diffrn_reflns_Laue_measured_fraction_full 0.999
_diffrn_reflns_Laue_measured_fraction_max 0.998
_diffrn_reflns_limit_h_max       13
_diffrn_reflns_limit_h_min       -13
_diffrn_reflns_limit_k_max       8
_diffrn_reflns_limit_k_min       -8
_diffrn_reflns_limit_l_max       31
_diffrn_reflns_limit_l_min       -28
_diffrn_reflns_number            11335
_diffrn_reflns_point_group_measured_fraction_full 0.999
_diffrn_reflns_point_group_measured_fraction_max 0.998
_diffrn_reflns_theta_full        25.242
_diffrn_reflns_theta_max         30.522
_diffrn_reflns_theta_min         1.867
_diffrn_standards_number         0
_exptl_absorpt_coefficient_mu    0.475
_exptl_absorpt_correction_T_max  0.7461
_exptl_absorpt_correction_T_min  0.6875
_exptl_absorpt_correction_type   multi-scan
_exptl_absorpt_process_details
;
SADABS-2008/1 (Bruker,2008) was used for absorption correction.
wR2(int) was 0.0414 before and 0.0310 after correction.
The Ratio of minimum to maximum transmission is 0.9215.
The \l/2 correction factor is 0.0015.
;
_exptl_crystal_colour            colourless
_exptl_crystal_density_diffrn    1.585
_exptl_crystal_description       block
_exptl_crystal_F_000             576
_exptl_crystal_size_max          0.25
_exptl_crystal_size_mid          0.22
_exptl_crystal_size_min          0.18
_refine_diff_density_max         1.962
_refine_diff_density_min         -1.421
_refine_diff_density_rms         0.140
_refine_ls_extinction_method     none
_refine_ls_goodness_of_fit_ref   1.053
_refine_ls_hydrogen_treatment    constr
_refine_ls_matrix_type           full
_refine_ls_number_parameters     155
_refine_ls_number_reflns         3606
_refine_ls_number_restraints     7
_refine_ls_restrained_S_all      1.106
_refine_ls_R_factor_all          0.0717
_refine_ls_R_factor_gt           0.0645
_refine_ls_shift/su_max          0.000
_refine_ls_shift/su_mean         0.000
_refine_ls_structure_factor_coef Fsqd
_refine_ls_weighting_details
'w=1/[\s^2^(Fo^2^)+(0.1152P)^2^+2.2469P] where P=(Fo^2^+2Fc^2^)/3'
_refine_ls_weighting_scheme      calc
_refine_ls_wR_factor_gt          0.1972
_refine_ls_wR_factor_ref         0.2047
_reflns_Friedel_coverage         0.000
_reflns_number_gt                3105
_reflns_number_total             3606
_reflns_threshold_expression     'I > 2\s(I)'
_cod_data_source_file            c5qo00198f2.cif
_cod_data_source_block           mo_dm15091_0m
_cod_database_code               1553162
_shelxl_version_number           2014-3
_shelx_space_group_comment
;
The symmetry employed for this shelxl refinement is uniquely defined
by the following loop, which should always be used as a source of
symmetry information in preference to the above space-group names.
They are only intended as comments.
;
_shelx_estimated_absorpt_t_max   0.919
_shelx_estimated_absorpt_t_min   0.891
_olex2_refinement_description
;
1. Fixed Uiso
 At 1.2 times of:
  All C(H) groups, All C(H,H) groups
 At 1.5 times of:
  All C(H,H,H) groups
2. Restrained distances
 C3-C4
 1.35 with sigma of 0.01
3. Uiso/Uaniso restraints and constraints
Uanis(C3) \\sim Ueq: with sigma of 0.005 and sigma for terminal atoms of 0.01
4.a Secondary CH2 refined with riding coordinates:
 C7(H7A,H7B)
4.b Aromatic/amide H refined with riding coordinates:
 C1(H1), C2(H2), C3(H3), C5(H5)
4.c Idealised Me refined as rotating group:
 C10(H10A,H10B,H10C)
;
_shelx_res_file
;
TITL mo_dm15091_0m in P2(1)/n
CELL 0.71073 9.4647 5.7312 22.1678 90 100.283 90
ZERR 4 0.0007 0.0005 0.0018 0 0.001 0
LATT 1
SYMM 0.5-X,0.5+Y,0.5-Z

SFAC C H F O S
UNIT 40 36 12 8 8
DFIX 1.35 0.01 C3 C4
ISOR 0.005 0.01 C3

L.S. 4
PLAN  -2 0 0
SIZE 0.18 0.22 0.25
TEMP -143.15
BOND $H
wpdb -1
MORE -1
CONF
fmap 2
acta
REM <HKL>D:/data/guest/dm15091/mo_dm15091_0m.hkl</HKL>

WGHT    0.115200    2.246900
FVAR       0.23221
S1    5    0.667848    0.623871    0.176676    11.00000    0.04115    0.03893 =
         0.03123   -0.00692    0.00149    0.00313
S2    5    0.284875    0.622732    0.146643    11.00000    0.03652    0.01941 =
         0.02256   -0.00061    0.01279    0.00395
F1    3    0.365739    1.049393    0.178237    11.00000    0.04995    0.02858 =
         0.04901   -0.01262   -0.00147   -0.00243
F2    3    0.173741    0.927847    0.207352    11.00000    0.07597    0.04268 =
         0.04779   -0.00956    0.03778    0.01340
F3    3    0.171155    1.031045    0.113741    11.00000    0.04722    0.03071 =
         0.04003   -0.00213   -0.00088    0.01688
O1    4    0.190346    0.419343   -0.001144    11.00000    0.02700    0.03408 =
         0.02589   -0.00870    0.00255    0.00933
O2    4    0.341090    0.127713   -0.011775    11.00000    0.03223    0.02232 =
         0.03191   -0.00840    0.00160    0.00536
C1    1    0.836972    0.561875    0.211190    11.00000    0.03303    0.03650 =
         0.02475   -0.00129   -0.00020    0.00137
AFIX  43
H1    2    0.888271    0.653355    0.243609    11.00000   -1.20000
AFIX   0
C2    1    0.893504    0.370421    0.188746    11.00000    0.03678    0.04046 =
         0.02947    0.00518    0.00256    0.01031
AFIX  43
H2    2    0.987520    0.317648    0.205422    11.00000   -1.20000
AFIX   0
C3    1    0.804587    0.248386    0.138017    11.00000    0.04570    0.02716 =
         0.01281    0.00676   -0.01113   -0.02153
AFIX  43
H3    2    0.827980    0.115292    0.116221    11.00000   -1.20000
AFIX   0
C4    1    0.664121    0.387482    0.128476    11.00000    0.02893    0.01980 =
         0.01993   -0.00082    0.00692    0.00194
C5    1    0.543487    0.321084    0.081624    11.00000    0.02766    0.01776 =
         0.01837   -0.00099    0.00747    0.00211
AFIX  43
H5    2    0.554120    0.175413    0.062479    11.00000   -1.20000
AFIX   0
C6    1    0.418436    0.432401    0.060727    11.00000    0.02797    0.01703 =
         0.01665   -0.00020    0.00865    0.00276
C7    1    0.376730    0.667291    0.081580    11.00000    0.03155    0.01645 =
         0.01866    0.00049    0.00945    0.00459
AFIX  23
H7A   2    0.312200    0.747388    0.047839    11.00000   -1.20000
H7B   2    0.463239    0.765071    0.094058    11.00000   -1.20000
AFIX   0
C8    1    0.247897    0.919818    0.161917    11.00000    0.03526    0.02533 =
         0.02583   -0.00555    0.00785    0.00605
C9    1    0.316186    0.309078    0.012607    11.00000    0.02411    0.02095 =
         0.01954    0.00129    0.00734    0.00266
C10   1    0.084700    0.303687   -0.046594    11.00000    0.02462    0.04909 =
         0.03178   -0.01127    0.00072    0.00404
AFIX 137
H10A  2    0.120968    0.291994   -0.085219    11.00000   -1.50000
H10B  2   -0.004710    0.393859   -0.053198    11.00000   -1.50000
H10C  2    0.066307    0.146893   -0.032140    11.00000   -1.50000
AFIX   0
HKLF 4

REM  mo_dm15091_0m in P2(1)/n
REM R1 =  0.0645 for    3105 Fo > 4sig(Fo)  and  0.0717 for all    3606 data
REM    155 parameters refined using      7 restraints

END

WGHT      0.1153      2.2469

REM Highest difference peak  1.962,  deepest hole -1.421,  1-sigma level  0.140
Q1    1   0.8347  0.2264  0.1334  11.00000  0.05    1.96
Q2    1   0.7641  0.2571  0.1378  11.00000  0.05    1.13
;
_shelx_res_checksum              79492
_shelx_hkl_file
;
   1   0   0    0.36    0.04
   2   0   0  918.78   12.67
   2   0   0  875.84   11.86
  -2   0   0  865.59   12.02
  -3   0   0   -0.13    0.04
   3   0   0   -0.05    0.03
   3   0   0    0.06    0.06
  -4   0   0  262.98    3.54
   4   0   0  268.57    3.49
   4   0   0  268.79    3.67
  -5   0   0   -0.05    0.05
   5   0   0    0.01    0.05
   5   0   0   -0.07    0.04
   6   0   0  213.88    2.83
  -6   0   0  207.91    2.90
   6   0   0  213.46    3.05
  -7   0   0   -0.06    0.07
   7   0   0    0.05    0.08
   7   0   0    0.02    0.05
   8   0   0   54.82    1.08
  -8   0   0   55.71    0.96
  -9   0   0    0.14    0.11
   9   0   0    0.15    0.11
  10   0   0   -0.10    0.12
  11   0   0   -0.06    0.14
  12   0   0    4.56    0.34
  13   0   0    0.11    0.16
   0   1   0   -0.06    0.02
   1  -1   0   39.19    0.59
   1  -1   0   40.48    0.59
   1   1   0   39.38    0.60
  -1   1   0   40.59    0.57
   1   1   0   40.64    0.55
   2  -1   0   16.09    0.31
   2  -1   0   15.85    0.28
   2   1   0   15.73    0.30
  -2   1   0   15.63    0.26
   2   1   0   15.61    0.27
   3  -1   0  100.40    1.37
   3  -1   0   99.08    1.46
   3   1   0  100.99    1.42
  -3   1   0   98.28    1.36
   3   1   0   98.97    1.41
   3   1   0   99.67    1.36
   4  -1   0   77.25    1.08
  -4  -1   0   73.80    1.13
   4  -1   0   75.46    1.18
  -4   1   0   74.03    1.07
   4   1   0   75.40    1.14
   4   1   0   74.63    1.06
  -5  -1   0   91.70    1.39
   5  -1   0   93.81    1.32
   5  -1   0   92.81    1.46
   5   1   0   92.56    1.30
  -5   1   0   91.08    1.32
   5   1   0   92.87    1.42
   6  -1   0   20.39    0.51
   6  -1   0   19.83    0.40
  -6  -1   0   20.00    0.45
   6   1   0   19.65    0.38
   6   1   0   20.09    0.48
  -6   1   0   20.40    0.41
   7  -1   0   16.58    0.37
  -7  -1   0   16.06    0.42
   7  -1   0   16.17    0.47
  -7   1   0   16.20    0.38
   7   1   0   15.38    0.33
   7   1   0   16.29    0.46
   8  -1   0   22.56    0.63
  -8  -1   0   22.88    0.55
   8   1   0   22.45    0.59
  -8   1   0   22.88    0.50
  -9  -1   0    2.90    0.22
   9  -1   0    2.79    0.26
   9   1   0    2.89    0.23
 -10  -1   0   14.04    0.46
  10  -1   0   13.14    0.52
  10   1   0   13.05    0.50
  11  -1   0   -0.05    0.14
  11   1   0    0.12    0.14
  12  -1   0    0.66    0.19
  12   1   0    0.83    0.20
  13  -1   0    1.20    0.24
  13   1   0    1.20    0.24
   0  -2   0   82.60    1.14
   0  -2   0   84.78    1.22
   0   2   0   82.70    1.20
   1  -2   0    2.47    0.09
   1  -2   0    2.43    0.12
   1   2   0    2.63    0.13
  -1   2   0    2.57    0.11
   2  -2   0   69.52    1.04
   2  -2   0   69.58    1.04
  -2   2   0   69.95    1.01
   2   2   0   70.38    1.07
   2   2   0   69.23    0.97
   3  -2   0    1.22    0.11
   3  -2   0    1.16    0.11
   3   2   0    1.50    0.12
  -3   2   0    1.31    0.10
   3   2   0    1.73    0.09
   4  -2   0   20.09    0.46
   4  -2   0   20.30    0.42
  -4   2   0   19.71    0.38
   4   2   0   19.80    0.45
   4   2   0   20.34    0.39
  -5  -2   0    7.43    0.28
   5  -2   0    7.21    0.28
   5  -2   0    6.79    0.24
  -5   2   0    7.14    0.21
   5   2   0    7.40    0.28
   5   2   0    7.17    0.24
  -6  -2   0   11.44    0.36
   6  -2   0   11.93    0.39
   6  -2   0   12.55    0.32
   6   2   0   12.12    0.34
  -6   2   0   11.78    0.29
  -7  -2   0   18.40    0.50
   7  -2   0   18.32    0.42
   7  -2   0   18.49    0.53
   7   2   0   18.66    0.48
  -7   2   0   18.82    0.41
   8  -2   0    0.86    0.12
   8  -2   0    0.22    0.14
  -8  -2   0    0.68    0.14
   8   2   0    0.36    0.12
  -9  -2   0    6.44    0.32
   9  -2   0    6.40    0.36
   9   2   0    6.52    0.32
  10  -2   0    1.43    0.22
 -10  -2   0    1.50    0.22
  10   2   0    1.53    0.20
  11  -2   0   13.21    0.56
 -11  -2   0   13.59    0.50
  11   2   0   12.62    0.50
  12  -2   0    1.27    0.24
  12   2   0    1.63    0.24
   0  -3   0    0.13    0.09
   0  -3   0    0.00    0.04
   0   3   0    0.10    0.07
   1  -3   0   13.17    0.27
   1  -3   0   13.84    0.36
   1   3   0   13.61    0.35
  -1   3   0   13.81    0.33
   2  -3   0   24.62    0.46
   2  -3   0   25.08    0.52
   2   3   0   24.41    0.52
  -2   3   0   24.62    0.48
   3  -3   0   38.39    0.69
   3  -3   0   39.39    0.72
  -3   3   0   38.59    0.66
   3   3   0   39.14    0.75
   4  -3   0   68.88    1.13
   4  -3   0   69.61    1.15
   4   3   0   68.61    1.02
   4   3   0   70.41    1.19
  -4   3   0   68.94    1.06
   5  -3   0   36.65    0.74
   5  -3   0   35.23    0.69
   5   3   0   35.35    0.76
  -5   3   0   35.97    0.63
   5   3   0   35.04    0.62
   6  -3   0   60.36    1.02
  -6  -3   0   58.32    1.10
   6  -3   0   60.89    1.11
   6   3   0   57.40    1.10
  -6   3   0   59.74    0.96
   6   3   0   60.08    0.99
  -7  -3   0    0.73    0.17
   7  -3   0    0.80    0.13
   7  -3   0    0.71    0.15
   7   3   0    0.75    0.12
  -8  -3   0   10.02    0.41
   8  -3   0    9.81    0.34
   8  -3   0    9.29    0.42
   8   3   0    9.01    0.34
   9  -3   0    0.05    0.12
  -9  -3   0   -0.18    0.13
   9   3   0    0.05    0.10
  10  -3   0    2.22    0.28
 -10  -3   0    2.49    0.28
 -11  -3   0    1.90    0.26
  11  -3   0    2.07    0.28
  12  -3   0   -0.17    0.16
 -12  -3   0   -0.12    0.15
   0  -4   0  231.82    3.26
   0  -4   0  229.00    3.06
   0   4   0  229.92    3.23
  -1  -4   0    5.51    0.27
   1  -4   0    6.12    0.27
   1  -4   0    5.60    0.17
   1   4   0    5.56    0.26
  -1   4   0    5.44    0.24
   2  -4   0   64.36    1.12
   2  -4   0   66.13    1.01
  -2  -4   0   63.66    1.11
   2   4   0   63.40    1.13
  -2   4   0   64.36    1.07
   3  -4   0    0.07    0.12
   3  -4   0   -0.23    0.08
   3   4   0    0.61    0.14
  -3   4   0    0.33    0.10
   4  -4   0    0.45    0.13
   4  -4   0    0.37    0.12
   4   4   0    0.50    0.14
  -4   4   0    0.67    0.12
   5  -4   0    6.71    0.31
   5  -4   0    6.24    0.31
   5   4   0    6.18    0.33
  -5   4   0    6.37    0.26
   6  -4   0    6.94    0.30
   6  -4   0    6.92    0.32
  -6   4   0    7.23    0.27
   6   4   0    6.72    0.36
   7  -4   0   -0.01    0.10
  -7  -4   0   -0.07    0.13
   7  -4   0   -0.02    0.10
   8  -4   0    0.64    0.17
  -8  -4   0    0.71    0.18
   8  -4   0    0.85    0.16
  -9  -4   0    0.70    0.19
   9  -4   0    0.78    0.18
 -10  -4   0    0.16    0.17
  10  -4   0   -0.07    0.15
  11  -4   0    0.05    0.17
 -11  -4   0    0.12    0.16
   0  -5   0   -0.16    0.11
   0   5   0   -0.02    0.11
   1  -5   0    0.32    0.13
  -1  -5   0   -0.03    0.12
  -1   5   0    0.06    0.11
   1   5   0    0.16    0.12
   2  -5   0    1.77    0.21
  -2  -5   0    1.50    0.19
   2   5   0    1.38    0.20
  -2   5   0    1.79    0.18
  -3  -5   0    4.54    0.28
   3  -5   0    4.38    0.29
   3   5   0    4.39    0.28
  -3   5   0    4.51    0.25
   4  -5   0    3.95    0.24
   4  -5   0    3.74    0.26
  -4  -5   0    3.73    0.26
  -4   5   0    4.13    0.23
   4   5   0    4.12    0.30
   5  -5   0    2.22    0.21
   5  -5   0    2.32    0.24
  -5  -5   0    2.23    0.23
   5   5   0    2.12    0.25
  -5   5   0    2.09    0.20
  -6  -5   0    2.50    0.25
   6  -5   0    2.06    0.22
   6  -5   0    1.91    0.20
   6   5   0    1.86    0.25
  -7  -5   0    6.35    0.33
  -7  -5   0    6.05    0.38
   7  -5   0    6.02    0.33
   7  -5   0    6.17    0.34
   7   5   0    5.43    0.37
  -8  -5   0   11.98    0.53
   8  -5   0   11.91    0.50
   8  -5   0   11.34    0.46
   9  -5   0    3.12    0.30
  -9  -5   0    3.12    0.34
  10  -5   0    8.14    0.46
 -10  -5   0    7.14    0.46
   0  -6   0    7.41    0.37
   0   6   0    7.41    0.36
  -1  -6   0   16.92    0.56
   1  -6   0   15.98    0.55
  -1   6   0   16.88    0.52
   1   6   0   16.41    0.53
   2  -6   0   11.29    0.47
  -2  -6   0   11.63    0.47
  -2   6   0   11.16    0.42
   2   6   0   10.75    0.45
  -3  -6   0    6.07    0.35
   3  -6   0    5.99    0.35
   3   6   0    6.67    0.36
  -3   6   0    5.87    0.31
   4  -6   0    1.49    0.23
  -4  -6   0    1.80    0.23
  -4   6   0    1.71    0.21
   4   6   0    2.16    0.27
   5  -6   0    4.84    0.32
  -5  -6   0    4.80    0.33
   5   6   0    4.57    0.36
  -6  -6   0   -0.11    0.14
   6  -6   0    0.23    0.16
   6   6   0   -0.02    0.15
  -7  -6   0    1.36    0.26
   7  -6   0    0.68    0.19
  -7  -6   0    0.78    0.20
   7   6   0    0.84    0.22
  -8  -6   0    0.47    0.20
  -9  -6   0    3.13    0.37
   0  -7   0    0.00    0.15
   0   7   0   -0.21    0.15
  -1  -7   0    0.80    0.22
   1  -7   0    0.43    0.18
  -1   7   0    0.43    0.18
   1   7   0    0.51    0.19
  -2  -7   0    1.88    0.26
   2  -7   0    1.99    0.28
  -2   7   0    2.03    0.25
   2   7   0    1.94    0.27
  -3  -7   0    6.26    0.38
   3  -7   0    7.09    0.41
   3   7   0    6.41    0.40
  -3   7   0    6.81    0.37
  -4  -7   0    1.19    0.23
   4  -7   0    1.57    0.26
   4   7   0    1.89    0.28
  -5  -7   0    5.29    0.36
   5  -7   0    5.02    0.36
   5   7   0    5.83    0.40
   6  -7   0    1.98    0.28
  -6  -7   0    1.57    0.26
   6   7   0    1.67    0.29
   0  -8   0    2.13    0.30
   0   8   0    1.95    0.28
   1  -8   0    3.23    0.36
  -1  -8   0    3.45    0.33
   1   8   0    3.32    0.36
  -1   8   0    3.26    0.32
   2  -8   0    8.98    0.50
  -2  -8   0    9.18    0.49
   2   8   0    8.25    0.48
  13   0  -1    9.18    0.49
  12   0  -1    0.15    0.15
  11   0  -1   23.41    0.72
 -10   0   1   -0.04    0.12
  10   0  -1    0.01    0.14
  -9   0   1    2.01    0.19
   9   0  -1    1.83    0.21
  -8   0   1   -0.15    0.10
   7   0  -1   46.89    0.72
  -7   0   1   48.03    0.84
   7   0  -1   47.19    0.92
  -6   0   1    0.03    0.07
   6   0  -1    0.09    0.05
   6   0  -1   -0.26    0.08
   5   0  -1   19.85    0.45
   5   0  -1   19.97    0.34
  -5   0   1   19.50    0.40
   4   0  -1   -0.01    0.03
   4   0  -1   -0.09    0.05
  -4   0   1   -0.01    0.05
  -3   0   1   11.11    0.23
   3   0  -1   11.12    0.19
   3   0  -1   10.94    0.25
  -2   0   1    0.15    0.03
  -1   0   1   22.54    0.33
   0   0   1    0.00    0.00
   0   0   1    0.00    0.00
   0   0  -1    0.00    0.00
   1   0   1  283.80    4.02
   1   0   1  280.47    3.86
   1   0   1  284.89    4.02
   2   0   1    0.04    0.03
  -2   0  -1   -0.03    0.02
  -3   0  -1  236.86    3.17
   3   0   1  247.77    3.17
   3   0   1  240.88    3.29
   4   0   1   -0.16    0.05
  -4   0  -1   -0.15    0.05
   4   0   1   -0.11    0.05
  -5   0  -1   23.88    0.45
   5   0   1   24.62    0.44
   5   0   1   24.84    0.52
  -6   0  -1    0.05    0.07
   6   0   1   -0.03    0.07
   6   0   1    0.09    0.06
  -7   0  -1   12.68    0.33
   7   0   1   13.18    0.42
   7   0   1   13.31    0.31
   8   0   1    0.47    0.17
   9   0   1    0.03    0.12
  -9   0  -1    0.10    0.11
  10   0   1    0.13    0.14
  11   0   1    0.18    0.15
  12   0   1   -0.01    0.14
  13   0   1    2.40    0.29
  13  -1  -1    4.23    0.38
  13   1  -1    4.26    0.37
  12  -1  -1   -0.05    0.14
  12   1  -1   -0.06    0.12
 -11  -1   1    5.62    0.32
  11  -1  -1    5.10    0.36
  11   1  -1    5.74    0.35
  10  -1  -1    1.48    0.22
 -10  -1   1    1.92    0.22
  10   1  -1    1.16    0.18
  -9  -1   1   15.20    0.46
   9  -1  -1   15.95    0.53
   9   1  -1   15.91    0.51
  -9   1   1   15.59    0.43
   8  -1  -1    2.22    0.22
  -8  -1   1    2.39    0.20
  -8   1   1    2.78    0.19
   8   1  -1    2.29    0.21
   7  -1  -1   25.11    0.62
  -7  -1   1   25.38    0.57
   7  -1  -1   26.74    0.48
  -7   1   1   25.66    0.52
   7   1  -1   26.41    0.60
   7   1  -1   25.53    0.45
   6  -1  -1   47.22    0.89
  -6  -1   1   46.22    0.83
   6  -1  -1   48.12    0.74
   6   1  -1   46.82    0.72
  -6   1   1   46.96    0.78
   6   1  -1   47.60    0.86
  -5  -1   1  159.39    2.28
   5  -1  -1  164.09    2.19
  -5   1   1  158.29    2.23
   5   1  -1  164.18    2.33
   5   1  -1  164.05    2.17
  -4  -1   1   46.10    0.76
   4  -1  -1   47.36    0.69
   4  -1  -1   45.92    0.79
  -4   1   1   45.88    0.71
   4   1  -1   45.75    0.68
   4   1  -1   45.57    0.75
  -3  -1   1  168.31    2.30
   3  -1  -1  166.12    2.36
   3  -1  -1  171.25    2.24
   3   1  -1  169.79    2.31
  -3   1   1  168.25    2.26
   2  -1  -1   54.17    0.77
   2  -1  -1   54.79    0.82
   2   1  -1   53.40    0.81
   2   1  -1   54.25    0.78
  -2   1   1   54.83    0.78
   1  -1  -1    1.35    0.07
   1  -1  -1    1.39    0.07
   1   1  -1    1.33    0.07
  -1   1   1    1.26    0.06
   1   1  -1    1.18    0.04
   0  -1   1  175.84    2.43
   0  -1   1  175.46    2.35
   0   1   1  179.49    2.36
   0   1  -1  183.04    2.35
   1  -1   1   15.98    0.28
   1  -1   1   15.58    0.27
  -1   1  -1   15.54    0.25
   1   1   1   15.37    0.25
   1   1   1   15.64    0.28
   2  -1   1   30.41    0.48
   2  -1   1   30.17    0.50
   2   1   1   30.93    0.48
  -2   1  -1   30.05    0.44
   2   1   1   30.10    0.50
   2   1   1   29.77    0.48
   3  -1   1   18.51    0.34
   3   1   1   18.13    0.35
  -3   1  -1   17.71    0.30
   3   1   1   18.20    0.36
   3   1   1   17.97    0.33
   4  -1   1    3.84    0.14
  -4  -1  -1    3.29    0.14
   4  -1   1    3.03    0.16
  -4   1  -1    3.46    0.12
   4   1   1    3.22    0.15
   4   1   1    3.33    0.13
   4   1   1    3.48    0.16
  -5  -1  -1    0.25    0.08
   5  -1   1    0.32    0.07
   5  -1   1    0.21    0.09
   5   1   1    0.13    0.08
   5   1   1    0.11    0.06
  -5   1  -1    0.18    0.06
   6  -1   1    6.73    0.22
  -6  -1  -1    6.70    0.24
   6  -1   1    6.40    0.27
   6   1   1    6.35    0.20
   6   1   1    6.77    0.27
  -6   1  -1    6.47    0.21
  -7  -1  -1    0.16    0.09
   7  -1   1    0.16    0.08
   7  -1   1    0.03    0.09
   7   1   1    0.23    0.10
  -7   1  -1    0.02    0.07
   7   1   1    0.11    0.07
  -8  -1  -1   54.79    0.99
   8  -1   1   56.28    1.11
   8  -1   1   55.60    0.92
   8   1   1   55.71    1.07
  -8   1  -1   55.93    0.93
  -9  -1  -1    0.63    0.14
   9  -1   1    0.58    0.15
   9   1   1    0.71    0.15
 -10  -1  -1   12.58    0.43
  10  -1   1   13.24    0.52
  10   1   1   13.16    0.50
  11  -1   1    3.64    0.32
  11   1   1    3.42    0.30
  12  -1   1    0.23    0.15
  12   1   1    0.17    0.15
  13  -1   1    2.80    0.32
  13   1   1    2.76    0.32
  12  -2  -1    1.66    0.26
  12   2  -1    2.24    0.27
 -11  -2   1    0.07    0.14
  11  -2  -1   -0.01    0.16
  11   2  -1    0.02    0.14
  10  -2  -1    7.62    0.40
 -10  -2   1    7.64    0.37
  10   2  -1    7.56    0.36
  -9  -2   1    2.63    0.23
   9  -2  -1    2.03    0.24
   9   2  -1    2.74    0.25
  -8  -2   1    6.03    0.30
   8  -2  -1    6.52    0.34
  -8   2   1    6.78    0.26
   8   2  -1    6.17    0.29
   7  -2  -1    4.02    0.25
  -7  -2   1    3.75    0.24
   7  -2  -1    3.54    0.18
  -7   2   1    3.86    0.19
   7   2  -1    3.58    0.21
   6  -2  -1   51.00    0.96
  -6  -2   1   50.07    0.92
   6  -2  -1   50.18    0.83
  -6   2   1   49.18    0.82
   6   2  -1   50.56    0.88
   5  -2  -1   17.63    0.45
  -5  -2   1   17.46    0.43
   5  -2  -1   17.25    0.38
  -5   2   1   17.15    0.37
   5   2  -1   17.61    0.39
   4  -2  -1   72.59    1.16
   4  -2  -1   70.56    1.07
   4   2  -1   73.30    1.16
   4   2  -1   69.99    1.07
  -4   2   1   69.64    1.06
   3  -2  -1   18.22    0.40
   3  -2  -1   18.63    0.38
  -3   2   1   18.80    0.36
   3   2  -1   18.42    0.33
   3   2  -1   18.57    0.41
   2  -2  -1    1.40    0.10
   2  -2  -1    1.63    0.11
   2   2  -1    1.49    0.06
   2   2  -1    1.44    0.11
  -2   2   1    1.60    0.09
   1  -2  -1  203.87    2.78
   1  -2  -1  208.62    2.78
   1   2  -1  204.15    2.78
  -1   2   1  207.40    2.77
   0  -2   1  115.59    1.64
   0  -2   1  115.81    1.56
   0   2   1  118.96    1.64
   0   2  -1  118.09    1.63
   1  -2   1  120.51    1.65
   1  -2   1  121.39    1.69
  -1   2  -1  118.62    1.65
   1   2   1  120.63    1.70
   2  -2   1  376.33    4.93
   2  -2   1  371.46    5.00
  -2   2  -1  369.71    5.04
   2   2   1  373.48    5.04
   2   2   1  376.19    4.95
   3  -2   1   25.24    0.49
   3  -2   1   25.05    0.48
  -3   2  -1   24.48    0.42
   3   2   1   25.51    0.51
   3   2   1   25.41    0.44
   4  -2   1   29.06    0.59
   4  -2   1   29.28    0.55
  -4   2  -1   29.26    0.49
   4   2   1   29.31    0.59
   4   2   1   29.34    0.53
   5  -2   1   49.76    0.91
   5  -2   1   50.00    0.83
   5   2   1   51.12    0.89
  -5   2  -1   48.91    0.77
   5   2   1   49.04    0.84
   6  -2   1    5.89    0.27
  -6  -2  -1    5.46    0.25
   6  -2   1    5.67    0.22
   6   2   1    5.64    0.23
  -6   2  -1    5.95    0.19
   7  -2   1    0.05    0.08
   7  -2   1    0.03    0.09
  -7  -2  -1    0.11    0.10
  -7   2  -1    0.10    0.07
   7   2   1    0.22    0.09
   8  -2   1    1.92    0.22
   8  -2   1    1.92    0.16
  -8  -2  -1    2.15    0.21
   8   2   1    1.88    0.19
   9  -2   1    1.74    0.22
  -9  -2  -1    2.17    0.21
   9   2   1    1.90    0.20
 -10  -2  -1    3.56    0.27
  10  -2   1    3.08    0.30
  10   2   1    2.94    0.26
 -11  -2  -1   -0.06    0.14
  11  -2   1   -0.11    0.15
  11   2   1   -0.15    0.12
  12  -2   1    0.47    0.19
  12   2   1    0.47    0.17
  12  -3  -1   -0.02    0.17
 -12  -3   1   -0.06    0.15
 -11  -3   1    0.54    0.19
  11  -3  -1    0.08    0.15
 -10  -3   1    9.21    0.43
  10  -3  -1    9.50    0.47
  -9  -3   1    4.93    0.32
   9  -3  -1    5.21    0.34
   9   3  -1    4.72    0.26
  -8  -3   1   16.33    0.54
   8  -3  -1   17.80    0.46
   8  -3  -1   17.96    0.57
   8   3  -1   18.07    0.48
   7  -3  -1   47.53    0.87
   7  -3  -1   50.47    1.01
  -7  -3   1   48.23    0.98
   7   3  -1   48.84    0.88
  -7   3   1   48.07    0.84
  -6  -3   1    4.44    0.25
   6  -3  -1    4.24    0.25
   6  -3  -1    4.14    0.21
  -6   3   1    4.24    0.20
   6   3  -1    4.19    0.20
   5  -3  -1   47.84    0.84
   5  -3  -1   46.92    0.89
   5   3  -1   46.91    0.77
   5   3  -1   45.25    0.90
  -5   3   1   46.57    0.79
   4  -3  -1   17.20    0.43
   4  -3  -1   17.61    0.42
  -4   3   1   17.36    0.39
   4   3  -1   18.11    0.47
   4   3  -1   17.09    0.33
   3  -3  -1    2.86    0.17
   3  -3  -1    3.00    0.16
  -3   3   1    3.27    0.16
   3   3  -1    3.13    0.19
   2  -3  -1   14.37    0.37
   2  -3  -1   13.58    0.31
   2   3  -1   13.96    0.37
  -2   3   1   13.83    0.33
   1  -3  -1   52.97    0.90
   1  -3  -1   53.99    0.81
  -1  -3   1   53.09    0.90
  -1   3   1   54.66    0.88
   1   3  -1   53.82    0.90
   0  -3  -1  225.94    2.98
   0  -3   1  224.56    3.08
   0  -3   1  217.48    2.95
   0   3  -1  223.07    3.05
   0   3   1  224.12    3.07
   1  -3   1   10.07    0.30
   1  -3   1    9.22    0.21
   1   3   1    9.61    0.29
  -1   3  -1    9.69    0.27
   2  -3   1   16.93    0.41
   2  -3   1   16.27    0.35
  -2   3  -1   17.21    0.37
   2   3   1   17.77    0.43
   3  -3   1   21.16    0.47
   3  -3   1   21.29    0.45
   3   3   1   21.27    0.50
  -3   3  -1   20.16    0.41
   4  -3   1    0.73    0.12
   4  -3   1    0.70    0.12
  -4   3  -1    0.82    0.10
   4   3   1    0.62    0.08
   4   3   1    0.76    0.13
   5  -3   1    6.59    0.29
   5  -3   1    6.46    0.26
  -5   3  -1    6.82    0.22
   5   3   1    6.93    0.22
   5   3   1    7.00    0.30
  -6  -3  -1    0.75    0.14
   6  -3   1    0.71    0.13
   6  -3   1    0.78    0.15
   6   3   1    0.82    0.12
   6   3   1    0.52    0.13
  -6   3  -1    0.59    0.10
   7  -3   1    1.24    0.18
  -7  -3  -1    1.35    0.18
   7  -3   1    1.22    0.15
   7   3   1    1.39    0.15
   8  -3   1   40.97    0.81
   8  -3   1   41.37    0.94
  -8  -3  -1   40.96    0.91
   8   3   1   41.74    0.83
   9  -3   1    0.12    0.12
  -9  -3  -1    0.20    0.14
   9   3   1    0.35    0.12
  10  -3   1   19.28    0.67
 -10  -3  -1   18.87    0.62
  10   3   1   19.58    0.58
 -11  -3  -1    0.81    0.20
  11  -3   1    0.74    0.20
  12  -3   1    0.49    0.20
 -11  -4   1    8.72    0.47
  11  -4  -1    8.44    0.47
 -10  -4   1    0.37    0.19
  10  -4  -1    0.53    0.18
   9  -4  -1    0.09    0.13
  -9  -4   1    0.10    0.15
   8  -4  -1    0.44    0.16
   8  -4  -1    0.43    0.14
  -8  -4   1    0.43    0.17
   7  -4  -1    6.43    0.33
   7  -4  -1    6.25    0.30
  -7  -4   1    5.35    0.32
   6  -4  -1    8.93    0.34
   6  -4  -1    8.42    0.36
  -6  -4   1    7.77    0.36
  -6   4   1    8.52    0.30
   6   4  -1    8.36    0.38
   5  -4  -1    3.34    0.24
   5  -4  -1    3.61    0.24
   5   4  -1    4.06    0.27
  -5   4   1    3.68    0.21
   4  -4  -1   46.54    0.89
   4  -4  -1   46.80    0.87
  -4   4   1   46.23    0.83
   4   4  -1   46.83    0.95
   3  -4  -1    4.55    0.22
  -3  -4   1    4.54    0.24
   3  -4  -1    4.74    0.25
  -3   4   1    4.66    0.22
   3   4  -1    5.13    0.26
   2  -4  -1    0.08    0.07
   2  -4  -1    0.09    0.10
  -2  -4   1    0.04    0.09
  -2   4   1    0.65    0.11
   2   4  -1   -0.04    0.09
   1  -4  -1   24.64    0.44
  -1  -4   1   24.86    0.57
   1  -4  -1   24.86    0.58
   1   4  -1   25.02    0.57
  -1   4   1   24.97    0.55
   0  -4  -1    1.10    0.08
   0  -4   1    1.53    0.17
   0  -4  -1    1.34    0.17
   0   4  -1    1.64    0.16
   0   4   1    1.61    0.17
   1  -4   1   25.04    0.58
   1  -4   1   25.04    0.43
  -1  -4  -1   26.04    0.59
   1   4   1   25.37    0.58
  -1   4  -1   25.98    0.55
   2  -4   1    1.98    0.14
   2  -4   1    2.05    0.18
   2   4   1    2.69    0.20
  -2   4  -1    2.16    0.16
   3  -4   1  200.23    2.83
   3  -4   1  200.95    2.89
  -3   4  -1  197.42    2.79
   3   4   1  201.62    2.93
   4  -4   1   19.82    0.48
   4  -4   1   19.83    0.52
   4   4   1   19.03    0.54
  -4   4  -1   19.10    0.44
   5  -4   1  109.67    1.75
   5  -4   1  110.80    1.75
   5   4   1  106.34    1.81
  -5   4  -1  111.83    1.64
   6  -4   1    0.86    0.15
   6  -4   1    0.80    0.14
   6   4   1    0.49    0.15
   7  -4   1    6.92    0.34
   7  -4   1    6.64    0.31
  -7  -4  -1    6.63    0.36
   7   4   1    6.57    0.36
  -8  -4  -1    0.20    0.14
   8  -4   1    0.24    0.13
   8  -4   1    0.31    0.15
  -9  -4  -1    3.64    0.31
   9  -4   1    3.47    0.30
 -10  -4  -1    0.15    0.17
  10  -4   1    0.28    0.17
 -11  -4  -1    2.88    0.33
  11  -4   1    2.36    0.30
 -10  -5   1    2.16    0.32
  10  -5  -1    1.68    0.26
  -9  -5   1   -0.04    0.15
   9  -5  -1    0.23    0.16
  -8  -5   1    5.42    0.37
   8  -5  -1    5.22    0.35
   7  -5  -1    0.28    0.13
  -7  -5   1    0.10    0.12
  -7  -5   1    0.19    0.15
   7  -5  -1    0.15    0.13
   6  -5  -1    2.54    0.23
   6  -5  -1    1.79    0.20
  -6  -5   1    2.06    0.23
   6   5  -1    2.12    0.26
  -5  -5   1    5.49    0.30
   5  -5  -1    5.35    0.31
   5  -5  -1    5.26    0.28
  -5   5   1    5.69    0.28
   5   5  -1    5.04    0.34
  -4  -5   1    0.11    0.11
   4  -5  -1   -0.12    0.08
   4  -5  -1    0.43    0.15
   4   5  -1    0.13    0.14
  -4   5   1    0.04    0.10
   3  -5  -1   19.89    0.57
  -3  -5   1   20.05    0.56
   3  -5  -1   20.18    0.47
  -3   5   1   20.57    0.52
   3   5  -1   19.35    0.57
  -2  -5   1    6.40    0.32
   2  -5  -1    7.08    0.33
  -2   5   1    6.71    0.30
   2   5  -1    7.25    0.33
  -1  -5   1   36.89    0.82
   1  -5  -1   38.10    0.83
   1   5  -1   38.75    0.82
  -1   5   1   37.98    0.79
   0  -5   1    5.48    0.30
   0  -5  -1    6.06    0.31
   0   5  -1    5.75    0.29
   0   5   1    5.54    0.29
  -1  -5  -1    1.45    0.20
   1  -5   1    1.23    0.17
   1   5   1    1.67    0.20
  -1   5  -1    1.33    0.17
  -2  -5  -1   11.13    0.42
   2  -5   1   11.15    0.42
   2   5   1   11.31    0.42
  -2   5  -1   11.79    0.38
   3  -5   1   44.03    0.94
  -3  -5  -1   46.28    0.95
  -3   5  -1   46.44    0.87
   3   5   1   44.95    0.97
   4  -5   1    0.29    0.11
   4  -5   1    0.29    0.14
   4   5   1    0.32    0.14
  -4   5  -1    0.43    0.12
   5  -5   1    0.08    0.11
   5  -5   1    0.51    0.15
   5   5   1    0.38    0.16
   6  -5   1   13.29    0.45
   6  -5   1   13.70    0.48
   6   5   1   12.79    0.52
  -7  -5  -1    1.18    0.22
   7  -5   1    1.19    0.19
   7  -5   1    0.92    0.18
   7   5   1    1.41    0.23
   8  -5   1   12.64    0.51
  -8  -5  -1   12.19    0.53
   8  -5   1   13.00    0.49
   9  -5   1    1.30    0.22
  -9  -5  -1    1.54    0.27
 -10  -5  -1    4.73    0.38
  10  -5   1    4.06    0.36
  -9  -6   1    0.08    0.19
  -8  -6   1    4.66    0.38
   7  -6  -1    0.75    0.20
  -7  -6   1    0.80    0.20
  -7  -6   1    1.05    0.24
   6  -6  -1    3.66    0.31
  -6  -6   1    3.82    0.31
  -6  -6   1    4.36    0.34
   6   6  -1    3.58    0.33
  -5  -6   1   14.80    0.53
   5  -6  -1   15.65    0.55
   5   6  -1   15.02    0.59
   4  -6  -1   -0.14    0.13
  -4  -6   1   -0.10    0.13
   4   6  -1   -0.02    0.14
  -4   6   1    0.00    0.11
  -3  -6   1    3.27    0.28
   3  -6  -1    2.97    0.28
   3   6  -1    3.57    0.29
  -3   6   1    3.12    0.25
   2  -6  -1    2.62    0.27
  -2  -6   1    3.51    0.28
   2   6  -1    3.23    0.28
  -2   6   1    3.16    0.25
   1  -6  -1    2.00    0.24
  -1  -6   1    2.05    0.24
   1   6  -1    2.06    0.24
  -1   6   1    2.22    0.23
   0  -6  -1    8.39    0.40
   0  -6   1    7.76    0.38
   0   6   1    8.94    0.39
   0   6  -1    7.91    0.37
   1  -6   1    0.35    0.17
  -1  -6  -1    0.31    0.15
  -1   6  -1    0.30    0.13
   1   6   1    0.46    0.14
   2  -6   1   25.15    0.71
  -2  -6  -1   24.66    0.69
  -2   6  -1   25.05    0.64
   2   6   1   23.80    0.69
  -3  -6  -1    0.66    0.18
   3  -6   1    0.78    0.19
  -3   6  -1    1.01    0.17
   3   6   1    0.83    0.20
  -4  -6  -1   41.12    0.95
   4  -6   1   41.66    0.97
   4   6   1   41.42    1.00
  -5  -6  -1   -0.03    0.15
   5  -6   1    0.35    0.17
   5   6   1    0.19    0.17
  -6  -6  -1    4.29    0.32
   6  -6   1    4.74    0.33
   6   6   1    4.73    0.36
  -7  -6  -1    0.37    0.17
  -7  -6  -1    0.93    0.22
   7  -6   1    0.72    0.19
   7   6   1    0.73    0.22
   8  -6   1   -0.01    0.16
  -8  -6  -1    0.25    0.17
   6  -7  -1   -0.02    0.15
  -6  -7   1   -0.01    0.16
  -6  -7   1    0.20    0.18
   6   7  -1    0.03    0.17
   5  -7  -1    3.28    0.32
  -5  -7   1    3.68    0.32
   5   7  -1    2.88    0.34
   4  -7  -1    0.24    0.17
  -4  -7   1    0.37    0.19
   4   7  -1    0.29    0.18
  -3  -7   1   14.08    0.57
   3  -7  -1   13.98    0.56
  -3   7   1   14.19    0.52
   3   7  -1   13.66    0.57
  -2  -7   1    1.55    0.25
   2  -7  -1    1.09    0.23
  -2   7   1    1.33    0.22
   2   7  -1    1.22    0.23
   1  -7  -1   12.88    0.54
  -1  -7   1   14.29    0.56
  -1   7   1   12.96    0.52
   1   7  -1   13.78    0.54
   0  -7  -1    0.13    0.17
   0  -7   1    0.24    0.17
   0   7  -1    0.15    0.16
   0   7   1    0.34    0.18
  -1  -7  -1    0.27    0.18
   1  -7   1    0.06    0.15
  -1   7  -1    0.15    0.17
   1   7   1    0.35    0.17
   2  -7   1    2.62    0.31
  -2  -7  -1    2.30    0.28
  -2   7  -1    2.97    0.29
   2   7   1    3.02    0.32
  -3  -7  -1    0.06    0.16
   3  -7   1    0.17    0.16
   3   7   1    0.19    0.16
   4  -7   1    0.79    0.21
  -4  -7  -1    0.88    0.21
   4   7   1    1.04    0.24
   5  -7   1    0.71    0.21
  -5  -7  -1    1.14    0.23
   5   7   1    1.05    0.23
  -6  -7  -1    0.01    0.16
   6  -7   1    0.01    0.15
   6   7   1    0.11    0.17
   2  -8  -1    0.59    0.22
  -2  -8   1    0.61    0.22
   2   8  -1    0.35    0.20
  -2   8   1    0.55    0.20
   1  -8  -1    0.04    0.17
  -1  -8   1   -0.22    0.16
   1   8  -1   -0.07    0.15
  -1   8   1    0.22    0.18
   0  -8   1    2.14    0.31
   0  -8  -1    1.67    0.28
   0   8   1    1.61    0.27
   0   8  -1    1.72    0.27
  -1  -8  -1    0.99    0.24
   1  -8   1    1.38    0.26
  -1   8  -1    0.79    0.22
   1   8   1    1.12    0.25
   2  -8   1    0.51    0.20
  -2  -8  -1    0.77    0.23
   2   8   1    0.81    0.23
  13   0  -2   -0.08    0.14
  12   0  -2    0.08    0.14
  11   0  -2    0.22    0.15
 -10   0   2   14.81    0.46
  10   0  -2   15.50    0.55
   9   0  -2    0.13    0.11
  -9   0   2    0.15    0.11
   8   0  -2   65.99    1.22
  -8   0   2   64.09    1.10
   7   0  -2    0.05    0.05
  -7   0   2    0.07    0.08
   7   0  -2    0.02    0.08
   6   0  -2   10.76    0.21
   6   0  -2   11.28    0.35
  -6   0   2   10.62    0.30
   5   0  -2    0.06    0.04
  -5   0   2   -0.03    0.06
   5   0  -2   -0.07    0.05
   4   0  -2   12.47    0.31
  -4   0   2   12.44    0.28
   4   0  -2   12.33    0.20
   3   0  -2    0.01    0.03
   3   0  -2   -0.01    0.01
  -3   0   2    0.03    0.03
  -2   0   2   12.69    0.24
   2   0  -2   13.10    0.25
   1   0  -2    0.02    0.01
  -1   0   2    0.01    0.02
   0   0   2    0.55    0.03
   0   0   2    0.46    0.03
   1   0   2   -0.02    0.03
   1   0   2   -0.08    0.03
   2   0   2  237.62    3.16
  -2   0  -2  233.21    3.04
   2   0   2  230.11    3.07
   2   0   2  235.12    3.14
  -3   0  -2    0.04    0.03
   3   0   2    0.07    0.04
   3   0   2    0.01    0.03
   4   0   2   33.76    0.55
   4   0   2   34.58    0.62
  -4   0  -2   33.10    0.54
   5   0   2    0.02    0.05
  -5   0  -2    0.02    0.05
   5   0   2   -0.06    0.07
  -6   0  -2    1.90    0.13
   6   0   2    1.84    0.16
   6   0   2    2.12    0.13
   7   0   2   -0.01    0.06
   7   0   2    0.02    0.08
  -7   0  -2    0.00    0.07
  -8   0  -2  186.67    2.67
   8   0   2  189.29    2.88
   8   0   2  192.79    2.64
  -9   0  -2    0.42    0.12
   9   0   2    0.04    0.11
  10   0   2   40.80    0.96
  11   0   2   -0.05    0.11
  12   0   2    0.28    0.16
  13   0   2    0.22    0.17
  13  -1  -2    4.73    0.39
  13   1  -2    4.27    0.36
  12  -1  -2    0.54    0.19
  12   1  -2    0.35    0.16
 -11  -1   2   15.80    0.52
  11  -1  -2   15.71    0.60
  11   1  -2   15.35    0.57
  10  -1  -2   -0.02    0.14
 -10  -1   2    0.14    0.13
  10   1  -2    0.09    0.13
   9  -1  -2   16.62    0.55
  -9  -1   2   17.13    0.49
  -9   1   2   16.90    0.46
   9   1  -2   16.82    0.53
  -8  -1   2    1.13    0.16
   8  -1  -2    0.61    0.15
  -8   1   2    1.14    0.14
   8   1  -2    0.94    0.15
  -7  -1   2   40.19    0.77
   7  -1  -2   38.32    0.82
   7  -1  -2   40.78    0.64
  -7   1   2   38.52    0.72
   7   1  -2   40.78    0.80
  -6  -1   2    1.50    0.15
   6  -1  -2    1.67    0.16
   6  -1  -2    1.68    0.11
  -6   1   2    1.42    0.13
   6   1  -2    1.29    0.14
   5  -1  -2  456.75    5.88
   5  -1  -2  454.97    6.18
  -5  -1   2  448.60    6.01
  -5   1   2  446.27    5.97
   5   1  -2  461.68    6.13
   4  -1  -2   16.15    0.29
   4  -1  -2   16.28    0.38
  -4  -1   2   16.32    0.36
   4   1  -2   16.45    0.35
  -4   1   2   15.98    0.33
  -3  -1   2  187.24    2.54
   3  -1  -2  184.13    2.60
   3  -1  -2  188.13    2.46
   3   1  -2  190.48    2.55
  -3   1   2  184.67    2.50
   2  -1  -2    0.71    0.06
   2  -1  -2    0.61    0.06
  -2  -1   2    0.66    0.06
   2   1  -2    0.66    0.05
  -2   1   2    0.63    0.06
  -1  -1   2  289.60    3.87
  -1   1   2  299.44    3.89
   1   1  -2  305.29    3.94
   0  -1   2   52.82    0.75
   0  -1   2   52.71    0.72
   0   1  -2   53.13    0.74
   0   1   2   52.22    0.75
   1  -1   2  234.48    3.06
   1  -1   2  235.69    3.14
  -1   1  -2  233.60    3.13
   1   1   2  238.93    3.06
   1   1   2  221.93    3.07
   2  -1   2  263.36    3.45
   2  -1   2  261.50    3.53
   2   1   2  264.93    3.46
   2   1   2  265.32    3.45
   2   1   2  266.64    3.51
  -2   1  -2  251.68    3.42
   3  -1   2   15.74    0.31
   3  -1   2   15.01    0.34
  -3   1  -2   15.23    0.25
   3   1   2   15.85    0.31
   3   1   2   15.91    0.32
   3   1   2   15.12    0.32
   4  -1   2    2.57    0.13
   4  -1   2    2.42    0.15
  -4   1  -2    2.51    0.10
   4   1   2    2.53    0.14
   4   1   2    2.44    0.12
   4   1   2    2.62    0.14
   5  -1   2    3.57    0.17
  -5  -1  -2    3.29    0.17
   5  -1   2    3.18    0.19
   5   1   2    3.02    0.15
  -5   1  -2    3.15    0.13
   5   1   2    3.01    0.18
   6  -1   2    0.01    0.06
   6  -1   2    0.07    0.08
  -6  -1  -2    0.07    0.07
  -6   1  -2    0.15    0.06
   6   1   2    0.15    0.08
   6   1   2    0.06    0.06
   7  -1   2   12.30    0.33
   7  -1   2   12.03    0.41
  -7  -1  -2   12.64    0.36
  -7   1  -2   11.98    0.30
   7   1   2   12.13    0.31
   7   1   2   12.49    0.40
   8  -1   2    0.38    0.11
   8  -1   2    0.51    0.15
  -8  -1  -2    0.37    0.13
   8   1   2    0.67    0.11
   8   1   2    0.56    0.14
  -9  -1  -2    0.32    0.12
   9  -1   2    0.48    0.16
   9   1   2    0.60    0.15
  10  -1   2    0.67    0.18
  10   1   2    0.85    0.17
  11  -1   2    4.43    0.33
  11   1   2    4.74    0.32
  12  -1   2    0.18    0.16
  12   1   2    0.22    0.15
  13  -1   2    4.10    0.36
  13   1   2    3.45    0.34
  13  -2  -2    0.28    0.20
  13   2  -2    0.22    0.18
  12  -2  -2    0.16    0.16
 -12  -2   2    0.06    0.16
  12   2  -2    0.05    0.14
 -11  -2   2   20.38    0.63
  11  -2  -2   20.29    0.69
  11   2  -2   20.23    0.64
 -10  -2   2   -0.22    0.12
  10  -2  -2   -0.02    0.12
  10   2  -2    0.07    0.12
  -9  -2   2   57.59    1.12
   9  -2  -2   56.50    1.18
   9   2  -2   57.49    1.11
   8  -2  -2   -0.05    0.10
  -8  -2   2   -0.13    0.11
  -8   2   2   -0.08    0.09
   8   2  -2    0.07    0.10
   7  -2  -2    3.55    0.24
   7  -2  -2    3.35    0.17
  -7  -2   2    3.69    0.23
  -7   2   2    3.58    0.19
   7   2  -2    3.84    0.22
  -6  -2   2    0.03    0.08
   6  -2  -2   -0.09    0.08
   6  -2  -2    0.08    0.07
  -6   2   2    0.19    0.08
   6   2  -2   -0.06    0.07
   5  -2  -2    2.40    0.17
  -5  -2   2    2.73    0.18
   5  -2  -2    2.67    0.14
  -5   2   2    2.56    0.14
   5   2  -2    3.32    0.16
   4  -2  -2   17.91    0.37
  -4  -2   2   18.51    0.43
   4  -2  -2   17.66    0.42
   4   2  -2   18.44    0.43
  -4   2   2   17.75    0.37
   4   2  -2   18.23    0.36
   3  -2  -2  142.15    1.98
   3  -2  -2  142.73    2.05
   3   2  -2  143.82    1.95
   3   2  -2  143.37    2.04
  -3   2   2  142.73    1.98
   2  -2  -2   60.01    0.93
   2  -2  -2   60.29    0.92
  -2  -2   2   58.90    0.91
  -2   2   2   60.69    0.91
   2   2  -2   61.40    0.95
   2   2  -2   59.89    0.82
  -1  -2   2   55.72    0.86
   1  -2  -2   56.89    0.83
  -1   2   2   55.63    0.85
   1   2  -2   55.73    0.86
   0  -2   2  122.99    1.63
   0  -2   2  120.62    1.71
   0   2  -2  121.46    1.69
   0   2   2  123.11    1.71
   1  -2   2    0.23    0.04
   1  -2   2    0.15    0.05
  -1   2  -2    0.19    0.05
   1   2   2    0.23    0.06
   2  -2   2   16.50    0.34
   2  -2   2   16.65    0.36
  -2   2  -2   16.49    0.30
   2   2   2   16.99    0.37
   3  -2   2  115.89    1.63
   3  -2   2  112.61    1.66
  -3   2  -2  110.45    1.54
   3   2   2  114.42    1.60
   3   2   2  112.50    1.65
   4  -2   2  129.44    1.85
   4  -2   2  129.21    1.91
   4   2   2  130.47    1.84
  -4   2  -2  126.08    1.74
   4   2   2  126.65    1.82
   4   2   2  129.70    1.88
   5  -2   2  107.48    1.66
   5  -2   2  104.71    1.56
  -5   2  -2  103.13    1.46
   5   2   2  104.71    1.58
   5   2   2  103.36    1.61
   5   2   2  107.04    1.54
   6  -2   2   10.80    0.37
   6  -2   2   10.09    0.31
  -6  -2  -2   10.26    0.34
  -6   2  -2   10.08    0.25
   6   2   2   10.40    0.30
   6   2   2   10.54    0.32
  -7  -2  -2   27.88    0.63
   7  -2   2   27.41    0.58
   7  -2   2   27.82    0.68
   7   2   2   27.05    0.61
   7   2   2   26.76    0.55
   8  -2   2    0.23    0.14
  -8  -2  -2    0.50    0.14
   8   2   2    0.31    0.12
  -9  -2  -2    0.22    0.13
   9  -2   2    0.10    0.13
   9   2   2   -0.03    0.10
 -10  -2  -2    5.02    0.31
  10  -2   2    5.00    0.36
  10   2   2    4.71    0.31
  11  -2   2    1.18    0.22
  11   2   2    1.11    0.20
  12  -2   2    1.02    0.23
  12   2   2    0.72    0.20
  12  -3  -2    0.28    0.19
 -12  -3   2    0.64    0.20
 -11  -3   2    3.84    0.33
  11  -3  -2    4.21    0.35
  10  -3  -2    0.88    0.20
 -10  -3   2    1.01    0.21
   9  -3  -2    2.36    0.25
  -9  -3   2    2.40    0.26
   9   3  -2    2.96    0.23
  -8  -3   2    0.42    0.16
   8  -3  -2    0.38    0.15
   8   3  -2    0.42    0.12
  -7  -3   2    0.07    0.13
   7  -3  -2    0.01    0.10
   7  -3  -2    0.05    0.12
   7   3  -2    0.06    0.09
  -7   3   2    0.04    0.09
   6  -3  -2    1.55    0.18
   6  -3  -2    1.96    0.16
  -6  -3   2    2.12    0.21
  -6   3   2    1.97    0.15
   6   3  -2    1.66    0.15
   5  -3  -2    1.78    0.16
  -5  -3   2    2.27    0.19
   5  -3  -2    1.90    0.18
  -5   3   2    2.17    0.16
   5   3  -2    1.61    0.18
   5   3  -2    1.94    0.13
   4  -3  -2    1.24    0.13
   4  -3  -2    1.41    0.14
   4   3  -2    1.23    0.15
  -4   3   2    1.52    0.13
   4   3  -2    1.02    0.09
   3  -3  -2   98.79    1.48
  -3  -3   2   98.37    1.47
   3  -3  -2   97.44    1.47
   3   3  -2   95.19    1.32
  -3   3   2   97.24    1.45
   3   3  -2   98.07    1.52
  -2  -3   2   48.57    0.83
   2  -3  -2   47.83    0.83
   2  -3  -2   47.05    0.78
  -2   3   2   48.15    0.80
   2   3  -2   46.80    0.84
   1  -3  -2   94.77    1.34
  -1  -3   2   94.03    1.41
   1  -3  -2   91.94    1.41
   1   3  -2   90.59    1.40
  -1   3   2   92.28    1.39
   0  -3   2   61.21    1.00
   0  -3   2   59.39    0.83
   0   3   2   60.41    0.99
   0   3  -2   61.35    0.97
   1  -3   2   21.48    0.47
   1  -3   2   21.76    0.38
  -1   3  -2   22.29    0.44
   1   3   2   21.59    0.47
   2  -3   2  206.65    2.89
   2  -3   2  205.13    2.85
  -2   3  -2  210.17    2.82
   2   3   2  205.86    2.90
   3  -3   2    0.23    0.08
   3  -3   2    0.19    0.08
  -3   3  -2    0.15    0.07
   3   3   2    0.26    0.09
   4  -3   2  150.32    2.17
   4  -3   2  150.97    2.20
   4   3   2  147.80    2.09
  -4   3  -2  148.65    2.06
   4   3   2  147.77    2.22
   5  -3   2    5.40    0.24
   5  -3   2    4.83    0.26
  -5   3  -2    5.18    0.18
   5   3   2    5.07    0.20
   5   3   2    5.11    0.27
   6  -3   2    1.76    0.18
   6  -3   2    1.85    0.18
   6   3   2    1.61    0.19
   6   3   2    1.56    0.15
   7  -3   2    3.75    0.25
  -7  -3  -2    3.73    0.26
   7  -3   2    3.54    0.22
   7   3   2    4.02    0.22
   8  -3   2    5.51    0.28
   8  -3   2    5.37    0.34
  -8  -3  -2    5.01    0.31
   8   3   2    5.78    0.29
   9  -3   2    1.53    0.21
  -9  -3  -2    1.80    0.23
   9   3   2    1.92    0.20
 -10  -3  -2    0.19    0.16
  10  -3   2    0.24    0.16
  10   3   2    0.25    0.13
 -11  -3  -2    1.27    0.23
  11  -3   2    1.08    0.24
  12  -3   2    3.10    0.34
 -11  -4   2    4.09    0.36
  11  -4  -2    3.85    0.36
 -10  -4   2   13.97    0.58
  10  -4  -2   13.95    0.57
   9  -4  -2    0.33    0.15
  -9  -4   2    0.44    0.17
   8  -4  -2   31.71    0.81
  -8  -4   2   31.14    0.82
   7  -4  -2    1.95    0.20
   7  -4  -2    1.84    0.21
  -7  -4   2    2.08    0.24
  -7  -4   2    1.75    0.19
  -7   4   2    1.93    0.18
   6  -4  -2    3.95    0.26
  -6  -4   2    3.83    0.29
   6  -4  -2    4.15    0.25
  -6  -4   2    3.68    0.24
  -6   4   2    3.99    0.23
   6   4  -2    4.03    0.30
   5  -4  -2    1.74    0.19
   5  -4  -2    1.44    0.19
  -5  -4   2    1.73    0.19
  -5   4   2    2.30    0.20
   5   4  -2    1.67    0.21
   4  -4  -2    1.60    0.18
  -4  -4   2    1.77    0.18
   4  -4  -2    1.44    0.15
  -4   4   2    1.83    0.16
   4   4  -2    1.84    0.20
   3  -4  -2    1.95    0.17
   3  -4  -2    2.12    0.21
  -3  -4   2    2.20    0.20
   3   4  -2    2.38    0.20
  -3   4   2    2.75    0.19
  -2  -4   2   10.40    0.35
   2  -4  -2   10.72    0.29
   2  -4  -2    9.64    0.34
  -2   4   2   10.36    0.33
   2   4  -2   10.32    0.35
   1  -4  -2    4.93    0.17
   1  -4  -2    4.75    0.24
  -1  -4   2    4.61    0.24
  -1   4   2    4.84    0.23
   1   4  -2    5.22    0.24
   0  -4  -2    3.58    0.13
   0  -4  -2    3.35    0.21
   0  -4   2    3.78    0.23
   0   4   2    3.63    0.20
   0   4  -2    3.81    0.20
  -1  -4  -2    0.24    0.05
   1  -4   2    0.30    0.10
   1  -4   2    0.49    0.06
   1   4   2    0.35    0.10
  -1   4  -2    0.37    0.10
   2  -4   2    0.07    0.11
   2  -4   2   -0.04    0.06
  -2   4  -2    0.23    0.09
   2   4   2    0.19    0.10
   3  -4   2   10.66    0.37
   3  -4   2   10.52    0.32
  -3   4  -2   11.06    0.32
   3   4   2   11.40    0.39
   4  -4   2   -0.02    0.10
   4  -4   2    0.06    0.11
   4   4   2    0.08    0.12
   5  -4   2    0.79    0.15
   5  -4   2    0.39    0.14
  -5   4  -2    0.89    0.13
   5   4   2    0.65    0.16
   6  -4   2    7.60    0.33
   6  -4   2    6.99    0.32
   6   4   2    6.99    0.35
   7  -4   2    0.67    0.15
   7  -4   2    0.78    0.16
  -7  -4  -2    0.83    0.18
   7   4   2    0.65    0.17
  -8  -4  -2   19.03    0.61
   8  -4   2   19.57    0.62
   8  -4   2   19.06    0.55
   9  -4   2   -0.02    0.13
  -9  -4  -2    0.01    0.14
  10  -4   2    6.64    0.40
 -10  -4  -2    6.94    0.41
  11  -4   2    0.00    0.14
 -11  -4  -2   -0.07    0.15
  10  -5  -2    0.40    0.19
 -10  -5   2    0.66    0.23
  -9  -5   2    6.57    0.43
   9  -5  -2    6.46    0.39
  -8  -5   2    1.38    0.24
   8  -5  -2    1.12    0.21
  -7  -5   2   -0.01    0.14
   7  -5  -2    0.02    0.12
   7  -5  -2   -0.04    0.11
  -7  -5   2    0.19    0.12
  -6  -5   2    0.62    0.17
   6  -5  -2    0.70    0.15
   6  -5  -2    0.88    0.17
  -6  -5   2    0.69    0.16
   6   5  -2    0.77    0.18
  -6   5   2    0.72    0.15
  -5  -5   2   80.53    1.42
   5  -5  -2   81.98    1.44
   5  -5  -2   84.85    1.42
   5   5  -2   80.10    1.52
  -5   5   2   82.06    1.38
  -4  -5   2    2.66    0.22
   4  -5  -2    2.89    0.25
   4  -5  -2    2.84    0.21
   4   5  -2    2.75    0.26
  -4   5   2    2.86    0.22
  -3  -5   2   51.79    1.02
   3  -5  -2   52.15    0.91
   3  -5  -2   52.79    1.04
   3   5  -2   52.39    1.06
  -3   5   2   51.16    0.97
   2  -5  -2   31.64    0.74
  -2  -5   2   31.20    0.73
   2   5  -2   31.21    0.74
  -2   5   2   31.86    0.70
   1  -5  -2    9.04    0.38
  -1  -5   2    9.04    0.37
  -1   5   2    8.48    0.34
   1   5  -2    8.15    0.35
   0  -5   2   63.84    1.18
   0  -5  -2   63.03    1.18
   0   5   2   62.53    1.16
   0   5  -2   64.60    1.15
  -1  -5  -2    3.71    0.26
   1  -5   2    3.36    0.24
   1   5   2    3.96    0.26
  -1   5  -2    3.40    0.22
   2  -5   2   16.51    0.52
  -2  -5  -2   17.02    0.52
  -2   5  -2   17.57    0.46
   2   5   2   17.07    0.53
   3  -5   2   14.84    0.49
   3   5   2   16.12    0.52
  -3   5  -2   15.97    0.44
   4  -5   2   20.69    0.50
   4  -5   2   21.32    0.60
   4   5   2   19.93    0.61
  -4   5  -2   20.72    0.51
   5  -5   2    0.02    0.11
   5  -5   2   -0.12    0.10
   5   5   2    0.13    0.14
   6  -5   2    8.16    0.36
   6  -5   2    8.35    0.38
   6   5   2    7.96    0.41
   7  -5   2    2.52    0.25
   7  -5   2    2.48    0.26
   7   5   2    2.51    0.30
   8  -5   2    2.32    0.26
  -8  -5  -2    2.50    0.30
   8  -5   2    1.97    0.25
   9  -5   2    0.39    0.16
  -9  -5  -2    0.10    0.18
 -10  -5  -2    3.56    0.38
  10  -5   2    2.86    0.31
  -9  -6   2   -0.08    0.17
  -8  -6   2    0.91    0.24
  -7  -6   2    2.38    0.30
  -7  -6   2    2.28    0.27
   7  -6  -2    2.55    0.28
  -6  -6   2    5.68    0.35
  -6  -6   2    5.03    0.36
   6  -6  -2    5.32    0.35
   6   6  -2    5.59    0.39
   5  -6  -2    2.47    0.28
  -5  -6   2    2.35    0.26
   5   6  -2    2.32    0.29
  -5   6   2    2.51    0.25
   4  -6  -2   -0.26    0.12
  -4  -6   2   -0.06    0.12
   4   6  -2   -0.06    0.12
  -4   6   2    0.06    0.12
  -3  -6   2    6.51    0.36
   3  -6  -2    6.69    0.36
   3   6  -2    6.71    0.38
  -3   6   2    6.95    0.33
  -2  -6   2    0.15    0.14
   2  -6  -2   -0.14    0.13
  -2   6   2    0.00    0.10
   2   6  -2    0.21    0.13
   1  -6  -2   21.76    0.64
  -1  -6   2   21.02    0.63
  -1   6   2   20.97    0.60
   1   6  -2   21.14    0.62
   0  -6   2    5.40    0.33
   0  -6  -2    6.17    0.35
   0   6  -2    6.07    0.32
   0   6   2    5.90    0.33
   1  -6   2    0.76    0.19
  -1  -6  -2    0.64    0.18
   1   6   2    0.57    0.17
  -1   6  -2    0.69    0.16
   2  -6   2    1.59    0.23
  -2  -6  -2    1.80    0.24
   2   6   2    2.25    0.26
  -2   6  -2    2.21    0.23
  -3  -6  -2   25.83    0.72
   3  -6   2   27.05    0.75
   3   6   2   26.07    0.75
  -3   6  -2   27.90    0.67
   4  -6   2    1.07    0.20
  -4  -6  -2    0.95    0.20
   4   6   2    1.09    0.21
   5  -6   2   35.50    0.88
  -5  -6  -2   34.34    0.86
   5   6   2   34.44    0.92
   6  -6   2    0.72    0.19
  -6  -6  -2    0.44    0.18
   6   6   2    0.61    0.20
   7  -6   2   13.66    0.54
  -7  -6  -2   13.55    0.53
   7   6   2   13.09    0.59
   8  -6   2    0.75    0.21
  -8  -6  -2    0.55    0.21
   7  -7  -2    0.32    0.19
  -6  -7   2    0.27    0.18
  -6  -7   2    0.00    0.16
   6  -7  -2    0.06    0.16
   6   7  -2   -0.02    0.16
   5  -7  -2    4.44    0.35
  -5  -7   2    4.42    0.35
   5   7  -2    4.04    0.37
   4  -7  -2    0.78    0.22
  -4  -7   2    0.51    0.20
  -4   7   2    0.47    0.16
   4   7  -2    0.51    0.20
   3  -7  -2   14.71    0.58
  -3  -7   2   13.81    0.56
  -3   7   2   14.46    0.53
   3   7  -2   13.95    0.57
   2  -7  -2    5.36    0.37
  -2  -7   2    4.58    0.35
  -2   7   2    4.06    0.32
   2   7  -2    4.67    0.35
  -1  -7   2    8.01    0.43
   1  -7  -2    7.47    0.41
  -1   7   2    7.58    0.41
   1   7  -2    8.24    0.43
   0  -7   2   13.22    0.55
   0  -7  -2   13.95    0.56
   0   7  -2   14.19    0.54
   0   7   2   13.23    0.53
  -1  -7  -2    0.53    0.20
   1  -7   2    0.72    0.20
   1   7   2    0.80    0.21
  -1   7  -2    1.18    0.22
  -2  -7  -2    3.46    0.31
   2  -7   2    3.65    0.33
   2   7   2    3.65    0.33
  -2   7  -2    3.64    0.30
  -3  -7  -2    0.86    0.22
   3  -7   2    0.91    0.22
   3   7   2    0.95    0.21
  -4  -7  -2    5.90    0.39
   4  -7   2    6.75    0.40
   4   7   2    5.97    0.41
   5  -7   2    0.28    0.18
  -5  -7  -2    0.45    0.18
   5   7   2    0.62    0.21
   6  -7   2   -0.06    0.15
  -6  -7  -2   -0.13    0.15
   6   7   2   -0.09    0.16
   2  -8  -2    1.86    0.30
  -2  -8   2    1.58    0.29
  -2   8   2    1.70    0.27
   2   8  -2    1.81    0.29
   1  -8  -2    1.08    0.25
  -1  -8   2    0.64    0.23
  -1   8   2    0.64    0.21
   1   8  -2    1.00    0.24
   0  -8   2    3.98    0.35
   0  -8  -2    4.29    0.37
   0   8   2    3.88    0.35
   0   8  -2    4.00    0.34
  -1  -8  -2    0.28    0.18
   1  -8   2   -0.04    0.17
   1   8   2   -0.20    0.16
  -1   8  -2   -0.17    0.15
   2  -8   2    0.78    0.23
  -2  -8  -2    0.95    0.23
   2   8   2    0.56    0.21
  13   0  -3    0.21    0.17
  12   0  -3    0.06    0.13
 -11   0   3    0.48    0.16
  11   0  -3    0.39    0.16
 -10   0   3    0.09    0.12
  10   0  -3   -0.13    0.13
  -9   0   3    1.75    0.19
   9   0  -3    1.31    0.18
   8   0  -3   -0.28    0.10
  -8   0   3   -0.09    0.10
  -7   0   3   31.55    0.64
   7   0  -3   32.93    0.71
  -6   0   3   -0.13    0.06
   6   0  -3    0.04    0.03
   6   0  -3   -0.11    0.07
   5   0  -3    4.38    0.19
   5   0  -3    3.31    0.08
  -5   0   3    3.36    0.16
   4   0  -3   -0.05    0.04
  -4   0   3   -0.04    0.04
   3   0  -3   31.77    0.55
  -3   0   3   30.92    0.52
  -2   0   3   -0.04    0.04
   2   0  -3    0.05    0.04
  -1   0   3   75.03    1.04
  -1   0   3   75.45    1.01
   0   0   3    0.16    0.06
   0   0   3    0.47    0.05
   1   0   3   38.19    0.58
   1   0   3   38.66    0.53
   1   0   3   38.40    0.59
   2   0   3    0.01    0.02
   2   0   3   -0.02    0.03
   2   0   3    0.13    0.04
   3   0   3    6.92    0.19
   3   0   3    7.83    0.21
  -3   0  -3    7.23    0.16
   4   0   3    0.07    0.05
   4   0   3    0.03    0.05
  -4   0  -3    0.01    0.04
   5   0   3   51.14    0.89
  -5   0  -3   49.58    0.77
   5   0   3   49.72    0.81
   6   0   3   -0.06    0.05
  -6   0  -3   -0.06    0.05
   6   0   3   -0.06    0.06
   7   0   3    1.11    0.12
   7   0   3    1.34    0.17
  -7   0  -3    1.28    0.13
  -8   0  -3   -0.11    0.10
   8   0   3    0.22    0.13
   8   0   3    0.21    0.10
   9   0   3    4.68    0.30
  10   0   3    0.17    0.13
  11   0   3    2.11    0.26
  12   0   3   -0.17    0.13
  13   0   3    0.11    0.15
  13  -1  -3    0.28    0.19
  13   1  -3    0.03    0.16
  12  -1  -3    0.10    0.15
  12   1  -3    0.07    0.15
  11  -1  -3    6.63    0.40
 -11  -1   3    6.91    0.36
  11   1  -3    6.90    0.40
  10  -1  -3   -0.01    0.13
 -10  -1   3    0.25    0.14
  10   1  -3    0.16    0.13
 -10   1   3    0.07    0.13
   9  -1  -3   24.38    0.68
  -9  -1   3   24.12    0.61
   9   1  -3   24.78    0.65
  -9   1   3   24.71    0.58
   8  -1  -3   10.72    0.41
  -8  -1   3   11.04    0.38
  -8   1   3   10.78    0.35
   8   1  -3   10.71    0.39
  -7  -1   3    0.79    0.13
   7  -1  -3    0.58    0.08
   7  -1  -3    0.58    0.13
  -7   1   3    0.61    0.11
   7   1  -3    0.37    0.11
   6  -1  -3    3.18    0.12
  -6  -1   3    3.04    0.18
   6  -1  -3    3.11    0.20
  -6   1   3    2.97    0.17
   6   1  -3    3.08    0.20
   5  -1  -3    1.71    0.11
   5  -1  -3    2.32    0.20
   5   1  -3    1.88    0.16
   4  -1  -3    0.17    0.06
   4  -1  -3    0.29    0.04
  -4  -1   3    0.34    0.07
   4   1  -3    0.27    0.06
  -4   1   3    0.24    0.06
   3  -1  -3   13.93    0.25
  -3  -1   3   13.81    0.24
  -3  -1   3   14.54    0.31
  -3   1   3   14.27    0.29
   3   1  -3   13.71    0.28
  -2  -1   3   15.16    0.26
  -2  -1   3   15.03    0.30
   2   1  -3   15.41    0.27
  -2   1   3   15.05    0.29
  -1  -1   3  518.87    7.65
  -1  -1   3  546.27    7.63
  -1   1   3  555.60    7.78
   0  -1   3    0.00    0.03
   0   1  -3    0.08    0.03
   0   1   3    0.23    0.04
   0   1   3    0.10    0.03
   1  -1   3  295.26    3.94
   1  -1   3  294.58    3.84
   1   1   3  303.47    3.84
  -1   1  -3  287.62    3.91
   1   1   3  284.30    3.88
   2  -1   3   55.94    0.85
   2  -1   3   55.67    0.84
   2   1   3   55.46    0.83
   2   1   3   56.17    0.83
  -2   1  -3   54.76    0.73
   2   1   3   56.10    0.83
   3  -1   3  214.33    2.86
   3  -1   3  209.85    2.95
   3   1   3  213.42    2.85
   3   1   3  214.40    2.86
   3   1   3  216.85    2.92
  -3   1  -3  206.81    2.75
   4  -1   3    2.06    0.12
   4   1   3    2.10    0.12
  -4   1  -3    2.14    0.08
   4   1   3    2.17    0.13
   4   1   3    2.15    0.13
  -5  -1  -3   48.74    0.81
   5  -1   3   48.82    0.81
   5   1   3   49.52    0.86
   5   1   3   49.22    0.80
  -5   1  -3   48.56    0.73
  -6  -1  -3    3.26    0.18
   6  -1   3    3.49    0.18
   6  -1   3    3.53    0.22
   6   1   3    3.65    0.17
  -6   1  -3    3.59    0.14
   6   1   3    3.51    0.20
   7  -1   3    0.23    0.11
  -7  -1  -3    0.69    0.12
   7  -1   3    0.58    0.11
   7   1   3    0.52    0.10
  -7   1  -3    0.63    0.09
   7   1   3    0.50    0.12
  -8  -1  -3    0.73    0.14
   8  -1   3    0.78    0.13
   8  -1   3    1.03    0.18
   8   1   3    1.04    0.17
   8   1   3    1.12    0.13
   9  -1   3    0.95    0.18
  -9  -1  -3    1.38    0.17
   9   1   3    0.97    0.17
  10  -1   3    0.52    0.17
  10   1   3    0.41    0.15
  11  -1   3    0.74    0.20
  11   1   3    0.45    0.17
  12  -1   3    0.35    0.18
  12   1   3    0.33    0.16
  13  -2  -3    0.19    0.18
  13   2  -3    0.01    0.16
  12  -2  -3   -0.05    0.15
 -12  -2   3    0.10    0.16
  12   2  -3    0.02    0.14
  11  -2  -3    3.65    0.34
 -11  -2   3    3.73    0.31
  11   2  -3    3.17    0.29
 -10  -2   3    2.90    0.27
  10  -2  -3    2.16    0.26
  10   2  -3    2.74    0.25
  -9  -2   3    0.36    0.15
   9  -2  -3    0.06    0.14
  -9   2   3    0.31    0.13
   9   2  -3    0.10    0.13
  -8  -2   3   40.71    0.86
   8  -2  -3   40.57    0.91
   8   2  -3   40.57    0.83
  -8   2   3   40.70    0.77
   7  -2  -3    3.59    0.17
   7  -2  -3    3.86    0.25
  -7  -2   3    3.72    0.24
  -7   2   3    3.71    0.19
   7   2  -3    3.97    0.21
  -6  -2   3   32.79    0.69
   6  -2  -3   32.69    0.58
   6  -2  -3   33.40    0.72
  -6   2   3   32.68    0.62
   6   2  -3   33.58    0.64
  -5  -2   3   16.60    0.43
   5  -2  -3   17.13    0.45
   5  -2  -3   17.04    0.36
   5   2  -3   16.83    0.38
  -5   2   3   17.35    0.38
   4  -2  -3    1.91    0.12
   4  -2  -3    1.86    0.14
  -4  -2   3    1.93    0.15
   4   2  -3    1.89    0.11
  -4   2   3    2.18    0.13
   3  -2  -3    5.28    0.21
   3  -2  -3    5.07    0.19
  -3  -2   3    5.16    0.18
  -3  -2   3    5.62    0.21
   3   2  -3    5.20    0.15
  -3   2   3    5.51    0.18
   3   2  -3    5.55    0.21
  -2  -2   3    4.40    0.16
   2  -2  -3    4.38    0.16
  -2   2   3    4.58    0.16
   2   2  -3    4.59    0.18
   2   2  -3    4.40    0.10
  -1  -2   3   46.34    0.75
   1   2  -3   47.30    0.76
  -1   2   3   49.08    0.76
   0  -2   3    5.73    0.19
   0  -2   3    5.47    0.12
   0   2  -3    5.43    0.16
   0   2   3    5.49    0.18
   1  -2   3   13.12    0.31
   1  -2   3   13.27    0.26
   1   2   3   13.16    0.31
  -1   2  -3   12.72    0.26
   2  -2   3   51.11    0.80
   2  -2   3   50.13    0.82
   2   2   3   50.92    0.82
  -2   2  -3   49.65    0.73
   3  -2   3   48.72    0.82
   3  -2   3   50.33    0.82
  -3   2  -3   48.86    0.71
   3   2   3   49.35    0.83
   3   2   3   50.79    0.82
   3   2   3   50.20    0.78
   4  -2   3    0.41    0.09
   4  -2   3    0.24    0.08
   4   2   3    0.40    0.09
  -4   2  -3    0.44    0.05
   4   2   3    0.39    0.08
   4   2   3    0.48    0.10
   5  -2   3    2.80    0.19
   5  -2   3    2.57    0.17
   5   2   3    2.76    0.18
   5   2   3    2.66    0.17
  -5   2  -3    2.72    0.11
   5   2   3    2.85    0.17
   6  -2   3    4.53    0.21
   6  -2   3    4.19    0.24
  -6  -2  -3    4.20    0.22
  -6   2  -3    4.21    0.14
   6   2   3    4.13    0.21
   6   2   3    4.25    0.22
   6   2   3    4.12    0.20
  -7  -2  -3    2.33    0.19
   7  -2   3    2.08    0.19
   7  -2   3    2.05    0.22
   7   2   3    2.09    0.17
   7   2   3    2.35    0.19
  -8  -2  -3   11.18    0.39
   8  -2   3   11.61    0.45
   8  -2   3   11.57    0.37
   8   2   3   11.58    0.35
   8   2   3   11.69    0.40
  -9  -2  -3    3.38    0.25
   9  -2   3    3.11    0.26
   9   2   3    3.13    0.24
  10  -2   3   35.67    0.92
 -10  -2  -3   34.97    0.82
  10   2   3   34.60    0.85
  11  -2   3    0.41    0.19
  11   2   3    0.37    0.15
  12  -2   3    6.85    0.43
  12   2   3    7.03    0.41
 -12  -3   3   -0.03    0.15
  12  -3  -3   -0.16    0.15
  11  -3  -3    3.03    0.33
 -11  -3   3    3.45    0.32
  10  -3  -3   -0.23    0.13
 -10  -3   3    0.14    0.15
   9  -3  -3    0.89    0.18
  -9  -3   3    0.86    0.18
   9   3  -3    0.95    0.15
   8  -3  -3    8.46    0.40
  -8  -3   3    7.77    0.38
   8   3  -3    7.94    0.32
  -8   3   3    8.08    0.31
  -7  -3   3    5.29    0.31
   7  -3  -3    5.01    0.23
   7  -3  -3    4.63    0.28
  -7  -3   3    5.00    0.22
  -7   3   3    5.17    0.24
   7   3  -3    5.37    0.24
  -6  -3   3    9.12    0.35
   6  -3  -3    8.55    0.28
   6  -3  -3    8.55    0.35
  -6  -3   3    8.26    0.29
  -6   3   3    8.76    0.29
   6   3  -3    8.82    0.27
  -5  -3   3    5.23    0.26
   5  -3  -3    5.85    0.23
  -5  -3   3    5.65    0.22
   5  -3  -3    5.99    0.27
   5   3  -3    5.45    0.19
  -5   3   3    5.53    0.22
  -4  -3   3   23.26    0.49
   4  -3  -3   22.56    0.49
   4  -3  -3   23.15    0.52
   4   3  -3   22.52    0.54
   4   3  -3   22.11    0.39
  -4   3   3   22.61    0.48
  -3  -3   3    3.06    0.17
   3  -3  -3    3.51    0.19
   3  -3  -3    2.99    0.17
  -3   3   3    3.45    0.17
   3   3  -3    2.61    0.08
   3   3  -3    3.38    0.19
  -2  -3   3   62.09    1.01
   2  -3  -3   62.46    0.98
   2  -3  -3   62.16    1.02
  -2   3   3   62.36    1.00
   2   3  -3   61.71    1.03
   1  -3  -3   27.54    0.49
  -1  -3   3   26.90    0.55
   1   3  -3   27.60    0.55
  -1   3   3   27.94    0.55
   0  -3   3  272.14    3.62
   0  -3   3  271.23    3.74
   0   3   3  280.13    3.75
   0   3  -3  274.75    3.71
   1  -3   3   41.18    0.74
   1  -3   3   39.62    0.62
   1   3   3   39.51    0.73
  -1   3  -3   39.28    0.67
   2  -3   3   63.78    1.05
   2  -3   3   62.16    0.97
  -2   3  -3   63.42    0.96
   2   3   3   62.95    1.06
   3  -3   3   81.22    1.26
   3  -3   3   80.37    1.29
  -3   3  -3   80.79    1.18
   3   3   3   81.69    1.31
   4  -3   3    1.27    0.15
   4  -3   3    1.01    0.13
  -4   3  -3    1.38    0.11
   4   3   3    1.17    0.15
   5  -3   3   68.51    1.17
   5  -3   3   66.71    1.13
   5   3   3   66.84    1.18
  -5   3  -3   65.61    0.98
   5   3   3   64.64    1.06
   6  -3   3   15.39    0.43
   6  -3   3   15.60    0.47
   6   3   3   16.21    0.48
   6   3   3   16.11    0.41
  -7  -3  -3    6.51    0.32
   7  -3   3    6.00    0.33
   7  -3   3    5.85    0.28
   7   3   3    6.74    0.28
   7   3   3    6.81    0.32
   8  -3   3    3.53    0.27
   8  -3   3    3.29    0.24
  -8  -3  -3    3.41    0.26
   8   3   3    3.01    0.22
   9  -3   3    0.37    0.15
  -9  -3  -3    0.34    0.16
   9   3   3    0.24    0.13
  10  -3   3    0.99    0.21
 -10  -3  -3    0.68    0.20
  10   3   3    0.97    0.18
 -11  -3  -3    0.24    0.17
  11  -3   3   -0.23    0.13
  12  -3   3    0.26    0.17
 -11  -4   3    2.58    0.32
  11  -4  -3    2.84    0.32
 -10  -4   3    3.00    0.33
  10  -4  -3    2.71    0.30
   9  -4  -3    1.80    0.23
  -9  -4   3    2.30    0.28
   8  -4  -3    1.13    0.20
  -8  -4   3    1.71    0.24
  -7  -4   3   22.71    0.55
   7  -4  -3   22.00    0.63
  -7  -4   3   21.88    0.65
   7  -4  -3   22.42    0.56
  -7   4   3   22.35    0.54
   6  -4  -3   25.25    0.64
  -6  -4   3   24.47    0.57
   6  -4  -3   23.87    0.58
  -6  -4   3   25.45    0.68
  -6   4   3   25.10    0.57
  -5  -4   3  114.19    1.88
   5  -4  -3  115.96    1.83
   5  -4  -3  113.70    1.79
  -5  -4   3  113.86    1.77
  -5   4   3  115.34    1.76
   5   4  -3  116.10    1.90
   4  -4  -3    1.90    0.19
   4  -4  -3    1.64    0.16
  -4  -4   3    1.91    0.18
   4   4  -3    2.09    0.20
  -4   4   3    2.06    0.17
   3  -4  -3   94.04    1.52
  -3  -4   3   97.09    1.52
   3  -4  -3   93.89    1.47
  -3   4   3   94.52    1.49
   3   4  -3   94.55    1.56
   2  -4  -3   20.56    0.44
   2  -4  -3   20.30    0.52
  -2  -4   3   20.72    0.52
  -2   4   3   21.51    0.50
   2   4  -3   21.23    0.52
   1  -4  -3   19.22    0.39
   1  -4  -3   19.19    0.50
  -1  -4   3   19.65    0.50
  -1   4   3   19.22    0.48
   1   4  -3   19.17    0.48
   0  -4   3    0.48    0.11
   0  -4  -3    0.43    0.07
   0   4   3    0.43    0.11
   0   4  -3    0.37    0.10
   1  -4   3    0.28    0.05
   1  -4   3    0.29    0.11
   1   4   3    0.23    0.10
  -1   4  -3    0.27    0.09
   2  -4   3    2.13    0.14
   2  -4   3    2.21    0.21
  -2   4  -3    2.82    0.18
   2   4   3    2.10    0.20
   3  -4   3   49.27    0.95
   3  -4   3   49.46    0.85
  -3   4  -3   49.38    0.84
   3   4   3   49.23    0.96
   4  -4   3   30.89    0.64
   4  -4   3   29.96    0.69
   4   4   3   30.69    0.72
  -4   4  -3   30.01    0.58
   5  -4   3   53.29    1.02
   5  -4   3   53.01    1.00
   5   4   3   54.28    1.07
   6  -4   3    0.85    0.15
   6  -4   3    1.01    0.16
   6   4   3    0.97    0.18
   7  -4   3    1.52    0.19
   7  -4   3    1.13    0.18
   7   4   3    1.70    0.22
  -8  -4  -3    2.07    0.25
   8  -4   3    1.86    0.23
   8  -4   3    2.15    0.23
   9  -4   3    0.01    0.13
  -9  -4  -3   -0.01    0.12
 -10  -4  -3    0.80    0.20
  10  -4   3    0.75    0.20
 -11  -4  -3    0.51    0.19
  11  -4   3    0.51    0.20
 -10  -5   3   -0.01    0.18
  10  -5  -3    0.14    0.17
   9  -5  -3    1.58    0.24
  -9  -5   3    1.75    0.27
   8  -5  -3    5.61    0.36
  -8  -5   3    5.62    0.39
   7  -5  -3   -0.10    0.12
   7  -5  -3   -0.08    0.10
  -7  -5   3    0.06    0.14
  -7  -5   3    0.03    0.12
   6  -5  -3   30.97    0.74
   6  -5  -3   30.15    0.73
  -6  -5   3   30.18    0.81
  -6  -5   3   30.16    0.72
  -6   5   3   29.68    0.69
   5  -5  -3    1.07    0.19
  -5  -5   3    1.17    0.18
   5  -5  -3    0.81    0.16
  -5   5   3    1.19    0.18
   5   5  -3    0.78    0.19
   4  -5  -3    0.57    0.12
  -4  -5   3    0.64    0.15
   4  -5  -3    0.44    0.14
   4   5  -3    0.64    0.17
  -4   5   3    0.55    0.14
   3  -5  -3    1.15    0.19
  -3  -5   3    1.05    0.17
   3  -5  -3    1.04    0.14
  -3   5   3    1.11    0.16
   3   5  -3    1.40    0.20
   2  -5  -3   35.84    0.80
  -2  -5   3   34.28    0.78
  -2   5   3   35.22    0.76
   2   5  -3   34.78    0.79
  -1  -5   3   13.02    0.44
   1  -5  -3   12.63    0.44
   1   5  -3   12.79    0.43
  -1   5   3   12.50    0.42
   0  -5  -3   70.37    1.27
   0  -5   3   69.83    1.27
   0   5  -3   68.27    1.22
   0   5   3   68.89    1.25
   1  -5   3    0.85    0.16
  -1  -5  -3    0.80    0.16
  -1   5  -3    0.96    0.15
   1   5   3    0.96    0.17
   2  -5   3    6.52    0.34
   2   5   3    6.17    0.33
  -2   5  -3    6.74    0.28
   3  -5   3    5.59    0.33
   3   5   3    6.05    0.34
  -3   5  -3    6.18    0.28
   4  -5   3    7.72    0.30
   4  -5   3    7.82    0.37
   4   5   3    7.77    0.38
  -4   5  -3    7.57    0.29
   5  -5   3    9.89    0.37
   5  -5   3    9.49    0.40
   5   5   3    9.32    0.42
   6  -5   3    0.63    0.14
   6  -5   3    0.60    0.16
   6   5   3    0.64    0.18
   7  -5   3    4.02    0.30
   7  -5   3    3.68    0.28
   7   5   3    3.76    0.32
  -8  -5  -3    1.44    0.24
   8  -5   3    1.62    0.24
   8  -5   3    1.52    0.22
   8   5   3    1.57    0.25
  -9  -5  -3    5.88    0.40
   9  -5   3    6.06    0.38
  10  -5   3    0.69    0.20
 -10  -5  -3    0.40    0.21
  -9  -6   3    0.52    0.21
  -8  -6   3   21.30    0.75
  -7  -6   3    0.59    0.19
   7  -6  -3    0.55    0.18
  -6  -6   3   30.46    0.79
   6  -6  -3   31.52    0.82
  -6  -6   3   31.26    0.88
   6   6  -3   31.50    0.89
  -5  -6   3    9.54    0.43
   5  -6  -3    9.16    0.44
   5   6  -3    9.71    0.48
  -5   6   3   10.24    0.41
  -4  -6   3    1.53    0.22
   4  -6  -3    1.30    0.21
   4   6  -3    1.30    0.23
  -4   6   3    1.72    0.22
  -3  -6   3   -0.04    0.13
   3  -6  -3    0.09    0.14
   3   6  -3   -0.01    0.13
  -3   6   3   -0.10    0.11
   2  -6  -3   12.15    0.47
  -2  -6   3   12.32    0.48
   2   6  -3   12.52    0.48
  -2   6   3   12.02    0.44
   1  -6  -3    0.39    0.16
  -1  -6   3    0.51    0.15
  -1   6   3    0.53    0.15
   1   6  -3    0.43    0.15
   0  -6   3    0.26    0.14
   0  -6  -3    0.11    0.13
   0   6  -3    0.34    0.14
   0   6   3    0.18    0.13
   1  -6   3    1.53    0.23
  -1  -6  -3    1.56    0.22
   1   6   3    1.42    0.21
  -1   6  -3    1.80    0.21
  -2  -6  -3    9.24    0.42
   2  -6   3    9.81    0.44
  -2   6  -3    9.64    0.38
   2   6   3    9.63    0.44
  -3  -6  -3    4.07    0.32
   3  -6   3    3.01    0.28
  -3   6  -3    3.12    0.25
   3   6   3    3.41    0.29
   4  -6   3    3.35    0.30
  -4  -6  -3    4.49    0.33
   4   6   3    3.24    0.30
   5  -6   3    3.83    0.30
  -5  -6  -3    3.62    0.29
   5   6   3    4.11    0.33
   6  -6   3    2.96    0.30
   6   6   3    2.52    0.30
   7  -6   3    0.62    0.20
  -7  -6  -3    0.69    0.19
   7   6   3    0.53    0.21
   8  -6   3   11.59    0.51
  -8  -6  -3   11.16    0.55
   8   6   3   12.08    0.58
   7  -7  -3    1.70    0.26
  -6  -7   3    1.17    0.24
   6  -7  -3    1.15    0.23
  -6  -7   3    1.38    0.24
  -5  -7   3   -0.03    0.16
  -5  -7   3   -0.12    0.15
   5  -7  -3    0.02    0.15
   5   7  -3    0.02    0.17
   4  -7  -3    6.30    0.40
  -4  -7   3    5.72    0.38
   4   7  -3    6.36    0.40
  -4   7   3    5.76    0.35
   3  -7  -3   12.51    0.54
  -3  -7   3   11.59    0.50
   3   7  -3   10.85    0.51
  -3   7   3   11.07    0.48
   2  -7  -3    8.35    0.43
  -2  -7   3    7.70    0.44
  -2   7   3    8.50    0.42
   2   7  -3    8.03    0.44
   1  -7  -3   12.12    0.52
  -1  -7   3   12.18    0.53
   1   7  -3   12.11    0.51
  -1   7   3   12.16    0.51
   0  -7   3   47.91    1.13
   0  -7  -3   47.00    1.11
   0   7  -3   48.39    1.07
   0   7   3   47.41    1.09
  -1  -7  -3   10.69    0.50
   1  -7   3   10.07    0.49
  -1   7  -3   10.61    0.46
   1   7   3   10.23    0.48
  -2  -7  -3   17.79    0.64
   2  -7   3   17.89    0.65
   2   7   3   20.20    0.68
  -2   7  -3   20.00    0.61
  -3  -7  -3    0.10    0.18
   3  -7   3    0.00    0.15
   3   7   3   -0.04    0.17
  -4  -7  -3    2.92    0.32
   4  -7   3    2.69    0.31
   4   7   3    2.48    0.31
   5  -7   3    1.57    0.27
  -5  -7  -3    1.75    0.27
   5   7   3    1.41    0.26
  -6  -7  -3    1.19    0.24
   6  -7   3    0.95    0.23
   6   7   3    1.54    0.28
   2  -8  -3   -0.04    0.16
  -2  -8   3   -0.19    0.17
   2   8  -3    0.10    0.18
  -2   8   3   -0.18    0.15
  -1  -8   3    1.20    0.26
   1  -8  -3    0.98    0.23
  -1   8   3    1.20    0.25
   1   8  -3    1.44    0.26
   0  -8  -3    0.84    0.23
   0  -8   3    0.85    0.22
   0   8  -3    0.83    0.22
   0   8   3    1.08    0.24
  -1  -8  -3    0.55    0.21
   1  -8   3    0.70    0.22
   1   8   3    0.49    0.21
   2  -8   3    0.56    0.21
  -2  -8  -3    0.90    0.24
   2   8   3    0.74    0.24
  13   0  -4   -0.01    0.16
  12   0  -4    0.25    0.16
  11   0  -4    0.00    0.15
 -11   0   4    0.24    0.14
  10   0  -4   34.07    0.85
 -10   0   4   32.68    0.75
  -9   0   4   -0.12    0.10
   9   0  -4   -0.19    0.09
  -8   0   4    9.95    0.35
   8   0  -4   10.08    0.39
   7   0  -4   -0.14    0.07
  -7   0   4   -0.06    0.07
  -6   0   4   16.21    0.40
   6   0  -4   16.38    0.44
  -5   0   4    0.03    0.06
   5   0  -4   -0.01    0.06
  -4   0   4   29.60    0.53
   4   0  -4   29.63    0.55
   3   0  -4    0.00    0.04
  -3   0   4    0.01    0.04
  -2   0   4   38.54    0.53
  -1   0   4   -0.15    0.05
  -1   0   4   -0.10    0.04
   0   0   4  214.31    2.95
   0   0   4  228.65    2.90
   1   0   4   -0.04    0.03
   1   0   4    0.05    0.02
   1   0   4   -0.04    0.03
   2   0   4  174.72    2.30
   2   0   4  175.66    2.37
   2   0   4  177.62    2.43
   3   0   4   -0.17    0.04
   3   0   4   -0.01    0.04
   3   0   4   -0.08    0.05
   4   0   4   31.08    0.55
  -4   0  -4   30.49    0.49
   4   0   4   31.26    0.60
   5   0   4   -0.07    0.07
  -5   0  -4    0.08    0.06
   5   0   4   -0.01    0.08
   6   0   4    0.19    0.07
  -6   0  -4    0.20    0.06
   6   0   4    0.08    0.08
   7   0   4   -0.05    0.09
   7   0   4    0.12    0.09
  -7   0  -4    0.10    0.07
  -8   0  -4    0.06    0.09
   8   0   4    0.14    0.09
   8   0   4    0.07    0.10
   9   0   4   -0.14    0.10
  10   0   4   16.51    0.57
  11   0   4   -0.07    0.12
  12   0   4    3.63    0.32
  13  -1  -4    5.51    0.42
  13   1  -4    5.58    0.40
 -12  -1   4    0.14    0.16
  12  -1  -4    0.15    0.14
  12   1  -4   -0.02    0.14
 -11  -1   4    6.44    0.35
  11  -1  -4    6.50    0.40
  11   1  -4    5.57    0.35
  10  -1  -4   -0.10    0.13
 -10  -1   4   -0.04    0.13
 -10   1   4   -0.03    0.13
  10   1  -4    0.13    0.13
   9  -1  -4   -0.12    0.11
  -9  -1   4    0.03    0.11
   9   1  -4   -0.20    0.09
  -9   1   4   -0.10    0.11
   8  -1  -4   16.40    0.52
  -8  -1   4   15.89    0.47
  -8   1   4   16.36    0.44
   8   1  -4   16.13    0.48
  -7  -1   4    0.15    0.08
   7  -1  -4   -0.10    0.08
  -7   1   4    0.23    0.09
   7   1  -4   -0.06    0.08
  -6  -1   4   37.77    0.73
   6  -1  -4   38.42    0.78
   6  -1  -4   37.97    0.57
   6   1  -4   39.15    0.74
  -6   1   4   38.40    0.70
  -5  -1   4    0.59    0.05
   5  -1  -4    0.49    0.06
  -5  -1   4    0.63    0.11
   5   1  -4    0.20    0.09
  -5   1   4    0.49    0.09
  -4  -1   4    4.09    0.17
   4  -1  -4    4.34    0.18
  -4  -1   4    4.33    0.11
   4  -1  -4    4.33    0.12
  -4   1   4    4.20    0.16
   4   1  -4    4.30    0.16
  -3  -1   4  117.07    1.58
  -3  -1   4  120.12    1.69
   3  -1  -4  118.99    1.60
  -3   1   4  119.24    1.67
   3   1  -4  119.88    1.68
  -2  -1   4    4.57    0.15
  -2  -1   4    4.52    0.12
  -2   1   4    4.86    0.15
  -1  -1   4  799.17   11.03
  -1  -1   4  770.54   10.93
  -1   1   4  803.11   11.09
  -1   1   4  772.62   10.92
   0  -1   4   45.31    0.68
   0  -1   4   45.29    0.64
   0   1   4   44.92    0.68
   0   1   4   45.30    0.68
   1  -1   4   86.82    1.13
   1  -1   4   85.23    1.22
   1  -1   4   86.76    1.22
   1   1   4   85.59    1.21
   2  -1   4  188.97    2.61
   2  -1   4  189.04    2.56
   2   1   4  189.81    2.59
   2   1   4  189.46    2.55
   2   1   4  188.78    2.54
   3  -1   4  531.71    7.71
   3  -1   4  541.22    7.12
   3   1   4  542.76    7.78
   3   1   4  567.64    7.12
   3   1   4  547.47    7.67
   4  -1   4   80.82    1.20
   4   1   4   78.66    1.18
   4   1   4   78.39    1.18
  -4   1  -4   77.10    1.06
   4   1   4   80.09    1.23
   5  -1   4  342.47    4.69
   5  -1   4  339.55    4.52
  -5  -1  -4  335.25    4.51
  -5   1  -4  331.95    4.39
   5   1   4  336.50    4.50
   5   1   4  343.40    4.52
   5   1   4  333.15    4.64
   6  -1   4    5.36    0.22
  -6  -1  -4    5.04    0.21
   6  -1   4    5.09    0.25
  -6   1  -4    4.98    0.16
   6   1   4    4.83    0.24
   6   1   4    5.34    0.21
  -7  -1  -4    3.58    0.20
   7  -1   4    3.60    0.22
   7  -1   4    3.13    0.27
   7   1   4    3.60    0.23
   7   1   4    3.74    0.21
  -8  -1  -4   11.11    0.35
   8  -1   4   11.63    0.36
   8  -1   4   11.26    0.44
   8   1   4   11.20    0.41
   8   1   4   11.34    0.34
  -9  -1  -4    6.24    0.29
   9  -1   4    6.46    0.36
   9   1   4    6.62    0.33
  10  -1   4    7.99    0.42
  10   1   4    7.70    0.39
  11  -1   4    5.80    0.37
  11   1   4    5.81    0.37
  12  -1   4    1.55    0.25
  12   1   4    1.43    0.24
  13  -2  -4    0.16    0.18
  13   2  -4   -0.25    0.14
  12  -2  -4    0.90    0.22
 -12  -2   4    1.23    0.23
  12   2  -4    0.99    0.20
  11  -2  -4   12.35    0.54
 -11  -2   4   12.65    0.50
  11   2  -4   11.74    0.48
  10  -2  -4    1.32    0.22
 -10  -2   4    1.41    0.21
  10   2  -4    1.31    0.19
  -9  -2   4   20.43    0.59
   9  -2  -4   20.54    0.64
  -9   2   4   20.81    0.53
   9   2  -4   19.80    0.56
   8  -2  -4    0.63    0.15
  -8  -2   4    0.77    0.16
   8   2  -4    0.69    0.14
  -8   2   4    0.91    0.15
   7  -2  -4    0.78    0.10
  -7  -2   4    0.51    0.13
   7  -2  -4    0.30    0.11
  -7   2   4    0.48    0.11
   7   2  -4    0.31    0.09
   6  -2  -4   17.75    0.37
  -6  -2   4   17.33    0.35
  -6  -2   4   17.28    0.47
   6  -2  -4   17.30    0.49
   6   2  -4   17.47    0.42
  -6   2   4   17.69    0.42
   5  -2  -4   27.69    0.50
  -5  -2   4   27.95    0.60
  -5  -2   4   27.68    0.49
   5  -2  -4   27.93    0.61
  -5   2   4   27.86    0.55
   5   2  -4   27.14    0.53
   4  -2  -4    0.41    0.07
   4  -2  -4    0.38    0.09
  -4  -2   4    0.33    0.07
  -4  -2   4    0.46    0.09
  -4   2   4    0.54    0.08
   4   2  -4    0.32    0.06
  -3  -2   4  341.62    4.50
  -3  -2   4  340.40    4.58
   3  -2  -4  335.69    4.65
   3  -2  -4  335.36    4.51
  -3   2   4  349.27    4.55
   3   2  -4  346.31    4.54
  -2  -2   4   20.81    0.40
  -2  -2   4   21.01    0.42
   2  -2  -4   21.45    0.42
   2   2  -4   21.33    0.33
   2   2  -4   20.74    0.43
  -2   2   4   21.05    0.42
  -1  -2   4  740.47   11.17
   1   2  -4  820.15   10.84
   0  -2   4   -0.02    0.04
   0   2   4    0.17    0.05
   0   2  -4    0.32    0.06
   1  -2   4    0.01    0.03
   1  -2   4    0.00    0.04
   1   2   4   -0.02    0.04
  -1   2  -4    0.10    0.04
   2  -2   4   23.63    0.44
   2  -2   4   23.47    0.47
   2   2   4   23.57    0.47
  -2   2  -4   23.35    0.38
   2   2   4   23.79    0.47
   3  -2   4   66.94    1.05
   3  -2   4   67.01    1.05
  -3   2  -4   64.18    0.91
   3   2   4   65.16    1.04
   3   2   4   66.24    1.04
   3   2   4   66.00    1.01
   4  -2   4   11.39    0.32
   4  -2   4   11.30    0.33
  -4   2  -4   10.57    0.20
   4   2   4   11.11    0.29
   4   2   4   11.11    0.32
   4   2   4   11.03    0.31
   5  -2   4   13.49    0.37
   5  -2   4   14.89    0.42
   5   2   4   14.69    0.39
   5   2   4   14.30    0.36
   5   2   4   14.28    0.37
  -5   2  -4   13.69    0.25
   6  -2   4   13.45    0.38
   6  -2   4   11.69    0.39
   6   2   4   12.63    0.38
   6   2   4   12.91    0.37
   6   2   4   12.53    0.35
   7  -2   4   13.18    0.40
  -7  -2  -4   13.16    0.41
   7  -2   4   13.45    0.45
   7   2   4   14.04    0.39
   7   2   4   13.67    0.42
  -8  -2  -4    1.24    0.18
   8  -2   4    0.93    0.18
   8  -2   4    1.31    0.17
   8   2   4    1.14    0.15
   8   2   4    1.20    0.17
  -9  -2  -4    1.71    0.20
   9  -2   4    1.16    0.19
   9   2   4    1.49    0.19
 -10  -2  -4    0.24    0.16
  10  -2   4    0.62    0.19
  10   2   4    0.31    0.14
  11  -2   4    1.26    0.23
  11   2   4    0.94    0.20
  12  -2   4    1.07    0.22
  12   2   4    0.82    0.20
  12  -3  -4    0.37    0.19
 -12  -3   4    0.75    0.21
 -11  -3   4    4.04    0.34
  11  -3  -4    4.34    0.36
  10  -3  -4    0.46    0.18
 -10  -3   4    0.26    0.16
   9  -3  -4    2.25    0.25
  -9  -3   4    2.79    0.26
   9   3  -4    2.84    0.23
  -8  -3   4   20.53    0.60
   8  -3  -4   20.21    0.62
   8   3  -4   20.34    0.51
  -8   3   4   20.91    0.52
   7  -3  -4   -0.07    0.08
   7  -3  -4   -0.15    0.09
  -7  -3   4   -0.11    0.08
  -7  -3   4    0.09    0.11
   7   3  -4    0.16    0.09
  -7   3   4    0.19    0.10
   6  -3  -4   18.51    0.52
  -6  -3   4   18.72    0.53
  -6  -3   4   17.94    0.43
   6  -3  -4   18.58    0.44
   6   3  -4   19.31    0.42
  -6   3   4   18.68    0.46
   5  -3  -4   18.75    0.49
  -5  -3   4   18.68    0.50
  -5  -3   4   19.00    0.43
   5  -3  -4   18.86    0.44
  -5   3   4   18.21    0.44
   5   3  -4   18.87    0.38
   4  -3  -4   12.15    0.33
   4  -3  -4   12.61    0.36
  -4  -3   4   12.41    0.38
  -4  -3   4   12.05    0.33
  -4   3   4   12.40    0.34
   4   3  -4   12.02    0.25
   4   3  -4   13.12    0.40
   3  -3  -4    7.88    0.27
  -3  -3   4    8.01    0.26
   3  -3  -4    8.13    0.26
   3   3  -4    7.69    0.15
   3   3  -4    7.78    0.28
  -3   3   4    7.94    0.26
   2  -3  -4   13.43    0.33
  -2  -3   4   12.85    0.34
  -2   3   4   13.53    0.35
   2   3  -4   13.05    0.36
  -1  -3   4   26.16    0.53
  -1   3   4   25.38    0.53
   1   3  -4   25.80    0.52
   0  -3   4  179.72    2.57
   0   3  -4  182.18    2.53
   0   3   4  185.15    2.57
   1  -3   4    8.38    0.20
   1  -3   4    8.59    0.28
   1   3   4    8.25    0.28
  -1   3  -4    8.37    0.24
   2  -3   4  154.78    2.18
   2  -3   4  154.35    2.24
  -2   3  -4  153.26    2.13
   2   3   4  156.93    2.25
   3  -3   4    7.61    0.29
   3  -3   4    7.35    0.25
  -3   3  -4    7.91    0.21
   3   3   4    7.76    0.29
   4  -3   4   39.12    0.76
   4  -3   4   39.08    0.75
   4   3   4   40.10    0.78
  -4   3  -4   39.06    0.62
   5  -3   4   39.30    0.78
   5  -3   4   39.54    0.79
   5   3   4   37.79    0.70
   5   3   4   38.31    0.80
   6  -3   4    1.09    0.15
   6  -3   4    1.07    0.15
   6   3   4    0.97    0.13
   6   3   4    1.11    0.17
  -7  -3  -4    4.58    0.28
   7  -3   4    4.07    0.25
   7  -3   4    4.51    0.29
   7   3   4    4.39    0.27
   7   3   4    4.08    0.23
  -8  -3  -4    1.65    0.21
   8  -3   4    1.86    0.20
   8  -3   4    1.69    0.21
   8   3   4    1.97    0.19
  -9  -3  -4   -0.15    0.12
   9  -3   4   -0.03    0.12
   9   3   4    0.21    0.12
  10  -3   4    0.67    0.18
 -10  -3  -4    0.77    0.19
  10   3   4    0.93    0.18
  11  -3   4    0.19    0.19
 -11  -4   4    0.45    0.19
  11  -4  -4    0.45    0.19
 -10  -4   4    1.48    0.25
  10  -4  -4    1.28    0.23
   9  -4  -4    0.03    0.13
  -9  -4   4    0.07    0.15
  -8  -4   4   18.24    0.61
   8  -4  -4   19.50    0.62
   7  -4  -4   10.80    0.37
   7  -4  -4   10.09    0.42
  -7  -4   4   10.76    0.36
  -7  -4   4    9.83    0.43
  -7   4   4   10.61    0.37
   6  -4  -4   29.87    0.71
   6  -4  -4   29.01    0.66
  -6  -4   4   29.31    0.75
  -6  -4   4   29.43    0.64
  -6   4   4   29.82    0.65
   5  -4  -4   20.40    0.55
   5  -4  -4   20.07    0.53
  -5  -4   4   20.91    0.59
  -5  -4   4   20.41    0.52
   5   4  -4   21.00    0.60
  -5   4   4   21.13    0.52
  -4  -4   4    1.62    0.17
   4  -4  -4    1.51    0.17
   4  -4  -4    1.43    0.15
   4   4  -4    1.24    0.18
  -4   4   4    1.47    0.16
   3  -4  -4   30.17    0.67
   3  -4  -4   30.95    0.62
  -3  -4   4   31.97    0.66
  -3   4   4   30.50    0.65
   3   4  -4   29.12    0.68
  -2  -4   4    0.38    0.11
   2  -4  -4    0.35    0.08
   2  -4  -4    0.49    0.12
  -2   4   4    0.40    0.10
   2   4  -4    0.50    0.12
   1  -4  -4   36.94    0.64
  -1  -4   4   35.14    0.73
   1   4  -4   35.78    0.72
  -1   4   4   36.85    0.73
   0  -4   4    2.60    0.20
   0   4   4    2.63    0.19
   0   4  -4    2.24    0.17
   1  -4   4    2.26    0.20
   1  -4   4    2.10    0.11
  -1   4  -4    2.16    0.16
   1   4   4    2.50    0.19
   2  -4   4   34.17    0.73
   2  -4   4   33.75    0.61
   2   4   4   34.51    0.74
  -2   4  -4   34.09    0.64
   3  -4   4    7.53    0.27
   3  -4   4    7.27    0.33
  -3   4  -4    6.94    0.26
   3   4   4    7.62    0.33
   4  -4   4   42.42    0.86
   4  -4   4   42.18    0.80
   4   4   4   39.75    0.87
  -4   4  -4   42.11    0.72
   5  -4   4    3.34    0.24
   5  -4   4    3.25    0.25
   5   4   4    4.20    0.28
   6  -4   4    0.34    0.12
   6  -4   4    0.03    0.10
   6   4   4    0.24    0.13
   7  -4   4    1.86    0.21
   7  -4   4    1.67    0.20
   7   4   4    1.65    0.21
  -8  -4  -4   11.36    0.47
   8  -4   4   11.47    0.43
   8  -4   4   11.17    0.46
  -9  -4  -4    2.61    0.29
   9  -4   4    2.22    0.26
  10  -4   4    5.80    0.40
 -10  -4  -4    5.87    0.38
 -11  -4  -4   -0.06    0.16
  11  -4   4    0.18    0.17
  10  -5  -4    0.83    0.22
 -10  -5   4    0.96    0.24
  -9  -5   4    0.74    0.22
   9  -5  -4    0.81    0.20
  -8  -5   4    4.21    0.35
   8  -5  -4    5.10    0.35
   7  -5  -4    0.41    0.15
   7  -5  -4    0.40    0.14
  -7  -5   4    0.31    0.16
  -7  -5   4    0.30    0.13
   6  -5  -4   15.40    0.50
   6  -5  -4   15.44    0.50
  -6  -5   4   15.27    0.49
  -6  -5   4   15.39    0.55
  -6   5   4   15.24    0.47
   5  -5  -4   11.25    0.43
  -5  -5   4   11.09    0.41
  -5  -5   4   10.96    0.45
   5  -5  -4   11.30    0.41
   5   5  -4   11.03    0.46
  -5   5   4   11.07    0.40
  -4  -5   4    3.16    0.25
   4  -5  -4    2.76    0.24
   4  -5  -4    3.03    0.22
  -4   5   4    2.92    0.23
   4   5  -4    3.15    0.25
   3  -5  -4    3.49    0.22
   3  -5  -4    3.38    0.25
  -3  -5   4    3.59    0.27
  -3   5   4    3.20    0.23
   3   5  -4    3.41    0.25
   2  -5  -4    4.38    0.28
  -2  -5   4    4.80    0.29
   2   5  -4    4.30    0.27
  -2   5   4    4.87    0.28
   1  -5  -4   16.67    0.51
  -1  -5   4   16.87    0.52
   1   5  -4   16.64    0.50
  -1   5   4   17.35    0.51
   0  -5  -4    1.86    0.21
   0  -5   4    1.88    0.21
   0   5  -4    1.84    0.20
   0   5   4    1.84    0.20
   1  -5   4    2.69    0.24
  -1   5  -4    2.78    0.20
   1   5   4    2.92    0.23
   2  -5   4   25.45    0.66
   2   5   4   24.73    0.66
  -2   5  -4   25.82    0.58
   3  -5   4   60.44    1.17
   3   5   4   58.44    1.17
  -3   5  -4   60.27    1.03
   4  -5   4   15.89    0.52
   4   5   4   16.28    0.54
   5  -5   4   35.61    0.85
   5  -5   4   36.82    0.78
   5   5   4   35.84    0.88
   6  -5   4    0.16    0.12
   6  -5   4   -0.12    0.12
   6   5   4    0.60    0.17
   7  -5   4   10.59    0.43
   7  -5   4   10.95    0.46
   7   5   4   10.80    0.49
   8  -5   4    0.18    0.15
   8  -5   4    0.10    0.14
  -8  -5  -4    0.18    0.15
   8   5   4    0.08    0.16
   9  -5   4   -0.06    0.12
  -9  -5  -4   -0.14    0.16
  10  -5   4    1.82    0.27
 -10  -5  -4    1.81    0.29
  -9  -6   4    0.32    0.20
  -8  -6   4    1.45    0.27
  -7  -6   4    2.13    0.29
   7  -6  -4    2.49    0.28
  -6  -6   4    0.00    0.15
   6  -6  -4    0.16    0.16
  -6  -6   4    0.42    0.19
   5  -6  -4   25.02    0.72
  -5  -6   4   25.92    0.70
  -5  -6   4   24.38    0.74
   5   6  -4   24.89    0.76
  -5   6   4   25.71    0.68
  -4  -6   4    5.96    0.34
   4  -6  -4    5.66    0.34
  -4   6   4    6.12    0.33
   4   6  -4    6.05    0.37
  -3  -6   4   32.45    0.81
   3  -6  -4   32.06    0.81
   3   6  -4   31.70    0.83
  -3   6   4   31.38    0.77
  -2  -6   4    0.46    0.15
   2  -6  -4    0.71    0.18
  -2   6   4    0.47    0.15
   2   6  -4    0.61    0.17
   1  -6  -4    0.48    0.16
  -1  -6   4    0.38    0.15
   1   6  -4    0.46    0.15
  -1   6   4    0.51    0.16
   0  -6  -4   -0.07    0.12
   0  -6   4   -0.13    0.11
   0   6   4    0.04    0.13
   0   6  -4    0.20    0.13
  -1  -6  -4    0.07    0.13
   1  -6   4    0.10    0.15
   1   6   4    0.01    0.13
  -1   6  -4   -0.02    0.11
   2  -6   4    2.00    0.26
  -2  -6  -4    3.05    0.29
  -2   6  -4    2.05    0.23
   2   6   4    2.01    0.26
   3  -6   4    0.70    0.19
   3   6   4    0.66    0.19
   4  -6   4   -0.06    0.13
   4   6   4   -0.12    0.13
   5  -6   4    0.00    0.15
   5   6   4   -0.09    0.14
   6  -6   4    2.63    0.29
   6   6   4    2.92    0.32
   7  -6   4    2.32    0.29
   7   6   4    2.85    0.33
  -8  -6  -4    0.06    0.18
   8  -6   4    0.05    0.16
   8   6   4    0.29    0.20
   6  -7  -4    0.27    0.17
  -6  -7   4    0.24    0.18
  -6  -7   4    0.04    0.16
  -5  -7   4   -0.06    0.16
  -5  -7   4    0.05    0.15
   5  -7  -4    0.02    0.15
   5   7  -4   -0.01    0.15
   4  -7  -4    2.98    0.32
  -4  -7   4    3.07    0.32
   4   7  -4    2.92    0.34
  -4   7   4    3.10    0.30
   3  -7  -4    2.07    0.28
  -3  -7   4    1.96    0.28
  -3   7   4    2.52    0.28
   3   7  -4    2.18    0.29
   2  -7  -4    4.83    0.35
  -2  -7   4    4.54    0.36
   2   7  -4    4.98    0.36
  -2   7   4    4.81    0.33
  -1  -7   4    0.02    0.16
   1  -7  -4    0.23    0.17
   1   7  -4   -0.03    0.16
  -1   7   4   -0.11    0.15
   0  -7   4    6.73    0.40
   0  -7  -4    6.06    0.39
   0   7  -4    6.22    0.38
   0   7   4    6.16    0.39
  -1  -7  -4    5.92    0.38
   1  -7   4    5.22    0.38
  -1   7  -4    4.94    0.34
   1   7   4    5.74    0.38
  -2  -7  -4    3.87    0.34
   2  -7   4    3.72    0.32
   2   7   4    3.46    0.31
  -3  -7  -4   10.05    0.49
   3  -7   4    9.25    0.47
   3   7   4    9.93    0.50
   4  -7   4    0.19    0.16
  -4  -7  -4    0.17    0.18
   4   7   4    0.43    0.19
  -5  -7  -4    6.96    0.42
   5  -7   4    6.79    0.43
   5   7   4    6.64    0.43
  -6  -7  -4   -0.18    0.16
   6  -7   4   -0.19    0.14
   6   7   4   -0.01    0.17
  -2  -8   4    8.99    0.50
   2  -8  -4    9.36    0.51
  -2   8   4    9.61    0.49
   2   8  -4    9.80    0.51
   1  -8  -4    0.06    0.18
  -1  -8   4   -0.10    0.17
   1   8  -4    0.11    0.17
  -1   8   4   -0.14    0.16
   0  -8   4    8.28    0.49
   0  -8  -4    7.64    0.45
   0   8  -4    8.83    0.47
   0   8   4    7.87    0.46
  -1  -8  -4    0.06    0.18
   1  -8   4    0.09    0.16
   1   8   4   -0.17    0.15
   2  -8   4    5.35    0.40
  -2  -8  -4    5.52    0.41
  13   0  -5    0.88    0.23
  12   0  -5   -0.01    0.13
 -11   0   5    8.59    0.39
  11   0  -5    9.14    0.45
 -10   0   5    0.26    0.14
  10   0  -5    0.03    0.14
  -9   0   5    3.61    0.24
   9   0  -5    3.75    0.26
  -8   0   5    0.19    0.12
   8   0  -5   -0.09    0.11
   7   0  -5   -0.03    0.08
  -7   0   5    0.22    0.10
  -6   0   5    0.40    0.11
   6   0  -5    0.29    0.11
  -5   0   5  143.98    2.05
   5   0  -5  142.34    2.10
   4   0  -5    0.01    0.05
  -4   0   5    0.03    0.06
   3   0  -5  204.30    2.83
  -3   0   5  206.12    2.77
  -2   0   5   -0.03    0.03
  -2   0   5   -0.06    0.04
  -1   0   5    0.47    0.05
  -1   0   5    0.47    0.05
   1   0   5  129.03    1.69
   1   0   5  128.26    1.78
   1   0   5  126.18    1.75
   2   0   5   -0.12    0.04
   2   0   5   -0.06    0.03
   3   0   5   20.28    0.33
   3   0   5   19.95    0.41
   3   0   5   20.47    0.43
  -4   0  -5   -0.02    0.04
   4   0   5    0.03    0.06
   4   0   5    0.03    0.06
   5   0   5   25.66    0.57
  -5   0  -5   25.00    0.44
   5   0   5   26.29    0.52
   6   0   5   -0.05    0.06
  -6   0  -5    0.15    0.06
   6   0   5    0.01    0.07
  -7   0  -5   69.62    1.07
   7   0   5   68.96    1.14
   7   0   5   69.67    1.25
   8   0   5   -0.03    0.08
   8   0   5   -0.07    0.09
   9   0   5   20.63    0.63
  10   0   5    0.23    0.13
  11   0   5    0.11    0.14
  12   0   5    0.24    0.16
  13  -1  -5    0.88    0.23
  13   1  -5    0.84    0.22
 -12  -1   5    0.36    0.17
  12  -1  -5    0.35    0.16
  12   1  -5    0.34    0.16
 -11  -1   5    0.44    0.16
  11  -1  -5    0.13    0.15
  11   1  -5    0.05    0.15
 -11   1   5    0.35    0.15
  10  -1  -5   28.35    0.78
 -10  -1   5   29.91    0.74
  10   1  -5   30.92    0.77
 -10   1   5   29.11    0.70
   9  -1  -5    0.12    0.13
  -9  -1   5    0.13    0.12
   9   1  -5    0.13    0.13
  -9   1   5    0.40    0.13
   8  -1  -5   77.95    1.41
  -8  -1   5   78.27    1.34
   8   1  -5   78.75    1.37
  -8   1   5   77.61    1.30
   7  -1  -5    0.02    0.09
  -7  -1   5    0.31    0.10
   7   1  -5    0.00    0.08
  -7   1   5    0.23    0.10
   6  -1  -5  107.24    1.45
  -6  -1   5  108.95    1.65
   6  -1  -5  107.14    1.71
  -6   1   5  107.03    1.62
   6   1  -5  108.52    1.67
   5  -1  -5    1.07    0.07
  -5  -1   5    0.99    0.12
  -5  -1   5    1.07    0.06
   5  -1  -5    0.72    0.11
   5   1  -5    0.95    0.11
  -5   1   5    1.33    0.13
  -4  -1   5    0.33    0.08
  -4  -1   5    0.49    0.04
   4  -1  -5    0.36    0.07
   4  -1  -5    0.54    0.05
   4   1  -5    0.36    0.07
  -4   1   5    0.43    0.08
   3  -1  -5   52.74    0.87
  -3  -1   5   58.58    0.86
  -3  -1   5   52.30    0.75
  -3   1   5   51.36    0.83
   3   1  -5   53.14    0.83
  -2  -1   5  261.89    3.45
  -2  -1   5  268.92    3.52
  -2   1   5  262.25    3.51
  -1  -1   5  647.16    9.08
  -1  -1   5  633.06    8.87
  -1   1   5  620.90    8.82
  -1   1   5  633.36    9.01
   0  -1   5    1.98    0.10
   0  -1   5    2.20    0.08
   0   1   5    2.11    0.10
   0   1   5    1.92    0.10
   1  -1   5   31.57    0.44
   1  -1   5   31.11    0.52
   1  -1   5   31.50    0.53
   1   1   5   31.83    0.52
   1   1   5   31.36    0.53
   2  -1   5   39.66    0.66
   2  -1   5   38.78    0.66
   2   1   5   38.90    0.65
   2   1   5   39.02    0.65
   2   1   5   40.50    0.63
   3  -1   5   61.90    0.96
   3  -1   5   61.94    0.99
   3   1   5   60.85    0.92
   3   1   5   61.14    0.95
   3   1   5   60.16    0.97
   4  -1   5    1.16    0.11
   4  -1   5    0.82    0.11
   4   1   5    0.90    0.10
   4   1   5    0.98    0.10
   4   1   5    0.80    0.10
   5  -1   5  136.37    1.97
   5  -1   5  135.16    2.06
  -5   1  -5  133.34    1.80
   5   1   5  137.74    1.94
   5   1   5  137.55    2.04
   5   1   5  136.40    1.96
  -6  -1  -5    1.80    0.14
   6  -1   5    1.85    0.15
   6  -1   5    1.85    0.17
   6   1   5    2.26    0.15
   6   1   5    1.95    0.17
   7  -1   5  138.42    2.02
   7  -1   5  133.94    2.15
  -7  -1  -5  136.98    1.99
   7   1   5  133.83    1.99
   7   1   5  134.40    2.12
  -8  -1  -5    0.33    0.12
   8  -1   5    0.30    0.11
   8  -1   5    0.13    0.13
   8   1   5    0.30    0.11
   8   1   5    0.14    0.12
   9  -1   5   -0.01    0.11
   9   1   5    0.10    0.12
  10  -1   5    4.21    0.32
  10   1   5    4.58    0.32
  11  -1   5    4.19    0.34
  11   1   5    3.73    0.32
  12  -1   5    1.73    0.27
  12   1   5    2.28    0.28
 -13  -2   5    0.05    0.18
  13  -2  -5    0.12    0.18
  13   2  -5   -0.18    0.14
 -12  -2   5    0.45    0.19
  12  -2  -5    0.40    0.18
  12   2  -5    0.07    0.15
  11  -2  -5    1.79    0.26
 -11  -2   5    2.43    0.28
  11   2  -5    1.75    0.24
 -10  -2   5    3.22    0.28
  10  -2  -5    2.65    0.27
 -10   2   5    2.68    0.23
  10   2  -5    2.96    0.27
  -9  -2   5    3.93    0.28
   9  -2  -5    3.93    0.31
   9   2  -5    3.35    0.26
  -9   2   5    4.48    0.26
  -8  -2   5   18.68    0.55
   8  -2  -5   19.27    0.58
   8   2  -5   19.09    0.52
  -8   2   5   19.32    0.50
   7  -2  -5   11.32    0.27
  -7  -2   5   11.12    0.39
   7  -2  -5   11.53    0.41
  -7   2   5   10.79    0.34
   7   2  -5   11.36    0.35
   6  -2  -5   10.94    0.38
  -6  -2   5   10.64    0.37
  -6  -2   5   11.00    0.26
   6  -2  -5   10.95    0.27
  -6   2   5   11.20    0.33
   6   2  -5   10.64    0.32
   5  -2  -5   73.24    1.07
   5  -2  -5   73.33    1.22
  -5  -2   5   69.55    1.19
  -5  -2   5   71.89    1.05
   5   2  -5   73.01    1.13
  -5   2   5   71.59    1.14
  -4  -2   5   50.36    0.87
   4  -2  -5   49.02    0.88
  -4  -2   5   49.67    0.77
   4  -2  -5   50.49    0.79
   4   2  -5   50.62    0.79
  -4   2   5   49.48    0.83
  -3  -2   5    7.06    0.20
   3  -2  -5    6.86    0.24
  -3  -2   5    6.96    0.24
   3   2  -5    6.31    0.18
  -3   2   5    6.69    0.22
  -2  -2   5  113.45    1.62
  -2  -2   5  115.56    1.66
  -2   2   5  116.98    1.66
  -1  -2   5  125.24    1.73
  -1  -2   5  122.34    1.73
  -1   2   5  124.19    1.75
   1   2  -5  120.96    1.73
   0  -2   5  223.08    3.01
   0   2  -5  219.66    2.97
   0   2   5  223.66    3.02
   1  -2   5   25.84    0.45
   1  -2   5   25.11    0.49
  -1   2  -5   25.82    0.42
   1   2   5   25.74    0.49
   1   2   5   26.02    0.49
   2  -2   5   59.54    0.93
   2  -2   5   59.85    0.96
  -2   2  -5   59.18    0.84
   2   2   5   60.58    0.95
   2   2   5   58.94    0.95
   3  -2   5   67.45    1.08
   3  -2   5   68.45    1.09
   3   2   5   68.40    1.05
  -3   2  -5   66.17    0.92
   3   2   5   69.63    1.08
   3   2   5   67.44    1.07
   4  -2   5    7.16    0.26
   4  -2   5    8.16    0.28
   4   2   5    7.92    0.27
   4   2   5    7.65    0.26
   4   2   5    7.85    0.25
   5  -2   5    0.11    0.09
   5  -2   5    0.04    0.08
   5   2   5    0.05    0.08
   5   2   5    0.13    0.08
   5   2   5   -0.05    0.08
   6  -2   5   16.36    0.43
   6  -2   5   16.27    0.48
   6   2   5   16.43    0.44
   6   2   5   15.63    0.41
   6   2   5   16.40    0.44
  -7  -2  -5    1.57    0.18
   7  -2   5    1.24    0.17
   7  -2   5    1.43    0.19
   7   2   5    1.65    0.18
   7   2   5    1.70    0.18
   8  -2   5   12.40    0.46
  -8  -2  -5   13.73    0.42
   8  -2   5   12.48    0.41
   8   2   5   13.23    0.39
   8   2   5   11.83    0.43
   9  -2   5    0.32    0.15
  -9  -2  -5    0.37    0.14
   9   2   5    0.12    0.12
  10  -2   5    0.09    0.15
  10   2   5    0.07    0.12
  11  -2   5    2.78    0.31
  11   2   5    3.17    0.30
  12  -2   5    0.68    0.21
  12   2   5    0.86    0.21
  12  -3  -5   -0.03    0.15
 -12  -3   5    0.01    0.16
 -11  -3   5    1.26    0.24
  11  -3  -5    1.39    0.24
  10  -3  -5   23.39    0.74
 -10  -3   5   23.23    0.71
   9  -3  -5    5.31    0.35
  -9  -3   5    5.53    0.34
  -9   3   5    5.42    0.29
   8  -3  -5   24.61    0.70
  -8  -3   5   25.66    0.70
  -8   3   5   26.16    0.61
   8   3  -5   25.95    0.60
  -7  -3   5    1.31    0.19
   7  -3  -5    1.17    0.14
   7  -3  -5    0.97    0.17
  -7   3   5    1.20    0.16
   7   3  -5    1.20    0.14
  -6  -3   5   18.52    0.54
   6  -3  -5   18.97    0.53
  -6  -3   5   18.43    0.43
   6  -3  -5   19.24    0.45
   6   3  -5   18.42    0.42
  -6   3   5   19.40    0.48
   5  -3  -5    3.14    0.22
  -5  -3   5    3.45    0.19
  -5  -3   5    3.25    0.22
   5  -3  -5    3.65    0.19
  -5   3   5    3.77    0.20
   5   3  -5    3.40    0.15
   4  -3  -5    0.70    0.11
   4  -3  -5    0.64    0.11
  -4  -3   5    0.46    0.10
  -4  -3   5    0.93    0.13
  -4   3   5    0.65    0.11
   4   3  -5    0.61    0.06
   3  -3  -5    8.23    0.27
  -3  -3   5    8.08    0.27
  -3  -3   5    8.70    0.30
   3  -3  -5    8.56    0.28
   3   3  -5    8.66    0.30
   3   3  -5    7.91    0.16
  -3   3   5    8.42    0.28
  -2  -3   5   16.11    0.39
   2  -3  -5   16.29    0.38
  -2   3   5   16.18    0.40
   2   3  -5   16.83    0.41
  -1  -3   5   37.11    0.69
   1   3  -5   37.25    0.68
  -1   3   5   36.21    0.68
   0  -3   5    3.27    0.19
   0   3   5    3.00    0.18
   0   3  -5    3.31    0.16
   1  -3   5    8.91    0.22
   1  -3   5    8.99    0.29
   1   3   5    9.06    0.29
  -1   3  -5    8.75    0.24
   2  -3   5    7.17    0.22
   2  -3   5    6.84    0.26
   2   3   5    6.39    0.26
  -2   3  -5    6.83    0.20
   3  -3   5    3.49    0.18
   3  -3   5    3.86    0.22
  -3   3  -5    2.97    0.14
   3   3   5    3.35    0.20
   4  -3   5    3.15    0.22
   4  -3   5    2.95    0.20
   4   3   5    3.32    0.21
  -4   3  -5    2.72    0.13
   5  -3   5   67.09    1.18
   5  -3   5   67.86    1.17
   5   3   5   65.94    1.18
   5   3   5   68.33    1.11
   6  -3   5   13.25    0.43
   6  -3   5   12.73    0.41
   6   3   5   13.52    0.43
   6   3   5   13.36    0.38
   7  -3   5   28.12    0.67
   7  -3   5   28.83    0.72
   7   3   5   29.56    0.71
   7   3   5   28.95    0.65
   8  -3   5    9.24    0.37
   8  -3   5    9.10    0.42
  -8  -3  -5    8.53    0.38
   8   3   5    9.11    0.37
   9  -3   5   -0.01    0.11
  -9  -3  -5   -0.14    0.12
   9   3   5   -0.10    0.11
  10  -3   5    3.10    0.31
 -10  -3  -5    2.92    0.27
  10   3   5    2.73    0.26
  11  -3   5    1.10    0.23
  11  -4  -5    7.28    0.45
 -11  -4   5    7.47    0.45
  10  -4  -5    6.16    0.39
 -10  -4   5    5.31    0.38
   9  -4  -5    9.60    0.45
  -9  -4   5    9.30    0.46
  -8  -4   5    0.94    0.20
   8  -4  -5    1.23    0.21
  -8   4   5    1.31    0.18
   7  -4  -5    0.15    0.12
  -7  -4   5    0.20    0.14
   7  -4  -5    0.31    0.14
  -7   4   5    0.37    0.13
  -6  -4   5   14.42    0.50
  -6  -4   5   13.73    0.41
   6  -4  -5   13.02    0.41
   6  -4  -5   14.01    0.46
  -6   4   5   14.11    0.43
  -5  -4   5   46.91    0.97
   5  -4  -5   46.15    0.92
   5  -4  -5   46.01    0.89
  -5  -4   5   48.43    0.88
  -5   4   5   45.87    0.88
   4  -4  -5    4.12    0.23
   4  -4  -5    4.01    0.24
  -4  -4   5    4.18    0.25
  -4  -4   5    4.22    0.24
  -4   4   5    4.22    0.24
   4   4  -5    4.17    0.26
   3  -4  -5   35.86    0.70
   3  -4  -5   34.59    0.73
  -3  -4   5   35.33    0.72
  -3   4   5   35.96    0.72
   3   4  -5   34.67    0.76
   2  -4  -5   78.84    1.24
   2  -4  -5   80.81    1.32
  -2  -4   5   78.49    1.30
   2   4  -5   77.43    1.32
  -2   4   5   76.84    1.30
  -1  -4   5    2.43    0.19
   1  -4  -5    2.36    0.14
  -1   4   5    2.48    0.19
   1   4  -5    2.19    0.18
   0  -4   5   10.61    0.36
   0   4   5   10.24    0.36
   0   4  -5   10.23    0.33
   1  -4   5   28.16    0.48
   1  -4   5   27.43    0.63
   1   4   5   28.01    0.63
  -1   4  -5   28.01    0.57
   2  -4   5  114.47    1.84
   2  -4   5  117.41    1.70
  -2   4  -5  116.89    1.72
   2   4   5  119.40    1.86
   3  -4   5   52.14    1.00
   3  -4   5   53.82    0.91
  -3   4  -5   53.34    0.87
   3   4   5   50.80    1.00
   4  -4   5   61.74    1.07
   4  -4   5   61.42    1.14
   4   4   5   61.77    1.16
   5  -4   5   18.66    0.51
   5  -4   5   18.96    0.54
   5   4   5   18.98    0.56
   6  -4   5    0.16    0.11
   6  -4   5    0.33    0.13
   6   4   5    0.15    0.13
   7  -4   5    4.43    0.28
   7  -4   5    4.83    0.30
   7   4   5    4.77    0.31
   8  -4   5    3.41    0.26
   8  -4   5    2.95    0.28
  -8  -4  -5    3.16    0.28
   8   4   5    3.12    0.28
   9  -4   5    0.54    0.17
  -9  -4  -5    0.64    0.19
  10  -4   5    0.29    0.17
 -10  -4  -5    0.13    0.16
  11  -4   5    2.56    0.31
  10  -5  -5    4.26    0.36
 -10  -5   5    4.59    0.39
  -9  -5   5    1.54    0.27
   9  -5  -5    1.41    0.24
  -8  -5   5   16.04    0.62
   8  -5  -5   15.47    0.56
  -7  -5   5    1.80    0.26
   7  -5  -5    2.30    0.24
   7  -5  -5    1.90    0.23
  -7   5   5    1.96    0.22
  -6  -5   5    2.89    0.24
   6  -5  -5    2.88    0.25
  -6  -5   5    2.66    0.28
   6  -5  -5    2.74    0.25
  -6   5   5    2.57    0.22
  -5  -5   5    0.67    0.17
  -5  -5   5    0.52    0.14
   5  -5  -5    0.38    0.15
   5  -5  -5    0.38    0.13
  -5   5   5    0.63    0.14
  -4  -5   5    0.76    0.15
   4  -5  -5    0.66    0.13
   4  -5  -5    0.82    0.16
  -4  -5   5    0.87    0.17
   4   5  -5    0.47    0.16
  -4   5   5    0.84    0.15
   3  -5  -5    2.93    0.24
   3  -5  -5    3.14    0.21
  -3  -5   5    3.08    0.25
  -3   5   5    2.80    0.23
   3   5  -5    3.24    0.25
  -2  -5   5    1.36    0.19
   2  -5  -5    0.93    0.12
   2  -5  -5    1.09    0.18
   2   5  -5    1.26    0.19
  -2   5   5    1.29    0.18
  -1  -5   5   18.37    0.55
   1  -5  -5   18.71    0.55
   1   5  -5   18.29    0.52
  -1   5   5   18.03    0.53
   0  -5   5    0.01    0.11
   0   5   5    0.20    0.13
   0   5  -5    0.07    0.11
   1  -5   5    8.32    0.37
   1   5   5    7.55    0.35
  -1   5  -5    8.40    0.32
   2  -5   5    6.44    0.34
   2   5   5    5.67    0.31
  -2   5  -5    5.27    0.26
   3  -5   5    1.50    0.21
  -3   5  -5    1.45    0.16
   3   5   5    1.49    0.21
   4  -5   5    0.25    0.13
   4   5   5   -0.15    0.10
   5  -5   5    9.63    0.42
   5  -5   5    9.12    0.35
   5   5   5    9.13    0.43
   6  -5   5    6.27    0.34
   6  -5   5    5.76    0.30
   6   5   5    5.94    0.36
   7  -5   5    7.58    0.37
   7  -5   5    7.29    0.38
   7   5   5    7.83    0.41
   8  -5   5   12.95    0.51
  -8  -5  -5   12.31    0.53
   8  -5   5   12.97    0.51
   8   5   5   12.59    0.55
   9  -5   5    0.52    0.17
  -9  -5  -5    0.30    0.19
  -9  -6   5    4.92    0.40
  -8  -6   5    0.30    0.19
  -7  -6   5    1.26    0.25
   7  -6  -5    1.59    0.24
  -6  -6   5    0.62    0.21
  -6  -6   5    0.37    0.17
   6  -6  -5    0.63    0.19
  -6   6   5    0.49    0.17
  -5  -6   5    3.08    0.28
   5  -6  -5    2.75    0.26
  -5  -6   5    3.46    0.32
  -5   6   5    2.96    0.26
  -4  -6   5    0.13    0.14
  -4  -6   5    0.14    0.15
   4  -6  -5    0.08    0.14
   4   6  -5    0.11    0.16
  -4   6   5    0.11    0.13
  -3  -6   5    0.34    0.15
   3  -6  -5    0.43    0.15
   3   6  -5    0.41    0.16
  -3   6   5    0.45    0.15
  -2  -6   5    0.99    0.18
   2  -6  -5    0.85    0.19
   2   6  -5    0.87    0.18
  -2   6   5    0.88    0.17
  -1  -6   5   -0.08    0.11
   1  -6  -5   -0.20    0.12
  -1   6   5   -0.03    0.11
   1   6  -5   -0.05    0.11
   0  -6   5   15.68    0.54
   0  -6  -5   15.49    0.55
   0   6  -5   15.61    0.50
   0   6   5   15.28    0.53
  -1  -6  -5   -0.11    0.14
   1  -6   5   -0.01    0.14
  -1   6  -5    0.18    0.12
   1   6   5   -0.01    0.14
   2  -6   5   57.08    1.21
   2   6   5   56.95    1.20
  -2   6  -5   59.23    1.10
   3  -6   5   15.19    0.55
   3   6   5   14.78    0.56
   4  -6   5   19.39    0.64
   4   6   5   20.27    0.67
   5  -6   5    2.83    0.31
   5   6   5    2.82    0.31
   6  -6   5    0.21    0.16
   6   6   5   -0.17    0.15
   7  -6   5    2.03    0.28
   7   6   5    2.11    0.30
   8  -6   5    0.53    0.19
  -8  -6  -5    0.33    0.19
   8   6   5    0.61    0.22
   6  -7  -5    0.65    0.20
  -6  -7   5    0.31    0.18
  -6  -7   5    0.70    0.21
  -5  -7   5    0.07    0.16
   5  -7  -5    0.02    0.16
  -5  -7   5    0.23    0.19
  -5   7   5    0.33    0.18
   4  -7  -5    0.25    0.18
  -4  -7   5    0.04    0.15
  -4  -7   5   -0.04    0.16
   4   7  -5    0.13    0.18
  -4   7   5    0.14    0.15
   3  -7  -5   11.35    0.50
  -3  -7   5   12.25    0.53
   3   7  -5   11.34    0.53
  -3   7   5   11.51    0.49
  -2  -7   5    3.77    0.33
   2  -7  -5    3.81    0.34
   2   7  -5    3.82    0.33
  -2   7   5    3.85    0.31
   1  -7  -5    1.74    0.27
  -1  -7   5    2.06    0.27
   1   7  -5    1.91    0.26
  -1   7   5    1.69    0.26
   0  -7   5    0.04    0.15
   0  -7  -5   -0.34    0.16
   0   7  -5   -0.05    0.15
   0   7   5   -0.05    0.15
   1  -7   5    0.57    0.20
  -1  -7  -5    0.72    0.21
   1   7   5    0.69    0.19
  -1   7  -5    0.61    0.18
   2  -7   5    0.77    0.22
  -2  -7  -5    0.84    0.21
   2   7   5    0.84    0.21
  -3  -7  -5    0.21    0.17
   3  -7   5    0.11    0.16
   3   7   5    0.12    0.17
   4  -7   5    0.02    0.16
  -4  -7  -5    0.06    0.17
   4   7   5    0.11    0.17
   5  -7   5    5.84    0.40
  -5  -7  -5    6.48    0.42
   5   7   5    6.50    0.44
   6  -7   5    2.94    0.35
  -6  -7  -5    2.99    0.33
   6   7   5    2.55    0.34
  -2  -8   5    0.09    0.18
   2  -8  -5    0.25    0.19
  -2   8   5    0.14    0.17
   2   8  -5    0.14    0.18
  -1  -8   5    4.89    0.38
   1  -8  -5    5.10    0.40
   1   8  -5    4.61    0.37
  -1   8   5    4.77    0.38
   0  -8  -5    0.15    0.18
   0  -8   5    0.20    0.19
   0   8   5    0.15    0.19
  -1  -8  -5    0.31    0.20
   1  -8   5   -0.02    0.17
   1   8   5    0.05    0.18
  13   0  -6   -0.12    0.15
 -12   0   6    0.06    0.15
  12   0  -6    0.11    0.14
  11   0  -6   -0.20    0.13
 -11   0   6   -0.23    0.12
  10   0  -6   14.21    0.52
 -10   0   6   13.83    0.47
   9   0  -6   -0.02    0.11
  -9   0   6   -0.11    0.11
  -8   0   6   21.26    0.54
   8   0  -6   21.17    0.58
   7   0  -6    0.02    0.08
  -7   0   6   -0.15    0.07
   6   0  -6  280.58    3.95
  -6   0   6  279.74    3.85
   5   0  -6   -0.08    0.06
  -5   0   6    0.17    0.08
  -4   0   6  115.64    1.69
   4   0  -6  119.67    1.74
  -3   0   6    0.06    0.05
  -3   0   6    0.11    0.03
  -2   0   6 1000.00   13.16
  -2   0   6  953.89   13.63
  -1   0   6   -0.07    0.03
  -1   0   6   -0.10    0.03
   0   0   6  782.93   11.20
   0   0   6  840.73   11.63
   1   0   6   -0.07    0.03
   2   0   6  389.20    4.99
   2   0   6  382.99    5.09
   2   0   6  361.21    5.10
   3   0   6    0.06    0.04
   3   0   6    0.15    0.06
   3   0   6    0.10    0.06
  -4   0  -6   42.53    0.65
   4   0   6   43.86    0.75
   4   0   6   43.69    0.78
   5   0   6   -0.01    0.07
   5   0   6    0.07    0.08
  -5   0  -6   -0.02    0.05
  -6   0  -6    2.07    0.12
   6   0   6    2.19    0.18
   6   0   6    2.57    0.17
  -7   0  -6   -0.16    0.07
   7   0   6   -0.21    0.09
   7   0   6    0.43    0.15
   8   0   6    0.96    0.17
   8   0   6    1.47    0.17
   9   0   6   -0.04    0.11
  10   0   6    3.17    0.28
  11   0   6   -0.20    0.13
  12   0   6    3.70    0.34
  13  -1  -6    0.12    0.17
  13   1  -6   -0.08    0.16
  12  -1  -6    2.14    0.27
 -12  -1   6    2.70    0.29
  12   1  -6    2.31    0.27
 -11  -1   6    1.51    0.22
  11  -1  -6    1.17    0.22
  11   1  -6    0.99    0.21
 -11   1   6    1.79    0.23
 -10  -1   6    0.33    0.15
  10  -1  -6    0.05    0.13
 -10   1   6    0.44    0.15
  10   1  -6    0.12    0.13
   9  -1  -6   -0.10    0.11
  -9  -1   6    0.18    0.13
   9   1  -6   -0.05    0.11
  -9   1   6    0.18    0.13
   8  -1  -6   68.41    1.27
  -8  -1   6   66.11    1.19
   8   1  -6   67.35    1.23
  -8   1   6   66.25    1.17
  -7  -1   6    6.82    0.29
   7  -1  -6    6.73    0.30
  -7   1   6    6.56    0.27
   7   1  -6    7.10    0.29
  -6  -1   6   91.81    1.46
   6  -1  -6   92.46    1.24
   6  -1  -6   92.59    1.51
   6   1  -6   94.63    1.47
  -6   1   6   92.24    1.44
   5  -1  -6   23.37    0.53
  -5  -1   6   23.64    0.51
   5  -1  -6   23.36    0.36
  -5  -1   6   22.37    0.34
  -5   1   6   22.76    0.49
   5   1  -6   23.25    0.49
  -4  -1   6   17.02    0.39
   4  -1  -6   16.96    0.41
   4  -1  -6   17.32    0.29
  -4  -1   6   16.73    0.28
   4   1  -6   17.43    0.38
  -4   1   6   16.97    0.38
  -3  -1   6    0.32    0.05
  -3   1   6    0.34    0.07
   3   1  -6    0.21    0.05
  -2  -1   6  382.08    4.92
  -2  -1   6  368.11    5.03
  -2   1   6  370.06    4.86
  -1  -1   6    0.05    0.04
  -1  -1   6    0.07    0.04
  -1   1   6    0.17    0.05
  -1   1   6    0.43    0.06
   0  -1   6   92.84    1.26
   0  -1   6   92.54    1.31
   0   1   6   91.36    1.30
   0   1   6   92.50    1.31
   1  -1   6  247.21    3.32
   1  -1   6  244.72    3.36
   1  -1   6  247.22    3.21
   1   1   6  248.48    3.29
   1   1   6  251.90    3.32
   2  -1   6  153.88    2.13
   2  -1   6  151.45    2.16
   2   1   6  153.56    2.13
   2   1   6  152.93    2.09
   3  -1   6   24.28    0.49
   3  -1   6   24.65    0.50
   3   1   6   24.45    0.49
   3   1   6   24.34    0.45
   3   1   6   24.43    0.49
   4  -1   6   50.36    0.89
   4  -1   6   50.38    0.86
   4   1   6   50.67    0.81
   4   1   6   51.50    0.88
   4   1   6   50.34    0.85
   5  -1   6   28.80    0.59
   5  -1   6   28.59    0.63
   5   1   6   28.32    0.61
   5   1   6   28.72    0.54
   5   1   6   28.90    0.58
   6  -1   6    2.34    0.19
  -6  -1  -6    2.48    0.15
   6   1   6    2.42    0.19
   6   1   6    2.49    0.17
   7  -1   6    2.65    0.24
   7  -1   6    3.10    0.23
  -7  -1  -6    3.60    0.22
   7   1   6    3.21    0.25
   7   1   6    2.97    0.23
   8  -1   6    8.80    0.34
   8  -1   6    8.46    0.38
  -8  -1  -6    9.25    0.32
   8   1   6    8.17    0.36
   8   1   6    8.53    0.33
   9  -1   6    0.06    0.11
   9   1   6    0.08    0.12
  10  -1   6    7.45    0.41
  10   1   6    7.61    0.39
  11  -1   6    0.82    0.20
  11   1   6    0.95    0.20
  12  -1   6    5.55    0.41
  12   1   6    5.81    0.39
 -13  -2   6    6.95    0.43
  13  -2  -6    6.60    0.46
  13   2  -6    6.63    0.41
 -12  -2   6    0.68    0.20
  12  -2  -6    0.43    0.18
  12   2  -6    0.61    0.19
  11  -2  -6    8.26    0.46
 -11  -2   6    8.90    0.43
  11   2  -6    8.96    0.43
 -10  -2   6    0.57    0.16
  10  -2  -6    0.23    0.15
 -10   2   6    0.41    0.14
  10   2  -6    0.38    0.14
   9  -2  -6   18.30    0.60
  -9  -2   6   18.14    0.56
   9   2  -6   17.95    0.53
  -9   2   6   18.46    0.51
  -8  -2   6    0.39    0.15
   8  -2  -6    0.51    0.15
  -8   2   6    0.59    0.14
   8   2  -6    0.52    0.13
  -7  -2   6    0.29    0.12
   7  -2  -6    0.37    0.12
  -7   2   6    0.32    0.12
   7   2  -6    0.29    0.10
   6  -2  -6    1.05    0.15
  -6  -2   6    1.04    0.10
   6  -2  -6    1.34    0.11
  -6  -2   6    1.25    0.16
   6   2  -6    1.21    0.13
  -6   2   6    1.33    0.15
   5  -2  -6    2.92    0.14
   5  -2  -6    2.83    0.19
  -5  -2   6    3.23    0.19
  -5  -2   6    2.96    0.13
  -5   2   6    3.10    0.17
   5   2  -6    2.57    0.16
  -4  -2   6    8.32    0.22
   4  -2  -6    8.18    0.29
   4  -2  -6    8.31    0.23
  -4  -2   6    8.29    0.29
   4   2  -6    8.23    0.23
  -4   2   6    8.05    0.26
  -3  -2   6    6.59    0.24
  -3  -2   6    6.41    0.20
   3  -2  -6    6.27    0.23
  -3   2   6    6.46    0.22
   3   2  -6    6.40    0.18
  -2  -2   6   24.73    0.46
  -2  -2   6   24.96    0.48
  -2   2   6   23.92    0.48
  -1  -2   6    0.14    0.06
  -1  -2   6    0.09    0.05
  -1   2   6    0.17    0.07
   0  -2   6   32.66    0.54
   0  -2   6   32.80    0.59
   0   2   6   32.48    0.59
   0   2   6   32.81    0.59
   1  -2   6   11.71    0.26
   1  -2   6   11.64    0.23
   1  -2   6   11.39    0.30
  -1   2  -6   11.31    0.24
   1   2   6   11.43    0.30
   1   2   6   11.69    0.30
   2  -2   6   47.65    0.79
   2  -2   6   48.44    0.83
  -2   2  -6   47.43    0.68
   2   2   6   48.97    0.81
   2   2   6   48.81    0.82
   3  -2   6   23.92    0.50
   3  -2   6   24.78    0.52
   3   2   6   24.97    0.52
   3   2   6   24.97    0.51
   4  -2   6   25.68    0.55
   4  -2   6   25.37    0.55
   4   2   6   24.82    0.54
   4   2   6   25.03    0.52
   4   2   6   25.95    0.53
   5  -2   6   13.18    0.38
   5  -2   6   13.14    0.40
   5   2   6   12.52    0.36
   5   2   6   12.96    0.37
   5   2   6   12.69    0.37
   6  -2   6    1.49    0.17
   6  -2   6    1.42    0.17
   6   2   6    1.63    0.16
   6   2   6    1.29    0.15
   6   2   6    1.61    0.16
   7  -2   6   87.21    1.52
  -7  -2  -6   86.00    1.41
   7  -2   6   84.53    1.41
   7   2   6   84.94    1.39
   7   2   6   83.76    1.45
   8  -2   6   13.12    0.48
   8  -2   6   12.87    0.43
  -8  -2  -6   13.51    0.43
   8   2   6   12.98    0.45
   8   2   6   13.93    0.42
   9  -2   6    5.13    0.29
   9  -2   6    5.48    0.34
  -9  -2  -6    5.23    0.29
   9   2   6    4.84    0.30
  10  -2   6    1.97    0.25
  10   2   6    2.17    0.24
  11  -2   6    0.13    0.17
  11   2   6   -0.02    0.15
  12  -2   6    1.57    0.26
  12   2   6    1.22    0.22
 -12  -3   6    3.98    0.35
  12  -3  -6    4.14    0.35
 -11  -3   6    3.58    0.31
  11  -3  -6    4.20    0.34
 -10  -3   6    1.48    0.23
  10  -3  -6    1.09    0.21
  -9  -3   6    3.98    0.29
   9  -3  -6    4.38    0.32
  -9   3   6    3.86    0.25
  -8  -3   6   44.94    0.98
   8  -3  -6   44.96    1.00
   8   3  -6   45.12    0.87
  -8   3   6   44.61    0.88
  -7  -3   6    8.23    0.36
   7  -3  -6    8.11    0.28
   7  -3  -6    7.71    0.37
   7   3  -6    8.33    0.29
  -7   3   6    8.01    0.32
  -6  -3   6  226.34    3.32
   6  -3  -6  226.74    3.15
   6  -3  -6  225.03    3.35
  -6  -3   6  228.76    3.12
  -6   3   6  228.98    3.23
   6   3  -6  233.31    3.18
  -5  -3   6   53.07    0.88
   5  -3  -6   52.63    0.98
   5  -3  -6   51.86    0.89
  -5  -3   6   50.75    0.98
   5   3  -6   53.04    0.83
  -5   3   6   51.30    0.92
   4  -3  -6   18.12    0.46
   4  -3  -6   17.68    0.42
  -4  -3   6   17.61    0.41
  -4  -3   6   17.09    0.46
  -4   3   6   17.05    0.43
   4   3  -6   17.33    0.33
   3  -3  -6   60.72    1.02
  -3  -3   6   59.94    1.03
  -3  -3   6   59.47    0.98
  -3   3   6   59.36    1.01
   3   3  -6   59.26    0.85
  -2  -3   6   18.15    0.43
  -2  -3   6   18.24    0.44
   2   3  -6   18.85    0.44
  -2   3   6   18.71    0.44
  -1  -3   6   22.80    0.50
   1   3  -6   22.78    0.48
  -1   3   6   22.89    0.50
   0  -3   6    1.75    0.14
   0   3   6    1.88    0.15
   0   3  -6    2.02    0.14
   1  -3   6    8.50    0.29
   1  -3   6    8.10    0.21
  -1   3  -6    8.05    0.23
   1   3   6    7.92    0.29
   2  -3   6    0.93    0.14
   2  -3   6    0.92    0.10
  -2   3  -6    1.12    0.10
   2   3   6    1.11    0.14
   3  -3   6   38.93    0.77
   3  -3   6   39.86    0.73
  -3   3  -6   39.25    0.62
   3   3   6   40.84    0.78
   4  -3   6   12.65    0.37
   4  -3   6   12.27    0.40
   4   3   6   11.74    0.37
   4   3   6   13.29    0.40
   5  -3   6   10.77    0.37
   5  -3   6   11.60    0.39
   5   3   6   11.52    0.39
   5   3   6   11.51    0.37
   6  -3   6    0.91    0.15
   6  -3   6    0.89    0.16
   6   3   6    1.04    0.13
   6   3   6    1.24    0.17
   6   3   6    0.79    0.15
   7  -3   6    1.59    0.19
   7  -3   6    1.77    0.21
   7   3   6    1.96    0.19
   7   3   6    1.56    0.20
   8  -3   6   10.03    0.40
   8  -3   6    9.91    0.43
  -8  -3  -6    9.81    0.40
   8   3   6   10.56    0.39
  -9  -3  -6    0.71    0.18
   9  -3   6    0.74    0.17
   9  -3   6    0.62    0.16
   9   3   6    0.65    0.15
  10  -3   6    8.55    0.46
  10   3   6    8.16    0.39
  11  -3   6    1.21    0.24
  11  -4  -6    0.37    0.19
 -11  -4   6    0.42    0.22
  10  -4  -6   -0.28    0.14
 -10  -4   6    0.31    0.19
   9  -4  -6    0.14    0.14
  -9  -4   6    0.18    0.17
   8  -4  -6    5.89    0.36
  -8  -4   6    5.98    0.36
  -8   4   6    5.52    0.30
   7  -4  -6    0.38    0.14
  -7  -4   6    0.30    0.16
   7  -4  -6    0.41    0.13
  -7   4   6    0.49    0.14
   6  -4  -6   34.22    0.78
  -6  -4   6   35.38    0.83
  -6  -4   6   34.38    0.71
   6  -4  -6   33.91    0.72
  -6   4   6   35.31    0.75
   5  -4  -6    0.62    0.15
  -5  -4   6    1.06    0.18
   5  -4  -6    0.77    0.16
  -5  -4   6    1.14    0.15
  -5   4   6    0.92    0.15
   4  -4  -6   22.61    0.55
  -4  -4   6   22.55    0.59
   4  -4  -6   22.83    0.56
  -4  -4   6   23.02    0.54
  -4   4   6   22.15    0.55
  -3  -4   6    0.62    0.13
   3  -4  -6    0.53    0.13
  -3  -4   6    0.58    0.13
   3  -4  -6    0.46    0.11
  -3   4   6    1.07    0.15
   3   4  -6    0.39    0.13
   2  -4  -6   16.94    0.42
  -2  -4   6   17.15    0.47
  -2   4   6   17.63    0.47
   2   4  -6   17.69    0.48
  -1  -4   6    7.79    0.30
  -1   4   6    7.63    0.30
   1   4  -6    7.78    0.29
   0  -4   6  121.81    1.88
   0   4   6  121.44    1.88
   0   4  -6  121.14    1.82
   1  -4   6    0.91    0.09
   1  -4   6    1.06    0.15
  -1   4  -6    0.90    0.12
   1   4   6    0.92    0.15
   2  -4   6  114.91    1.84
   2  -4   6  117.58    1.71
  -2   4  -6  117.59    1.71
   2   4   6  116.85    1.85
   3  -4   6   62.69    1.06
   3  -4   6   63.99    1.17
  -3   4  -6   63.52    1.00
   3   4   6   63.32    1.16
   4  -4   6   15.27    0.42
   4  -4   6   15.24    0.48
   4   4   6   15.32    0.49
   5  -4   6    4.67    0.29
   5  -4   6    4.08    0.25
   5   4   6    4.84    0.29
   6  -4   6    1.57    0.21
   6  -4   6    2.03    0.20
   6   4   6    1.76    0.22
   7  -4   6    0.13    0.11
   7  -4   6    0.03    0.12
   7   4   6   -0.14    0.10
   8  -4   6    2.56    0.26
  -8  -4  -6    2.66    0.28
   8  -4   6    1.88    0.23
   8   4   6    2.27    0.26
  -9  -4  -6    0.80    0.20
   9  -4   6    0.92    0.20
 -10  -4  -6    0.30    0.19
  10  -4   6    0.39    0.18
 -10  -5   6    0.40    0.20
  10  -5  -6    0.11    0.18
   9  -5  -6    1.14    0.22
  -9  -5   6    1.12    0.24
  -8  -5   6    0.41    0.20
   8  -5  -6    0.31    0.16
  -7  -5   6    0.14    0.14
   7  -5  -6    0.10    0.13
   7  -5  -6    0.06    0.13
  -7   5   6    0.12    0.14
   6  -5  -6   -0.05    0.11
  -6  -5   6    0.00    0.14
   6  -5  -6    0.03    0.12
  -6  -5   6    0.03    0.11
  -6   5   6    0.08    0.12
  -5  -5   6    1.33    0.18
  -5  -5   6    1.32    0.20
   5  -5  -6    1.42    0.20
   5  -5  -6    1.53    0.19
  -5   5   6    1.26    0.17
   4  -5  -6    9.23    0.35
  -4  -5   6    9.86    0.39
  -4  -5   6    9.73    0.40
   4  -5  -6    9.32    0.38
  -4   5   6    9.43    0.37
   4   5  -6    9.30    0.41
   3  -5  -6   17.15    0.46
   3  -5  -6   17.49    0.52
  -3  -5   6   17.37    0.53
   3   5  -6   16.19    0.53
  -3   5   6   16.68    0.50
   2  -5  -6    3.09    0.20
   2  -5  -6    2.92    0.24
  -2  -5   6    3.28    0.24
  -2   5   6    3.16    0.25
   2   5  -6    3.18    0.25
  -1  -5   6   27.03    0.68
  -1   5   6   27.76    0.68
   1   5  -6   25.86    0.64
   0  -5   6   16.12    0.50
   0   5   6   15.27    0.49
   0   5  -6   15.54    0.46
   1  -5   6    6.76    0.33
  -1   5  -6    7.21    0.30
   1   5   6    6.89    0.34
   2  -5   6   40.35    0.89
  -2   5  -6   40.15    0.78
   2   5   6   38.91    0.88
   3  -5   6    3.46    0.27
   3   5   6    2.85    0.26
   4  -5   6    0.44    0.15
   4   5   6    0.31    0.15
   5  -5   6    3.16    0.22
   5  -5   6    2.96    0.27
   5   5   6    2.55    0.27
   6  -5   6    4.27    0.31
   6  -5   6    5.18    0.30
   6   5   6    4.22    0.31
   7  -5   6    0.87    0.18
   7  -5   6    0.87    0.20
   7   5   6    1.11    0.21
   8  -5   6    8.16    0.41
   8  -5   6    7.73    0.41
  -8  -5  -6    7.30    0.41
   8   5   6    7.74    0.44
   9  -5   6    0.36    0.16
  -9  -5  -6    0.12    0.17
  -9  -6   6    4.91    0.41
  -8  -6   6    1.14    0.25
   7  -6  -6    2.06    0.26
  -7  -6   6    1.88    0.29
  -6  -6   6   -0.01    0.15
   6  -6  -6    0.03    0.16
  -6  -6   6    0.29    0.16
  -6   6   6    0.21    0.15
  -5  -6   6    0.31    0.17
   5  -6  -6    0.19    0.14
  -5  -6   6    0.51    0.16
  -5   6   6    0.37    0.15
  -4  -6   6    1.15    0.20
  -4  -6   6    0.97    0.21
   4  -6  -6    1.01    0.20
   4   6  -6    0.83    0.20
  -4   6   6    0.93    0.19
   3  -6  -6    2.08    0.25
  -3  -6   6    2.37    0.26
  -3   6   6    2.20    0.24
   3   6  -6    2.10    0.26
  -2  -6   6    0.34    0.15
   2  -6  -6    0.15    0.15
  -2   6   6    0.17    0.13
   2   6  -6    0.40    0.15
  -1  -6   6    8.74    0.41
   1  -6  -6    8.12    0.40
  -1   6   6    8.30    0.39
   1   6  -6    8.14    0.37
   0  -6   6   13.36    0.51
   0  -6  -6   13.43    0.52
   0   6   6   14.03    0.51
   0   6  -6   13.35    0.47
   1  -6   6    3.07    0.29
   1   6   6    2.66    0.26
  -1   6  -6    3.46    0.26
   2  -6   6    3.72    0.31
   2   6   6    3.83    0.33
   3  -6   6   11.86    0.49
   3   6   6   12.86    0.52
   4  -6   6    3.15    0.29
   4   6   6    2.76    0.30
   5  -6   6   18.42    0.64
   5   6   6   17.90    0.65
   6  -6   6    0.25    0.15
   6   6   6    0.36    0.19
   7  -6   6    0.53    0.20
   7   6   6    0.93    0.24
  -8  -6  -6    0.31    0.19
   8  -6   6    0.55    0.20
   8   6   6    0.36    0.21
  -6  -7   6    8.73    0.49
  -6  -7   6    8.68    0.45
   6  -7  -6    8.43    0.45
  -5  -7   6   14.65    0.61
  -5  -7   6   14.36    0.56
   5  -7  -6   13.69    0.57
  -5   7   6   14.12    0.55
  -4  -7   6    3.57    0.33
   4  -7  -6    3.64    0.31
  -4  -7   6    3.61    0.32
  -4   7   6    3.62    0.31
  -3  -7   6    5.78    0.38
  -3  -7   6    5.56    0.38
   3  -7  -6    5.48    0.39
   3   7  -6    5.59    0.39
  -3   7   6    6.24    0.38
   2  -7  -6    5.41    0.37
  -2  -7   6    5.77    0.38
  -2   7   6    5.31    0.35
   2   7  -6    4.91    0.36
  -1  -7   6    2.72    0.31
   1  -7  -6    2.62    0.30
   1   7  -6    2.58    0.30
  -1   7   6    2.97    0.32
   0  -7   6    0.23    0.18
   0  -7  -6   -0.10    0.15
   0   7  -6    0.04    0.15
   0   7   6    0.15    0.17
  -1  -7  -6   -0.10    0.15
   1  -7   6   -0.05    0.16
   1   7   6   -0.25    0.15
   2  -7   6    0.84    0.22
  -2  -7  -6    0.77    0.22
   2   7   6    0.69    0.20
  -3  -7  -6    0.24    0.18
   3  -7   6    0.22    0.18
   3   7   6    0.03    0.15
  -4  -7  -6    1.33    0.25
   4  -7   6    1.25    0.25
   4   7   6    1.49    0.27
  -5  -7  -6    0.06    0.16
   5  -7   6   -0.07    0.17
   5   7   6   -0.11    0.16
  -1  -8   6    0.30    0.19
   1  -8  -6    0.09    0.18
   1   8  -6    0.15    0.17
  -1   8   6    0.06    0.17
   0  -8  -6   13.41    0.59
   0  -8   6   13.97    0.62
   0   8   6   13.92    0.61
  13   0  -7   12.16    0.56
  12   0  -7   -0.11    0.13
 -12   0   7   -0.11    0.13
  11   0  -7    3.03    0.28
 -11   0   7    3.03    0.27
  10   0  -7   -0.23    0.10
 -10   0   7   -0.02    0.12
   9   0  -7    0.78    0.16
  -9   0   7    1.07    0.18
  -8   0   7   -0.05    0.09
   8   0  -7   -0.06    0.10
  -7   0   7   14.57    0.42
   7   0  -7   14.93    0.45
  -6   0   7    0.05    0.09
   6   0  -7   -0.09    0.09
   5   0  -7    2.46    0.18
  -5   0   7    2.34    0.16
  -4   0   7    0.12    0.07
   4   0  -7   -0.01    0.06
  -3   0   7  102.61    1.49
  -3   0   7  102.78    1.37
  -2   0   7   -0.07    0.05
  -1   0   7   43.31    0.67
  -1   0   7   44.75    0.68
   1   0   7    2.90    0.13
   1   0   7    3.08    0.10
   2   0   7   -0.01    0.03
   2   0   7    0.03    0.05
   3   0   7  244.55    3.23
   3   0   7  250.58    3.37
   3   0   7  246.55    3.44
   5   0   7  119.09    1.77
   5   0   7  117.98    1.83
  -5   0  -7  117.37    1.63
  -6   0  -7    0.08    0.06
   6   0   7    0.02    0.09
   6   0   7    0.07    0.09
   7   0   7    9.40    0.39
   7   0   7   11.51    0.37
   8   0   7    0.14    0.12
   8   0   7   -0.01    0.12
   9   0   7    3.91    0.28
   9   0   7    4.26    0.26
  10   0   7   -0.04    0.14
  11   0   7    1.18    0.22
  12   0   7    0.32    0.16
 -13  -1   7    0.13    0.17
  13  -1  -7   -0.25    0.15
  13   1  -7    0.17    0.17
 -12  -1   7    4.22    0.32
  12  -1  -7    4.14    0.34
  12   1  -7    3.65    0.32
 -11  -1   7   -0.04    0.14
  11  -1  -7   -0.16    0.14
 -11   1   7   -0.13    0.13
  11   1  -7   -0.33    0.12
  10  -1  -7    4.62    0.34
 -10  -1   7    4.70    0.31
  10   1  -7    4.79    0.32
 -10   1   7    4.87    0.30
   9  -1  -7   13.59    0.49
  -9  -1   7   13.23    0.46
   9   1  -7   13.38    0.46
  -9   1   7   13.48    0.45
   8  -1  -7    0.11    0.13
  -8  -1   7    0.64    0.15
  -8   1   7    0.42    0.14
   8   1  -7    0.05    0.12
  -7  -1   7    1.74    0.18
   7  -1  -7    1.78    0.19
   7   1  -7    1.58    0.16
  -7   1   7    2.00    0.18
   6  -1  -7    0.31    0.11
  -6  -1   7    0.38    0.11
   6   1  -7    0.07    0.09
  -6   1   7    0.56    0.11
   5  -1  -7   72.20    0.99
  -5  -1   7   71.50    1.17
  -5  -1   7   72.75    0.97
   5   1  -7   72.92    1.16
  -5   1   7   71.39    1.15
  -4  -1   7   -0.01    0.05
   4  -1  -7    0.04    0.06
  -4  -1   7    0.19    0.04
   4   1  -7    0.00    0.05
  -4   1   7    0.05    0.06
  -3  -1   7  152.79    2.16
  -3  -1   7  154.14    2.06
  -3   1   7  155.61    2.16
  -2  -1   7   51.65    0.80
  -2  -1   7   51.09    0.76
  -2   1   7   50.73    0.76
  -2   1   7   51.09    0.81
  -1  -1   7    9.04    0.22
  -1  -1   7    9.08    0.21
  -1   1   7    8.85    0.22
  -1   1   7    8.73    0.22
   0  -1   7    7.20    0.20
   0  -1   7    7.38    0.17
   0   1   7    6.95    0.20
   0   1   7    7.17    0.19
   1  -1   7    2.48    0.13
   1  -1   7    2.42    0.12
   1  -1   7    2.49    0.08
   1   1   7    2.58    0.12
   1   1   7    2.53    0.13
   2  -1   7  279.85    3.80
   2  -1   7  273.45    3.74
   2   1   7  279.71    3.69
   2   1   7  277.71    3.74
   3  -1   7   11.31    0.31
   3  -1   7   11.39    0.32
   3   1   7   11.89    0.28
   3   1   7   11.20    0.31
   3   1   7   11.59    0.31
   4  -1   7  128.72    1.89
   4  -1   7  129.30    1.94
   4   1   7  127.96    1.92
   4   1   7  128.17    1.82
   4   1   7  129.16    1.88
   5  -1   7    2.68    0.19
   5  -1   7    2.68    0.19
   5   1   7    2.70    0.18
   5   1   7    2.69    0.15
   5   1   7    2.83    0.18
   6  -1   7   16.05    0.44
  -6  -1  -7   15.23    0.38
   6  -1   7   16.17    0.47
   6   1   7   16.64    0.46
   6   1   7   15.44    0.38
   6   1   7   16.31    0.43
   7  -1   7   17.46    0.48
  -7  -1  -7   17.88    0.43
   7  -1   7   17.05    0.53
   7   1   7   17.28    0.46
   7   1   7   16.34    0.50
   8  -1   7   31.32    0.71
   8  -1   7   31.87    0.79
   8   1   7   31.93    0.69
   8   1   7   31.92    0.77
   9  -1   7    0.08    0.12
   9  -1   7    0.18    0.12
   9   1   7    0.06    0.12
  10  -1   7    8.01    0.41
  10   1   7    7.22    0.38
  11  -1   7    0.08    0.16
  11   1   7   -0.15    0.12
  12  -1   7    1.62    0.26
  12   1   7    2.16    0.29
  13  -2  -7    0.00    0.17
 -13  -2   7    0.13    0.18
 -12  -2   7    0.16    0.17
  12  -2  -7   -0.04    0.14
  12   2  -7   -0.16    0.12
 -11  -2   7    1.73    0.24
  11  -2  -7    1.47    0.26
  11   2  -7    1.61    0.23
 -10  -2   7    0.15    0.15
  10  -2  -7    0.12    0.13
 -10   2   7    0.00    0.12
  10   2  -7   -0.14    0.11
   9  -2  -7    0.95    0.19
  -9  -2   7    1.22    0.20
  -9   2   7    1.15    0.18
   9   2  -7    0.84    0.17
   8  -2  -7   47.89    1.01
  -8  -2   7   46.16    0.97
   8   2  -7   47.41    0.92
  -8   2   7   45.32    0.90
  -7  -2   7   28.00    0.67
   7  -2  -7   26.69    0.67
  -7   2   7   27.05    0.61
   7   2  -7   28.01    0.61
  -6  -2   7   92.08    1.29
   6  -2  -7   92.45    1.53
   6  -2  -7   92.14    1.31
  -6  -2   7   90.87    1.49
   6   2  -7   89.20    1.43
  -6   2   7   91.51    1.45
   5  -2  -7    0.75    0.12
  -5  -2   7    0.82    0.13
  -5  -2   7    0.87    0.08
   5  -2  -7    0.83    0.09
  -5   2   7    0.76    0.11
   5   2  -7    0.74    0.10
  -4  -2   7   60.44    0.92
   4  -2  -7   60.70    1.05
  -4  -2   7   60.61    1.03
  -4   2   7   61.71    1.01
   4   2  -7   62.63    0.96
  -3  -2   7   37.09    0.68
  -3  -2   7   36.71    0.62
   3   2  -7   36.27    0.60
  -3   2   7   37.59    0.68
  -2  -2   7   10.02    0.26
  -2  -2   7   10.02    0.27
  -2   2   7   10.21    0.28
  -1  -2   7    1.29    0.11
  -1  -2   7    1.39    0.11
  -1   2   7    1.37    0.13
   0  -2   7   10.79    0.29
   0  -2   7   10.96    0.25
   0   2   7   10.68    0.29
   0   2   7   11.18    0.29
   1  -2   7    2.91    0.16
   1  -2   7    2.81    0.11
   1  -2   7    2.92    0.13
   1   2   7    3.11    0.15
   1   2   7    3.50    0.17
   2  -2   7   26.17    0.51
   2  -2   7   26.93    0.40
   2  -2   7   25.71    0.54
   2   2   7   26.88    0.54
   2   2   7   26.62    0.52
   3  -2   7    6.95    0.25
   3  -2   7    7.44    0.27
   3   2   7    7.29    0.25
   3   2   7    7.53    0.26
   4  -2   7   19.26    0.48
   4  -2   7   20.02    0.48
   4   2   7   19.98    0.45
   4   2   7   19.62    0.45
   4   2   7   18.81    0.46
   5  -2   7    7.63    0.30
   5  -2   7    8.21    0.31
   5   2   7    8.16    0.30
   5   2   7    7.94    0.28
   5   2   7    8.22    0.30
   6  -2   7    0.06    0.09
   6  -2   7   -0.09    0.10
   6   2   7   -0.10    0.08
   6   2   7    0.14    0.09
   6   2   7   -0.01    0.09
   7  -2   7    6.93    0.35
  -7  -2  -7    5.82    0.29
   7  -2   7    5.69    0.30
   7   2   7    6.46    0.29
   7   2   7    6.34    0.31
   7   2   7    6.36    0.30
   8  -2   7    1.86    0.23
   8  -2   7    2.22    0.22
  -8  -2  -7    2.37    0.20
   8   2   7    2.06    0.21
   8   2   7    2.26    0.22
   9  -2   7    0.09    0.13
   9  -2   7    0.08    0.12
   9   2   7   -0.06    0.12
  10  -2   7    2.95    0.29
  10   2   7    3.43    0.29
  11  -2   7    1.52    0.26
  11   2   7    1.43    0.23
  12  -2   7    1.71    0.27
  12   2   7    1.50    0.25
 -12  -3   7    0.07    0.17
  12  -3  -7    0.08    0.15
 -11  -3   7    0.64    0.21
  11  -3  -7    0.68    0.20
  10  -3  -7    0.62    0.20
 -10  -3   7    1.14    0.22
   9  -3  -7    0.55    0.16
  -9  -3   7    0.49    0.17
  -9   3   7    0.66    0.16
  -8  -3   7    1.99    0.24
   8  -3  -7    1.70    0.23
   8   3  -7    1.47    0.18
  -8   3   7    2.04    0.21
   7  -3  -7    9.20    0.40
  -7  -3   7    9.34    0.39
   7  -3  -7   10.11    0.30
   7   3  -7    9.52    0.32
  -7   3   7    8.94    0.35
  -6  -3   7    0.82    0.18
   6  -3  -7    0.41    0.13
  -6  -3   7    0.49    0.12
   6  -3  -7    0.54    0.14
   6   3  -7    0.29    0.11
  -6   3   7    0.86    0.15
   5  -3  -7   56.78    0.97
   5  -3  -7   58.22    1.07
  -5  -3   7   57.71    1.07
  -5  -3   7   57.70    0.95
  -5   3   7   58.81    1.03
   5   3  -7   59.20    0.92
  -4  -3   7   14.80    0.37
   4  -3  -7   14.05    0.41
  -4  -3   7   14.56    0.42
   4  -3  -7   14.24    0.38
  -4   3   7   15.22    0.41
   4   3  -7   15.23    0.30
  -3  -3   7   14.59    0.41
  -3  -3   7   15.13    0.38
   3  -3  -7   15.03    0.40
  -3   3   7   15.53    0.40
   3   3  -7   14.92    0.28
  -2  -3   7  149.08    2.14
  -2  -3   7  146.35    2.12
  -2   3   7  147.14    2.15
  -1  -3   7    0.84    0.12
  -1  -3   7    0.69    0.10
  -1   3   7    0.50    0.10
   1   3  -7    0.78    0.11
   0  -3   7    3.85    0.19
   0   3   7    3.70    0.19
   0   3  -7    3.86    0.17
   1  -3   7    0.45    0.07
   1  -3   7    0.45    0.10
  -1   3  -7    0.61    0.08
   1   3   7    0.46    0.10
   2  -3   7    3.01    0.18
   2  -3   7    3.41    0.23
  -2   3  -7    3.21    0.16
   2   3   7    3.95    0.22
   3  -3   7    0.79    0.11
   3  -3   7    0.88    0.14
   3   3   7    0.50    0.11
   3   3   7    0.51    0.12
  -3   3  -7    0.89    0.08
   4  -3   7   10.86    0.37
   4  -3   7   10.73    0.34
   4   3   7   11.18    0.38
   4   3   7   10.96    0.37
   5  -3   7    7.81    0.32
   5  -3   7    7.67    0.32
   5   3   7    7.98    0.32
   5   3   7    7.91    0.32
   6  -3   7    0.05    0.10
   6  -3   7    0.17    0.11
   6   3   7    0.08    0.10
   6   3   7    0.21    0.09
   6   3   7   -0.05    0.11
   7  -3   7    4.71    0.29
   7  -3   7    4.72    0.29
   7   3   7    4.85    0.27
   7   3   7    4.25    0.27
   7   3   7    4.75    0.28
  -8  -3  -7    5.10    0.31
   8  -3   7    4.62    0.30
   8  -3   7    4.46    0.31
   8   3   7    4.98    0.28
   8   3   7    4.70    0.28
   9  -3   7    5.43    0.32
   9  -3   7    4.75    0.32
  -9  -3  -7    4.37    0.30
   9   3   7    4.65    0.30
  10  -3   7    2.75    0.31
  10   3   7    2.83    0.28
  11  -3   7    1.54    0.25
  11  -4  -7    2.50    0.31
 -11  -4   7    2.43    0.31
 -10  -4   7    0.07    0.16
  10  -4  -7   -0.25    0.14
   9  -4  -7    1.46    0.22
  -9  -4   7    1.65    0.25
  -9   4   7    1.58    0.21
   8  -4  -7    0.02    0.14
  -8  -4   7   -0.07    0.13
  -8   4   7    0.03    0.12
   7  -4  -7    1.13    0.19
   7  -4  -7    1.15    0.16
  -7  -4   7    1.00    0.20
  -7   4   7    1.12    0.18
  -6  -4   7   13.67    0.49
  -6  -4   7   14.42    0.41
   6  -4  -7   14.30    0.43
   6  -4  -7   14.30    0.48
  -6   4   7   14.61    0.45
   5  -4  -7    3.53    0.25
  -5  -4   7    3.70    0.26
  -5  -4   7    4.05    0.24
   5  -4  -7    3.32    0.23
  -5   4   7    3.75    0.23
  -4  -4   7    0.46    0.12
  -4  -4   7    0.51    0.14
   4  -4  -7    0.22    0.11
   4  -4  -7    0.20    0.11
  -4   4   7    0.35    0.12
  -3  -4   7   38.30    0.80
   3  -4  -7   38.38    0.78
   3  -4  -7   38.68    0.76
  -3  -4   7   38.72    0.77
  -3   4   7   39.21    0.79
   2  -4  -7    5.50    0.24
  -2  -4   7    5.32    0.26
  -2  -4   7    5.38    0.25
  -2   4   7    5.30    0.27
   2   4  -7    5.52    0.26
  -1  -4   7   41.17    0.82
  -1   4   7   39.73    0.81
   1   4  -7   40.85    0.79
   0  -4   7    0.05    0.10
   0   4  -7    0.08    0.09
   0   4   7    0.07    0.10
   1  -4   7    0.55    0.13
   1   4   7    0.37    0.13
  -1   4  -7    0.53    0.11
   2  -4   7   11.58    0.32
   2  -4   7   11.79    0.42
  -2   4  -7   11.87    0.33
   2   4   7   11.74    0.41
   3  -4   7   81.75    1.30
   3  -4   7   79.33    1.40
   3   4   7   80.23    1.40
   4  -4   7   18.65    0.48
   4  -4   7   18.49    0.54
   4   4   7   18.34    0.54
   5  -4   7   71.77    1.32
   5  -4   7   71.81    1.26
   5   4   7   71.90    1.33
   6  -4   7    0.36    0.12
   6  -4   7    0.18    0.13
   6   4   7    0.24    0.13
   7  -4   7    9.53    0.40
   7  -4   7    9.13    0.40
   7   4   7    8.97    0.41
   8  -4   7    7.87    0.38
  -8  -4  -7    7.62    0.39
   8  -4   7    7.42    0.39
   8   4   7    7.70    0.40
   9  -4   7    0.50    0.18
   9  -4   7    0.53    0.17
  -9  -4  -7    0.40    0.17
 -10  -4  -7    0.11    0.16
  10  -4   7   -0.15    0.15
  10  -5  -7    0.33    0.19
 -10  -5   7    0.72    0.23
  -9  -5   7   12.51    0.56
   9  -5  -7   13.63    0.56
  -8  -5   7    0.21    0.18
   8  -5  -7    0.24    0.16
  -8   5   7    0.31    0.16
   7  -5  -7    2.36    0.23
   7  -5  -7    2.09    0.24
  -7  -5   7    2.59    0.30
  -7   5   7    2.59    0.24
   6  -5  -7    1.65    0.21
  -6  -5   7    1.67    0.20
  -6  -5   7    1.87    0.25
   6  -5  -7    1.41    0.19
  -6   5   7    2.08    0.22
   5  -5  -7    7.93    0.36
  -5  -5   7    8.68    0.36
  -5  -5   7    8.07    0.40
   5  -5  -7    8.84    0.37
  -5   5   7    8.21    0.36
   4  -5  -7    1.24    0.19
  -4  -5   7    1.43    0.20
  -4  -5   7    1.55    0.20
   4  -5  -7    1.37    0.17
  -4   5   7    1.19    0.18
   3  -5  -7  102.03    1.63
  -3  -5   7  100.98    1.70
   3  -5  -7  103.23    1.71
  -3  -5   7  101.21    1.72
   3   5  -7  102.51    1.74
  -3   5   7  101.55    1.70
   2  -5  -7    7.60    0.36
   2  -5  -7    7.86    0.29
  -2  -5   7    7.36    0.35
  -2   5   7    6.74    0.34
   2   5  -7    7.45    0.34
  -1  -5   7   26.03    0.67
   1   5  -7   26.04    0.64
  -1   5   7   26.49    0.67
   0  -5   7   22.89    0.62
   0   5  -7   22.47    0.57
   0   5   7   24.16    0.64
   1  -5   7   17.83    0.55
   1   5   7   18.78    0.56
  -1   5  -7   19.59    0.50
   2  -5   7    7.24    0.36
  -2   5  -7    7.23    0.29
   2   5   7    7.27    0.35
   3  -5   7    3.42    0.27
   3   5   7    3.40    0.26
   4  -5   7    2.36    0.26
   4   5   7    2.58    0.25
   5  -5   7    0.12    0.10
   5  -5   7   -0.04    0.12
   5   5   7    0.14    0.14
   6  -5   7    0.10    0.11
   6  -5   7    0.21    0.15
   6   5   7   -0.22    0.10
   7  -5   7    0.58    0.17
   7  -5   7    0.74    0.19
   7   5   7    0.56    0.18
   8  -5   7    2.37    0.28
   8  -5   7    2.36    0.27
   8   5   7    2.20    0.30
   9  -5   7    0.07    0.15
  -9  -5  -7   -0.12    0.15
  -9  -6   7    0.54    0.22
  -8  -6   7    9.58    0.52
  -7  -6   7    7.97    0.46
   7  -6  -7    7.52    0.40
   6  -6  -7   39.13    0.93
  -6  -6   7   39.03    0.90
  -6  -6   7   38.48    1.00
  -6   6   7   38.53    0.91
  -5  -6   7    0.06    0.15
   5  -6  -7   -0.09    0.12
  -5  -6   7   -0.02    0.13
  -5   6   7   -0.03    0.13
   4  -6  -7   21.57    0.65
  -4  -6   7   22.88    0.65
  -4  -6   7   21.81    0.67
  -4   6   7   20.62    0.62
  -3  -6   7   -0.08    0.12
  -3  -6   7   -0.16    0.11
   3  -6  -7    0.01    0.13
  -3   6   7    0.16    0.13
   3   6  -7   -0.14    0.11
   2  -6  -7    1.42    0.22
  -2  -6   7    1.48    0.21
  -2   6   7    1.62    0.21
   2   6  -7    1.55    0.22
   1  -6  -7    2.48    0.27
  -1  -6   7    2.44    0.27
   1   6  -7    2.57    0.26
  -1   6   7    2.91    0.27
   0  -6  -7    7.35    0.39
   0  -6   7    7.83    0.39
   0   6  -7    7.52    0.35
   0   6   7    7.54    0.38
   1  -6   7    7.23    0.39
   1   6   7    7.73    0.41
  -1   6  -7    7.07    0.35
   2  -6   7   47.50    1.07
   2   6   7   47.09    1.08
   3  -6   7    0.75    0.20
   3   6   7    0.34    0.18
   4  -6   7   19.41    0.65
   4   6   7   18.73    0.65
   5  -6   7    2.09    0.28
   5   6   7    2.04    0.28
   6  -6   7   -0.03    0.16
   6   6   7    0.07    0.17
   7  -6   7    0.07    0.17
   7   6   7    0.37    0.19
   8  -6   7    1.72    0.27
   8   6   7    1.55    0.29
   6  -7  -7    1.15    0.24
  -6  -7   7    1.24    0.27
  -6  -7   7    0.93    0.23
  -5  -7   7    3.83    0.35
   5  -7  -7    4.10    0.34
  -5  -7   7    3.67    0.34
  -5   7   7    3.85    0.32
  -4  -7   7    0.60    0.20
   4  -7  -7    0.35    0.18
  -4  -7   7    0.23    0.17
  -4   7   7    0.27    0.17
  -3  -7   7   31.72    0.87
  -3  -7   7   32.38    0.89
   3  -7  -7   32.57    0.89
  -3   7   7   32.47    0.87
  -2  -7   7    0.22    0.16
   2  -7  -7   -0.24    0.15
  -2  -7   7    0.04    0.15
  -2   7   7   -0.12    0.15
   2   7  -7   -0.06    0.17
  -1  -7   7   34.24    0.93
   1  -7  -7   34.50    0.93
   1   7  -7   34.56    0.89
  -1   7   7   33.66    0.90
   0  -7  -7    2.94    0.33
   0  -7   7    3.02    0.32
   0   7  -7    3.07    0.30
   0   7   7    2.32    0.29
   1  -7   7    2.06    0.29
  -1  -7  -7    1.99    0.29
   1   7   7    1.78    0.26
  -2  -7  -7    3.40    0.32
   2  -7   7    3.25    0.34
   2   7   7    3.71    0.33
   3  -7   7    4.13    0.35
  -3  -7  -7    4.54    0.36
   3   7   7    4.65    0.36
   4  -7   7    2.23    0.30
   4   7   7    2.40    0.32
   5  -7   7    0.14    0.18
   5   7   7    0.07    0.18
  13   0  -8    0.03    0.16
 -12   0   8    1.09    0.21
  12   0  -8    1.62    0.25
 -11   0   8   -0.04    0.13
  11   0  -8    0.10    0.15
  10   0  -8    0.00    0.13
 -10   0   8    0.28    0.13
  -9   0   8   -0.24    0.10
   9   0  -8    0.24    0.12
   8   0  -8    3.77    0.26
  -8   0   8    3.52    0.24
   7   0  -8   -0.13    0.07
  -7   0   8   -0.03    0.09
  -6   0   8   19.53    0.47
   6   0  -8   19.04    0.49
   5   0  -8   -0.11    0.06
  -5   0   8    0.08    0.08
  -4   0   8  208.39    2.83
   4   0  -8  202.80    2.89
  -4   0   8  201.38    2.65
  -3   0   8    0.04    0.04
  -3   0   8   -0.01    0.06
  -2   0   8  519.52    6.71
  -2   0   8  504.56    6.79
  -1   0   8    0.08    0.04
  -1   0   8    0.06    0.04
   0   0   8   12.03    0.28
   0   0   8   11.87    0.25
   1   0   8   -0.05    0.04
   1   0   8    0.22    0.04
   2   0   8  101.67    1.51
   2   0   8  102.70    1.39
   2   0   8  102.04    1.53
   3   0   8    0.03    0.06
   3   0   8    0.09    0.04
   4   0   8   24.03    0.54
   4   0   8   23.54    0.52
   4   0   8   23.22    0.40
   5   0   8   -0.07    0.08
   5   0   8    0.23    0.10
  -5   0  -8   -0.05    0.05
  -6   0  -8  148.46    2.02
   6   0   8  145.40    2.17
   6   0   8  146.93    2.27
   7   0   8    0.03    0.10
   7   0   8   -0.04    0.11
   8   0   8   66.36    1.29
   8   0   8   66.03    1.18
   9   0   8    0.00    0.11
   9   0   8    0.06    0.11
  10   0   8    9.10    0.45
  11   0   8    0.00    0.14
  12   0   8    0.54    0.18
 -13  -1   8    1.30    0.24
  13  -1  -8    0.74    0.22
  13   1  -8    0.90    0.22
 -12  -1   8   -0.04    0.15
  12  -1  -8    0.07    0.15
  12   1  -8   -0.03    0.14
 -12   1   8    0.07    0.16
  11  -1  -8    5.57    0.38
 -11  -1   8    6.49    0.37
  11   1  -8    5.99    0.37
 -11   1   8    6.28    0.36
 -10  -1   8    0.52    0.16
  10  -1  -8    0.19    0.15
  10   1  -8    0.15    0.14
 -10   1   8    0.41    0.15
   9  -1  -8   24.92    0.69
  -9  -1   8   23.95    0.64
  -9   1   8   25.13    0.64
   9   1  -8   24.70    0.66
  -8  -1   8    3.36    0.25
   8  -1  -8    2.88    0.27
  -8   1   8    3.38    0.24
   8   1  -8    2.79    0.23
   7  -1  -8   15.02    0.46
  -7  -1   8   15.38    0.45
   7   1  -8   15.00    0.44
  -7   1   8   14.55    0.43
   6  -1  -8    5.79    0.28
  -6  -1   8    5.82    0.26
  -6   1   8    6.08    0.26
   6   1  -8    5.81    0.26
   5  -1  -8    0.68    0.11
   5  -1  -8    0.95    0.07
  -5  -1   8    0.84    0.06
  -5  -1   8    0.73    0.12
   5   1  -8    0.50    0.10
  -5   1   8    0.63    0.11
   4  -1  -8    0.71    0.10
  -4  -1   8    0.76    0.07
  -4  -1   8    0.66    0.10
  -4   1   8    0.75    0.11
   4   1  -8    0.61    0.09
  -3  -1   8   12.40    0.26
  -3  -1   8   13.08    0.33
  -3   1   8   13.04    0.33
  -3   1   8   12.73    0.26
  -2  -1   8    4.64    0.17
  -2  -1   8    4.53    0.15
  -2   1   8    4.72    0.16
  -2   1   8    4.51    0.18
  -1  -1   8   83.30    1.18
  -1  -1   8   81.05    1.19
  -1   1   8   81.91    1.21
  -1   1   8   81.60    1.19
   0  -1   8   52.25    0.76
   0  -1   8   51.10    0.82
   0   1   8   51.67    0.81
   0   1   8   51.31    0.82
   1  -1   8   70.57    0.97
   1  -1   8   69.00    1.08
   1   1   8   70.51    1.08
   1   1   8   70.44    1.04
   2  -1   8   27.89    0.54
   2  -1   8   27.84    0.55
   2   1   8   27.56    0.54
   2   1   8   28.56    0.50
   3  -1   8   13.52    0.36
   3  -1   8   13.71    0.36
   3   1   8   13.97    0.36
   3   1   8   13.19    0.35
   3   1   8   13.87    0.31
   4  -1   8   69.63    1.15
   4  -1   8   70.82    1.18
   4   1   8   68.80    1.06
   4   1   8   68.71    1.13
   4   1   8   69.23    1.15
   5  -1   8    3.09    0.22
   5  -1   8    2.95    0.20
   5   1   8    2.87    0.16
   5   1   8    3.13    0.21
   5   1   8    3.74    0.21
  -6  -1  -8    1.82    0.16
   6  -1   8    1.74    0.19
   6  -1   8    1.47    0.18
   6   1   8    1.67    0.17
   6   1   8    1.72    0.15
   6   1   8    1.61    0.18
  -7  -1  -8   11.97    0.34
   7  -1   8   11.73    0.44
   7  -1   8   11.83    0.41
   7   1   8   12.24    0.42
   7   1   8   11.96    0.39
   8  -1   8    1.09    0.18
   8  -1   8    1.03    0.19
   8   1   8    1.12    0.19
   8   1   8    1.23    0.17
   9  -1   8    0.67    0.15
   9  -1   8    0.63    0.17
   9   1   8    0.80    0.16
   9   1   8    1.01    0.18
  10  -1   8   -0.11    0.12
  10   1   8    0.08    0.14
  11  -1   8    0.05    0.15
  11   1   8   -0.17    0.14
  12  -1   8    0.26    0.16
  12   1   8    0.16    0.17
  13  -2  -8    1.69    0.28
 -13  -2   8    1.90    0.29
 -12  -2   8    0.01    0.16
  12  -2  -8    0.15    0.16
  12   2  -8    0.33    0.16
  11  -2  -8   27.26    0.83
 -11  -2   8   26.47    0.78
  11   2  -8   27.74    0.76
 -11   2   8   28.19    0.73
  10  -2  -8    0.59    0.18
 -10  -2   8    0.46    0.16
 -10   2   8    0.65    0.16
  10   2  -8    0.48    0.15
  -9  -2   8    0.55    0.17
   9  -2  -8    0.45    0.16
  -9   2   8    0.84    0.16
   9   2  -8    0.44    0.14
   8  -2  -8    0.42    0.15
  -8  -2   8    0.37    0.15
   8   2  -8    0.29    0.12
  -8   2   8    0.65    0.15
   7  -2  -8    0.71    0.15
  -7  -2   8    0.44    0.14
   7   2  -8    0.48    0.12
  -7   2   8    0.28    0.12
   6  -2  -8    3.94    0.17
  -6  -2   8    4.52    0.26
  -6  -2   8    4.15    0.15
   6  -2  -8    4.64    0.27
  -6   2   8    4.36    0.24
   6   2  -8    4.04    0.21
  -5  -2   8   10.64    0.25
   5  -2  -8   10.56    0.36
  -5  -2   8   10.57    0.34
   5  -2  -8   10.73    0.27
  -5   2   8   10.61    0.33
   5   2  -8   10.86    0.30
   4  -2  -8   11.31    0.35
  -4  -2   8   11.07    0.27
  -4  -2   8   11.34    0.34
  -4   2   8   11.56    0.33
   4   2  -8   11.48    0.29
  -3  -2   8   39.79    0.67
  -3  -2   8   40.50    0.73
  -3   2   8   41.07    0.73
  -2  -2   8    0.05    0.06
  -2  -2   8    0.23    0.07
  -2   2   8    0.26    0.08
  -1  -2   8  160.44    2.25
  -1  -2   8  163.96    2.23
  -1   2   8  159.44    2.25
  -1   2   8  161.08    2.28
   0  -2   8    7.93    0.21
   0  -2   8    7.75    0.25
   0   2   8    7.60    0.24
   0   2   8    7.72    0.24
   1  -2   8   75.39    1.19
   1  -2   8   74.29    1.06
   1   2   8   75.17    1.18
   1   2   8   75.86    1.17
   2  -2   8    6.78    0.23
   2  -2   8    6.72    0.14
   2  -2   8    6.34    0.25
   2   2   8    6.98    0.25
   2   2   8    6.63    0.24
   3  -2   8    0.04    0.08
   3   2   8   -0.04    0.07
   3   2   8    0.02    0.06
   4  -2   8    1.00    0.15
   4  -2   8    0.23    0.10
   4   2   8    0.35    0.11
   4   2   8    0.25    0.09
   5  -2   8   69.82    1.19
   5  -2   8   69.09    1.21
   5   2   8   68.37    1.17
   5   2   8   67.57    1.13
   5   2   8   67.16    1.16
   6  -2   8    4.51    0.26
   6  -2   8    4.49    0.27
   6   2   8    4.76    0.24
   6   2   8    4.47    0.25
   6   2   8    5.03    0.26
   7  -2   8   37.71    0.82
  -7  -2  -8   37.30    0.77
   7  -2   8   39.14    0.87
   7   2   8   36.70    0.79
   7   2   8   38.41    0.83
   7   2   8   38.62    0.78
   8  -2   8    0.21    0.13
   8  -2   8    0.01    0.12
  -8  -2  -8    0.15    0.12
   8   2   8    0.02    0.10
   8   2   8    0.07    0.11
   9  -2   8    0.79    0.17
   9  -2   8    1.03    0.19
   9   2   8    0.79    0.16
   9   2   8    0.61    0.15
  10  -2   8    0.48    0.18
  10   2   8    0.71    0.18
  11  -2   8    2.98    0.33
  11   2   8    2.68    0.30
  12  -3  -8    0.06    0.17
 -12  -3   8   -0.07    0.17
 -11  -3   8    0.09    0.18
  11  -3  -8    0.34    0.17
 -10  -3   8    1.13    0.21
  10  -3  -8    1.42    0.24
 -10   3   8    1.47    0.21
  -9  -3   8    9.42    0.43
   9  -3  -8    8.52    0.42
  -9   3   8    8.25    0.36
  -8  -3   8    0.88    0.18
   8  -3  -8    0.73    0.17
  -8   3   8    0.70    0.15
   7  -3  -8   31.57    0.78
  -7  -3   8   31.86    0.76
   7   3  -8   32.85    0.66
  -7   3   8   31.34    0.71
   6  -3  -8    4.94    0.29
   6  -3  -8    4.77    0.23
  -6  -3   8    4.66    0.22
  -6  -3   8    4.85    0.30
  -6   3   8    4.97    0.27
   6   3  -8    4.46    0.23
  -5  -3   8   14.08    0.36
   5  -3  -8   13.43    0.37
   5  -3  -8   14.40    0.45
  -5  -3   8   14.37    0.44
   5   3  -8   14.01    0.34
  -5   3   8   14.44    0.42
  -4  -3   8   10.06    0.35
   4  -3  -8   10.53    0.36
  -4  -3   8   10.15    0.30
   4   3  -8   10.08    0.25
  -4   3   8   10.09    0.34
  -3  -3   8   43.90    0.78
   3  -3  -8   44.26    0.82
  -3  -3   8   44.19    0.83
   3   3  -8   44.24    0.68
  -3   3   8   45.04    0.83
  -2  -3   8   58.89    1.00
  -2  -3   8   60.01    1.01
  -2   3   8   60.08    1.03
  -1  -3   8   17.83    0.43
  -1  -3   8   18.69    0.42
  -1   3   8   17.92    0.45
   0  -3   8   35.86    0.71
   0  -3   8   36.89    0.64
   0   3   8   37.05    0.72
   1  -3   8    1.25    0.10
   1  -3   8    0.80    0.12
   1   3   8    0.86    0.13
   2  -3   8  420.72    5.53
   2  -3   8  395.66    5.51
   2  -3   8  406.62    5.33
   2   3   8  413.15    5.52
   2   3   8  402.12    5.50
   3  -3   8    1.11    0.09
   3  -3   8    0.87    0.12
   3  -3   8    1.04    0.15
   3   3   8    1.18    0.16
   3   3   8    1.86    0.18
   4  -3   8  140.10    2.15
   4  -3   8  140.78    2.14
   4   3   8  141.72    2.14
   4   3   8  141.43    2.14
   5  -3   8   10.03    0.38
   5  -3   8   10.32    0.37
   5   3   8   10.26    0.36
   5   3   8    9.99    0.37
   6  -3   8    9.49    0.38
   6  -3   8    9.77    0.39
   6   3   8    9.76    0.37
   6   3   8    9.86    0.37
   7  -3   8   12.96    0.46
   7  -3   8   13.11    0.47
   7   3   8   13.32    0.45
   7   3   8   13.27    0.44
   7   3   8   12.72    0.42
  -8  -3  -8    0.22    0.13
   8  -3   8    0.09    0.13
   8  -3   8    0.04    0.12
   8   3   8   -0.04    0.13
   8   3   8    0.22    0.12
   8   3   8    0.03    0.13
  -9  -3  -8    5.20    0.33
   9  -3   8    4.94    0.32
   9  -3   8    5.18    0.35
   9   3   8    4.85    0.31
  10  -3   8    5.26    0.38
  10   3   8    6.00    0.35
  11  -3   8    2.81    0.32
 -11  -4   8    0.81    0.25
  11  -4  -8    0.65    0.21
 -10  -4   8    4.49    0.35
  10  -4  -8    4.88    0.37
  -9  -4   8    0.44    0.18
   9  -4  -8    0.23    0.14
  -9   4   8    0.49    0.16
   8  -4  -8   17.62    0.60
  -8  -4   8   17.35    0.61
  -8   4   8   18.59    0.55
  -7  -4   8    8.64    0.41
   7  -4  -8    9.31    0.41
  -7   4   8    9.68    0.38
   6  -4  -8   25.35    0.59
  -6  -4   8   24.29    0.68
  -6  -4   8   24.59    0.57
   6  -4  -8   23.83    0.64
  -6   4   8   24.71    0.62
   5  -4  -8    2.82    0.24
   5  -4  -8    2.63    0.22
  -5  -4   8    3.01    0.25
  -5  -4   8    2.58    0.20
  -5   4   8    3.06    0.22
   4  -4  -8    4.01    0.24
  -4  -4   8    4.35    0.26
  -4  -4   8    4.62    0.24
   4  -4  -8    4.47    0.25
  -4   4   8    3.91    0.24
   3  -4  -8    7.84    0.30
  -3  -4   8    7.53    0.31
  -3  -4   8    7.81    0.31
  -3   4   8    7.84    0.32
  -2  -4   8    0.93    0.14
  -2  -4   8    0.93    0.14
  -2   4   8    0.76    0.14
  -1  -4   8   19.75    0.52
  -1  -4   8   19.83    0.48
  -1   4   8   20.05    0.53
   1   4  -8   19.04    0.49
   0  -4   8    1.74    0.15
   0  -4   8    1.60    0.18
   0   4   8    1.48    0.17
   0   4  -8    1.32    0.15
   1  -4   8    2.66    0.21
   1   4   8    2.31    0.21
  -1   4  -8    2.36    0.18
   2  -4   8   12.23    0.42
   2  -4   8   12.09    0.33
   2   4   8   12.25    0.42
  -2   4  -8   11.76    0.32
   3  -4   8   13.28    0.38
   3  -4   8   12.99    0.44
   3   4   8   13.95    0.45
   4  -4   8    8.20    0.32
   4  -4   8    8.56    0.38
   4   4   8    7.91    0.35
   5  -4   8   -0.04    0.12
   5  -4   8    0.16    0.11
   5   4   8    0.19    0.12
   6  -4   8    2.71    0.25
   6  -4   8    2.48    0.23
   6   4   8    2.30    0.22
   7  -4   8    0.21    0.13
   7  -4   8    0.17    0.14
   7   4   8    0.29    0.15
   8  -4   8    8.04    0.39
   8  -4   8    7.80    0.40
   8   4   8    7.34    0.39
   9  -4   8   -0.12    0.13
   9  -4   8   -0.04    0.13
  -9  -4  -8    0.24    0.17
  10  -4   8    3.82    0.36
  10  -5  -8    0.45    0.19
 -10  -5   8    0.55    0.23
  -9  -5   8   15.75    0.63
   9  -5  -8   17.05    0.63
   8  -5  -8    6.39    0.38
  -8  -5   8    6.25    0.39
  -8   5   8    5.65    0.34
  -7  -5   8    0.06    0.14
   7  -5  -8   -0.05    0.12
  -7   5   8    0.09    0.13
  -6  -5   8    9.32    0.44
  -6  -5   8    9.14    0.37
   6  -5  -8   10.13    0.40
   6  -5  -8    9.83    0.41
  -6   5   8   10.17    0.41
  -5  -5   8    2.87    0.23
   5  -5  -8    3.00    0.24
   5  -5  -8    2.43    0.23
  -5  -5   8    2.56    0.25
  -5   5   8    3.12    0.25
  -4  -5   8    2.81    0.25
   4  -5  -8    2.32    0.23
  -4  -5   8    2.57    0.23
   4  -5  -8    2.81    0.23
  -4   5   8    2.45    0.23
   3  -5  -8   30.52    0.68
  -3  -5   8   30.03    0.73
  -3  -5   8   29.93    0.72
   3  -5  -8   29.54    0.74
  -3   5   8   30.36    0.74
  -2  -5   8   21.35    0.57
  -2  -5   8   21.32    0.60
   2  -5  -8   21.42    0.52
  -2   5   8   19.83    0.57
   2   5  -8   20.55    0.58
   1  -5  -8   19.38    0.47
  -1  -5   8   18.77    0.56
  -1  -5   8   18.52    0.51
   1   5  -8   18.83    0.53
  -1   5   8   19.12    0.56
   0  -5   8   35.56    0.83
   0   5  -8   37.40    0.78
   0   5   8   36.09    0.83
   1  -5   8   -0.03    0.12
   1   5   8    0.13    0.12
  -1   5  -8    0.00    0.10
   2  -5   8    1.03    0.18
   2   5   8    1.38    0.21
   3  -5   8    7.22    0.36
   3   5   8    7.12    0.37
   4  -5   8    3.42    0.28
   4   5   8    3.31    0.28
   5  -5   8    0.19    0.15
   5   5   8    0.28    0.15
   6  -5   8    0.13    0.15
   6  -5   8    0.52    0.14
   6   5   8    0.34    0.16
   7  -5   8    7.92    0.42
   7  -5   8    7.77    0.39
   7   5   8    7.39    0.42
   8  -5   8    1.31    0.21
   8  -5   8    1.35    0.24
   8   5   8    1.53    0.26
   9  -5   8    1.27    0.25
  -9  -5  -8    1.53    0.27
   9  -5   8    2.08    0.27
  -8  -6   8    0.40    0.21
  -7  -6   8    0.59    0.20
  -7   6   8    0.57    0.19
  -6  -6   8    1.52    0.23
  -6  -6   8    1.19    0.25
   6  -6  -8    2.10    0.27
  -6   6   8    1.72    0.24
   5  -6  -8    0.13    0.15
  -5  -6   8    0.11    0.16
  -5  -6   8    0.10    0.14
  -5   6   8    0.03    0.14
  -4  -6   8    3.82    0.30
  -4  -6   8    3.77    0.31
   4  -6  -8    3.48    0.30
  -4   6   8    3.57    0.29
  -3  -6   8   17.97    0.59
   3  -6  -8   17.14    0.57
  -3  -6   8   17.32    0.57
  -3   6   8   16.89    0.57
  -2  -6   8    1.87    0.24
   2  -6  -8    1.77    0.24
  -2  -6   8    1.87    0.23
  -2   6   8    1.43    0.22
   2   6  -8    2.42    0.26
  -1  -6   8   26.96    0.75
   1  -6  -8   28.26    0.76
  -1  -6   8   28.36    0.71
  -1   6   8   28.69    0.77
   1   6  -8   28.59    0.73
   0  -6   8    0.19    0.14
   0   6   8    0.39    0.16
   0   6  -8    0.46    0.16
   1  -6   8   17.44    0.59
  -1   6  -8   16.64    0.52
   1   6   8   16.23    0.58
   2  -6   8    0.39    0.17
   2   6   8    0.59    0.19
   3  -6   8    0.25    0.16
   3   6   8    0.25    0.17
   4  -6   8    0.26    0.18
   4   6   8    0.17    0.16
   5  -6   8   22.47    0.72
   5   6   8   21.71    0.73
   6  -6   8    0.13    0.17
   6   6   8    0.20    0.17
   7  -6   8   20.38    0.70
   7   6   8   19.05    0.71
  -6  -7   8    0.45    0.20
   6  -7  -8    0.78    0.22
  -6   7   8    0.33    0.18
   5  -7  -8    4.39    0.35
  -5  -7   8    4.82    0.38
  -5  -7   8    4.13    0.34
  -5   7   8    4.64    0.35
  -4  -7   8    0.83    0.21
   4  -7  -8    0.64    0.19
  -4  -7   8    0.43    0.19
  -4   7   8    0.66    0.20
   3  -7  -8    4.93    0.36
  -3  -7   8    5.32    0.38
  -3  -7   8    5.13    0.37
  -3   7   8    4.12    0.34
  -2  -7   8    0.79    0.21
   2  -7  -8    0.59    0.21
  -2  -7   8    0.83    0.20
  -2   7   8    0.90    0.21
  -1  -7   8    1.09    0.22
   1  -7  -8    0.95    0.24
  -1  -7   8    0.94    0.23
  -1   7   8    1.07    0.23
   1   7  -8    1.10    0.24
   0  -7  -8    7.43    0.44
   0  -7   8    7.27    0.43
   0   7   8    6.77    0.42
  -1  -7  -8    1.32    0.26
   1  -7   8    1.31    0.24
   1   7   8    1.17    0.23
   2  -7   8   18.39    0.67
  -2  -7  -8   17.80    0.65
   2   7   8   18.17    0.67
   3  -7   8    0.50    0.20
   3   7   8    0.23    0.17
   4  -7   8    0.48    0.20
   4   7   8    0.56    0.21
   5  -7   8    1.41    0.27
   5   7   8    1.30    0.26
 -13   0   9    0.03    0.18
  13   0  -9    0.33    0.19
  12   0  -9   -0.20    0.12
 -12   0   9   -0.12    0.14
 -11   0   9    4.90    0.32
  11   0  -9    5.39    0.36
  10   0  -9   -0.17    0.12
 -10   0   9   -0.12    0.11
  -9   0   9    9.42    0.39
   9   0  -9   10.10    0.42
  -8   0   9    0.06    0.10
   8   0  -9   -0.07    0.09
  -6   0   9    0.03    0.09
   6   0  -9    0.01    0.07
  -5   0   9  286.56    3.99
   5   0  -9  296.68    4.09
  -4   0   9    0.04    0.04
  -4   0   9    0.08    0.07
  -3   0   9  588.58    7.84
  -3   0   9  591.38    7.77
  -2   0   9   -0.02    0.06
  -1   0   9  169.21    2.31
  -1   0   9  169.18    2.31
   0   0   9    0.25    0.05
   0   0   9    0.12    0.05
   1   0   9   81.29    1.14
   1   0   9   81.04    1.23
   2   0   9    0.19    0.05
   3   0   9   98.38    1.51
   3   0   9   98.49    1.36
   3   0   9   99.61    1.53
   4   0   9    0.09    0.09
   4   0   9    0.08    0.05
   4   0   9    0.26    0.09
  -5   0  -9    3.65    0.13
   5   0   9    3.49    0.22
   5   0   9    3.40    0.21
   7   0   9    1.38    0.19
   7   0   9    1.43    0.18
   8   0   9    0.37    0.14
   8   0   9    0.18    0.12
   9   0   9    2.11    0.22
   9   0   9    1.74    0.22
  10   0   9   -0.12    0.11
  11   0   9   -0.24    0.11
  12   0   9   -0.12    0.14
  13  -1  -9    1.65    0.28
 -13  -1   9    1.61    0.27
  13   1  -9    1.08    0.24
 -12  -1   9    0.01    0.15
  12  -1  -9    0.06    0.15
 -12   1   9    0.12    0.17
  12   1  -9    0.08    0.15
  11  -1  -9   18.27    0.65
 -11  -1   9   17.95    0.60
  11   1  -9   17.69    0.61
 -11   1   9   18.07    0.58
 -10  -1   9    4.86    0.31
  10  -1  -9    4.15    0.31
 -10   1   9    4.64    0.30
  10   1  -9    4.43    0.31
   9  -1  -9    1.30    0.20
  -9  -1   9    1.40    0.21
  -9   1   9    1.67    0.21
   9   1  -9    1.42    0.20
  -8  -1   9   23.31    0.61
   8  -1  -9   22.23    0.63
  -8   1   9   21.85    0.58
   8   1  -9   21.57    0.59
   7  -1  -9   20.38    0.56
  -7  -1   9   20.83    0.54
  -7   1   9   20.97    0.54
   7   1  -9   20.96    0.53
   6  -1  -9   54.23    1.02
  -6  -1   9   52.24    0.97
  -6   1   9   52.81    0.96
   6   1  -9   54.74    0.97
  -5  -1   9   31.54    0.65
  -5  -1   9   31.43    0.47
   5  -1  -9   32.59    0.68
   5   1  -9   31.81    0.63
  -5   1   9   32.06    0.64
  -4  -1   9   57.06    0.96
  -4  -1   9   56.28    0.82
  -4   1   9   56.84    0.96
  -3  -1   9   23.79    0.48
  -3  -1   9   23.25    0.41
  -3   1   9   23.39    0.48
  -3   1   9   22.76    0.41
  -2  -1   9    0.95    0.09
  -2   1   9    0.94    0.09
  -2   1   9    1.07    0.11
  -1  -1   9   11.66    0.28
  -1  -1   9   11.39    0.27
  -1   1   9   11.68    0.29
  -1   1   9   11.22    0.28
   0  -1   9   76.00    1.15
   0  -1   9   75.53    1.07
   0   1   9   74.16    1.12
   0   1   9   74.55    1.14
   1  -1   9   10.40    0.29
   1  -1   9   10.44    0.21
   1   1   9   10.71    0.29
   1   1   9   10.64    0.26
   2  -1   9   10.49    0.31
   2  -1   9   10.48    0.18
   2  -1   9   10.46    0.30
   2   1   9    9.91    0.31
   2   1   9   10.65    0.26
   3  -1   9   52.30    0.92
   3  -1   9   52.46    0.91
   3   1   9   51.94    0.90
   3   1   9   52.33    0.83
   4  -1   9    4.08    0.23
   4  -1   9    4.03    0.23
   4   1   9    4.26    0.17
   4   1   9    4.39    0.22
   4   1   9    4.26    0.21
   5  -1   9   52.46    0.97
   5  -1   9   53.02    1.00
   5   1   9   52.54    0.96
   5   1   9   55.33    0.99
   5   1   9   53.05    0.87
   6  -1   9    1.33    0.17
   6  -1   9    1.29    0.19
   6   1   9    2.11    0.21
   6   1   9    1.71    0.15
   6   1   9    2.07    0.18
   7  -1   9   10.45    0.39
   7  -1   9   10.33    0.41
   7   1   9   10.20    0.40
   7   1   9   10.78    0.38
   8  -1   9    3.71    0.26
   8  -1   9    3.39    0.28
   8   1   9    4.02    0.26
   8   1   9    3.50    0.26
   9  -1   9    1.16    0.18
   9  -1   9    0.79    0.18
   9   1   9    0.85    0.17
   9   1   9    1.19    0.18
  10  -1   9    0.28    0.16
  10   1   9    0.33    0.15
  11  -1   9    0.13    0.17
  11   1   9    0.17    0.16
 -13  -2   9    0.39    0.21
 -12  -2   9    4.80    0.36
  12  -2  -9    4.63    0.38
  12   2  -9    5.28    0.35
  11  -2  -9    1.56    0.25
 -11  -2   9    1.72    0.26
 -11   2   9    2.05    0.25
  11   2  -9    2.11    0.25
 -10  -2   9    1.52    0.22
  10  -2  -9    1.33    0.22
 -10   2   9    1.75    0.22
  10   2  -9    1.62    0.21
   9  -2  -9    2.15    0.25
  -9  -2   9    2.40    0.26
   9   2  -9    2.01    0.21
  -9   2   9    2.12    0.23
  -8  -2   9   18.54    0.56
   8  -2  -9   18.22    0.57
  -8   2   9   17.95    0.52
   8   2  -9   18.20    0.51
   7  -2  -9    4.37    0.29
  -7  -2   9    4.75    0.29
  -7   2   9    4.19    0.27
   7   2  -9    4.58    0.25
   6  -2  -9   59.08    0.90
   6  -2  -9   59.42    1.11
  -6  -2   9   57.65    1.08
  -6  -2   9   59.61    0.88
   6   2  -9   58.76    1.01
  -6   2   9   59.25    1.05
  -5  -2   9    5.44    0.25
   5  -2  -9    5.46    0.27
  -5  -2   9    5.53    0.18
   5   2  -9    5.68    0.22
  -5   2   9    5.40    0.25
  -4  -2   9    4.06    0.21
   4  -2  -9    4.20    0.22
  -4  -2   9    4.43    0.17
   4   2  -9    4.12    0.18
  -4   2   9    4.01    0.20
  -3  -2   9  136.20    1.90
  -3  -2   9  135.43    1.97
  -3   2   9  132.30    1.97
  -2  -2   9   85.30    1.30
  -2  -2   9   86.79    1.29
  -2   2   9   86.14    1.33
  -1  -2   9   79.80    1.23
  -1  -2   9   80.80    1.20
  -1   2   9   79.77    1.23
  -1   2   9   80.77    1.25
   0  -2   9    2.43    0.12
   0  -2   9    2.49    0.16
   0   2   9    2.15    0.14
   0   2   9    1.91    0.14
   1  -2   9   49.33    0.73
   1  -2   9   49.16    0.86
   1   2   9   49.02    0.84
   1   2   9   49.69    0.86
   2  -2   9   65.36    0.91
   2  -2   9   66.78    1.11
   2  -2   9   67.11    1.08
   2   2   9   66.61    1.10
   2   2   9   65.23    1.07
   3  -2   9   45.45    0.85
   3  -2   9   45.81    0.83
   3   2   9   46.40    0.81
   3   2   9   45.30    0.84
   4  -2   9  144.29    2.15
   4  -2   9  141.69    2.16
   4   2   9  142.47    2.13
   4   2   9  142.61    2.08
   5  -2   9    1.58    0.17
   5  -2   9    1.52    0.18
   5   2   9    1.40    0.17
   5   2   9    1.45    0.15
   5   2   9    1.64    0.16
   6  -2   9   22.51    0.60
   6  -2   9   23.44    0.59
   6   2   9   23.17    0.58
   6   2   9   22.08    0.53
   6   2   9   22.94    0.57
   7  -2   9    0.10    0.13
   7  -2   9    0.29    0.14
   7   2   9    0.34    0.13
   7   2   9    0.20    0.12
   7   2   9    0.22    0.12
   8  -2   9   21.26    0.60
  -8  -2  -9   20.57    0.54
   8  -2   9   20.96    0.64
   8   2   9   19.96    0.56
   8   2   9   19.89    0.59
   9  -2   9    0.37    0.14
   9  -2   9    0.15    0.14
   9   2   9    0.38    0.15
   9   2   9    0.33    0.15
  10  -2   9   30.95    0.88
  10   2   9   29.75    0.82
  11  -2   9    1.73    0.27
  11   2   9    1.61    0.24
 -12  -3   9    0.38    0.20
  12  -3  -9    0.42    0.18
  11  -3  -9    3.65    0.35
 -11  -3   9    4.02    0.35
  10  -3  -9    0.37    0.17
 -10  -3   9    0.29    0.15
 -10   3   9    0.25    0.15
  -9  -3   9    6.25    0.37
   9  -3  -9    5.69    0.35
  -9   3   9    5.85    0.31
   8  -3  -9    0.00    0.12
  -8  -3   9    0.00    0.14
  -8   3   9    0.15    0.12
   7  -3  -9    3.38    0.27
  -7  -3   9    3.32    0.26
  -7   3   9    3.18    0.24
   7   3  -9    3.25    0.22
   6  -3  -9   55.10    1.09
  -6  -3   9   56.50    0.92
  -6  -3   9   54.06    1.07
   6  -3  -9   57.27    0.95
  -6   3   9   56.09    1.04
   6   3  -9   57.05    0.95
   5  -3  -9    1.45    0.17
   5  -3  -9    1.83    0.17
  -5  -3   9    2.06    0.16
  -5  -3   9    1.73    0.19
  -5   3   9    1.87    0.19
   5   3  -9    1.53    0.14
   4  -3  -9   34.64    0.73
  -4  -3   9   33.96    0.73
  -4  -3   9   33.52    0.65
   4   3  -9   34.92    0.59
  -4   3   9   34.52    0.71
  -3  -3   9   10.68    0.35
  -3  -3   9   10.43    0.32
   3   3  -9   10.03    0.24
  -3   3   9   10.37    0.34
  -2  -3   9    0.12    0.08
  -2  -3   9   -0.02    0.07
  -2   3   9    0.12    0.08
  -1  -3   9    0.68    0.10
  -1  -3   9    1.00    0.13
  -1   3   9    0.65    0.11
   0  -3   9   28.59    0.62
   0  -3   9   29.23    0.55
   0   3   9   29.57    0.62
   1  -3   9    9.60    0.25
   1  -3   9    9.74    0.33
   1   3   9    9.58    0.33
   1   3   9   10.01    0.33
   2  -3   9   12.95    0.27
   2  -3   9   13.09    0.41
   2  -3   9   12.60    0.35
   2   3   9   12.36    0.39
   2   3   9   12.73    0.40
   3  -3   9   38.83    0.74
   3  -3   9   39.17    0.80
   3   3   9   37.77    0.78
   3   3   9   38.79    0.78
   4  -3   9    3.68    0.23
   4  -3   9    3.78    0.24
   4   3   9    3.73    0.24
   4   3   9    3.70    0.24
   5  -3   9   13.72    0.44
   5  -3   9   13.61    0.45
   5   3   9   13.67    0.43
   5   3   9   13.86    0.44
   6  -3   9   24.44    0.64
   6  -3   9   23.16    0.62
   6   3   9   24.08    0.62
   6   3   9   23.26    0.60
   7  -3   9    4.41    0.30
   7  -3   9    5.08    0.32
   7   3   9    5.13    0.30
   7   3   9    4.83    0.28
  -8  -3  -9    0.22    0.13
   8  -3   9    0.19    0.14
   8  -3   9    0.23    0.14
   8   3   9    0.25    0.14
   8   3   9    0.33    0.15
   8   3   9    0.40    0.13
   9  -3   9    1.36    0.21
   9  -3   9    2.01    0.25
   9   3   9    1.78    0.22
   9   3   9    1.59    0.23
  10  -3   9    0.25    0.18
  10   3   9    0.51    0.17
  11  -3   9    0.06    0.16
 -11  -4   9    3.81    0.35
  11  -4  -9    3.81    0.35
 -10  -4   9    0.72    0.21
  10  -4  -9    0.40    0.19
   9  -4  -9    3.37    0.30
  -9  -4   9    3.48    0.32
  -9   4   9    3.45    0.27
   8  -4  -9    0.67    0.18
  -8  -4   9    0.44    0.17
  -8   4   9    0.78    0.17
   7  -4  -9    3.48    0.27
  -7  -4   9    3.17    0.27
  -7   4   9    3.63    0.25
  -6  -4   9    3.85    0.29
   6  -4  -9    3.99    0.24
   6  -4  -9    3.71    0.27
  -6  -4   9    3.72    0.23
  -6   4   9    4.03    0.26
   5  -4  -9   32.10    0.75
   5  -4  -9   33.80    0.72
  -5  -4   9   33.83    0.79
  -5  -4   9   34.64    0.70
  -5   4   9   32.18    0.74
  -4  -4   9    1.17    0.18
   4  -4  -9    0.89    0.15
  -4  -4   9    0.98    0.14
   4  -4  -9    0.93    0.15
  -4   4   9    0.77    0.15
   3  -4  -9   35.05    0.73
  -3  -4   9   34.30    0.74
  -3  -4   9   33.82    0.72
  -3   4   9   33.76    0.74
  -2  -4   9    0.15    0.10
  -2  -4   9    0.19    0.10
  -2   4   9    0.13    0.10
  -1  -4   9   58.95    1.09
  -1  -4   9   61.07    1.05
  -1   4   9   61.99    1.12
   0  -4   9    0.14    0.08
   0  -4   9    0.17    0.10
   0   4   9   -0.08    0.09
   1  -4   9   42.25    0.87
   1  -4   9   42.47    0.75
   1   4   9   42.15    0.87
   2  -4   9   17.62    0.39
   2  -4   9   16.94    0.41
   2  -4   9   17.21    0.52
   2   4   9   17.40    0.51
   3  -4   9    3.11    0.20
   3  -4   9    3.11    0.25
   3   4   9    2.91    0.24
   4  -4   9   -0.01    0.09
   4  -4   9    0.31    0.14
   4   4   9   -0.04    0.11
   5  -4   9    0.39    0.12
   5  -4   9    0.36    0.15
   5   4   9    0.55    0.15
   6  -4   9    4.40    0.30
   6  -4   9    4.38    0.28
   6   4   9    4.22    0.28
   7  -4   9    3.68    0.28
   7  -4   9    3.49    0.29
   7   4   9    3.28    0.27
   8  -4   9    0.90    0.20
   8  -4   9    0.52    0.17
   8   4   9    0.59    0.18
   9  -4   9    1.93    0.26
   9  -4   9    2.39    0.29
  -9  -4  -9    2.54    0.29
  10  -4   9    8.68    0.49
  10  -5  -9    3.25    0.34
 -10  -5   9    3.45    0.37
  -9  -5   9    1.59    0.27
   9  -5  -9    1.10    0.22
   8  -5  -9    7.15    0.40
  -8  -5   9    6.44    0.42
  -8   5   9    7.82    0.39
   7  -5  -9    1.26    0.20
  -7  -5   9    1.28    0.23
  -7   5   9    1.06    0.20
  -6  -5   9    4.51    0.28
   6  -5  -9    5.21    0.32
  -6  -5   9    4.76    0.34
   6  -5  -9    5.17    0.30
  -6   5   9    4.97    0.31
  -5  -5   9    0.59    0.17
   5  -5  -9    0.53    0.15
   5  -5  -9    0.38    0.14
  -5  -5   9    0.34    0.14
  -5   5   9    0.40    0.14
  -4  -5   9   11.96    0.44
   4  -5  -9   12.73    0.45
  -4  -5   9   12.38    0.47
   4  -5  -9   12.57    0.44
  -4   5   9   12.65    0.45
  -3  -5   9    1.90    0.21
   3  -5  -9    1.52    0.21
  -3  -5   9    1.57    0.20
   3  -5  -9    1.26    0.17
  -3   5   9    1.77    0.22
  -2  -5   9    0.77    0.16
  -2  -5   9    0.85    0.15
   2  -5  -9    0.53    0.14
  -2   5   9    0.83    0.17
  -1  -5   9    1.57    0.21
  -1  -5   9    1.58    0.19
  -1   5   9    1.54    0.21
   0  -5   9    3.68    0.28
   0  -5   9    3.68    0.23
   0   5  -9    3.74    0.25
   0   5   9    4.11    0.29
   1  -5   9    7.25    0.35
   1  -5   9    7.45    0.29
  -1   5  -9    7.25    0.31
   1   5   9    7.36    0.36
   2  -5   9    1.92    0.22
   2   5   9    1.77    0.22
   3  -5   9   23.37    0.67
   3   5   9   22.86    0.66
   4  -5   9    6.71    0.36
   4   5   9    7.59    0.38
   5  -5   9    7.31    0.39
   5   5   9    7.79    0.40
   6  -5   9   -0.01    0.13
   6  -5   9    0.02    0.11
   6   5   9    0.02    0.12
   7  -5   9   17.85    0.58
   7  -5   9   15.87    0.59
   7   5   9   16.14    0.61
   8  -5   9   -0.15    0.14
   8  -5   9    0.01    0.13
   8   5   9   -0.04    0.14
   9  -5   9    0.39    0.20
   9  -5   9    0.42    0.18
  -9  -5  -9    0.60    0.21
   9   5   9    0.77    0.22
  -8  -6   9   16.80    0.68
  -7  -6   9    8.76    0.49
  -7   6   9    8.57    0.43
  -6  -6   9   23.23    0.66
   6  -6  -9   24.14    0.70
  -6  -6   9   22.96    0.75
  -6   6   9   21.97    0.68
  -5  -6   9   -0.05    0.13
  -5  -6   9    0.07    0.16
   5  -6  -9   -0.06    0.13
  -5   6   9    0.05    0.15
  -4  -6   9    0.15    0.14
   4  -6  -9   -0.05    0.15
  -4  -6   9    0.14    0.15
  -4   6   9    0.18    0.14
  -3  -6   9    2.97    0.27
  -3  -6   9    2.62    0.25
   3  -6  -9    2.96    0.28
  -3   6   9    3.34    0.29
   2  -6  -9    1.33    0.21
  -2  -6   9    1.28    0.20
  -2  -6   9    1.11    0.20
  -2   6   9    1.46    0.22
  -1  -6   9    0.96    0.20
  -1  -6   9    1.13    0.19
  -1   6   9    0.92    0.19
   0  -6   9    1.77    0.23
   0  -6   9    2.36    0.22
   0   6  -9    1.78    0.22
   0   6   9    1.48    0.23
   1  -6   9    4.37    0.32
   1   6   9    3.73    0.30
   2  -6   9   32.36    0.87
   2   6   9   33.06    0.87
   3  -6   9    1.68    0.26
   3   6   9    1.94    0.27
   4  -6   9   17.51    0.63
   4   6   9   16.85    0.62
   5  -6   9    0.58    0.19
   5   6   9    0.74    0.20
   6  -6   9    0.58    0.20
   6   6   9    0.93    0.22
   7  -6   9    1.05    0.23
   7   6   9    1.21    0.25
  -6  -7   9   13.11    0.60
   6  -7  -9   11.92    0.53
  -6   7   9   12.19    0.54
   5  -7  -9    0.25    0.19
  -5  -7   9    0.62    0.19
  -5  -7   9    0.78    0.22
  -5   7   9    0.83    0.21
  -4  -7   9    5.44    0.37
   4  -7  -9    5.52    0.38
  -4  -7   9    4.57    0.36
  -4   7   9    4.71    0.36
   3  -7  -9    0.57    0.21
  -3  -7   9    0.75    0.21
  -3  -7   9    0.64    0.20
  -3   7   9    0.70    0.20
   2  -7  -9    2.87    0.31
  -2  -7   9    2.96    0.30
  -2  -7   9    2.27    0.29
  -2   7   9    2.06    0.28
  -1  -7   9    0.40    0.17
   1  -7  -9   -0.01    0.18
  -1  -7   9    0.24    0.19
  -1   7   9    0.30    0.18
   0  -7  -9   10.77    0.52
   0  -7   9   10.38    0.50
   0   7   9   10.82    0.51
   1  -7   9    0.81    0.22
  -1  -7  -9    0.69    0.22
   1   7   9    0.33    0.18
   2  -7   9   15.81    0.63
   2   7   9   16.03    0.63
   3  -7   9    1.84    0.28
   3   7   9    2.00    0.28
   4  -7   9    2.29    0.32
   4   7   9    2.24    0.31
   5  -7   9    7.24    0.47
   5   7   9    7.33    0.47
  13   0 -10   -0.04    0.15
 -13   0  10    0.07    0.18
  12   0 -10    0.52    0.17
 -12   0  10    0.41    0.18
 -11   0  10   -0.07    0.13
  11   0 -10   -0.06    0.12
 -10   0  10    0.14    0.13
  10   0 -10    0.05    0.13
  -9   0  10   -0.02    0.12
   9   0 -10    0.03    0.11
  -8   0  10    6.61    0.32
   8   0 -10    6.88    0.32
   7   0 -10    0.04    0.09
  -7   0  10   -0.18    0.08
   6   0 -10   18.49    0.49
  -6   0  10   18.26    0.48
  -5   0  10   -0.03    0.09
   5   0 -10   -0.25    0.08
  -4   0  10   90.96    1.26
  -4   0  10   93.03    1.42
  -3   0  10    0.16    0.08
  -3   0  10    0.00    0.05
  -2   0  10   41.25    0.67
  -2   0  10   41.06    0.70
  -1   0  10   -0.01    0.04
   0   0  10   38.47    0.67
   0   0  10   38.34    0.62
   1   0  10    0.01    0.04
   2   0  10   19.45    0.45
   2   0  10   20.54    0.36
   3   0  10    0.05    0.07
   3   0  10    0.06    0.05
   4   0  10  142.67    1.97
   4   0  10  147.40    2.17
   4   0  10  148.71    2.21
   5   0  10   -0.08    0.09
  -5   0 -10   -0.01    0.05
   5   0  10    0.00    0.08
   6   0  10  244.93    3.46
   6   0  10  241.32    3.56
   7   0  10    0.03    0.11
   7   0  10    0.32    0.13
   8   0  10    0.05    0.11
   8   0  10   -0.04    0.11
   9   0  10    0.03    0.11
   9   0  10    0.04    0.13
  10   0  10    9.64    0.47
  11   0  10   -0.14    0.13
  13  -1 -10    0.59    0.20
 -13  -1  10    0.57    0.21
  13   1 -10    0.43    0.19
  12  -1 -10    0.95    0.21
 -12  -1  10    1.51    0.25
  12   1 -10    1.19    0.22
 -12   1  10    1.18    0.23
 -11  -1  10    0.72    0.19
  11  -1 -10    1.02    0.21
  11   1 -10    0.81    0.20
 -11   1  10    0.94    0.20
 -10  -1  10    0.38    0.16
  10  -1 -10    0.06    0.14
  10   1 -10    0.12    0.14
 -10   1  10    0.24    0.13
  -9  -1  10   19.39    0.59
   9  -1 -10   19.60    0.61
   9   1 -10   19.58    0.58
  -9   1  10   19.55    0.57
   8  -1 -10   13.22    0.48
  -8  -1  10   13.77    0.46
   8   1 -10   13.37    0.46
  -8   1  10   14.29    0.46
   7  -1 -10   21.58    0.59
  -7  -1  10   20.79    0.56
   7   1 -10   21.71    0.55
  -7   1  10   21.97    0.56
  -6  -1  10   43.67    0.86
   6  -1 -10   44.17    0.89
  -6   1  10   44.20    0.85
   6   1 -10   42.81    0.83
   5  -1 -10    6.61    0.28
  -5  -1  10    6.28    0.26
  -5  -1  10    6.34    0.16
  -5   1  10    6.48    0.26
   5   1 -10    6.03    0.25
  -4  -1  10   29.84    0.50
  -4  -1  10   29.48    0.61
  -4   1  10   30.70    0.62
  -3  -1  10   21.89    0.41
  -3  -1  10   22.24    0.47
  -3   1  10   22.61    0.49
  -3   1  10   21.74    0.41
  -2  -1  10    4.04    0.17
  -2  -1  10    4.04    0.18
  -2   1  10    4.31    0.18
  -2   1  10    4.02    0.17
  -1  -1  10   50.59    0.80
  -1  -1  10   52.38    0.83
  -1   1  10   50.21    0.83
  -1   1  10   50.18    0.82
   0  -1  10   14.81    0.36
   0  -1  10   15.33    0.30
   0   1  10   14.71    0.33
   0   1  10   14.41    0.35
   1  -1  10    1.92    0.15
   1  -1  10    1.76    0.09
   1   1  10    1.90    0.15
   1   1  10    1.85    0.12
   2  -1  10  129.17    1.90
   2  -1  10  126.12    1.70
   2  -1  10  131.00    1.92
   2   1  10  126.82    1.89
   2   1  10  130.88    1.82
   3  -1  10   15.70    0.42
   3  -1  10   15.59    0.41
   3   1  10   15.03    0.40
   3   1  10   15.17    0.34
   4  -1  10    0.36    0.11
   4  -1  10    0.61    0.11
   4   1  10    1.08    0.14
   4   1  10    0.65    0.09
   4   1  10    0.55    0.12
   5  -1  10   10.94    0.38
   5  -1  10   10.56    0.37
   5   1  10   10.79    0.37
   5   1  10   10.53    0.36
   5   1  10   10.68    0.30
   6  -1  10   10.79    0.39
   6  -1  10   11.16    0.42
   6   1  10   10.78    0.38
   6   1  10   11.22    0.40
   6   1  10   11.08    0.31
   7  -1  10    8.12    0.38
   7  -1  10    8.25    0.36
   7   1  10    7.64    0.36
   7   1  10    8.15    0.35
   8  -1  10    0.47    0.14
   8  -1  10    0.17    0.13
   8   1  10    0.31    0.13
   8   1  10    0.13    0.13
   9  -1  10    0.24    0.14
   9  -1  10   -0.06    0.12
   9   1  10    0.08    0.13
   9   1  10    0.32    0.14
  10  -1  10    0.09    0.15
  10   1  10    0.16    0.16
  11  -1  10    0.15    0.16
  11   1  10   -0.11    0.13
  12  -2 -10    0.61    0.19
 -12  -2  10    0.46    0.20
  12   2 -10    0.39    0.16
 -11  -2  10   16.11    0.59
  11  -2 -10   15.85    0.62
 -11   2  10   16.17    0.56
  11   2 -10   16.74    0.58
  10  -2 -10    0.13    0.15
 -10  -2  10    0.06    0.15
  10   2 -10    0.28    0.13
 -10   2  10    0.53    0.17
  -9  -2  10   38.15    0.90
   9  -2 -10   38.11    0.93
   9   2 -10   39.05    0.85
  -9   2  10   36.39    0.84
  -8  -2  10    2.52    0.24
   8  -2 -10    2.93    0.27
  -8   2  10    2.84    0.25
   8   2 -10    2.54    0.24
   7  -2 -10  113.76    1.89
  -7  -2  10  111.96    1.83
  -7   2  10  109.52    1.79
   7   2 -10  114.80    1.78
   6  -2 -10   39.02    0.85
  -6  -2  10   38.31    0.80
   6  -2 -10   38.98    0.65
  -6   2  10   37.01    0.78
   6   2 -10   38.62    0.75
  -5  -2  10    0.53    0.08
   5  -2 -10    0.61    0.12
  -5  -2  10    0.63    0.13
  -5   2  10    0.53    0.11
   5   2 -10    0.93    0.11
  -4  -2  10   29.65    0.54
  -4  -2  10   30.24    0.63
  -4   2  10   30.64    0.63
  -3  -2  10  624.17    8.02
  -3  -2  10  626.94    8.10
  -3   2  10  590.36    8.10
  -2  -2  10    4.95    0.21
  -2  -2  10    4.52    0.20
  -2   2  10    4.50    0.21
  -2   2  10    4.69    0.20
  -1  -2  10  236.97    3.19
  -1  -2  10  232.94    3.22
  -1   2  10  236.48    3.25
  -1   2  10  232.70    3.22
   0  -2  10   58.76    0.89
   0  -2  10   56.94    0.97
   0   2  10   58.71    0.97
   0   2  10   58.79    0.98
   1  -2  10    0.01    0.08
   1  -2  10    0.08    0.05
   1   2  10    0.03    0.07
   1   2  10    0.17    0.09
   2  -2  10  125.61    1.69
   2  -2  10  127.27    1.90
   2  -2  10  128.67    1.93
   2   2  10  128.71    1.92
   2   2  10  128.31    1.87
   3  -2  10   19.56    0.47
   3  -2  10   19.23    0.50
   3   2  10   19.60    0.45
   3   2  10   18.86    0.48
   4  -2  10    0.01    0.08
   4  -2  10    0.10    0.10
   4   2  10   -0.08    0.10
   4   2  10   -0.03    0.09
   5  -2  10    3.11    0.22
   5  -2  10    3.36    0.22
   5   2  10    3.03    0.19
   5   2  10    3.08    0.22
   6  -2  10    1.72    0.19
   6  -2  10    1.53    0.19
   6   2  10    1.76    0.19
   6   2  10    1.83    0.17
   6   2  10    2.26    0.21
   7  -2  10    3.85    0.28
   7  -2  10    3.82    0.28
   7   2  10    4.22    0.27
   7   2  10    4.39    0.28
   7   2  10    4.10    0.24
   8  -2  10    4.98    0.31
   8  -2  10    4.90    0.33
   8   2  10    4.90    0.31
   8   2  10    5.26    0.30
   9  -2  10    3.34    0.29
   9  -2  10    3.00    0.28
   9   2  10    3.04    0.27
   9   2  10    3.17    0.26
  10  -2  10    1.75    0.26
  10   2  10    2.13    0.26
  11  -2  10    0.15    0.15
  11   2  10    0.23    0.16
 -12  -3  10    0.17    0.19
  12  -3 -10    0.06    0.17
 -11  -3  10    5.10    0.37
  11  -3 -10    5.03    0.39
 -11   3  10    4.66    0.32
 -10  -3  10    0.88    0.20
  10  -3 -10    0.97    0.21
 -10   3  10    0.93    0.19
  -9  -3  10    0.20    0.15
   9  -3 -10    0.11    0.12
  -9   3  10   -0.06    0.11
   8  -3 -10    1.47    0.21
  -8  -3  10    1.75    0.23
  -8   3  10    1.74    0.20
  -7  -3  10   16.97    0.54
   7  -3 -10   17.00    0.55
  -7   3  10   15.90    0.49
   7   3 -10   17.40    0.44
   6  -3 -10   12.69    0.45
  -6  -3  10   12.73    0.45
  -6  -3  10   12.92    0.34
   6  -3 -10   12.85    0.36
   6   3 -10   12.70    0.35
  -6   3  10   12.80    0.42
  -5  -3  10    9.73    0.37
   5  -3 -10    9.67    0.38
   5  -3 -10    9.48    0.31
  -5  -3  10   10.40    0.30
   5   3 -10   10.12    0.29
  -5   3  10    9.98    0.36
  -4  -3  10    8.81    0.34
  -4  -3  10    9.23    0.29
   4  -3 -10    8.88    0.34
   4   3 -10    9.07    0.25
  -4   3  10    9.50    0.34
  -3  -3  10   30.92    0.62
  -3  -3  10   31.54    0.66
  -3   3  10   30.52    0.66
  -2  -3  10    4.59    0.22
  -2  -3  10    4.66    0.22
  -2   3  10    4.88    0.23
  -1  -3  10   42.13    0.75
  -1  -3  10   42.55    0.80
  -1   3  10   41.87    0.81
   0  -3  10    4.69    0.19
   0  -3  10    4.66    0.23
   0   3  10    4.84    0.23
   1  -3  10   48.14    0.76
   1  -3  10   47.29    0.90
   1   3  10   47.46    0.89
   1   3  10   47.68    0.89
   2  -3  10    5.65    0.24
   2  -3  10    6.06    0.28
   2  -3  10    5.76    0.17
   2   3  10    5.41    0.26
   2   3  10    5.61    0.28
   3  -3  10    5.39    0.25
   3  -3  10    5.81    0.28
   3   3  10    5.18    0.28
   3   3  10    5.02    0.25
   4  -3  10   18.98    0.50
   4  -3  10   19.07    0.54
   4   3  10   18.76    0.50
   4   3  10   18.43    0.52
   5  -3  10   25.03    0.62
   5  -3  10   24.72    0.64
   5   3  10   24.37    0.60
   5   3  10   24.11    0.62
   6  -3  10    0.17    0.14
   6  -3  10    0.11    0.11
   6   3  10    0.39    0.13
   6   3  10    0.02    0.12
   7  -3  10   25.24    0.69
   7  -3  10   25.27    0.70
   7   3  10   25.17    0.66
   7   3  10   24.27    0.64
   8  -3  10    0.19    0.14
  -8  -3 -10   -0.04    0.12
   8  -3  10   -0.12    0.12
   8   3  10    0.14    0.14
   8   3  10   -0.08    0.11
   9  -3  10    3.23    0.29
   9  -3  10    2.69    0.29
   9   3  10    2.76    0.27
  10  -3  10   11.31    0.54
 -11  -4  10    0.50    0.22
  11  -4 -10    0.64    0.21
 -10  -4  10    0.65    0.21
  10  -4 -10    0.40    0.19
 -10   4  10    0.55    0.19
   9  -4 -10    0.60    0.18
  -9  -4  10    0.57    0.19
  -9   4  10    0.74    0.18
   8  -4 -10    0.41    0.16
  -8  -4  10    0.62    0.19
  -8   4  10    0.59    0.17
   7  -4 -10    5.86    0.34
  -7  -4  10    5.98    0.34
  -7   4  10    5.07    0.30
  -6  -4  10    0.45    0.12
   6  -4 -10    0.36    0.13
  -6  -4  10    0.51    0.15
   6  -4 -10    0.29    0.14
  -6   4  10    0.35    0.14
  -5  -4  10    0.76    0.17
  -5  -4  10    0.76    0.14
   5  -4 -10    0.39    0.14
   5  -4 -10    0.28    0.12
  -5   4  10    0.57    0.15
  -4  -4  10    5.96    0.30
  -4  -4  10    6.06    0.28
   4  -4 -10    6.47    0.31
  -4   4  10    5.89    0.29
  -3  -4  10    0.52    0.13
   3  -4 -10    0.35    0.12
  -3  -4  10    1.13    0.17
  -3   4  10    0.45    0.13
  -2  -4  10    7.51    0.31
  -2  -4  10    7.25    0.29
  -2   4  10    7.43    0.32
  -1  -4  10    9.24    0.35
  -1  -4  10    9.09    0.32
  -1   4  10    8.95    0.36
   0  -4  10    4.68    0.22
   0  -4  10    4.74    0.26
   0   4  10    3.87    0.24
   1  -4  10    0.83    0.16
   1  -4  10    0.86    0.12
   1   4  10    0.81    0.16
   2  -4  10   19.93    0.56
   2   4  10   18.28    0.53
   3  -4  10    1.59    0.16
   3  -4  10    1.24    0.18
   3   4  10    1.13    0.17
   4  -4  10   30.47    0.68
   4  -4  10   30.49    0.76
   4   4  10   32.04    0.76
   5  -4  10    4.89    0.27
   5  -4  10    4.40    0.30
   5   4  10    4.31    0.28
   6  -4  10    5.89    0.35
   6  -4  10    6.10    0.33
   6   4  10    6.07    0.33
   7  -4  10   -0.05    0.11
   7  -4  10    0.06    0.13
   7   4  10    0.01    0.13
   8  -4  10    0.24    0.15
   8  -4  10    0.35    0.16
   8   4  10    0.42    0.17
   9  -4  10    0.97    0.22
  -9  -4 -10    1.46    0.24
   9  -4  10    1.60    0.25
  10  -4  10    1.10    0.25
 -10  -5  10   -0.03    0.16
  10  -5 -10   -0.01    0.15
  -9  -5  10    4.22    0.37
   9  -5 -10    3.78    0.33
  -9   5  10    3.92    0.32
   8  -5 -10    4.27    0.33
  -8  -5  10    4.22    0.34
  -8   5  10    4.41    0.32
  -7  -5  10   26.75    0.79
   7  -5 -10   24.91    0.72
  -7   5  10   25.80    0.70
   6  -5 -10   22.18    0.64
  -6  -5  10   21.26    0.58
   6  -5 -10   21.58    0.60
  -6  -5  10   21.57    0.68
  -6   5  10   20.76    0.62
  -5  -5  10    3.27    0.27
   5  -5 -10    3.65    0.27
   5  -5 -10    3.58    0.26
  -5  -5  10    3.51    0.25
  -5   5  10    3.06    0.26
  -4  -5  10   50.24    1.06
   4  -5 -10   50.71    1.03
   4  -5 -10   49.47    1.00
  -4  -5  10   48.44    1.00
  -4   5  10   49.58    1.03
   3  -5 -10   22.07    0.57
  -3  -5  10   22.40    0.61
  -3  -5  10   21.32    0.61
  -3   5  10   21.78    0.62
  -2  -5  10   14.18    0.46
   2  -5 -10   14.46    0.44
  -2  -5  10   13.59    0.47
  -2   5  10   14.11    0.49
  -1  -5  10   29.73    0.74
  -1  -5  10   29.37    0.68
  -1   5  10   29.89    0.75
   0  -5  10    4.37    0.30
   0  -5  10    4.91    0.25
   0   5  10    4.73    0.31
   1  -5  10    0.88    0.14
   1  -5  10    1.18    0.20
   1   5  10    0.98    0.18
   2  -5  10   15.38    0.53
   2   5  10   15.05    0.52
   3  -5  10    6.67    0.37
   3   5  10    6.23    0.34
   4  -5  10    0.13    0.15
   4   5  10    0.28    0.15
   5  -5  10    9.67    0.44
   5   5  10    9.88    0.44
   6  -5  10    0.70    0.19
   6   5  10    0.98    0.21
   7  -5  10    2.66    0.30
   7  -5  10    2.91    0.28
   7   5  10    3.04    0.32
   8  -5  10    2.01    0.27
   8  -5  10    1.92    0.25
   8   5  10    2.33    0.30
  -8  -6  10    1.06    0.26
  -7  -6  10    0.64    0.20
  -7   6  10    0.73    0.20
   6  -6 -10   13.51    0.52
  -6  -6  10   13.15    0.56
  -6   6  10   13.43    0.53
  -5  -6  10    4.42    0.32
   5  -6 -10    3.37    0.29
  -5  -6  10    3.55    0.32
  -5   6  10    3.44    0.30
  -4  -6  10   -0.01    0.13
   4  -6 -10   -0.05    0.14
  -4  -6  10    0.11    0.15
  -4   6  10    0.07    0.13
  -3  -6  10    6.92    0.37
  -3  -6  10    6.12    0.36
   3  -6 -10    6.08    0.37
  -3   6  10    7.02    0.38
  -2  -6  10    0.00    0.12
  -2  -6  10    0.04    0.12
   2  -6 -10   -0.06    0.13
  -2   6  10    0.07    0.14
  -1  -6  10   18.75    0.62
  -1  -6  10   19.34    0.57
  -1   6  10   19.27    0.62
   0  -6  10    1.90    0.25
   0  -6  10    1.92    0.21
   0   6  10    1.64    0.24
   1  -6  10    4.43    0.32
   1   6  10    4.02    0.32
   2  -6  10    0.03    0.14
   2   6  10    0.17    0.15
   3  -6  10    0.62    0.19
   3   6  10    1.21    0.23
   4  -6  10    1.77    0.27
   4   6  10    1.69    0.27
   5  -6  10    2.40    0.30
   5   6  10    2.59    0.31
   6  -6  10    0.03    0.16
   6   6  10   -0.15    0.15
   7  -6  10    1.26    0.26
   7   6  10    1.24    0.25
  -6  -7  10    4.29    0.37
   6  -7 -10    4.09    0.35
  -6   7  10    4.69    0.36
   5  -7 -10    1.85    0.27
  -5  -7  10    1.62    0.26
  -5  -7  10    2.23    0.30
  -5   7  10    1.88    0.28
   4  -7 -10    2.03    0.28
  -4  -7  10    2.00    0.29
  -4  -7  10    1.88    0.28
  -4   7  10    1.95    0.28
  -3  -7  10    1.23    0.23
   3  -7 -10    1.52    0.27
  -3  -7  10    1.83    0.27
  -3   7  10    1.49    0.25
  -2  -7  10    3.45    0.30
   2  -7 -10    3.73    0.33
  -2  -7  10    3.62    0.32
  -2   7  10    3.32    0.31
  -1  -7  10    2.89    0.32
   1  -7 -10    3.18    0.34
  -1   7  10    3.38    0.33
   0  -7  10    2.69    0.32
   0  -7 -10    2.06    0.30
   0   7  10    2.61    0.32
   1  -7  10    0.91    0.23
   1   7  10    0.62    0.22
   2  -7  10    2.26    0.30
   2   7  10    2.42    0.31
   3  -7  10    2.04    0.30
   3   7  10    2.28    0.31
   4  -7  10    0.76    0.23
   4   7  10    0.41    0.19
  13   0 -11    0.69    0.22
 -13   0  11    1.19    0.25
 -12   0  11   -0.07    0.15
  12   0 -11    0.03    0.14
 -11   0  11    2.84    0.29
  11   0 -11    2.12    0.26
  10   0 -11   -0.07    0.12
 -10   0  11    0.09    0.13
  -9   0  11   26.13    0.69
   9   0 -11   26.20    0.70
  -8   0  11    0.03    0.11
   8   0 -11    0.06    0.10
   7   0 -11   -0.07    0.09
  -7   0  11    0.01    0.10
  -6   0  11    0.05    0.09
   6   0 -11    0.08    0.09
  -5   0  11    8.54    0.31
  -5   0  11    7.73    0.17
   5   0 -11    8.33    0.31
  -4   0  11    0.09    0.09
  -4   0  11    0.05    0.05
  -3   0  11   65.16    1.06
  -3   0  11   64.87    0.97
  -2   0  11    0.00    0.06
  -2   0  11    0.13    0.06
  -1   0  11  203.79    2.80
  -1   0  11  205.63    2.81
   1   0  11   23.69    0.43
   1   0  11   24.07    0.51
   2   0  11    0.27    0.08
   3   0  11   29.36    0.48
   3   0  11   29.82    0.63
   4   0  11    0.03    0.08
   4   0  11   -0.06    0.05
   5   0  11   15.53    0.45
   5   0  11   14.68    0.45
   6   0  11    0.24    0.13
   7   0  11   97.52    1.69
   7   0  11   95.72    1.62
   8   0  11    0.00    0.11
   8   0  11   -0.01    0.11
   9   0  11   26.34    0.76
   9   0  11   27.62    0.71
  10   0  11   -0.12    0.13
  11   0  11    0.85    0.22
  13  -1 -11   -0.15    0.15
 -13  -1  11   -0.22    0.16
  13   1 -11   -0.10    0.15
 -12  -1  11    0.41    0.19
  12  -1 -11    0.13    0.16
 -12   1  11    0.19    0.17
  12   1 -11    0.09    0.15
 -11  -1  11    0.02    0.15
  11  -1 -11    0.27    0.16
 -11   1  11    0.00    0.15
  11   1 -11   -0.22    0.12
  10  -1 -11    8.22    0.43
 -10  -1  11    8.98    0.41
  10   1 -11    8.64    0.41
 -10   1  11    8.71    0.40
   9  -1 -11    1.29    0.19
  -9  -1  11    1.84    0.24
   9   1 -11    1.47    0.20
  -9   1  11    1.65    0.22
  -8  -1  11   71.95    1.32
   8  -1 -11   73.28    1.37
   8   1 -11   72.94    1.32
  -8   1  11   73.03    1.31
   7  -1 -11   30.49    0.74
  -7  -1  11   31.92    0.73
   7   1 -11   32.10    0.71
  -7   1  11   31.20    0.71
  -6  -1  11   25.72    0.61
   6  -1 -11   25.12    0.62
  -6   1  11   25.35    0.60
   6   1 -11   25.65    0.59
  -5  -1  11    1.61    0.16
  -5  -1  11    1.38    0.09
   5  -1 -11    1.08    0.14
   5   1 -11    1.00    0.13
  -5   1  11    1.37    0.15
  -4  -1  11   52.61    0.81
  -4  -1  11   54.55    0.94
  -4   1  11   54.00    0.95
  -4   1  11   52.60    0.81
  -3  -1  11  343.47    4.58
  -3  -1  11  341.29    4.48
  -3   1  11  331.22    4.48
  -3   1  11  339.49    4.58
  -2  -1  11   50.08    0.81
  -2  -1  11   50.12    0.83
  -2   1  11   50.16    0.85
  -2   1  11   48.85    0.81
  -1  -1  11  201.23    2.78
  -1  -1  11  203.68    2.76
  -1   1  11  202.81    2.79
  -1   1  11  200.38    2.78
   0  -1  11    4.47    0.20
   0  -1  11    4.81    0.16
   0   1  11    4.59    0.20
   0   1  11    4.89    0.19
   1  -1  11  182.30    2.46
   1  -1  11  185.78    2.61
   1   1  11  184.72    2.61
   1   1  11  184.74    2.54
   2  -1  11   59.01    0.84
   2  -1  11   61.74    1.04
   2   1  11   60.76    0.95
   2   1  11   61.18    1.04
   3  -1  11   11.14    0.36
   3  -1  11   11.32    0.35
   3   1  11   10.89    0.35
   3   1  11   11.09    0.29
   4  -1  11   39.78    0.80
   4  -1  11   39.10    0.80
   4   1  11   39.37    0.68
   4   1  11   38.30    0.78
   5  -1  11   85.96    1.44
   5  -1  11   85.57    1.46
   5   1  11   84.56    1.42
   5   1  11   85.50    1.29
   5   1  11   84.06    1.44
   6  -1  11    1.83    0.21
   6  -1  11    1.94    0.21
   6   1  11    1.51    0.14
   6   1  11    1.80    0.19
   6   1  11    1.72    0.20
   7  -1  11   39.36    0.90
   7  -1  11   40.03    0.87
   7   1  11   39.25    0.85
   7   1  11   39.62    0.89
   8  -1  11    4.73    0.31
   8  -1  11    5.09    0.31
   8   1  11    4.90    0.31
   8   1  11    5.08    0.30
   9  -1  11    2.93    0.27
   9  -1  11    2.60    0.25
   9   1  11    2.27    0.25
   9   1  11    3.03    0.26
  10  -1  11    1.96    0.26
  10   1  11    2.19    0.27
  11  -1  11    0.46    0.19
  11   1  11    0.69    0.19
 -12  -2  11    1.15    0.23
  12  -2 -11    0.81    0.21
 -12   2  11    1.17    0.24
  12   2 -11    0.98    0.20
  11  -2 -11    2.18    0.29
 -11  -2  11    2.69    0.31
 -11   2  11    2.09    0.26
  11   2 -11    1.74    0.25
 -10  -2  11   -0.03    0.14
  10  -2 -11   -0.15    0.13
 -10   2  11    0.16    0.14
  10   2 -11   -0.21    0.11
  -9  -2  11    0.26    0.15
   9  -2 -11    0.10    0.13
  -9   2  11    0.20    0.14
   9   2 -11   -0.07    0.11
  -8  -2  11    6.64    0.35
   8  -2 -11    6.09    0.34
  -8   2  11    6.42    0.32
   8   2 -11    6.35    0.31
   7  -2 -11    5.04    0.31
  -7  -2  11    5.22    0.30
   7   2 -11    4.80    0.26
  -7   2  11    5.07    0.29
   6  -2 -11   72.04    1.30
   6  -2 -11   71.52    1.07
  -6  -2  11   71.10    1.26
   6   2 -11   69.75    1.19
  -6   2  11   69.37    1.23
   5  -2 -11    1.67    0.18
  -5  -2  11    2.04    0.18
  -5  -2  11    1.89    0.13
   5   2 -11    1.73    0.16
  -5   2  11    2.24    0.19
  -4  -2  11  118.59    1.83
  -4  -2  11  121.56    1.72
  -4   2  11  120.79    1.84
  -3  -2  11    2.30    0.19
  -3  -2  11    2.13    0.16
  -2  -2  11    4.82    0.21
  -2  -2  11    4.78    0.20
  -2   2  11    4.85    0.23
  -2   2  11    4.53    0.21
  -1  -2  11    8.86    0.26
  -1  -2  11    9.15    0.29
  -1   2  11    9.68    0.30
  -1   2  11    9.04    0.30
   0  -2  11  108.79    1.67
   0  -2  11  113.67    1.58
   0   2  11  110.86    1.66
   0   2  11  110.06    1.67
   1  -2  11    8.95    0.21
   1  -2  11    8.74    0.31
   1   2  11    8.81    0.29
   1   2  11    9.53    0.32
   2  -2  11   89.79    1.45
   2  -2  11   88.36    1.22
   2   2  11   90.43    1.45
   2   2  11   92.18    1.41
   3  -2  11    0.15    0.10
   3  -2  11    0.00    0.08
   3   2  11   -0.02    0.08
   3   2  11    0.10    0.09
   4  -2  11   11.17    0.37
   4  -2  11   11.73    0.40
   4   2  11   10.49    0.37
   4   2  11   11.45    0.34
   5  -2  11   19.35    0.55
   5  -2  11   19.45    0.54
   5   2  11   19.61    0.53
   5   2  11   19.83    0.48
   6  -2  11    0.34    0.13
   6  -2  11    0.30    0.13
   6   2  11    0.30    0.13
   6   2  11    0.36    0.12
   7  -2  11   12.29    0.46
   7  -2  11   12.43    0.48
   7   2  11   11.99    0.39
   7   2  11   11.88    0.44
   7   2  11   11.05    0.43
   8  -2  11    0.03    0.13
   8  -2  11   -0.01    0.12
   8   2  11   -0.04    0.12
   8   2  11   -0.02    0.09
   9  -2  11    0.32    0.15
   9  -2  11    0.22    0.16
   9   2  11    0.33    0.15
   9   2  11    0.38    0.15
  10  -2  11    3.60    0.36
  10   2  11    3.84    0.32
  11  -2  11    0.42    0.19
  11   2  11    0.48    0.18
  12  -3 -11   -0.06    0.15
 -12  -3  11    0.18    0.20
 -11  -3  11    2.05    0.30
  11  -3 -11    2.16    0.29
 -11   3  11    2.55    0.28
 -10  -3  11    0.17    0.15
  10  -3 -11    0.02    0.13
 -10   3  11    0.03    0.14
   9  -3 -11    0.03    0.12
  -9  -3  11   -0.12    0.12
  -9   3  11   -0.14    0.11
   8  -3 -11    5.32    0.34
  -8  -3  11    5.50    0.33
  -8   3  11    5.21    0.30
  -7  -3  11    9.94    0.42
   7  -3 -11    9.79    0.43
  -7   3  11   10.21    0.38
  -6  -3  11   16.89    0.52
   6  -3 -11   16.94    0.53
   6  -3 -11   17.91    0.43
  -6  -3  11   18.50    0.42
  -6   3  11   17.58    0.51
   6   3 -11   17.93    0.44
   5  -3 -11    0.91    0.16
  -5  -3  11    1.17    0.13
  -5  -3  11    1.14    0.17
  -5   3  11    1.26    0.16
   5   3 -11    0.96    0.12
   4  -3 -11   64.81    1.18
  -4  -3  11   66.98    1.16
  -4  -3  11   64.66    1.08
  -4   3  11   66.21    1.16
   4   3 -11   66.80    1.04
  -3  -3  11   31.18    0.65
  -3  -3  11   30.50    0.63
  -3   3  11   30.80    0.67
  -2  -3  11   17.50    0.44
  -2  -3  11   18.40    0.46
  -2   3  11   17.74    0.47
  -1  -3  11   82.52    1.27
  -1  -3  11   81.20    1.33
  -1   3  11   80.49    1.34
   0  -3  11   13.82    0.34
   0  -3  11   13.70    0.41
   0   3  11   14.13    0.41
   0   3  11   14.11    0.41
   1  -3  11   72.91    1.09
   1  -3  11   72.61    1.25
   1   3  11   71.66    1.23
   1   3  11   74.08    1.25
   2  -3  11    0.31    0.07
   2  -3  11    0.38    0.13
   2   3  11    0.55    0.13
   2   3  11    0.31    0.12
   3  -3  11    0.62    0.14
   3  -3  11    0.66    0.12
   3   3  11    0.58    0.13
   3   3  11    0.49    0.13
   4  -3  11    3.08    0.23
   4  -3  11    3.32    0.26
   4   3  11    3.51    0.24
   4   3  11    3.70    0.26
   5  -3  11   33.44    0.79
   5  -3  11   33.36    0.76
   5   3  11   32.94    0.74
   5   3  11   34.05    0.77
   6  -3  11    4.41    0.29
   6  -3  11    4.56    0.31
   6   3  11    4.65    0.27
   6   3  11    4.66    0.29
   7  -3  11    6.58    0.37
   7  -3  11    5.85    0.35
   7   3  11    5.67    0.33
   7   3  11    6.84    0.34
   8  -3  11    2.06    0.25
   8  -3  11    2.06    0.25
   8   3  11    1.79    0.23
   9  -3  11    0.02    0.13
   9  -3  11    0.13    0.16
   9   3  11    0.12    0.16
  10  -3  11    4.10    0.37
  11  -4 -11    2.54    0.31
 -11  -4  11    2.68    0.34
 -10  -4  11    1.68    0.27
  10  -4 -11    1.45    0.24
 -10   4  11    1.85    0.26
  -9  -4  11   15.14    0.59
   9  -4 -11   17.51    0.62
  -9   4  11   16.50    0.56
  -8  -4  11    2.30    0.27
   8  -4 -11    2.77    0.28
  -8   4  11    2.38    0.25
  -7  -4  11   19.00    0.61
   7  -4 -11   18.44    0.59
  -7   4  11   18.48    0.57
  -6  -4  11    0.33    0.14
  -6  -4  11    0.16    0.11
   6  -4 -11    0.23    0.12
   6  -4 -11    0.08    0.11
  -6   4  11    0.12    0.13
   5  -4 -11    3.47    0.24
  -5  -4  11    3.70    0.27
  -5  -4  11    3.84    0.23
   5  -4 -11    3.73    0.27
  -5   4  11    3.48    0.26
   4  -4 -11    4.81    0.28
  -4  -4  11    4.94    0.29
  -4  -4  11    4.61    0.25
  -4   4  11    4.78    0.28
  -3  -4  11    2.40    0.20
  -3  -4  11    2.22    0.21
  -3   4  11    2.35    0.20
  -2  -4  11    0.24    0.12
  -2  -4  11    0.33    0.11
  -2   4  11    0.46    0.13
  -1  -4  11   32.24    0.73
  -1  -4  11   31.99    0.66
  -1   4  11   32.31    0.73
   0  -4  11   14.29    0.38
   0  -4  11   14.52    0.46
   0   4  11   13.64    0.45
   1  -4  11   41.81    0.89
   1  -4  11   41.11    0.73
   1   4  11   40.09    0.87
   2  -4  11   16.81    0.52
   2   4  11   15.67    0.49
   3  -4  11    7.74    0.36
   3  -4  11    8.08    0.30
   3   4  11    6.97    0.33
   4  -4  11    0.00    0.10
   4  -4  11   -0.02    0.11
   4   4  11    0.13    0.12
   5  -4  11    2.01    0.24
   5  -4  11    2.17    0.21
   5   4  11    1.94    0.22
   6  -4  11    0.04    0.11
   6  -4  11   -0.02    0.13
   6   4  11   -0.02    0.11
   7  -4  11   14.31    0.52
   7  -4  11   13.50    0.53
   7   4  11   14.57    0.53
   8  -4  11    0.14    0.15
   8  -4  11    0.21    0.15
   8   4  11    0.13    0.16
   9  -4  11    7.25    0.43
   9  -4  11    7.27    0.43
 -10  -5  11    0.50    0.21
  10  -5 -11    0.41    0.20
   9  -5 -11    0.11    0.16
  -9  -5  11   -0.17    0.16
  -9   5  11    0.14    0.16
   8  -5 -11    4.01    0.33
  -8  -5  11    3.65    0.34
  -8   5  11    4.07    0.32
   7  -5 -11    0.55    0.17
  -7  -5  11    0.41    0.18
  -7   5  11    0.57    0.18
   6  -5 -11   13.74    0.47
  -6  -5  11   12.55    0.51
   6  -5 -11   13.59    0.50
  -6   5  11   13.51    0.50
  -5  -5  11    0.26    0.15
  -5  -5  11    0.09    0.12
   5  -5 -11    0.18    0.13
   5  -5 -11    0.11    0.12
  -5   5  11    0.34    0.14
  -4  -5  11    9.37    0.39
  -4  -5  11    9.35    0.41
   4  -5 -11    9.47    0.40
   4  -5 -11    9.40    0.39
  -4   5  11    9.29    0.41
   3  -5 -11   18.42    0.53
  -3  -5  11   17.60    0.54
  -3  -5  11   17.85    0.55
  -3   5  11   18.08    0.57
  -2  -5  11    4.37    0.28
   2  -5 -11    4.47    0.27
  -2  -5  11    4.78    0.28
  -2   5  11    4.96    0.30
  -1  -5  11    7.06    0.31
  -1  -5  11    6.60    0.35
  -1   5  11    6.68    0.34
   0  -5  11    4.74    0.26
   0  -5  11    4.18    0.28
   0   5  11    4.74    0.31
   1  -5  11    0.49    0.15
   1   5  11    0.31    0.14
   2  -5  11    0.68    0.18
   2   5  11    0.46    0.16
   3  -5  11    0.07    0.14
   3   5  11    0.05    0.13
   4  -5  11    0.79    0.19
   4   5  11    1.15    0.21
   5  -5  11    1.04    0.21
   5   5  11    1.18    0.21
   6  -5  11    3.04    0.32
   6   5  11    3.07    0.29
   7  -5  11    5.50    0.38
   7   5  11    5.23    0.37
   8  -5  11    0.24    0.15
   8  -5  11    0.00    0.16
   8   5  11    0.31    0.17
  -8  -6  11    3.53    0.38
  -8   6  11    3.44    0.33
  -7  -6  11    1.05    0.24
  -7   6  11    0.48    0.19
   6  -6 -11    6.29    0.37
  -6  -6  11    5.92    0.39
  -6   6  11    6.55    0.38
  -5  -6  11    2.01    0.27
  -5  -6  11    2.23    0.25
   5  -6 -11    1.85    0.25
  -5   6  11    1.84    0.26
  -4  -6  11    6.69    0.39
  -4  -6  11    7.11    0.37
   4  -6 -11    6.66    0.38
  -4   6  11    6.95    0.39
   3  -6 -11    0.09    0.15
  -3  -6  11   -0.14    0.12
  -3  -6  11    0.09    0.14
  -3   6  11   -0.01    0.14
  -2  -6  11    0.72    0.17
  -2  -6  11    0.81    0.19
  -2   6  11    0.64    0.18
  -1  -6  11    0.72    0.19
  -1  -6  11    0.28    0.14
  -1   6  11    0.52    0.18
   0  -6  11   31.88    0.85
   0   6  11   31.66    0.85
   1  -6  11   12.01    0.51
   1   6  11   12.33    0.52
   2  -6  11   36.01    0.94
   2   6  11   35.69    0.93
   3  -6  11    0.12    0.16
   3   6  11   -0.31    0.12
   4  -6  11    4.24    0.35
   4   6  11    4.63    0.34
   5  -6  11    0.15    0.17
   5   6  11    0.13    0.15
   6  -6  11    0.01    0.16
   6   6  11   -0.19    0.15
  -5  -7  11    0.34    0.19
  -5  -7  11    0.11    0.17
   5  -7 -11    0.29    0.18
  -5   7  11    0.50    0.19
   4  -7 -11   12.25    0.54
  -4  -7  11   12.02    0.54
  -4  -7  11   12.14    0.53
  -4   7  11   12.73    0.55
   3  -7 -11    1.17    0.24
  -3  -7  11    0.88    0.22
  -3  -7  11    0.90    0.22
  -3   7  11    0.53    0.20
  -2  -7  11    3.29    0.34
   2  -7 -11    2.72    0.32
  -2  -7  11    2.53    0.29
  -2   7  11    2.88    0.32
   1  -7 -11   22.38    0.75
  -1  -7  11   22.37    0.75
  -1   7  11   21.18    0.72
   0  -7  11    0.16    0.16
   0  -7 -11   -0.06    0.16
   0   7  11    0.00    0.15
   1  -7  11   10.50    0.51
   1   7  11    9.25    0.50
   2  -7  11    1.70    0.28
   2   7  11    1.66    0.28
   3  -7  11   -0.29    0.12
   3   7  11    0.06    0.16
   4  -7  11   -0.02    0.18
   4   7  11   -0.08    0.17
  13   0 -12   -0.11    0.16
 -13   0  12    0.17    0.19
  12   0 -12   12.74    0.56
 -12   0  12   12.43    0.53
 -11   0  12   -0.04    0.14
  11   0 -12   -0.02    0.12
  10   0 -12    2.21    0.25
 -10   0  12    2.07    0.24
   9   0 -12    0.03    0.12
  -9   0  12   -0.07    0.14
  -8   0  12    0.62    0.16
   8   0 -12    0.97    0.17
   7   0 -12   -0.02    0.09
  -7   0  12   -0.01    0.10
   6   0 -12   49.49    0.97
  -6   0  12   50.10    0.96
  -5   0  12    0.11    0.09
  -5   0  12    0.04    0.05
  -4   0  12  107.95    1.51
  -4   0  12  108.47    1.66
  -3   0  12   -0.03    0.06
  -3   0  12    0.04    0.07
  -2   0  12   67.94    1.06
  -2   0  12   69.98    1.10
   0   0  12   38.17    0.64
   0   0  12   37.77    0.70
   1   0  12    0.45    0.09
   2   0  12  112.41    1.73
   2   0  12  115.53    1.59
   3   0  12   -0.06    0.04
   4   0  12   83.08    1.19
   4   0  12   86.10    1.43
   4   0  12   83.87    1.40
   5   0  12   -0.03    0.11
   5   0  12   -0.15    0.10
   6   0  12   17.96    0.54
   6   0  12   16.95    0.51
   7   0  12    0.07    0.13
   7   0  12    0.11    0.13
   8   0  12    1.49    0.20
   8   0  12    1.48    0.20
   9   0  12    0.08    0.13
   9   0  12    0.00    0.13
  10   0  12    0.18    0.16
  11   0  12   -0.20    0.13
 -13  -1  12    0.46    0.21
  13  -1 -12    0.33    0.19
  13   1 -12    0.18    0.17
 -13   1  12    0.24    0.19
  12  -1 -12    5.06    0.37
 -12  -1  12    5.32    0.38
 -12   1  12    4.88    0.36
  12   1 -12    5.18    0.37
  11  -1 -12   -0.02    0.13
 -11  -1  12    0.15    0.16
  11   1 -12    0.02    0.14
 -11   1  12    0.20    0.15
 -10  -1  12    0.10    0.14
  10  -1 -12   -0.05    0.13
 -10   1  12    0.12    0.15
  10   1 -12    0.01    0.13
   9  -1 -12    1.38    0.21
  -9  -1  12    1.61    0.22
  -9   1  12    1.27    0.21
   9   1 -12    1.26    0.19
  -8  -1  12    5.94    0.33
   8  -1 -12    5.60    0.33
   8   1 -12    5.51    0.32
  -8   1  12    6.49    0.34
   7  -1 -12    0.02    0.12
  -7  -1  12    0.03    0.10
   7   1 -12    0.00    0.11
  -7   1  12    0.14    0.13
  -6  -1  12   28.32    0.66
   6  -1 -12   28.88    0.69
   6   1 -12   29.27    0.65
  -6   1  12   29.32    0.66
  -5  -1  12   17.89    0.34
  -5  -1  12   18.35    0.48
   5   1 -12   17.11    0.45
  -5   1  12   17.41    0.47
  -4  -1  12    0.11    0.09
  -4  -1  12    0.07    0.06
  -4   1  12    0.03    0.06
  -4   1  12    0.06    0.09
  -3  -1  12   57.40    0.90
  -3  -1  12   56.27    0.96
  -3   1  12   57.22    0.98
  -3   1  12   57.29    0.90
  -2  -1  12    1.12    0.12
  -2  -1  12    1.02    0.11
  -2   1  12    1.19    0.12
  -1  -1  12   90.58    1.41
  -1  -1  12   93.85    1.38
  -1   1  12   92.41    1.41
  -1   1  12   95.89    1.41
   0  -1  12    3.98    0.16
   0  -1  12    4.19    0.20
   0   1  12    3.99    0.19
   0   1  12    3.98    0.18
   1  -1  12  160.24    2.33
   1  -1  12  161.09    2.17
   1   1  12  160.40    2.25
   1   1  12  160.53    2.32
   2  -1  12   24.08    0.57
   2  -1  12   24.91    0.40
   2   1  12   24.98    0.56
   2   1  12   25.67    0.50
   3  -1  12   20.11    0.50
   3  -1  12   20.39    0.52
   3   1  12   20.49    0.43
   3   1  12   19.98    0.51
   4  -1  12   27.04    0.64
   4  -1  12   27.01    0.64
   4   1  12   26.41    0.52
   4   1  12   27.82    0.64
   5  -1  12    0.02    0.10
   5  -1  12    0.70    0.16
   5   1  12    0.00    0.11
   5   1  12    0.02    0.09
   5   1  12    0.21    0.11
   6  -1  12    3.65    0.27
   6  -1  12    3.61    0.26
   6   1  12    3.42    0.24
   6   1  12    3.61    0.25
   7  -1  12    0.37    0.16
   7  -1  12    0.36    0.15
   7   1  12    0.37    0.16
   7   1  12    0.27    0.14
   8  -1  12    0.06    0.12
   8  -1  12   -0.04    0.12
   8   1  12   -0.04    0.12
   8   1  12    0.23    0.13
   9  -1  12    1.21    0.21
   9  -1  12    1.02    0.19
   9   1  12    1.26    0.21
   9   1  12    1.15    0.20
  10  -1  12   14.61    0.60
  10   1  12   14.38    0.58
  11  -1  12    0.53    0.19
  11   1  12    0.66    0.19
 -12  -2  12    0.05    0.18
  12  -2 -12    0.28    0.17
 -12   2  12    0.06    0.16
 -11  -2  12   12.64    0.53
  11  -2 -12   12.54    0.56
 -11   2  12   12.96    0.51
  11   2 -12   12.44    0.52
  10  -2 -12   -0.02    0.13
 -10  -2  12    0.18    0.16
 -10   2  12    0.21    0.15
  10   2 -12    0.14    0.13
   9  -2 -12    5.86    0.36
  -9  -2  12    5.23    0.33
  -9   2  12    5.02    0.31
   9   2 -12    5.00    0.30
  -8  -2  12    2.49    0.24
   8  -2 -12    2.74    0.26
   8   2 -12    2.44    0.22
  -8   2  12    3.21    0.25
   7  -2 -12    8.07    0.39
  -7  -2  12    8.27    0.36
   7   2 -12    8.37    0.33
  -7   2  12    8.32    0.36
  -6  -2  12    6.23    0.30
   6  -2 -12    5.51    0.33
   6   2 -12    5.72    0.27
  -6   2  12    5.86    0.30
  -5  -2  12   58.51    0.91
   5  -2 -12   58.06    1.10
  -5  -2  12   56.25    1.04
  -5   2  12   57.39    1.04
   5   2 -12   55.99    0.99
  -4  -2  12    4.88    0.24
  -4  -2  12    4.59    0.20
  -4   2  12    5.25    0.25
  -3  -2  12   73.84    1.20
  -3  -2  12   74.90    1.15
  -3   2  12   72.32    1.15
  -3   2  12   71.78    1.21
  -2  -2  12    0.23    0.09
  -2  -2  12    0.33    0.09
  -2   2  12    0.36    0.10
  -2   2  12    0.15    0.09
  -1  -2  12    0.57    0.11
  -1  -2  12    0.50    0.09
  -1   2  12    0.44    0.11
  -1   2  12    0.50    0.10
   0  -2  12    5.46    0.25
   0  -2  12    5.37    0.19
   0   2  12    5.17    0.23
   0   2  12    5.77    0.25
   1  -2  12   24.55    0.57
   1  -2  12   24.70    0.43
   1   2  12   25.07    0.54
   1   2  12   24.86    0.56
   2  -2  12    0.83    0.07
   2  -2  12    0.60    0.13
   2   2  12    0.64    0.13
   2   2  12    0.72    0.12
   3  -2  12   12.06    0.40
   3  -2  12   12.39    0.39
   3   2  12   12.02    0.35
   3   2  12   12.20    0.40
   4  -2  12    1.14    0.15
   4  -2  12    1.19    0.17
   4   2  12    0.98    0.13
   4   2  12    1.11    0.16
   5  -2  12   42.69    0.89
   5  -2  12   42.99    0.91
   5   2  12   41.59    0.88
   5   2  12   41.42    0.80
   6  -2  12    8.39    0.38
   6  -2  12    8.44    0.37
   6   2  12    8.54    0.32
   6   2  12    8.13    0.36
   7  -2  12   30.95    0.78
   7  -2  12   31.21    0.79
   7   2  12   30.65    0.75
   8  -2  12    0.16    0.14
   8  -2  12   -0.02    0.13
   8   2  12    0.04    0.11
   8   2  12   -0.09    0.11
   9  -2  12   12.28    0.53
   9  -2  12   11.39    0.49
   9   2  12   11.78    0.47
   9   2  12   11.18    0.48
  10  -2  12    3.75    0.36
  10   2  12    3.52    0.32
  12  -3 -12   12.30    0.59
 -12  -3  12   12.37    0.58
 -11  -3  12    2.84    0.33
  11  -3 -12    2.86    0.32
 -11   3  12    3.07    0.29
 -10  -3  12    1.62    0.25
  10  -3 -12    1.33    0.23
 -10   3  12    1.54    0.23
  -9  -3  12    0.77    0.19
   9  -3 -12    0.86    0.19
  -9   3  12    0.88    0.18
   8  -3 -12   23.04    0.69
  -8  -3  12   22.08    0.67
  -8   3  12   22.52    0.63
  -7  -3  12    2.83    0.26
   7  -3 -12    2.54    0.25
  -7   3  12    2.75    0.22
  -6  -3  12   20.08    0.57
   6  -3 -12   19.63    0.58
   6  -3 -12   20.02    0.47
  -6   3  12   19.47    0.55
   6   3 -12   20.19    0.48
  -5  -3  12    9.73    0.37
   5  -3 -12   10.04    0.40
  -5  -3  12   10.65    0.32
   5   3 -12   10.57    0.31
  -5   3  12   10.02    0.37
  -4  -3  12    5.89    0.25
  -4  -3  12    6.40    0.30
  -4   3  12    6.34    0.30
  -3  -3  12   39.67    0.77
  -3  -3  12   41.45    0.80
  -3   3  12   39.58    0.81
  -2  -3  12    1.92    0.18
  -2  -3  12    2.45    0.18
  -2   3  12    2.02    0.18
  -1  -3  12   37.18    0.75
  -1  -3  12   38.33    0.70
  -1   3  12   36.40    0.75
   0  -3  12   14.36    0.35
   0  -3  12   14.75    0.43
   0   3  12   15.04    0.43
   0   3  12   14.24    0.43
   1  -3  12   13.99    0.44
   1  -3  12   13.84    0.32
   1   3  12   14.00    0.42
   1   3  12   14.30    0.44
   2  -3  12   56.81    1.08
   2   3  12   57.43    1.07
   2   3  12   59.17    1.06
   3  -3  12    0.28    0.12
   3  -3  12    0.07    0.09
   3   3  12    0.21    0.11
   3   3  12    0.17    0.12
   4  -3  12   36.37    0.77
   4  -3  12   35.05    0.81
   4   3  12   33.51    0.78
   4   3  12   35.64    0.76
   5  -3  12    1.37    0.19
   5  -3  12    1.16    0.19
   5   3  12    1.17    0.17
   5   3  12    1.17    0.18
   6  -3  12    0.35    0.13
   6  -3  12    0.16    0.14
   6   3  12    0.43    0.14
   6   3  12    0.55    0.16
   7  -3  12   -0.06    0.11
   7  -3  12    0.12    0.13
   7   3  12   -0.01    0.11
   7   3  12    0.15    0.14
   8  -3  12    3.70    0.30
   8  -3  12    4.41    0.32
   8   3  12    3.97    0.29
   9  -3  12    0.15    0.17
   9  -3  12    0.25    0.16
   9   3  12    0.03    0.16
  10  -3  12    2.44    0.31
 -11  -4  12   -0.07    0.17
  11  -4 -12    0.10    0.17
  10  -4 -12    0.13    0.16
 -10  -4  12    0.44    0.19
 -10   4  12    0.14    0.16
   9  -4 -12    0.96    0.21
  -9  -4  12    0.77    0.22
  -9   4  12    1.05    0.21
  -8  -4  12    5.74    0.37
   8  -4 -12    6.23    0.37
  -8   4  12    5.99    0.35
   7  -4 -12    1.30    0.20
  -7  -4  12    1.69    0.23
  -7   4  12    1.38    0.21
  -6  -4  12   30.25    0.77
   6  -4 -12   32.54    0.70
   6  -4 -12   30.79    0.78
  -6   4  12   30.14    0.75
   5  -4 -12   14.90    0.50
  -5  -4  12   14.61    0.43
  -5  -4  12   14.87    0.50
  -5   4  12   14.78    0.49
  -4  -4  12   37.28    0.78
  -4  -4  12   38.29    0.84
   4  -4 -12   37.23    0.83
  -4   4  12   39.11    0.85
  -3  -4  12    4.38    0.25
  -3  -4  12    4.18    0.26
  -3   4  12    4.44    0.26
  -2  -4  12    1.16    0.15
  -2  -4  12    0.71    0.15
  -2   4  12    0.50    0.13
  -1  -4  12    1.73    0.18
  -1  -4  12    1.61    0.20
  -1   4  12    2.39    0.23
   0  -4  12   38.13    0.72
   0  -4  12   37.53    0.83
   0   4  12   38.03    0.83
   1  -4  12    8.23    0.28
   1  -4  12    7.80    0.36
   1   4  12    7.74    0.35
   2  -4  12   40.55    0.89
   2   4  12   38.86    0.86
   3  -4  12    0.93    0.17
   3   4  12    1.09    0.18
   4  -4  12    8.30    0.40
   4  -4  12    9.31    0.36
   4   4  12    9.04    0.39
   5  -4  12    1.56    0.19
   5   4  12    1.71    0.21
   6  -4  12    0.09    0.12
   6  -4  12    0.08    0.14
   6   4  12   -0.15    0.11
   7  -4  12    0.02    0.14
   7  -4  12   -0.11    0.14
   7   4  12    0.07    0.14
   8  -4  12    0.62    0.18
   8  -4  12    0.66    0.19
   8   4  12    0.67    0.19
   9  -4  12    0.06    0.16
   9  -4  12   -0.02    0.18
  10  -5 -12    0.66    0.21
 -10  -5  12    0.49    0.21
   9  -5 -12    1.22    0.24
  -9  -5  12    1.84    0.28
  -9   5  12    1.20    0.23
  -8  -5  12    0.23    0.16
   8  -5 -12    0.29    0.17
  -8   5  12    0.22    0.17
  -7  -5  12    0.35    0.18
   7  -5 -12    0.37    0.16
  -7   5  12    0.17    0.15
   6  -5 -12    3.09    0.26
  -6  -5  12    2.57    0.28
   6  -5 -12    2.92    0.28
  -6   5  12    3.21    0.28
  -5  -5  12    2.05    0.22
  -5  -5  12    2.05    0.25
   5  -5 -12    2.22    0.24
   5  -5 -12    1.60    0.20
  -5   5  12    1.96    0.24
   4  -5 -12    0.45    0.14
  -4  -5  12    0.45    0.14
  -4  -5  12    0.31    0.14
  -4   5  12    0.40    0.15
  -3  -5  12    0.50    0.15
   3  -5 -12    0.53    0.15
  -3  -5  12    0.62    0.16
  -3   5  12    0.56    0.16
  -2  -5  12    0.29    0.13
  -2  -5  12    0.05    0.11
  -2   5  12    0.06    0.13
  -1  -5  12    5.11    0.28
  -1  -5  12    5.35    0.32
  -1   5  12    5.26    0.32
   0  -5  12    2.62    0.27
   0  -5  12    2.81    0.21
   0   5  12    2.16    0.24
   1  -5  12   39.48    0.92
   1   5  12   39.11    0.91
   2  -5  12    1.57    0.23
   2   5  12    1.53    0.22
   3  -5  12    3.80    0.29
   3   5  12    3.32    0.28
   4  -5  12   18.51    0.63
   4   5  12   17.41    0.60
   5  -5  12    1.16    0.22
   5   5  12    1.20    0.22
   6  -5  12   14.07    0.57
   6   5  12   13.57    0.55
   7  -5  12    0.71    0.21
   7   5  12    0.53    0.19
   8  -5  12    0.08    0.17
   8   5  12    0.31    0.17
  -8  -6  12    0.17    0.19
   8  -6 -12    0.06    0.16
  -8   6  12    0.02    0.16
  -7  -6  12    1.95    0.29
  -7   6  12    1.68    0.26
   6  -6 -12    0.20    0.17
  -6  -6  12    0.50    0.19
  -6   6  12    0.57    0.19
   5  -6 -12    0.04    0.15
  -5  -6  12    0.09    0.15
  -5  -6  12   -0.15    0.14
  -5   6  12   -0.08    0.13
  -4  -6  12    1.62    0.24
   4  -6 -12    1.72    0.24
  -4  -6  12    1.78    0.25
  -4   6  12    1.56    0.24
   3  -6 -12    0.59    0.19
  -3  -6  12    0.80    0.19
  -3  -6  12    0.73    0.19
  -3   6  12    0.81    0.19
  -2  -6  12    0.10    0.13
  -2  -6  12    0.04    0.14
  -2   6  12    0.01    0.14
  -1  -6  12    5.59    0.36
  -1  -6  12    5.44    0.32
  -1   6  12    5.54    0.37
   0  -6  12    3.15    0.28
   0   6  12    3.08    0.29
   1  -6  12    1.33    0.24
   1   6  12    1.50    0.24
   2  -6  12    3.36    0.33
   2   6  12    2.66    0.30
   3  -6  12    3.03    0.33
   3   6  12    2.94    0.33
   4  -6  12    1.72    0.27
   4   6  12    1.65    0.27
   5  -6  12    3.32    0.35
   5   6  12    2.92    0.33
   6  -6  12    2.32    0.30
   6   6  12    1.85    0.29
  -5  -7  12    1.62    0.26
   5  -7 -12    1.55    0.27
  -5  -7  12    1.28    0.25
  -5   7  12    1.82    0.28
  -4  -7  12    9.42    0.48
  -4  -7  12    8.82    0.47
   4  -7 -12    9.32    0.48
  -4   7  12    9.73    0.49
  -3  -7  12   13.94    0.58
  -3  -7  12   15.23    0.58
   3  -7 -12   13.60    0.57
  -3   7  12   15.42    0.62
  -2  -7  12    0.56    0.21
   2  -7 -12    0.56    0.21
  -2   7  12    0.66    0.23
   1  -7 -12    7.34    0.44
  -1  -7  12    7.47    0.45
  -1   7  12    7.03    0.44
   0  -7  12    0.54    0.20
   0   7  12    0.46    0.21
   1  -7  12    1.50    0.27
   1   7  12    1.18    0.24
   2  -7  12    1.40    0.26
   2   7  12    0.92    0.23
   3  -7  12    0.33    0.18
   3   7  12    0.25    0.19
 -13   0  13    0.28    0.20
  13   0 -13   -0.02    0.17
  12   0 -13    0.26    0.16
 -12   0  13    0.37    0.20
  11   0 -13    2.61    0.28
 -11   0  13    3.23    0.28
 -10   0  13   -0.10    0.11
  10   0 -13    0.08    0.12
  -9   0  13    0.62    0.17
   9   0 -13    0.88    0.18
   8   0 -13    0.02    0.10
  -8   0  13   -0.05    0.12
   7   0 -13    0.90    0.15
  -7   0  13    1.00    0.16
   6   0 -13   -0.05    0.08
  -6   0  13    0.11    0.10
  -5   0  13    0.90    0.14
  -5   0  13    0.97    0.09
  -4   0  13    0.04    0.09
  -4   0  13    0.05    0.06
  -3   0  13   28.87    0.54
  -3   0  13   30.79    0.62
  -2   0  13   -0.01    0.07
  -1   0  13  164.70    2.31
  -1   0  13  163.38    2.33
   1   0  13   17.36    0.44
   1   0  13   17.53    0.36
   2   0  13    0.10    0.06
   3   0  13    3.10    0.13
   3   0  13    2.90    0.20
   5   0  13   -0.20    0.11
   5   0  13   -0.25    0.09
   6   0  13   -0.09    0.11
   6   0  13    0.08    0.12
   7   0  13   18.98    0.57
   7   0  13   18.15    0.58
   8   0  13    0.05    0.13
   8   0  13    0.04    0.12
   9   0  13    4.98    0.34
   9   0  13    4.96    0.33
  10   0  13   -0.01    0.13
  11   0  13    0.08    0.14
 -13  -1  13   -0.14    0.16
 -13   1  13   -0.24    0.16
 -12  -1  13    8.76    0.47
  12  -1 -13    8.49    0.48
 -12   1  13    8.88    0.46
  12   1 -13    8.18    0.44
  11  -1 -13    8.10    0.45
 -11  -1  13    7.91    0.42
  11   1 -13    8.38    0.43
 -11   1  13    8.10    0.42
 -10  -1  13    2.01    0.25
  10  -1 -13    1.65    0.24
  10   1 -13    1.43    0.21
 -10   1  13    1.80    0.23
  -9  -1  13   10.18    0.43
   9  -1 -13   10.26    0.45
   9   1 -13   10.85    0.44
  -9   1  13   11.23    0.45
  -8  -1  13   11.24    0.44
   8  -1 -13   10.48    0.45
   8   1 -13   10.27    0.41
  -8   1  13   10.83    0.42
   7  -1 -13   10.68    0.43
  -7  -1  13   11.34    0.41
  -7   1  13   10.43    0.40
   7   1 -13   10.21    0.39
  -6  -1  13   18.02    0.51
   6  -1 -13   18.06    0.53
   6   1 -13   18.73    0.51
  -6   1  13   18.65    0.52
  -5  -1  13    2.50    0.13
  -5  -1  13    2.28    0.18
  -5   1  13    2.26    0.20
  -4  -1  13    8.57    0.25
  -4  -1  13    8.08    0.30
  -4   1  13    8.67    0.25
  -4   1  13    8.60    0.31
  -3  -1  13   23.67    0.52
  -3  -1  13   22.98    0.47
  -3   1  13   23.49    0.53
  -3   1  13   22.94    0.47
  -2  -1  13   12.46    0.33
  -2  -1  13   11.93    0.32
  -2   1  13   11.75    0.32
  -2   1  13   12.10    0.34
  -1  -1  13   64.40    1.01
  -1  -1  13   63.51    1.05
  -1   1  13   64.29    1.04
  -1   1  13   63.27    1.04
   0  -1  13   83.31    1.33
   0  -1  13   83.77    1.23
   0   1  13   85.11    1.33
   0   1  13   81.64    1.27
   1  -1  13    0.46    0.11
   1   1  13    0.42    0.09
   1   1  13    0.69    0.12
   2  -1  13  143.49    1.97
   2  -1  13  146.63    2.20
   2   1  13  146.60    2.19
   2   1  13  149.68    2.08
   3  -1  13    2.54    0.21
   3   1  13    2.88    0.20
   3   1  13    2.26    0.15
   4  -1  13   13.66    0.44
   4  -1  13   13.33    0.43
   4   1  13   12.94    0.43
   4   1  13   12.70    0.33
   5  -1  13   30.88    0.74
   5  -1  13   31.77    0.75
   5   1  13   32.56    0.60
   5   1  13   30.86    0.72
   6  -1  13    0.15    0.11
   6  -1  13    0.24    0.13
   6   1  13   -0.04    0.10
   6   1  13    0.04    0.12
   7  -1  13   12.82    0.48
   7  -1  13   11.94    0.48
   7   1  13   12.67    0.46
   7   1  13   11.88    0.45
   8  -1  13    2.21    0.24
   8  -1  13    2.77    0.26
   8   1  13    2.29    0.25
   8   1  13    2.21    0.24
   9  -1  13    7.42    0.40
   9  -1  13    7.23    0.42
   9   1  13    7.13    0.38
   9   1  13    7.47    0.41
  10  -1  13    2.64    0.31
  10   1  13    2.33    0.28
  11  -1  13    0.48    0.18
  11   1  13    0.53    0.18
 -12  -2  13    2.61    0.32
  12  -2 -13    2.89    0.33
 -12   2  13    2.64    0.30
 -11  -2  13    0.23    0.18
  11  -2 -13    0.13    0.17
 -11   2  13    0.17    0.17
  11   2 -13    0.24    0.18
 -10  -2  13    1.26    0.22
  10  -2 -13    1.42    0.23
  10   2 -13    1.41    0.20
 -10   2  13    1.45    0.23
   9  -2 -13    9.15    0.44
  -9  -2  13    9.10    0.42
  -9   2  13    9.86    0.41
   9   2 -13    9.73    0.40
  -8  -2  13   10.81    0.45
   8  -2 -13   11.11    0.46
   8   2 -13   10.82    0.40
  -8   2  13   10.88    0.43
   7  -2 -13    2.72    0.25
  -7  -2  13    2.91    0.24
  -7   2  13    2.68    0.24
   7   2 -13    2.41    0.22
   6  -2 -13   83.62    1.51
  -6  -2  13   85.27    1.46
  -6   2  13   84.49    1.45
   6   2 -13   83.78    1.39
  -5  -2  13    5.69    0.27
  -5  -2  13    5.22    0.20
  -5   2  13    5.16    0.27
   5   2 -13    5.41    0.25
  -4  -2  13  149.95    2.25
  -4  -2  13  152.93    2.15
  -4   2  13  150.89    2.26
  -3  -2  13    3.99    0.21
  -3  -2  13    4.28    0.20
  -3   2  13    3.66    0.19
  -3   2  13    4.17    0.23
  -2  -2  13   78.00    1.25
  -2  -2  13   80.47    1.25
  -2   2  13   77.96    1.25
  -2   2  13   78.12    1.29
  -1  -2  13    0.06    0.08
  -1  -2  13    0.05    0.07
  -1   2  13    0.02    0.08
  -1   2  13    0.00    0.07
   0  -2  13    3.27    0.21
   0  -2  13    3.34    0.16
   0   2  13    3.41    0.19
   0   2  13    3.33    0.20
   1  -2  13   14.94    0.31
   1  -2  13   15.38    0.44
   1   2  13   14.97    0.43
   1   2  13   15.01    0.40
   2  -2  13   35.88    0.78
   2   2  13   37.94    0.78
   2   2  13   37.88    0.72
   3  -2  13    0.05    0.09
   3   2  13    0.01    0.07
   3   2  13    0.06    0.09
   4  -2  13    0.10    0.09
   4  -2  13   -0.11    0.10
   4   2  13   -0.02    0.08
   4   2  13    0.08    0.11
   5  -2  13   -0.04    0.11
   5  -2  13    0.28    0.14
   5   2  13    0.04    0.09
   5   2  13    0.05    0.12
   6  -2  13    0.14    0.13
   6  -2  13    0.15    0.12
   6   2  13    0.16    0.11
   6   2  13    0.28    0.14
   7  -2  13    0.15    0.13
   7  -2  13    0.15    0.13
   7   2  13    0.02    0.13
   8  -2  13   -0.04    0.12
   8  -2  13    0.15    0.14
   8   2  13    0.13    0.13
   9  -2  13    4.06    0.35
   9  -2  13    3.66    0.32
   9   2  13    4.02    0.31
  10  -2  13    3.06    0.33
  12  -3 -13    7.45    0.47
 -12  -3  13    8.03    0.48
  11  -3 -13    7.65    0.47
 -11  -3  13    7.75    0.45
 -11   3  13    7.69    0.41
 -10  -3  13    1.62    0.25
  10  -3 -13    1.32    0.22
 -10   3  13    1.38    0.22
  -9  -3  13   15.63    0.59
   9  -3 -13   16.90    0.61
  -9   3  13   16.95    0.56
   8  -3 -13    1.75    0.23
  -8  -3  13    1.98    0.26
  -8   3  13    2.50    0.24
   7  -3 -13    1.75    0.22
  -7  -3  13    1.58    0.22
  -7   3  13    1.55    0.19
   6  -3 -13    1.82    0.17
  -6  -3  13    1.92    0.22
   6  -3 -13    1.35    0.19
   6   3 -13    1.64    0.16
  -6   3  13    1.89    0.21
  -5  -3  13   21.55    0.49
  -5  -3  13   20.32    0.57
   5  -3 -13   21.62    0.60
   5   3 -13   21.92    0.48
  -5   3  13   20.65    0.57
  -4  -3  13   16.88    0.44
  -4  -3  13   17.25    0.49
  -4   3  13   16.50    0.49
  -3  -3  13  142.68    2.12
  -3  -3  13  141.25    2.08
  -3   3  13  135.73    2.14
  -2  -3  13    3.64    0.22
  -2   3  13    4.12    0.25
  -1  -3  13   53.09    0.98
  -1  -3  13   51.37    0.90
  -1   3  13   51.35    0.97
  -1   3  13   53.04    0.97
   0  -3  13    0.03    0.10
   0  -3  13   -0.01    0.07
   0   3  13    0.06    0.09
   0   3  13    0.20    0.11
   1  -3  13    3.60    0.16
   1  -3  13    3.66    0.24
   1   3  13    3.92    0.24
   1   3  13    3.67    0.22
   2  -3  13    0.02    0.11
   2   3  13    0.20    0.12
   2   3  13    0.14    0.10
   3  -3  13    4.13    0.26
   3   3  13    4.05    0.27
   3   3  13    3.94    0.24
   4  -3  13   16.00    0.48
   4  -3  13   16.20    0.54
   4   3  13   16.02    0.48
   4   3  13   16.61    0.52
   5  -3  13    2.04    0.21
   5  -3  13    2.35    0.25
   5   3  13    2.09    0.23
   5   3  13    2.17    0.22
   6  -3  13   14.48    0.53
   6  -3  13   14.67    0.51
   6   3  13   15.27    0.49
   6   3  13   14.54    0.51
   7  -3  13    4.31    0.30
   7  -3  13    3.90    0.31
   7   3  13    4.21    0.28
   7   3  13    4.11    0.30
   8  -3  13    0.37    0.17
   8  -3  13    0.31    0.16
   8   3  13    0.43    0.17
   9  -3  13   18.72    0.65
   9  -3  13   18.50    0.67
   9   3  13   18.40    0.62
  10  -3  13    0.19    0.18
 -11  -4  13    3.99    0.38
  11  -4 -13    4.82    0.39
 -10  -4  13    1.15    0.25
  10  -4 -13    0.83    0.22
 -10   4  13    0.85    0.21
  -9  -4  13    7.08    0.41
   9  -4 -13    6.94    0.41
  -9   4  13    7.10    0.39
   8  -4 -13   13.05    0.53
  -8  -4  13   12.30    0.52
  -8   4  13   11.63    0.47
   7  -4 -13    0.08    0.14
  -7  -4  13    0.27    0.16
  -7   4  13   -0.10    0.13
   6  -4 -13   10.53    0.38
  -6  -4  13    9.36    0.42
   6  -4 -13    9.66    0.42
  -6   4  13    9.98    0.41
   5  -4 -13    1.34    0.19
  -5  -4  13    1.05    0.19
  -5  -4  13    1.17    0.17
  -5   4  13    1.63    0.20
  -4  -4  13   33.00    0.77
   4  -4 -13   34.19    0.79
  -4  -4  13   33.75    0.74
  -4   4  13   35.12    0.80
  -3  -4  13    7.71    0.33
  -3  -4  13    6.98    0.32
  -3   4  13    7.33    0.34
  -2  -4  13    0.18    0.11
  -2  -4  13    0.23    0.11
  -2   4  13    0.19    0.12
  -1  -4  13   78.35    1.38
  -1  -4  13   79.41    1.29
  -1   4  13   76.34    1.38
   0  -4  13   25.63    0.67
   0  -4  13   26.26    0.57
   0   4  13   26.83    0.68
   1  -4  13   36.75    0.84
   1   4  13   37.40    0.84
   2  -4  13    0.04    0.12
   2   4  13    0.06    0.11
   3  -4  13    0.40    0.14
   3   4  13    0.29    0.12
   4  -4  13    0.56    0.13
   4  -4  13    0.58    0.17
   4   4  13    0.62    0.15
   4   4  13    0.51    0.16
   5  -4  13    6.67    0.34
   5  -4  13    6.07    0.35
   5   4  13    7.82    0.38
   5   4  13    6.21    0.34
   6  -4  13    0.88    0.20
   6  -4  13    0.93    0.17
   6   4  13    0.97    0.19
   6   4  13    0.94    0.20
   7  -4  13   16.28    0.57
   7  -4  13   15.26    0.58
   7   4  13   15.73    0.55
   8  -4  13    0.21    0.15
   8  -4  13    0.69    0.19
   9  -4  13   10.61    0.52
   9  -4  13   10.24    0.51
   9  -5 -13    3.30    0.33
  -9  -5  13    3.41    0.33
  -9   5  13    3.60    0.33
  -8  -5  13    0.53    0.21
   8  -5 -13    0.44    0.18
  -8   5  13    0.61    0.19
   7  -5 -13   14.63    0.56
  -7  -5  13   14.43    0.58
  -7   5  13   14.46    0.54
   6  -5 -13    1.37    0.22
  -6  -5  13    1.17    0.23
   6  -5 -13    1.25    0.20
  -6   5  13    1.79    0.24
   5  -5 -13    0.23    0.15
   5  -5 -13    0.27    0.14
  -5  -5  13    0.27    0.15
  -5  -5  13    0.23    0.14
  -5   5  13    0.45    0.17
   4  -5 -13    0.74    0.16
  -4  -5  13    0.68    0.17
  -4  -5  13    0.71    0.17
  -4   5  13    0.66    0.17
   3  -5 -13    9.86    0.40
  -3  -5  13    9.94    0.40
  -3  -5  13   10.96    0.43
  -3   5  13   10.15    0.43
  -2  -5  13    2.62    0.23
  -2  -5  13    2.84    0.23
  -2   5  13    2.76    0.24
  -1  -5  13    5.59    0.32
  -1  -5  13    5.96    0.30
  -1   5  13    5.18    0.32
   0  -5  13    2.42    0.26
   0   5  13    2.79    0.28
   1  -5  13    0.17    0.14
   1   5  13    0.22    0.15
   2  -5  13   14.10    0.53
   2   5  13   14.39    0.52
   3  -5  13    3.29    0.29
   3   5  13    3.58    0.29
   4  -5  13   25.94    0.76
   4   5  13   25.31    0.74
   5  -5  13    1.91    0.27
   5   5  13    1.49    0.23
   6  -5  13    5.87    0.40
   6   5  13    5.70    0.38
   7  -5  13    3.34    0.32
   7   5  13    3.07    0.30
   8  -5  13    0.09    0.18
   8  -6 -13    9.03    0.48
  -8  -6  13    8.79    0.51
  -8   6  13    9.12    0.48
  -7  -6  13    0.99    0.23
  -7   6  13    0.92    0.22
   6  -6 -13   20.28    0.64
  -6  -6  13   21.10    0.71
  -6   6  13   18.70    0.66
   5  -6 -13    0.32    0.17
  -5  -6  13    0.18    0.15
  -5  -6  13    0.21    0.17
  -5   6  13    0.12    0.15
   4  -6 -13   16.81    0.59
  -4  -6  13   16.40    0.57
  -4  -6  13   16.25    0.58
  -4   6  13   16.72    0.61
  -3  -6  13    6.79    0.38
  -3  -6  13    7.36    0.40
  -3   6  13    7.58    0.41
  -2  -6  13   11.00    0.48
  -2  -6  13   11.74    0.46
  -2   6  13   11.12    0.50
  -1  -6  13    5.66    0.37
  -1   6  13    5.77    0.39
   0  -6  13    0.04    0.14
   0   6  13   -0.08    0.16
   1  -6  13    1.89    0.26
   1   6  13    1.97    0.28
   2  -6  13    4.70    0.35
   2   6  13    4.54    0.36
   3  -6  13    0.27    0.17
   3   6  13    0.21    0.17
   4  -6  13    0.49    0.19
   4   6  13    0.18    0.17
   5  -6  13    0.81    0.22
   5   6  13    1.04    0.24
   6  -6  13    2.84    0.34
   6   6  13    2.72    0.33
  -5  -7  13    1.40    0.26
   5  -7 -13    1.53    0.26
  -5  -7  13    1.69    0.26
  -5   7  13    1.56    0.27
   4  -7 -13    1.06    0.24
  -4  -7  13    0.84    0.22
  -4  -7  13    0.64    0.21
  -4   7  13    0.73    0.23
  -3  -7  13   15.94    0.60
   3  -7 -13   16.78    0.64
  -3  -7  13   15.60    0.62
  -3   7  13   15.76    0.63
   2  -7 -13    2.11    0.29
  -2  -7  13    2.55    0.31
  -2   7  13    2.09    0.30
  -1  -7  13    1.49    0.27
  -1   7  13    1.64    0.27
   0  -7  13    0.27    0.18
   0   7  13    0.50    0.19
   1  -7  13    0.10    0.18
   1   7  13    0.19    0.17
   2  -7  13    0.03    0.16
   2   7  13    0.05    0.15
   3  -7  13    2.33    0.32
   3   7  13    1.93    0.30
 -12   0  14   10.96    0.52
  12   0 -14   10.67    0.52
  11   0 -14    0.23    0.14
 -11   0  14    0.09    0.15
 -10   0  14    1.97    0.26
  10   0 -14    2.07    0.25
  -9   0  14    0.20    0.15
   9   0 -14    0.20    0.13
  -8   0  14   11.59    0.44
   8   0 -14   11.89    0.45
   7   0 -14    0.06    0.10
  -7   0  14    0.02    0.10
  -6   0  14    3.15    0.22
   6   0 -14    3.27    0.23
  -5   0  14    0.02    0.05
  -5   0  14   -0.01    0.08
  -4   0  14  230.35    3.25
  -4   0  14  226.87    3.09
  -3   0  14    0.06    0.08
  -3   0  14    0.13    0.07
  -2   0  14   73.56    1.17
  -2   0  14   70.83    1.14
   0   0  14   75.44    1.23
   0   0  14   75.57    1.16
   1   0  14    0.41    0.11
   2   0  14   44.74    0.73
   2   0  14   45.89    0.88
   3   0  14    0.06    0.10
   3   0  14    0.11    0.06
   4   0  14    2.17    0.21
   5   0  14   -0.06    0.10
   5   0  14    0.02    0.12
   6   0  14    0.35    0.15
   6   0  14    0.28    0.13
   7   0  14    0.29    0.15
   7   0  14    0.04    0.11
   8   0  14    2.56    0.25
   8   0  14    2.71    0.26
   9   0  14   -0.33    0.13
   9   0  14    0.00    0.14
  10   0  14    4.84    0.37
  12  -1 -14    0.03    0.15
 -12  -1  14    0.23    0.18
  12   1 -14    0.44    0.17
 -12   1  14   -0.09    0.16
  11  -1 -14    7.23    0.43
 -11  -1  14    7.03    0.41
 -11   1  14    7.14    0.40
  11   1 -14    6.86    0.39
 -10  -1  14    2.68    0.26
  10  -1 -14    2.97    0.30
 -10   1  14    3.17    0.29
  10   1 -14    3.10    0.27
   9  -1 -14   31.20    0.83
  -9  -1  14   31.16    0.79
  -9   1  14   31.25    0.79
   9   1 -14   30.59    0.77
   8  -1 -14    1.33    0.21
  -8  -1  14    1.71    0.21
  -8   1  14    2.10    0.23
   8   1 -14    1.57    0.21
   7  -1 -14   45.71    0.99
  -7  -1  14   45.95    0.95
   7   1 -14   45.04    0.93
  -7   1  14   45.85    0.95
  -6  -1  14    5.04    0.27
   6  -1 -14    4.85    0.28
   6   1 -14    4.89    0.27
  -6   1  14    5.49    0.28
  -5  -1  14   13.66    0.42
  -5  -1  14   13.71    0.31
  -5   1  14   13.52    0.43
  -5   1  14   13.24    0.31
  -4  -1  14   29.28    0.55
  -4  -1  14   29.50    0.64
  -4   1  14   29.51    0.55
  -4   1  14   28.82    0.64
  -3  -1  14    5.71    0.24
  -3  -1  14    5.38    0.22
  -3   1  14    5.85    0.22
  -3   1  14    5.58    0.24
  -2  -1  14    0.42    0.10
  -2  -1  14    0.37    0.09
  -2   1  14    0.44    0.10
  -2   1  14    0.20    0.08
  -1  -1  14   25.62    0.51
  -1  -1  14   23.97    0.54
  -1   1  14   24.01    0.53
  -1   1  14   25.34    0.53
   0  -1  14   32.93    0.68
   0  -1  14   32.64    0.59
   0   1  14   34.80    0.64
   0   1  14   32.74    0.67
   1  -1  14   38.29    0.78
   1  -1  14   39.45    0.64
   1   1  14   38.65    0.77
   1   1  14   39.09    0.70
   2  -1  14   67.24    0.96
   2  -1  14   64.95    1.17
   2   1  14   66.23    1.06
   2   1  14   66.83    1.16
   3  -1  14   12.66    0.41
   3   1  14   11.54    0.39
   3   1  14   12.36    0.32
   4  -1  14    4.14    0.26
   4   1  14    3.69    0.25
   4   1  14    3.48    0.19
   5  -1  14   50.62    1.02
   5  -1  14   49.58    1.02
   5   1  14   48.00    0.99
   6  -1  14   -0.16    0.11
   6  -1  14    0.11    0.12
   6   1  14    0.14    0.13
   7  -1  14    1.84    0.23
   7  -1  14    1.91    0.23
   7   1  14    1.88    0.23
   7   1  14    2.22    0.24
   8  -1  14    0.08    0.12
   8  -1  14    0.30    0.15
   8   1  14   -0.01    0.12
   8   1  14    0.33    0.14
   9  -1  14   14.34    0.57
   9  -1  14   14.26    0.54
   9   1  14   14.03    0.53
   9   1  14   13.91    0.55
  10  -1  14    0.74    0.20
  10   1  14    1.01    0.22
 -12  -2  14    1.44    0.27
  12  -2 -14    1.78    0.28
 -12   2  14    1.90    0.28
 -11  -2  14   -0.02    0.17
  11  -2 -14   -0.07    0.16
  11   2 -14   -0.14    0.14
 -11   2  14    0.36    0.19
 -10  -2  14    0.63    0.18
  10  -2 -14    0.67    0.19
 -10   2  14    0.47    0.18
  10   2 -14    0.57    0.16
   9  -2 -14    4.46    0.32
  -9  -2  14    4.47    0.33
  -9   2  14    4.43    0.30
   9   2 -14    4.86    0.31
  -8  -2  14    4.56    0.32
   8  -2 -14    5.11    0.34
   8   2 -14    4.45    0.29
  -8   2  14    4.54    0.30
   7  -2 -14    0.70    0.16
  -7  -2  14    0.84    0.17
  -7   2  14    1.20    0.18
   7   2 -14    1.20    0.17
   6  -2 -14    7.42    0.37
  -6  -2  14    7.46    0.34
  -6   2  14    6.86    0.33
   6   2 -14    7.13    0.31
  -5  -2  14    3.98    0.24
  -5  -2  14    3.94    0.19
  -5   2  14    3.84    0.25
  -4  -2  14   10.11    0.31
  -4  -2  14   10.21    0.37
  -4   2  14   10.55    0.37
  -3  -2  14   35.74    0.69
  -3  -2  14   38.20    0.74
  -3   2  14   37.58    0.71
  -3   2  14   36.31    0.75
  -2  -2  14    1.26    0.14
  -2  -2  14    1.43    0.16
  -2   2  14    1.09    0.14
  -1  -2  14   37.39    0.68
  -1  -2  14   36.89    0.74
  -1   2  14   37.87    0.74
  -1   2  14   37.93    0.74
   0  -2  14    6.89    0.23
   0  -2  14    6.64    0.28
   0   2  14    7.13    0.29
   0   2  14    6.70    0.27
   1  -2  14   20.59    0.55
   1  -2  14   21.55    0.41
   1   2  14   21.28    0.50
   1   2  14   21.82    0.54
   2  -2  14    5.84    0.29
   2   2  14    6.69    0.27
   2   2  14    6.72    0.30
   3  -2  14    2.57    0.21
   3   2  14    2.63    0.21
   3   2  14    2.57    0.18
   4  -2  14    0.13    0.14
   4  -2  14    0.21    0.11
   4   2  14    0.11    0.09
   4   2  14    0.12    0.11
   5  -2  14    0.19    0.13
   5  -2  14    0.02    0.10
   5   2  14   -0.10    0.11
   5   2  14   -0.08    0.08
   6  -2  14    0.60    0.17
   6  -2  14    0.70    0.16
   6   2  14    0.55    0.16
   7  -2  14    3.99    0.30
   7  -2  14    4.45    0.32
   7   2  14    4.47    0.31
   8  -2  14    0.07    0.14
   8  -2  14   -0.09    0.13
   8   2  14    0.20    0.14
   9  -2  14    0.05    0.15
   9  -2  14   -0.20    0.16
   9   2  14    0.09    0.15
  10  -2  14   -0.14    0.13
 -11  -3  14    3.01    0.34
  11  -3 -14    2.77    0.33
 -11   3  14    3.09    0.30
 -10  -3  14    0.76    0.21
  10  -3 -14    0.53    0.19
 -10   3  14    1.07    0.21
   9  -3 -14   12.73    0.54
  -9  -3  14   11.63    0.50
  -9   3  14   12.78    0.49
   8  -3 -14    4.15    0.32
  -8  -3  14    3.99    0.30
  -8   3  14    4.35    0.28
   7  -3 -14    2.06    0.24
  -7  -3  14    2.20    0.24
  -7   3  14    2.28    0.24
   6  -3 -14    2.91    0.26
  -6  -3  14    2.96    0.24
   6   3 -14    3.05    0.21
  -6   3  14    2.90    0.23
  -5  -3  14    8.79    0.36
   5  -3 -14    8.95    0.38
  -5  -3  14    8.36    0.31
   5   3 -14    9.16    0.30
  -5   3  14    8.18    0.35
  -4  -3  14   43.68    0.82
  -4  -3  14   41.26    0.86
  -4   3  14   42.40    0.89
  -3  -3  14    1.72    0.18
  -3  -3  14    2.02    0.19
  -3   3  14    1.66    0.19
  -2  -3  14   17.28    0.47
  -2  -3  14   16.45    0.44
  -2   3  14   16.17    0.48
  -1  -3  14    2.49    0.20
  -1  -3  14    2.43    0.18
  -1   3  14    2.65    0.20
  -1   3  14    2.77    0.21
   0  -3  14   39.39    0.70
   0  -3  14   39.44    0.83
   0   3  14   39.49    0.82
   0   3  14   38.89    0.81
   1  -3  14   16.66    0.51
   1   3  14   18.64    0.50
   1   3  14   16.89    0.50
   2  -3  14   74.98    1.36
   2   3  14   74.47    1.33
   2   3  14   76.63    1.31
   3  -3  14    0.19    0.12
   3   3  14   -0.05    0.11
   3   3  14    0.18    0.12
   4  -3  14   42.15    0.95
   4  -3  14   44.25    0.91
   4   3  14   41.84    0.88
   4   3  14   43.35    0.94
   5  -3  14    0.35    0.13
   5  -3  14    0.32    0.15
   5   3  14    0.38    0.14
   5   3  14    0.33    0.13
   6  -3  14    7.76    0.39
   6  -3  14    7.81    0.40
   6   3  14    8.19    0.40
   6   3  14    8.25    0.36
   7  -3  14   11.71    0.50
   7  -3  14   11.25    0.47
   7   3  14   10.98    0.46
   8  -3  14    0.32    0.16
   8  -3  14   -0.05    0.15
   8   3  14    0.38    0.17
   9  -3  14    0.34    0.18
   9  -3  14    0.53    0.20
   9   3  14    0.42    0.18
 -11  -4  14    0.19    0.20
  11  -4 -14    0.05    0.16
 -11   4  14    0.23    0.18
  10  -4 -14    0.17    0.16
 -10  -4  14    0.10    0.17
 -10   4  14   -0.06    0.15
   9  -4 -14    0.45    0.18
  -9  -4  14    0.19    0.18
  -9   4  14    0.39    0.17
   8  -4 -14    0.63    0.18
  -8  -4  14    0.54    0.18
  -8   4  14    0.58    0.18
  -7  -4  14    6.08    0.36
   7  -4 -14    5.57    0.35
  -7   4  14    5.10    0.32
  -6  -4  14    5.95    0.35
   6  -4 -14    5.90    0.30
   6  -4 -14    5.33    0.34
  -6   4  14    6.03    0.34
   5  -4 -14    6.43    0.35
  -5  -4  14    5.94    0.33
  -5  -4  14    6.12    0.30
  -5   4  14    6.40    0.35
  -4  -4  14   12.14    0.44
  -4  -4  14   11.83    0.41
  -4   4  14   12.21    0.45
  -3  -4  14    2.20    0.21
  -3  -4  14    2.20    0.21
  -3   4  14    2.24    0.21
  -2  -4  14    4.91    0.29
  -2  -4  14    5.57    0.27
  -2   4  14    4.70    0.29
  -1  -4  14   11.99    0.44
  -1  -4  14   12.31    0.39
  -1   4  14   12.44    0.45
   0  -4  14   10.30    0.33
   0  -4  14    9.90    0.41
   0   4  14   10.07    0.41
   1  -4  14   30.17    0.75
   1   4  14   28.73    0.72
   2  -4  14    5.60    0.32
   2   4  14    5.30    0.30
   3  -4  14    3.28    0.28
   3   4  14    3.69    0.26
   3   4  14    3.68    0.28
   4  -4  14    1.22    0.22
   4   4  14    1.00    0.20
   4   4  14    1.39    0.20
   5  -4  14    0.04    0.13
   5  -4  14    0.14    0.12
   5   4  14   -0.09    0.11
   5   4  14   -0.10    0.12
   6  -4  14    1.21    0.22
   6  -4  14    0.86    0.18
   6   4  14    0.95    0.19
   6   4  14    0.63    0.19
   7  -4  14    0.09    0.14
   7  -4  14    0.17    0.17
   7   4  14    0.14    0.15
   7   4  14    0.12    0.15
   8  -4  14   -0.02    0.16
   8  -4  14   -0.17    0.14
  -9  -5  14    6.38    0.43
   9  -5 -14    6.27    0.41
  -9   5  14    6.40    0.39
   8  -5 -14    0.34    0.17
  -8  -5  14    0.63    0.20
  -8   5  14    0.16    0.16
   7  -5 -14   19.47    0.66
  -7  -5  14   20.41    0.69
  -7   5  14   19.47    0.65
   6  -5 -14   26.77    0.76
  -6  -5  14   25.86    0.77
   6  -5 -14   27.65    0.71
  -6   5  14   26.81    0.76
  -5  -5  14    1.44    0.23
  -5  -5  14    1.46    0.21
   5  -5 -14    1.19    0.21
   5  -5 -14    1.92    0.23
  -5   5  14    1.55    0.23
  -4  -5  14   23.46    0.65
   4  -5 -14   24.08    0.68
  -4  -5  14   23.83    0.67
  -4   5  14   22.93    0.68
  -3  -5  14    1.33    0.20
  -3  -5  14    1.81    0.23
   3  -5 -14    1.22    0.20
  -3   5  14    1.40    0.20
  -2  -5  14    5.44    0.30
  -2  -5  14    5.13    0.32
  -2   5  14    5.24    0.32
  -1  -5  14    2.54    0.26
  -1  -5  14    2.48    0.21
  -1   5  14    2.21    0.25
   0  -5  14    1.11    0.20
   0   5  14    1.04    0.21
   1  -5  14    1.40    0.21
   1   5  14    1.27    0.21
   2  -5  14   16.12    0.58
   2   5  14   16.45    0.56
   3  -5  14    0.59    0.19
   3   5  14    0.81    0.20
   4  -5  14    0.14    0.15
   4   5  14    0.34    0.16
   5  -5  14   -0.01    0.15
   5   5  14   -0.06    0.14
   6  -5  14    0.88    0.23
   6   5  14    0.71    0.20
   7  -5  14    0.48    0.21
   7   5  14    0.40    0.18
  -7  -6  14    2.84    0.34
   7  -6 -14    2.69    0.29
  -7   6  14    2.44    0.29
  -6  -6  14   -0.02    0.16
  -6   6  14   -0.09    0.13
  -5  -6  14    0.00    0.15
  -5  -6  14    0.21    0.16
   5  -6 -14    0.04    0.15
  -5   6  14    0.25    0.17
  -4  -6  14   -0.05    0.14
  -4  -6  14    0.00    0.15
   4  -6 -14   -0.16    0.14
  -4   6  14    0.04    0.16
  -3  -6  14   13.69    0.53
  -3  -6  14   12.61    0.52
  -3   6  14   14.47    0.57
  -2  -6  14    2.75    0.27
  -2  -6  14    2.59    0.28
  -2   6  14    2.75    0.31
  -1  -6  14   48.45    1.13
  -1   6  14   49.43    1.14
   0  -6  14    2.16    0.27
   0   6  14    2.98    0.32
   1  -6  14   45.70    1.11
   1   6  14   46.74    1.11
   2  -6  14    3.24    0.34
   2   6  14    2.72    0.32
   3  -6  14    1.71    0.27
   3   6  14    2.01    0.28
   4  -6  14   -0.02    0.15
   4   6  14    0.32    0.18
   5  -6  14   15.89    0.64
   5   6  14   14.87    0.62
  -4  -7  14    3.40    0.35
  -4  -7  14    3.52    0.33
   4  -7 -14    3.41    0.32
  -4   7  14    3.70    0.36
   3  -7 -14    0.10    0.18
  -3  -7  14    0.36    0.20
  -3   7  14    0.09    0.16
   2  -7 -14    0.33    0.19
  -2  -7  14   -0.09    0.15
  -2   7  14   -0.12    0.14
  -1  -7  14    4.76    0.39
  -1   7  14    4.98    0.39
   0  -7  14    4.90    0.39
   0   7  14    5.08    0.38
   1  -7  14    1.06    0.24
   1   7  14    0.95    0.23
   2  -7  14    2.68    0.33
   2   7  14    2.80    0.34
 -12   0  15   -0.17    0.15
  12   0 -15    0.05    0.14
  11   0 -15    9.14    0.46
 -11   0  15    8.99    0.45
  10   0 -15   -0.06    0.12
 -10   0  15   -0.06    0.14
  -9   0  15   23.76    0.69
   9   0 -15   23.11    0.69
   8   0 -15   -0.02    0.11
  -8   0  15    0.03    0.12
  -7   0  15    1.42    0.19
   7   0 -15    1.23    0.18
  -6   0  15    0.05    0.10
   6   0 -15   -0.01    0.09
  -5   0  15   24.22    0.60
  -5   0  15   23.47    0.45
  -4   0  15    0.17    0.10
  -4   0  15    0.14    0.07
  -3   0  15  139.64    2.03
  -3   0  15  143.19    2.11
  -2   0  15   -0.06    0.06
  -1   0  15   90.01    1.43
  -1   0  15   91.79    1.39
   1   0  15   34.01    0.60
   1   0  15   32.89    0.70
   2   0  15    0.06    0.06
   3   0  15    0.74    0.15
   3   0  15    0.69    0.08
   4   0  15    0.25    0.13
   5   0  15    2.53    0.22
   6   0  15    0.19    0.14
   6   0  15    0.07    0.11
   7   0  15    6.50    0.36
   7   0  15    6.94    0.36
   8   0  15   -0.02    0.12
   8   0  15   -0.03    0.12
   9   0  15    0.48    0.19
   9   0  15    0.66    0.19
  10   0  15   -0.03    0.15
  12  -1 -15    0.60    0.20
 -12  -1  15    0.67    0.22
 -12   1  15    0.70    0.22
  12   1 -15    0.79    0.20
 -11  -1  15    3.34    0.32
  11  -1 -15    3.52    0.33
 -11   1  15    2.65    0.30
  11   1 -15    2.98    0.29
 -10  -1  15   -0.09    0.14
  10  -1 -15   -0.21    0.13
  10   1 -15    0.07    0.12
 -10   1  15   -0.12    0.14
   9  -1 -15   20.34    0.66
  -9  -1  15   21.77    0.65
  -9   1  15   21.68    0.66
   9   1 -15   21.77    0.64
  -8  -1  15    0.56    0.16
   8  -1 -15    0.19    0.15
  -8   1  15    0.35    0.16
   8   1 -15    0.05    0.13
  -7  -1  15    2.02    0.22
   7  -1 -15    1.75    0.22
   7   1 -15    1.94    0.21
  -7   1  15    2.28    0.24
   6  -1 -15   25.97    0.67
  -6  -1  15   26.51    0.65
  -6   1  15   26.20    0.65
   6   1 -15   25.93    0.64
  -5  -1  15    9.16    0.26
  -5  -1  15    9.15    0.34
  -5   1  15    9.12    0.35
  -5   1  15    8.96    0.25
  -4  -1  15  149.92    2.24
  -4  -1  15  149.62    2.12
  -4   1  15  150.38    2.25
  -4   1  15  146.97    2.11
  -3  -1  15    0.54    0.10
  -3  -1  15    0.49    0.11
  -3   1  15    0.40    0.11
  -3   1  15    0.65    0.11
  -2  -1  15   97.92    1.49
  -2  -1  15   96.09    1.49
  -2   1  15   97.59    1.52
  -2   1  15   94.87    1.49
  -1  -1  15   25.32    0.52
  -1  -1  15   24.74    0.56
  -1   1  15   24.27    0.55
  -1   1  15   24.96    0.54
   0  -1  15   35.25    0.63
   0  -1  15   34.72    0.72
   0   1  15   35.30    0.67
   0   1  15   35.19    0.72
   1  -1  15   19.62    0.38
   1  -1  15   17.41    0.49
   1   1  15   19.29    0.50
   1   1  15   18.00    0.43
   2  -1  15   22.32    0.59
   2  -1  15   23.67    0.41
   2   1  15   24.68    0.60
   2   1  15   22.69    0.49
   3  -1  15    0.75    0.15
   3   1  15    1.09    0.16
   3   1  15    0.89    0.11
   4  -1  15   46.43    0.98
   4   1  15   48.18    0.82
   4   1  15   46.91    0.96
   5  -1  15    0.99    0.17
   5  -1  15    0.60    0.15
   6  -1  15    0.77    0.16
   6  -1  15    0.90    0.19
   6   1  15    0.76    0.17
   7  -1  15    9.95    0.43
   7  -1  15    9.79    0.44
   7   1  15    9.43    0.42
   8  -1  15    1.24    0.21
   8  -1  15    1.46    0.22
   8   1  15    1.76    0.23
   9  -1  15    8.10    0.43
   9  -1  15    8.24    0.46
   9   1  15    8.84    0.43
   9   1  15    7.64    0.42
  10  -1  15    0.30    0.18
  10   1  15    0.24    0.16
  12  -2 -15    9.64    0.52
 -12  -2  15    8.49    0.47
 -12   2  15    7.87    0.44
 -11  -2  15    0.06    0.16
  11  -2 -15   -0.08    0.15
  11   2 -15   -0.30    0.12
 -11   2  15    0.27    0.17
 -10  -2  15    3.32    0.30
  10  -2 -15    2.98    0.30
 -10   2  15    3.16    0.30
  10   2 -15    3.32    0.28
  -9  -2  15    1.98    0.26
   9  -2 -15    1.39    0.22
   9   2 -15    1.35    0.20
  -9   2  15    1.80    0.24
  -8  -2  15   30.11    0.79
   8  -2 -15   30.49    0.82
   8   2 -15   30.60    0.74
  -8   2  15   30.95    0.77
   7  -2 -15    0.51    0.16
  -7  -2  15    0.38    0.15
  -7   2  15    0.63    0.16
   7   2 -15    0.37    0.13
   6  -2 -15   11.95    0.46
  -6  -2  15   11.49    0.43
   6   2 -15   12.29    0.40
  -6   2  15   11.22    0.42
  -5  -2  15   17.15    0.50
  -5  -2  15   17.58    0.41
  -5   2  15   16.18    0.49
  -4  -2  15   30.37    0.67
  -4  -2  15   30.44    0.61
  -4   2  15   29.12    0.68
  -4   2  15   30.19    0.60
  -3  -2  15   17.62    0.45
  -3  -2  15   17.92    0.47
  -3   2  15   18.17    0.49
  -3   2  15   18.22    0.45
  -2  -2  15   21.01    0.51
  -2  -2  15   21.72    0.50
  -2   2  15   21.41    0.53
  -2   2  15   21.75    0.51
  -1  -2  15    8.52    0.28
  -1  -2  15    9.09    0.34
  -1   2  15    8.83    0.33
  -1   2  15    9.11    0.32
   0  -2  15    6.29    0.29
   0  -2  15    6.30    0.22
   0   2  15    6.45    0.27
   0   2  15    6.61    0.29
   1  -2  15   15.08    0.47
   1  -2  15   14.85    0.33
   1   2  15   14.90    0.46
   1   2  15   15.59    0.42
   2  -2  15   39.68    0.85
   2   2  15   39.16    0.77
   2   2  15   38.53    0.83
   3  -2  15    3.82    0.26
   3   2  15    3.91    0.26
   3   2  15    4.00    0.22
   4  -2  15   89.66    1.59
   4   2  15   91.88    1.58
   4   2  15   91.03    1.46
   5  -2  15    8.62    0.38
   5  -2  15    9.15    0.41
   5   2  15    9.20    0.40
   5   2  15    9.13    0.33
   6  -2  15   37.39    0.91
   6  -2  15   36.86    0.88
   6   2  15   37.04    0.87
   7  -2  15    0.11    0.15
   7  -2  15    0.10    0.13
   7   2  15    0.25    0.15
   8  -2  15    0.19    0.14
   8  -2  15    0.08    0.15
   8   2  15    0.27    0.15
   9  -2  15    0.48    0.19
   9  -2  15    0.32    0.18
   9   2  15    0.34    0.17
  10  -2  15    9.41    0.51
 -11  -3  15    3.01    0.35
  11  -3 -15    3.11    0.35
 -11   3  15    3.24    0.31
  10  -3 -15    0.58    0.20
 -10  -3  15    0.84    0.21
 -10   3  15    0.89    0.21
   9  -3 -15   14.93    0.59
  -9  -3  15   14.46    0.57
  -9   3  15   13.75    0.52
   8  -3 -15    0.25    0.15
  -8  -3  15    0.19    0.14
  -8   3  15    0.42    0.16
  -7  -3  15    1.83    0.23
   7  -3 -15    1.82    0.23
  -7   3  15    2.12    0.23
   6  -3 -15    8.64    0.40
  -6  -3  15    9.17    0.39
  -6   3  15    9.55    0.40
  -5  -3  15    6.37    0.27
  -5  -3  15    6.17    0.32
  -5   3  15    5.99    0.32
   5   3 -15    6.29    0.27
  -4  -3  15  107.87    1.66
  -4  -3  15  105.90    1.72
  -4   3  15  103.09    1.74
  -3  -3  15    2.97    0.22
  -3  -3  15    2.72    0.21
  -3   3  15    2.87    0.22
  -2  -3  15   27.69    0.61
  -2  -3  15   28.24    0.65
  -2   3  15   27.24    0.66
  -2   3  15   27.69    0.63
  -1  -3  15   -0.02    0.09
  -1  -3  15   -0.01    0.10
  -1   3  15    0.32    0.14
  -1   3  15    0.03    0.10
   0  -3  15    0.26    0.10
   0  -3  15    0.45    0.14
   0   3  15    0.50    0.12
   0   3  15    0.54    0.15
   1  -3  15    0.38    0.15
   1   3  15    0.00    0.11
   1   3  15    0.07    0.10
   2  -3  15   15.61    0.51
   2   3  15   15.61    0.47
   2   3  15   15.89    0.50
   3  -3  15    0.26    0.13
   3   3  15    0.38    0.13
   3   3  15    0.21    0.12
   4  -3  15   26.08    0.72
   4   3  15   27.65    0.72
   4   3  15   27.39    0.67
   5  -3  15    5.10    0.31
   5  -3  15    5.02    0.32
   5   3  15    5.24    0.31
   5   3  15    5.04    0.28
   6  -3  15    0.08    0.12
   6  -3  15   -0.02    0.14
   6   3  15    0.28    0.16
   6   3  15    0.02    0.11
   7  -3  15    3.17    0.28
   7  -3  15    3.61    0.31
   7   3  15    3.34    0.29
   8  -3  15    0.85    0.20
   8  -3  15    1.27    0.23
   8   3  15    1.06    0.21
   9  -3  15    0.45    0.19
   9  -3  15    0.69    0.21
   9   3  15    0.55    0.20
  10  -4 -15    0.05    0.16
 -10  -4  15    0.23    0.18
 -10   4  15    0.28    0.18
  -9  -4  15    4.74    0.37
   9  -4 -15    5.03    0.37
  -9   4  15    4.92    0.35
   8  -4 -15    2.58    0.29
  -8  -4  15    2.85    0.28
  -8   4  15    2.89    0.28
  -7  -4  15    6.15    0.37
   7  -4 -15    6.43    0.38
  -7   4  15    6.40    0.36
   6  -4 -15    0.20    0.13
  -6  -4  15    0.22    0.15
  -6   4  15    0.05    0.14
  -5  -4  15    8.18    0.39
  -5  -4  15    8.83    0.35
   5  -4 -15    8.21    0.39
  -5   4  15    7.45    0.37
  -4  -4  15    3.69    0.25
  -4  -4  15    3.74    0.27
  -4   4  15    3.63    0.26
  -3  -4  15    7.55    0.33
  -3  -4  15    7.83    0.34
  -3   4  15    7.37    0.35
  -2  -4  15    6.66    0.30
  -2  -4  15    6.63    0.33
  -2   4  15    6.59    0.33
  -1  -4  15   86.17    1.38
  -1  -4  15   82.29    1.48
  -1   4  15   82.56    1.49
   0  -4  15    0.22    0.14
   0   4  15    0.44    0.15
   1  -4  15   68.64    1.30
   1   4  15   66.22    1.27
   2  -4  15    0.46    0.16
   2   4  15    0.69    0.16
   2   4  15    0.59    0.17
   3  -4  15    5.78    0.34
   3   4  15    6.00    0.33
   3   4  15    5.71    0.35
   4  -4  15   14.15    0.54
   4   4  15   13.95    0.50
   4   4  15   14.93    0.54
   5  -4  15    0.37    0.16
   5   4  15    0.26    0.14
   5   4  15    0.26    0.16
   6  -4  15    2.81    0.31
   6  -4  15    2.31    0.25
   6   4  15    2.30    0.28
   6   4  15    2.73    0.26
   7  -4  15   -0.29    0.14
   7  -4  15    0.01    0.13
   7   4  15   -0.20    0.15
   8  -4  15    4.47    0.35
   8  -4  15    4.01    0.36
  -9  -5  15    0.85    0.24
   9  -5 -15    0.67    0.21
  -9   5  15    0.87    0.22
  -8  -5  15    0.80    0.21
   8  -5 -15    0.59    0.19
  -8   5  15    0.82    0.21
  -7  -5  15    1.24    0.24
   7  -5 -15    0.86    0.21
  -7   5  15    1.12    0.23
  -6  -5  15   16.77    0.61
   6  -5 -15   18.11    0.62
  -6   5  15   17.28    0.60
   5  -5 -15   11.84    0.49
  -5  -5  15   11.98    0.46
  -5  -5  15   10.89    0.47
  -5   5  15   11.00    0.48
  -4  -5  15   19.51    0.59
  -4  -5  15   19.22    0.60
   4  -5 -15   20.06    0.62
  -4   5  15   19.69    0.64
  -3  -5  15    7.84    0.37
  -3  -5  15    8.42    0.39
  -3   5  15    8.43    0.41
  -2  -5  15   23.47    0.62
  -2  -5  15   23.41    0.67
  -2   5  15   24.14    0.70
  -1  -5  15    2.78    0.25
  -1   5  15    2.18    0.25
   0  -5  15    5.23    0.33
   0   5  15    4.36    0.32
   1  -5  15    3.38    0.29
   1   5  15    3.45    0.29
   2  -5  15    4.60    0.35
   2   5  15    4.84    0.32
   3  -5  15    3.50    0.30
   3   5  15    3.67    0.31
   4  -5  15    4.60    0.35
   4   5  15    4.68    0.33
   5  -5  15    1.93    0.28
   5   5  15    1.88    0.26
   6  -5  15    0.44    0.19
   6   5  15    0.62    0.20
   7  -5  15    0.03    0.17
   7   5  15    0.14    0.17
   7  -6 -15    1.55    0.25
  -7  -6  15    1.62    0.28
  -7   6  15    1.44    0.26
  -6  -6  15    1.78    0.28
  -6   6  15    2.55    0.30
  -5  -6  15    5.19    0.35
   5  -6 -15    4.43    0.33
  -5  -6  15    4.35    0.33
  -5   6  15    4.14    0.33
  -4  -6  15    1.07    0.21
  -4  -6  15    1.02    0.22
   4  -6 -15    0.98    0.21
  -4   6  15    1.10    0.23
  -3  -6  15    4.21    0.33
  -3  -6  15    4.04    0.31
  -3   6  15    4.63    0.35
  -2  -6  15   -0.02    0.14
  -2   6  15    0.02    0.16
  -1  -6  15    0.10    0.17
  -1   6  15    0.03    0.16
   0  -6  15   10.40    0.50
   0   6  15   10.52    0.50
   1  -6  15    0.84    0.22
   1   6  15    0.48    0.19
   2  -6  15   14.43    0.60
   2   6  15   15.44    0.60
   3  -6  15    0.07    0.18
   3   6  15    0.14    0.17
   4  -6  15    8.99    0.49
   4   6  15    8.66    0.47
   5  -6  15    0.14    0.18
   5   6  15    0.06    0.17
   3  -7 -15    0.57    0.22
  -3  -7  15    0.57    0.21
  -3   7  15    0.66    0.21
   2  -7 -15    0.46    0.22
  -2  -7  15    0.56    0.22
  -2   7  15    0.83    0.22
  -1  -7  15    1.28    0.26
  -1   7  15    1.40    0.26
   0  -7  15    2.59    0.33
   0   7  15    2.51    0.32
   1  -7  15    0.48    0.21
   1   7  15    0.59    0.21
 -12   0  16    4.38    0.36
  12   0 -16    4.32    0.36
 -11   0  16   -0.09    0.15
  11   0 -16   -0.01    0.14
 -10   0  16    0.48    0.19
  10   0 -16    0.40    0.15
   9   0 -16   -0.08    0.11
  -9   0  16    0.02    0.14
   8   0 -16    0.19    0.13
  -8   0  16    0.04    0.13
  -7   0  16    0.03    0.11
   7   0 -16    0.09    0.11
  -6   0  16    0.42    0.13
  -5   0  16    0.06    0.06
  -5   0  16    0.06    0.10
  -4   0  16   10.20    0.30
  -4   0  16   10.80    0.37
  -3   0  16    0.15    0.10
  -2   0  16   13.66    0.39
  -2   0  16   13.82    0.38
   0   0  16   35.81    0.74
   0   0  16   35.91    0.66
   1   0  16    1.02    0.14
   2   0  16   25.89    0.50
   2   0  16   27.71    0.65
   3   0  16   -0.01    0.11
   4   0  16  242.01    3.53
   5   0  16    0.07    0.12
   6   0  16   49.52    1.06
   7   0  16   -0.04    0.13
   8   0  16    5.19    0.34
   8   0  16    5.65    0.36
   9   0  16    0.13    0.19
   9   0  16    0.51    0.17
  10   0  16    0.13    0.16
 -12  -1  16    3.06    0.34
  12  -1 -16    3.49    0.35
 -12   1  16    3.11    0.34
  12   1 -16    3.53    0.34
 -11  -1  16    1.31    0.24
  11  -1 -16    1.00    0.22
 -11   1  16    1.64    0.26
  11   1 -16    0.93    0.20
  10  -1 -16   -0.19    0.12
 -10  -1  16    0.13    0.15
 -10   1  16   -0.19    0.13
  10   1 -16   -0.03    0.13
   9  -1 -16   11.60    0.51
  -9  -1  16   10.95    0.47
   9   1 -16   11.65    0.47
  -9   1  16   10.17    0.45
   8  -1 -16   19.69    0.64
  -8  -1  16   19.01    0.60
   8   1 -16   19.57    0.59
  -8   1  16   20.03    0.61
  -7  -1  16    7.00    0.35
   7  -1 -16    6.01    0.34
   7   1 -16    6.89    0.34
  -7   1  16    6.77    0.35
  -6  -1  16    5.60    0.30
   6   1 -16    5.68    0.30
  -6   1  16    5.13    0.29
  -5  -1  16    0.20    0.08
  -5  -1  16    0.16    0.11
  -5   1  16   -0.17    0.08
  -5   1  16    0.04    0.07
  -4  -1  16    0.25    0.11
  -4   1  16    0.17    0.09
  -3  -1  16   12.64    0.38
  -3  -1  16   12.32    0.35
  -3   1  16   12.23    0.39
  -3   1  16   12.31    0.35
  -2  -1  16   43.62    0.81
  -2  -1  16   43.72    0.82
  -2   1  16   45.35    0.84
  -2   1  16   42.02    0.81
  -1  -1  16   85.07    1.39
  -1  -1  16   84.42    1.32
  -1   1  16   85.42    1.36
  -1   1  16   85.29    1.38
   0  -1  16    2.92    0.16
   0  -1  16    3.00    0.21
   0   1  16    3.47    0.21
   1  -1  16   69.62    1.05
   1  -1  16   69.46    1.23
   1   1  16   68.46    1.12
   1   1  16   67.96    1.21
   2  -1  16    7.11    0.32
   2   1  16    7.54    0.32
   2   1  16    7.17    0.26
   3  -1  16    2.18    0.21
   3   1  16    2.01    0.20
   3   1  16    2.15    0.16
   4  -1  16    0.81    0.18
   4   1  16    0.83    0.12
   5  -1  16   10.43    0.44
   5   1  16   10.26    0.42
   6  -1  16    0.84    0.17
   6  -1  16    1.16    0.21
   6   1  16    0.70    0.17
   7  -1  16    5.50    0.35
   7  -1  16    5.61    0.35
   7   1  16    4.96    0.32
   8  -1  16    4.22    0.34
   8  -1  16    4.16    0.32
   8   1  16    3.69    0.30
   9  -1  16    5.22    0.37
   9  -1  16    6.22    0.41
   9   1  16    5.76    0.37
  10  -1  16    0.03    0.16
  12  -2 -16    0.43    0.20
 -12  -2  16    0.34    0.22
 -12   2  16    0.17    0.19
  11  -2 -16   10.08    0.52
 -11  -2  16    9.83    0.50
 -11   2  16    9.09    0.46
  11   2 -16    9.29    0.45
 -10  -2  16    0.21    0.16
  10  -2 -16    0.24    0.16
  10   2 -16    0.28    0.15
 -10   2  16    0.61    0.19
   9  -2 -16   77.48    1.57
  -9  -2  16   75.52    1.50
   9   2 -16   81.81    1.46
  -9   2  16   78.27    1.49
  -8  -2  16    1.11    0.21
   8  -2 -16    1.44    0.22
  -8   2  16    1.72    0.23
   8   2 -16    1.16    0.19
   7  -2 -16   50.47    1.11
  -7  -2  16   49.40    1.05
   7   2 -16   49.74    1.00
  -7   2  16   48.90    1.04
   6  -2 -16    0.32    0.15
  -6  -2  16    0.34    0.14
  -6   2  16    0.16    0.14
   6   2 -16    0.24    0.11
  -5  -2  16    4.47    0.21
  -5  -2  16    4.25    0.26
  -5   2  16    4.19    0.27
  -4  -2  16   23.79    0.53
  -4  -2  16   24.12    0.60
  -4   2  16   23.19    0.60
  -4   2  16   23.30    0.53
  -3  -2  16   12.33    0.37
  -3  -2  16   12.41    0.39
  -3   2  16   11.87    0.40
  -3   2  16   12.75    0.38
  -2  -2  16    7.07    0.28
  -2  -2  16    6.93    0.29
  -2   2  16    7.09    0.30
  -2   2  16    7.57    0.29
  -1  -2  16   20.03    0.47
  -1  -2  16   20.64    0.53
  -1   2  16   20.13    0.52
  -1   2  16   19.52    0.51
   0  -2  16    7.27    0.25
   0  -2  16    7.52    0.32
   0   2  16    7.31    0.32
   0   2  16    7.07    0.29
   1  -2  16    0.66    0.10
   1  -2  16    0.37    0.14
   1   2  16    0.54    0.13
   1   2  16    0.54    0.12
   2  -2  16    0.04    0.13
   2   2  16    0.02    0.11
   2   2  16    0.00    0.08
   3  -2  16    1.41    0.20
   3   2  16    1.07    0.15
   3   2  16    1.37    0.19
   4  -2  16    0.05    0.14
   4   2  16    0.27    0.14
   4   2  16    0.25    0.11
   5  -2  16    0.04    0.12
   5   2  16    0.31    0.15
   5   2  16    0.27    0.11
   6  -2  16    0.28    0.15
   6  -2  16    0.06    0.14
   6   2  16    0.35    0.16
   7  -2  16    5.57    0.35
   7  -2  16    5.87    0.36
   7   2  16    5.57    0.35
   8  -2  16   -0.05    0.14
   8  -2  16   -0.24    0.14
   8   2  16   -0.16    0.13
   9  -2  16    6.76    0.42
   9  -2  16    6.44    0.40
   9   2  16    5.75    0.38
 -11  -3  16    0.55    0.22
  11  -3 -16    0.14    0.17
 -11   3  16    0.66    0.21
 -10  -3  16    0.39    0.20
  10  -3 -16    0.25    0.16
 -10   3  16    0.48    0.18
  -9  -3  16    0.33    0.18
   9  -3 -16    0.59    0.19
  -9   3  16    0.18    0.17
  -8  -3  16   -0.21    0.13
   8  -3 -16   -0.20    0.12
  -8   3  16    0.25    0.14
   7  -3 -16    0.82    0.18
  -7  -3  16    0.60    0.17
  -7   3  16    0.46    0.17
   6  -3 -16    1.72    0.22
  -6  -3  16    2.02    0.23
  -6   3  16    1.62    0.21
  -5  -3  16    6.88    0.29
  -5  -3  16    6.36    0.33
  -5   3  16    7.12    0.34
  -4  -3  16    0.53    0.14
  -4  -3  16    0.52    0.15
  -4   3  16    0.72    0.15
  -3  -3  16    5.92    0.28
  -3  -3  16    5.39    0.27
  -3   3  16    5.25    0.30
  -2  -3  16   39.57    0.83
  -2  -3  16   40.82    0.80
  -2   3  16   41.44    0.87
  -2   3  16   40.34    0.83
  -1  -3  16   71.63    1.28
  -1  -3  16   73.55    1.19
  -1   3  16   71.58    1.28
  -1   3  16   71.33    1.28
   0  -3  16   56.21    1.10
   0  -3  16   58.70    0.96
   0   3  16   57.42    1.10
   0   3  16   57.51    1.09
   1  -3  16   27.74    0.71
   1   3  16   28.24    0.70
   1   3  16   28.37    0.68
   2  -3  16    2.01    0.23
   2   3  16    1.39    0.21
   2   3  16    1.81    0.20
   3  -3  16    2.83    0.27
   3   3  16    2.23    0.24
   3   3  16    2.49    0.22
   4  -3  16    0.89    0.20
   4   3  16    1.25    0.18
   4   3  16    0.85    0.20
   5  -3  16    3.64    0.30
   5   3  16    3.77    0.28
   5   3  16    3.65    0.26
   6  -3  16    0.36    0.16
   6  -3  16    0.19    0.14
   6   3  16    0.25    0.16
   7  -3  16    3.70    0.33
   7  -3  16    3.88    0.31
   7   3  16    3.95    0.31
   8  -3  16    2.52    0.31
   8  -3  16    1.85    0.26
   8   3  16    2.88    0.30
   9  -3  16    4.56    0.36
   9  -3  16    4.27    0.37
   9   3  16    4.53    0.35
  10  -4 -16    4.26    0.37
 -10  -4  16    3.61    0.34
 -10   4  16    3.64    0.32
  -9  -4  16    0.61    0.21
   9  -4 -16    0.31    0.19
  -9   4  16    0.24    0.18
   8  -4 -16    2.44    0.29
  -8  -4  16    3.13    0.32
  -8   4  16    2.99    0.29
   7  -4 -16    0.25    0.16
  -7  -4  16   -0.08    0.14
  -7   4  16    0.07    0.14
  -6  -4  16    0.08    0.14
   6  -4 -16    0.33    0.16
  -6   4  16    0.29    0.15
  -5  -4  16    5.00    0.31
  -5  -4  16    4.67    0.28
   5  -4 -16    4.20    0.31
  -5   4  16    4.18    0.29
  -4  -4  16    0.51    0.14
  -4  -4  16    0.40    0.14
  -4   4  16    0.65    0.16
  -3  -4  16    1.01    0.17
  -3  -4  16    1.09    0.17
  -3   4  16    0.93    0.18
  -2  -4  16    0.06    0.10
  -2  -4  16    0.10    0.12
  -2   4  16   -0.03    0.12
  -1  -4  16    3.85    0.24
  -1  -4  16    3.96    0.29
  -1   4  16    3.86    0.27
   0  -4  16    0.14    0.13
   0   4  16   -0.01    0.11
   1  -4  16    1.44    0.22
   1   4  16    1.59    0.21
   1   4  16    1.62    0.21
   2  -4  16    7.42    0.39
   2   4  16    8.25    0.38
   2   4  16    8.02    0.38
   3  -4  16    0.40    0.17
   3   4  16    0.32    0.15
   3   4  16    0.24    0.13
   4  -4  16   15.89    0.58
   4   4  16   15.69    0.56
   4   4  16   16.37    0.54
   5  -4  16    9.00    0.45
   5   4  16    9.92    0.45
   5   4  16    9.22    0.41
   6  -4  16    6.08    0.40
   6   4  16    6.46    0.36
   6   4  16    6.36    0.38
   7  -4  16    1.26    0.22
   7  -4  16    1.51    0.25
   7   4  16    1.45    0.25
   8  -4  16    2.59    0.33
   8  -4  16    2.60    0.30
   8   4  16    2.86    0.32
  -9  -5  16    4.84    0.40
   9  -5 -16    5.58    0.39
  -9   5  16    4.76    0.36
   8  -5 -16    6.47    0.41
  -8  -5  16    6.40    0.42
  -8   5  16    5.96    0.39
  -7  -5  16    2.66    0.31
   7  -5 -16    2.92    0.31
  -7   5  16    3.10    0.32
  -6  -5  16   16.70    0.61
   6  -5 -16   16.88    0.61
  -6   5  16   17.18    0.61
  -5  -5  16   17.52    0.60
  -5  -5  16   18.04    0.57
   5  -5 -16   18.33    0.62
  -5   5  16   19.14    0.64
  -4  -5  16   18.56    0.59
  -4  -5  16   18.52    0.60
   4  -5 -16   19.28    0.61
  -4   5  16   18.48    0.62
  -3  -5  16   14.09    0.51
  -3  -5  16   13.94    0.49
  -3   5  16   13.84    0.53
  -2  -5  16    2.84    0.27
  -2  -5  16    3.23    0.25
  -2   5  16    3.09    0.28
  -1  -5  16    2.80    0.26
  -1   5  16    2.92    0.27
   0  -5  16    0.71    0.18
   0   5  16    0.84    0.19
   1  -5  16    6.26    0.37
   1   5  16    5.86    0.36
   2  -5  16    0.46    0.18
   2   5  16    0.36    0.16
   3   5  16    2.49    0.28
   4  -5  16    0.06    0.17
   4   5  16    0.11    0.15
   5  -5  16    0.25    0.18
   5   5  16   -0.08    0.14
   6  -5  16    0.33    0.20
   6   5  16    0.62    0.19
  -7  -6  16    6.79    0.44
   7  -6 -16    6.55    0.41
  -7   6  16    6.44    0.42
  -6  -6  16    0.55    0.20
  -6   6  16    0.78    0.21
   5  -6 -16    0.96    0.21
  -5  -6  16    1.27    0.24
  -5   6  16    1.52    0.25
  -4  -6  16    5.33    0.36
  -4  -6  16    5.11    0.37
  -4   6  16    5.08    0.37
  -3  -6  16    7.43    0.39
  -3  -6  16    7.63    0.42
  -3   6  16    7.69    0.43
  -2  -6  16    2.42    0.30
  -2   6  16    2.49    0.30
  -1  -6  16    5.12    0.38
  -1   6  16    5.31    0.38
   0  -6  16    1.25    0.24
   0   6  16    1.26    0.25
   1  -6  16    1.78    0.27
   1   6  16    1.40    0.25
   2  -6  16    0.05    0.15
   2   6  16    0.17    0.17
   3  -6  16    1.12    0.25
   3   6  16    0.98    0.23
   4  -6  16    0.15    0.17
   4   6  16    0.14    0.17
  -2  -7  16    0.06    0.18
  -2   7  16    0.21    0.19
  -1  -7  16   10.68    0.55
  -1   7  16   11.36    0.55
   0  -7  16    0.03    0.16
   0   7  16    0.16    0.18
  12   0 -17    0.15    0.17
 -12   0  17    0.23    0.19
  11   0 -17    4.22    0.35
 -11   0  17    4.88    0.35
 -10   0  17   -0.10    0.14
  10   0 -17    0.01    0.12
  -9   0  17   22.51    0.69
   9   0 -17   21.68    0.68
   8   0 -17   -0.11    0.10
  -8   0  17   -0.03    0.12
  -7   0  17   68.62    1.31
   7   0 -17   69.08    1.33
  -6   0  17    0.01    0.12
  -5   0  17   11.10    0.30
  -5   0  17   11.54    0.41
  -4   0  17   -0.04    0.09
  -4   0  17    0.15    0.09
  -3   0  17   39.98    0.75
  -3   0  17   40.25    0.80
  -2   0  17    0.31    0.10
  -2   0  17   -0.06    0.07
  -1   0  17   50.02    0.88
  -1   0  17   48.97    0.92
   1   0  17    3.73    0.18
   1   0  17    3.28    0.23
   2   0  17    0.17    0.07
   3   0  17    3.13    0.24
   5   0  17    1.77    0.22
   6   0  17    0.32    0.13
   7   0  17    8.06    0.41
   8   0  17    0.28    0.16
   9   0  17   20.76    0.69
 -12  -1  17    7.08    0.45
  12  -1 -17    7.33    0.46
 -12   1  17    6.41    0.41
  12   1 -17    6.51    0.41
  11  -1 -17    1.23    0.24
 -11  -1  17    1.45    0.26
 -11   1  17    1.40    0.24
  11   1 -17    1.33    0.22
 -10  -1  17    0.58    0.19
  10  -1 -17    0.68    0.20
  10   1 -17    0.44    0.16
 -10   1  17    0.66    0.20
   9  -1 -17   11.68    0.51
  -9  -1  17   11.21    0.48
   9   1 -17   11.42    0.48
  -9   1  17   11.11    0.48
   8  -1 -17    2.29    0.26
  -8  -1  17    2.50    0.27
  -8   1  17    3.19    0.29
   8   1 -17    2.65    0.26
   7  -1 -17    9.55    0.42
  -7  -1  17    9.57    0.41
   7   1 -17    9.45    0.39
  -7   1  17   10.22    0.42
  -6  -1  17    9.71    0.40
  -6   1  17    9.48    0.40
  -5  -1  17    1.35    0.19
  -5  -1  17    1.48    0.14
  -5   1  17    1.39    0.19
  -5   1  17    1.56    0.14
  -4  -1  17   11.28    0.39
  -4  -1  17   10.96    0.33
  -4   1  17   10.97    0.33
  -4   1  17   10.97    0.39
  -3  -1  17    0.02    0.08
  -3  -1  17   -0.01    0.08
  -3   1  17    0.06    0.09
  -3   1  17    0.02    0.08
  -2  -1  17    3.88    0.23
  -2  -1  17    3.64    0.21
  -2   1  17    4.79    0.24
  -2   1  17    3.51    0.22
  -1  -1  17   92.62    1.46
  -1  -1  17   94.02    1.54
  -1   1  17   98.21    1.54
  -1   1  17   97.07    1.51
   0  -1  17    1.37    0.13
   0  -1  17    1.60    0.18
   0   1  17    1.36    0.15
   0   1  17    1.66    0.18
   1  -1  17  143.99    2.01
   1  -1  17  143.27    2.22
   1   1  17  139.99    2.09
   1   1  17  146.41    2.21
   2  -1  17    2.11    0.21
   2   1  17    2.76    0.23
   2   1  17    2.33    0.17
   3  -1  17   12.44    0.45
   3   1  17   11.61    0.43
   3   1  17   11.90    0.34
   4  -1  17    0.53    0.17
   4   1  17    0.67    0.17
   5  -1  17    5.59    0.33
   5   1  17    5.85    0.34
   6  -1  17    0.88    0.19
   6   1  17    0.12    0.14
   7  -1  17    5.04    0.35
   7   1  17    5.35    0.35
   8  -1  17    7.58    0.42
   8  -1  17    7.63    0.43
   8   1  17    8.44    0.43
   9  -1  17   -0.13    0.15
   9  -1  17    0.20    0.16
   9   1  17    0.19    0.17
  12  -2 -17   -0.04    0.17
 -12  -2  17   -0.02    0.17
 -12   2  17    0.07    0.18
  11  -2 -17    0.18    0.16
 -11  -2  17    0.29    0.19
 -11   2  17    0.14    0.18
  10  -2 -17    0.03    0.15
 -10  -2  17    0.01    0.15
  10   2 -17    0.27    0.15
 -10   2  17    0.42    0.19
   9  -2 -17    1.99    0.27
  -9  -2  17    2.11    0.26
   9   2 -17    1.95    0.23
  -9   2  17    1.85    0.26
  -8  -2  17   12.18    0.48
   8  -2 -17   11.73    0.52
  -8   2  17   12.16    0.49
   8   2 -17   12.28    0.46
   7  -2 -17   -0.07    0.13
  -7  -2  17    0.36    0.15
   7   2 -17    0.06    0.12
  -7   2  17    0.16    0.14
  -6  -2  17   47.79    1.00
   6  -2 -17   49.36    1.07
  -6   2  17   48.94    1.01
   6   2 -17   47.12    0.96
  -5  -2  17    7.21    0.34
  -5  -2  17    8.38    0.29
  -5   2  17    7.29    0.35
  -4  -2  17   81.37    1.31
  -4  -2  17   80.65    1.38
  -4   2  17   80.60    1.31
  -4   2  17   80.00    1.40
  -3  -2  17    0.33    0.11
  -3  -2  17    0.28    0.11
  -3   2  17    0.11    0.10
  -3   2  17    0.20    0.12
  -2  -2  17   71.93    1.19
  -2  -2  17   70.56    1.22
  -2   2  17   70.28    1.21
  -2   2  17   69.07    1.23
  -1  -2  17   11.26    0.40
  -1  -2  17   11.48    0.35
  -1   2  17   10.80    0.39
  -1   2  17   11.52    0.38
   0  -2  17   16.89    0.40
   0  -2  17   18.08    0.51
   0   2  17   17.20    0.47
   0   2  17   17.46    0.51
   1  -2  17    1.27    0.19
   1   2  17    1.60    0.17
   1   2  17    1.48    0.19
   2  -2  17   31.72    0.78
   2   2  17   33.35    0.70
   2   2  17   32.42    0.77
   3  -2  17    0.63    0.17
   3   2  17    0.74    0.14
   3   2  17    0.63    0.16
   4  -2  17    3.60    0.28
   4   2  17    3.44    0.27
   4   2  17    3.62    0.23
   5  -2  17    6.70    0.37
   5   2  17    6.36    0.36
   6  -2  17    0.89    0.20
   6   2  17    1.04    0.20
   7  -2  17    1.73    0.25
   7  -2  17    1.65    0.23
   7   2  17    2.01    0.26
   8  -2  17    1.67    0.25
   8  -2  17    1.51    0.25
   8   2  17    1.77    0.25
   9  -2  17    0.19    0.17
   9  -2  17    0.20    0.16
   9   2  17    0.06    0.16
  11  -3 -17    0.08    0.18
 -11  -3  17    0.20    0.18
 -11   3  17    0.17    0.16
 -10  -3  17    3.51    0.36
  10  -3 -17    2.88    0.32
 -10   3  17    3.01    0.31
  -9  -3  17    4.51    0.34
   9  -3 -17    5.07    0.38
  -9   3  17    5.01    0.35
  -8  -3  17    0.43    0.17
   8  -3 -17    0.26    0.16
  -8   3  17    0.41    0.17
  -7  -3  17    2.41    0.26
   7  -3 -17    2.04    0.25
  -7   3  17    2.53    0.26
   6  -3 -17   27.42    0.76
  -6  -3  17   26.37    0.71
  -6   3  17   27.01    0.72
  -5  -3  17    2.89    0.21
  -5  -3  17    2.69    0.25
  -5   3  17    2.95    0.26
  -4  -3  17    3.46    0.23
  -4  -3  17    3.74    0.25
  -4   3  17    3.54    0.26
  -3  -3  17    2.76    0.22
  -3  -3  17    2.77    0.22
  -3   3  17    3.05    0.23
  -2  -3  17    3.46    0.23
  -2  -3  17    3.47    0.25
  -2   3  17    3.91    0.26
  -2   3  17    3.92    0.27
  -1  -3  17   76.09    1.23
  -1  -3  17   72.68    1.33
  -1   3  17   74.32    1.33
  -1   3  17   75.32    1.33
   0  -3  17    0.21    0.14
   0   3  17   -0.02    0.11
   0   3  17    0.34    0.13
   1  -3  17   69.32    1.30
   1   3  17   66.85    1.23
   1   3  17   67.65    1.27
   2  -3  17    4.54    0.30
   2   3  17    4.33    0.30
   2   3  17    4.52    0.27
   3  -3  17    1.71    0.23
   3   3  17    1.62    0.21
   3   3  17    2.12    0.22
   4  -3  17   31.02    0.82
   4   3  17   29.87    0.79
   4   3  17   30.54    0.73
   5  -3  17    2.31    0.27
   5   3  17    2.50    0.23
   5   3  17    2.15    0.25
   6  -3  17    3.79    0.33
   6   3  17    3.77    0.31
   7  -3  17    3.16    0.34
   7  -3  17    2.59    0.28
   7   3  17    2.84    0.30
   8  -3  17   -0.13    0.15
   8  -3  17    0.22    0.18
   8   3  17    0.10    0.15
 -10  -4  17    1.54    0.28
  10  -4 -17    1.66    0.27
 -10   4  17    1.94    0.27
  -9  -4  17   18.09    0.68
   9  -4 -17   18.09    0.68
  -9   4  17   18.93    0.65
  -8  -4  17    0.19    0.17
   8  -4 -17   -0.06    0.15
  -8   4  17   -0.20    0.14
  -7  -4  17   28.77    0.81
   7  -4 -17   30.34    0.85
  -7   4  17   29.50    0.81
   6  -4 -17    1.96    0.25
  -6  -4  17    1.52    0.22
  -6   4  17    1.39    0.22
  -5  -4  17    9.91    0.43
   5  -4 -17   10.36    0.46
  -5  -4  17   10.41    0.39
  -5   4  17   10.10    0.45
  -4  -4  17    4.05    0.28
  -4  -4  17    4.22    0.29
  -4   4  17    3.72    0.28
  -3  -4  17    0.21    0.14
  -3  -4  17    0.19    0.12
  -3   4  17    0.27    0.14
  -2  -4  17    0.49    0.14
  -2  -4  17    0.36    0.13
  -2   4  17    0.51    0.15
  -1  -4  17    4.33    0.25
  -1  -4  17    3.96    0.28
  -1   4  17    4.50    0.29
   0  -4  17    3.92    0.30
   0   4  17    4.22    0.29
   1  -4  17    1.16    0.20
   1   4  17    1.34    0.19
   1   4  17    1.21    0.21
   2  -4  17    0.57    0.17
   2   4  17    0.72    0.19
   2   4  17    0.74    0.17
   3  -4  17    3.35    0.29
   3   4  17    3.76    0.27
   3   4  17    3.12    0.31
   4  -4  17    1.57    0.25
   4   4  17    1.32    0.21
   4   4  17    1.39    0.24
   5  -4  17    0.14    0.16
   5   4  17   -0.02    0.13
   5   4  17    0.10    0.15
   6  -4  17    0.15    0.17
   6   4  17    0.03    0.15
   6   4  17    0.18    0.15
   7  -4  17    9.98    0.52
   7   4  17    9.84    0.49
  -9  -5  17    0.50    0.23
  -9   5  17    0.37    0.20
   8  -5 -17    0.26    0.17
  -8  -5  17    0.34    0.19
  -8   5  17    0.38    0.19
   7  -5 -17    0.37    0.18
  -7  -5  17    0.18    0.18
  -7   5  17    0.19    0.15
   6  -5 -17    7.45    0.43
  -6  -5  17    6.97    0.41
  -6   5  17    7.61    0.43
   5  -5 -17    0.92    0.22
  -5  -5  17    1.40    0.24
  -5   5  17    1.49    0.25
  -4  -5  17   30.28    0.78
   4  -5 -17   30.99    0.82
  -4  -5  17   29.11    0.78
  -4   5  17   29.71    0.83
  -3  -5  17    0.67    0.18
  -3  -5  17    0.73    0.17
  -3   5  17    1.07    0.22
  -2  -5  17    3.22    0.26
  -2  -5  17    3.11    0.29
  -2   5  17    3.41    0.30
  -1  -5  17    1.05    0.21
  -1   5  17    1.49    0.23
   0  -5  17    1.79    0.25
   0   5  17    2.57    0.28
   1  -5  17    3.61    0.32
   1   5  17    3.22    0.28
   2  -5  17    2.41    0.29
   2   5  17    1.99    0.26
   3  -5  17    2.60    0.31
   3   5  17    2.80    0.30
   4  -5  17    0.53    0.21
   4   5  17    0.45    0.18
   5  -5  17    1.28    0.25
   5   5  17    1.16    0.22
   6  -5  17    1.92    0.30
   6   5  17    1.87    0.27
  -6  -6  17    4.48    0.37
  -6   6  17    4.40    0.36
   5  -6 -17    3.64    0.32
  -5  -6  17    3.87    0.33
  -5   6  17    3.91    0.34
  -4  -6  17   14.35    0.56
  -4  -6  17   14.34    0.56
  -4   6  17   15.23    0.60
  -3  -6  17    4.38    0.35
  -3   6  17    5.15    0.38
  -2  -6  17    2.02    0.28
  -2   6  17    2.23    0.29
  -1  -6  17   21.76    0.73
  -1   6  17   21.82    0.73
   0  -6  17    0.16    0.16
   0   6  17   -0.02    0.14
   1  -6  17   -0.25    0.15
   1   6  17    0.05    0.14
   2  -6  17    2.66    0.33
   2   6  17    2.54    0.30
   3  -6  17   -0.10    0.14
   3   6  17   -0.08    0.15
   4  -6  17    2.07    0.31
   4   6  17    1.87    0.28
 -12   0  18    3.56    0.37
  12   0 -18    3.11    0.34
 -11   0  18    0.09    0.17
  11   0 -18   -0.02    0.14
  10   0 -18    0.21    0.16
 -10   0  18    0.39    0.18
  -9   0  18   -0.11    0.13
   9   0 -18    0.07    0.13
  -8   0  18    1.60    0.23
   8   0 -18    1.69    0.22
  -7   0  18    0.33    0.15
   7   0 -18   -0.01    0.12
  -6   0  18   35.15    0.82
  -5   0  18   -0.08    0.10
  -5   0  18    0.08    0.08
  -4   0  18   65.33    1.18
  -4   0  18   65.08    1.08
  -3   0  18    0.05    0.10
  -2   0  18   11.81    0.38
  -2   0  18   12.38    0.38
   0   0  18    0.35    0.12
   0   0  18    0.21    0.09
   1   0  18    0.56    0.10
   1   0  18    0.16    0.12
   2   0  18   27.75    0.69
   2   0  18   28.95    0.55
   3   0  18    0.11    0.12
   4   0  18   12.89    0.48
   5   0  18   -0.15    0.11
   6   0  18    0.29    0.15
   7   0  18    0.14    0.14
   8   0  18    9.75    0.48
   9   0  18    0.06    0.16
  12  -1 -18    2.05    0.30
 -12  -1  18    2.62    0.32
  12   1 -18    1.89    0.27
 -12   1  18    1.55    0.28
 -11  -1  18    7.59    0.43
  11  -1 -18    7.60    0.45
  11   1 -18    7.57    0.42
 -11   1  18    8.06    0.45
 -10  -1  18    9.78    0.49
  10  -1 -18   10.17    0.49
 -10   1  18   10.40    0.49
  10   1 -18   10.83    0.48
   9  -1 -18    1.87    0.25
  -9  -1  18    1.98    0.27
   9   1 -18    1.77    0.24
  -9   1  18    2.18    0.26
   8  -1 -18    1.08    0.21
  -8  -1  18    1.23    0.22
  -8   1  18    1.23    0.22
   8   1 -18    1.07    0.20
   7  -1 -18    2.44    0.26
  -7  -1  18    2.70    0.26
  -7   1  18    2.49    0.24
   7   1 -18    2.44    0.23
  -6  -1  18    0.83    0.17
  -6   1  18    0.73    0.17
  -5  -1  18   12.02    0.33
  -5  -1  18   11.90    0.43
  -5   1  18   11.92    0.34
  -5   1  18   11.57    0.42
  -4  -1  18    2.69    0.21
  -4  -1  18    3.14    0.20
  -4   1  18    2.40    0.19
  -4   1  18    2.66    0.23
  -3  -1  18    0.01    0.09
  -3  -1  18   -0.02    0.09
  -3   1  18   -0.08    0.08
  -3   1  18    0.02    0.10
  -2  -1  18    0.07    0.09
  -2  -1  18   -0.01    0.09
  -2   1  18   -0.04    0.09
  -2   1  18    0.27    0.10
  -1  -1  18    9.09    0.31
  -1  -1  18   11.19    0.39
  -1   1  18   10.67    0.37
   0  -1  18   27.34    0.66
   0  -1  18   25.66    0.54
   0   1  18   26.43    0.59
   0   1  18   26.65    0.65
   1  -1  18   23.80    0.46
   1   1  18   21.02    0.50
   1   1  18   19.79    0.56
   2  -1  18   10.64    0.42
   2   1  18   11.66    0.43
   2   1  18   11.12    0.34
   3  -1  18    3.80    0.29
   3   1  18    4.20    0.28
   3   1  18    3.52    0.20
   4  -1  18    1.68    0.22
   4   1  18    1.65    0.22
   5  -1  18    0.26    0.15
   5   1  18    0.16    0.14
   6  -1  18    4.81    0.33
   6   1  18    5.14    0.34
   7  -1  18    0.28    0.16
   7   1  18   -0.01    0.13
   8  -1  18    1.26    0.23
   8   1  18    1.47    0.24
   9  -1  18    0.75    0.21
   9   1  18    1.08    0.23
 -11  -2  18   -0.07    0.15
  11  -2 -18   -0.04    0.16
 -11   2  18   -0.06    0.16
  10  -2 -18    0.18    0.17
 -10  -2  18    0.04    0.16
  10   2 -18    0.13    0.14
 -10   2  18    0.17    0.17
   9  -2 -18    0.00    0.16
  -9  -2  18    0.01    0.16
   9   2 -18    0.00    0.14
  -9   2  18    0.19    0.16
  -8  -2  18    0.03    0.14
   8  -2 -18   -0.12    0.13
   8   2 -18   -0.17    0.11
  -8   2  18    0.04    0.13
   7  -2 -18   13.32    0.53
  -7  -2  18   12.29    0.48
  -7   2  18   13.42    0.50
   7   2 -18   12.90    0.46
  -6  -2  18    0.60    0.17
  -6   2  18    0.95    0.18
  -5  -2  18   49.91    0.89
  -5  -2  18   48.54    0.99
  -5   2  18   47.12    0.99
  -4  -2  18    5.50    0.30
  -4  -2  18    5.56    0.27
  -4   2  18    5.36    0.29
  -4   2  18    5.56    0.27
  -3  -2  18   10.72    0.37
  -3  -2  18   11.42    0.38
  -3   2  18   10.69    0.39
  -3   2  18   10.91    0.37
  -2  -2  18    7.09    0.32
  -2  -2  18    7.02    0.30
  -2   2  18    6.82    0.30
  -2   2  18    8.66    0.34
  -1  -2  18   76.85    1.25
  -1  -2  18   78.16    1.35
  -1   2  18   76.46    1.32
  -1   2  18   76.17    1.34
   0  -2  18   35.06    0.66
   0  -2  18   35.28    0.80
   0   2  18   34.98    0.78
   0   2  18   35.60    0.75
   1  -2  18   62.51    1.19
   1   2  18   59.95    1.09
   1   2  18   60.07    1.16
   2  -2  18    1.47    0.21
   2   2  18    1.10    0.18
   2   2  18    1.53    0.17
   3  -2  18   -0.06    0.13
   3   2  18    0.04    0.10
   3   2  18    0.03    0.13
   4  -2  18    3.35    0.30
   4   2  18    4.23    0.30
   4   2  18    4.15    0.24
   5  -2  18    2.75    0.27
   5   2  18    2.80    0.28
   6  -2  18    0.13    0.16
   6   2  18    0.35    0.17
   7  -2  18    6.65    0.41
   7   2  18    6.89    0.40
   8  -2  18    3.47    0.35
   8   2  18    3.35    0.31
   9  -2  18    2.55    0.33
   9   2  18    2.51    0.32
  11  -3 -18    2.38    0.31
 -11  -3  18    2.19    0.30
 -11   3  18    2.67    0.32
 -10  -3  18    2.15    0.30
  10  -3 -18    1.40    0.26
 -10   3  18    1.14    0.24
   9  -3 -18    1.11    0.23
  -9  -3  18    1.55    0.26
  -9   3  18    1.60    0.24
   8  -3 -18    1.19    0.22
  -8  -3  18    0.80    0.20
  -8   3  18    0.91    0.20
  -7  -3  18    5.46    0.35
   7  -3 -18    5.05    0.36
  -7   3  18    5.07    0.33
  -6  -3  18    0.36    0.15
   6  -3 -18    0.20    0.15
  -6   3  18    0.23    0.14
  -5  -3  18    0.27    0.14
  -5  -3  18    0.36    0.13
  -5   3  18    0.41    0.15
  -4  -3  18   -0.12    0.10
  -4  -3  18    0.07    0.12
  -4   3  18    0.10    0.12
  -3  -3  18    2.29    0.21
  -3  -3  18    2.30    0.21
  -3   3  18    2.38    0.24
  -2  -3  18    1.20    0.16
  -2  -3  18    0.47    0.13
  -2   3  18    0.21    0.12
  -2   3  18    0.52    0.15
  -1  -3  18    0.14    0.12
  -1  -3  18    0.03    0.10
  -1   3  18    0.36    0.12
  -1   3  18    0.05    0.13
   0  -3  18    9.74    0.41
   0   3  18    9.89    0.39
   0   3  18   10.62    0.42
   1  -3  18   19.06    0.59
   1   3  18   19.67    0.59
   1   3  18   18.80    0.54
   2  -3  18   10.96    0.46
   2   3  18   10.85    0.41
   2   3  18   11.27    0.45
   3  -3  18    4.60    0.34
   3   3  18    4.39    0.28
   3   3  18    4.86    0.32
   4  -3  18    4.81    0.35
   4   3  18    4.34    0.31
   4   3  18    4.62    0.28
   5  -3  18    0.58    0.18
   5   3  18    0.50    0.15
   5   3  18    0.71    0.18
   6  -3  18    5.91    0.40
   6   3  18    5.54    0.37
   7  -3  18   -0.05    0.16
   7   3  18    0.15    0.16
   8  -3  18    3.47    0.37
   8   3  18    3.25    0.34
  10  -4 -18    1.15    0.24
 -10  -4  18    0.98    0.25
 -10   4  18    0.63    0.22
   9  -4 -18    0.29    0.18
  -9  -4  18    0.36    0.20
  -9   4  18    0.22    0.16
   8  -4 -18    0.11    0.15
  -8  -4  18    0.20    0.17
  -8   4  18    0.07    0.16
   7  -4 -18    5.98    0.39
  -7  -4  18    5.15    0.36
  -7   4  18    5.24    0.36
  -6  -4  18   17.02    0.59
   6  -4 -18   16.68    0.60
  -6   4  18   17.04    0.59
  -5  -4  18    0.84    0.19
   5  -4 -18    0.35    0.17
  -5   4  18    0.18    0.16
  -4  -4  18   47.05    0.97
  -4  -4  18   46.21    0.98
  -4   4  18   43.94    1.01
  -3  -4  18    1.53    0.19
  -3  -4  18    1.64    0.21
  -3   4  18    1.34    0.21
  -2  -4  18   26.27    0.64
  -2  -4  18   25.71    0.70
  -2   4  18   26.33    0.72
  -1  -4  18    0.26    0.14
  -1   4  18    0.23    0.13
   0  -4  18    0.76    0.19
   0   4  18    0.74    0.17
   1  -4  18    0.22    0.16
   1   4  18    0.09    0.13
   1   4  18    0.09    0.15
   2  -4  18   17.85    0.62
   2   4  18   16.93    0.59
   2   4  18   17.75    0.57
   3  -4  18    6.98    0.40
   3   4  18    7.33    0.41
   3   4  18    7.38    0.37
   4  -4  18   20.89    0.70
   4   4  18   21.04    0.68
   4   4  18   19.68    0.62
   5  -4  18    3.09    0.33
   5   4  18    2.48    0.27
   5   4  18    2.55    0.29
   6  -4  18    0.06    0.17
   6   4  18    0.02    0.16
   7  -4  18    0.58    0.22
   7   4  18    0.56    0.21
   8  -5 -18    0.15    0.17
  -8  -5  18    0.31    0.20
  -8   5  18    0.26    0.19
   7  -5 -18    2.61    0.30
  -7  -5  18    2.79    0.32
  -7   5  18    2.30    0.29
   6  -5 -18    0.44    0.18
  -6  -5  18    0.08    0.16
  -6   5  18    0.13    0.17
  -5  -5  18   10.13    0.46
   5  -5 -18    9.99    0.48
  -5   5  18    9.44    0.47
   4  -5 -18    2.64    0.29
  -4  -5  18    3.32    0.30
  -4  -5  18    3.15    0.30
  -4   5  18    3.37    0.32
  -3  -5  18    0.66    0.18
  -3  -5  18    0.57    0.16
  -3   5  18    0.63    0.19
  -2  -5  18    8.89    0.44
  -2   5  18    9.24    0.44
  -1  -5  18   18.91    0.64
  -1   5  18   18.93    0.64
   0  -5  18    4.43    0.32
   0   5  18    4.56    0.32
   1  -5  18    7.67    0.42
   1   5  18    7.30    0.40
   2  -5  18    6.41    0.39
   2   5  18    6.24    0.38
   3  -5  18    8.30    0.47
   3   5  18    7.49    0.41
   4  -5  18   30.04    0.90
   4   5  18   29.73    0.84
   5  -5  18    1.19    0.25
   5   5  18    1.39    0.24
  -6  -6  18    0.57    0.20
  -6   6  18    0.64    0.21
  -5  -6  18    0.27    0.17
   5  -6 -18    0.20    0.17
  -5   6  18    0.33    0.19
  -4  -6  18    1.46    0.25
  -4  -6  18    1.22    0.22
  -4   6  18    1.79    0.28
  -3  -6  18    4.61    0.36
  -3   6  18    5.44    0.38
  -2  -6  18    0.27    0.17
  -2   6  18    0.21    0.17
  -1  -6  18    8.80    0.47
  -1   6  18    8.73    0.48
   0  -6  18    4.39    0.37
   0   6  18    3.91    0.35
   1  -6  18    5.24    0.40
   1   6  18    5.32    0.39
   2  -6  18    0.05    0.17
   2   6  18    0.07    0.16
   3  -6  18    1.01    0.24
   3   6  18    1.06    0.24
 -12   0  19    0.05    0.18
  12   0 -19   -0.04    0.15
  11   0 -19   -0.02    0.15
 -11   0  19    0.11    0.19
 -10   0  19    0.22    0.19
  10   0 -19    0.01    0.15
  -9   0  19   20.74    0.68
   9   0 -19   21.13    0.69
   8   0 -19   -0.12    0.12
  -8   0  19    0.24    0.16
   7   0 -19    1.15    0.19
  -7   0  19    0.95    0.19
  -6   0  19    0.08    0.13
  -5   0  19   22.09    0.49
  -5   0  19   21.67    0.60
  -4   0  19    0.01    0.10
  -3   0  19    2.26    0.19
  -3   0  19    2.56    0.20
  -2   0  19    0.23    0.10
  -2   0  19    0.16    0.10
  -1   0  19    0.62    0.14
  -1   0  19    0.95    0.14
   0   0  19   -0.08    0.08
   0   0  19   -0.12    0.10
   1   0  19   79.10    1.41
   1   0  19   81.10    1.26
   3   0  19   85.59    1.54
   4   0  19    0.36    0.15
   5   0  19   -0.06    0.13
   6   0  19   -0.03    0.12
   7   0  19   15.91    0.60
   8   0  19    0.23    0.18
   9   0  19    3.11    0.34
 -11  -1  19    0.29    0.20
  11  -1 -19    0.00    0.17
  11   1 -19   -0.10    0.14
 -11   1  19    0.20    0.19
 -10  -1  19   15.57    0.61
  10  -1 -19   16.44    0.64
  10   1 -19   14.84    0.58
 -10   1  19   16.14    0.61
   9  -1 -19   10.72    0.51
  -9  -1  19   11.24    0.50
  -9   1  19   11.03    0.48
   9   1 -19   11.01    0.47
  -8  -1  19    5.33    0.34
   8  -1 -19    4.41    0.35
  -8   1  19    5.14    0.33
   8   1 -19    4.64    0.32
  -7  -1  19   16.83    0.56
   7  -1 -19   17.14    0.60
   7   1 -19   17.40    0.56
  -7   1  19   17.38    0.58
  -6  -1  19    0.08    0.12
  -6   1  19   -0.09    0.13
  -5  -1  19    9.30    0.38
  -5   1  19    9.33    0.39
  -5   1  19    9.36    0.30
  -4  -1  19    8.75    0.36
  -4  -1  19    8.33    0.30
  -4   1  19    7.82    0.34
  -4   1  19    8.15    0.31
  -3  -1  19    3.93    0.23
  -3  -1  19    3.65    0.24
  -3   1  19    3.60    0.23
  -3   1  19    3.61    0.25
  -2  -1  19   11.82    0.37
  -2  -1  19   11.28    0.39
  -2   1  19   10.52    0.37
  -2   1  19   11.64    0.39
  -1  -1  19    2.68    0.22
  -1  -1  19    3.18    0.21
  -1   1  19    2.57    0.23
  -1   1  19    3.14    0.21
   0  -1  19    5.40    0.24
   0  -1  19    5.91    0.31
   0   1  19    5.81    0.30
   0   1  19    6.07    0.27
   1  -1  19    2.09    0.23
   1   1  19    2.71    0.18
   1   1  19    2.38    0.22
   2  -1  19    1.13    0.19
   2   1  19    1.18    0.14
   2   1  19    1.30    0.19
   3  -1  19   12.57    0.50
   3   1  19   13.21    0.48
   4  -1  19    7.28    0.38
   4   1  19    6.89    0.37
   5  -1  19    2.76    0.29
   5   1  19    2.23    0.26
   6  -1  19    2.85    0.30
   6   1  19    2.50    0.28
   7  -1  19    6.66    0.40
   7   1  19    6.25    0.38
   8  -1  19    0.29    0.18
   8   1  19    0.06    0.15
   9  -1  19    6.69    0.43
   9   1  19    6.63    0.42
  11  -2 -19    0.10    0.16
 -11  -2  19    0.02    0.18
 -11   2  19    0.23    0.18
  10  -2 -19    9.58    0.51
 -10  -2  19    8.32    0.46
 -10   2  19    8.53    0.45
  10   2 -19    9.50    0.44
  -9  -2  19    0.10    0.15
   9  -2 -19    0.07    0.15
  -9   2  19   -0.05    0.16
   9   2 -19   -0.02    0.13
  -8  -2  19    0.11    0.15
   8  -2 -19   -0.21    0.13
   8   2 -19   -0.05    0.12
  -8   2  19    0.03    0.14
  -7  -2  19    0.33    0.15
   7  -2 -19    0.07    0.15
   7   2 -19    0.00    0.12
  -7   2  19    0.25    0.14
  -6  -2  19   23.04    0.65
  -6   2  19   22.51    0.66
  -5  -2  19    9.01    0.38
  -5   2  19    9.10    0.39
  -4  -2  19   73.15    1.24
  -4  -2  19   71.75    1.29
  -4   2  19   70.32    1.31
  -4   2  19   70.96    1.22
  -3  -2  19   11.45    0.40
  -3  -2  19   12.20    0.41
  -3   2  19   11.55    0.39
  -3   2  19   11.88    0.43
  -2  -2  19   41.30    0.87
  -2  -2  19   43.11    0.84
  -2   2  19   41.69    0.87
  -2   2  19   42.72    0.87
  -1  -2  19    0.06    0.12
  -1  -2  19   -0.07    0.10
  -1   2  19    0.03    0.11
   0  -2  19   13.08    0.37
   0  -2  19   13.35    0.47
   0   2  19   13.52    0.43
   0   2  19   13.66    0.47
   1  -2  19    1.60    0.22
   1   2  19    1.46    0.20
   2  -2  19    0.55    0.16
   2   2  19    0.66    0.17
   2   2  19    0.66    0.14
   3  -2  19   28.25    0.77
   3   2  19   27.15    0.64
   3   2  19   27.44    0.73
   4  -2  19    0.52    0.19
   4   2  19    0.37    0.17
   5  -2  19    7.86    0.41
   5   2  19    7.47    0.40
   6  -2  19    1.76    0.26
   6   2  19    1.30    0.23
   7  -2  19    2.17    0.29
   7   2  19    2.62    0.30
   8  -2  19    0.07    0.17
   8   2  19    0.22    0.17
 -10  -3  19    3.99    0.36
  10  -3 -19    3.96    0.37
 -10   3  19    3.66    0.33
   9  -3 -19    4.74    0.39
  -9  -3  19    4.87    0.35
  -9   3  19    4.96    0.34
   8  -3 -19    8.71    0.47
  -8  -3  19    8.26    0.43
  -8   3  19    9.11    0.45
  -7  -3  19   12.49    0.51
   7  -3 -19   12.36    0.53
  -7   3  19   12.47    0.50
   6  -3 -19    0.76    0.18
  -6  -3  19    0.54    0.17
  -6   3  19    0.61    0.17
  -5  -3  19    2.40    0.26
  -5   3  19    2.14    0.25
  -4  -3  19    0.24    0.14
  -4  -3  19    0.00    0.11
  -4   3  19    0.17    0.13
  -3  -3  19    9.72    0.39
  -3  -3  19   10.52    0.39
  -3   3  19   10.15    0.38
  -3   3  19    9.23    0.40
  -2  -3  19    4.01    0.27
  -2  -3  19    4.10    0.25
  -2   3  19    4.44    0.28
  -2   3  19    4.41    0.29
  -1  -3  19    1.22    0.19
  -1  -3  19    1.73    0.18
  -1   3  19    1.49    0.20
  -1   3  19    1.51    0.20
   0  -3  19   10.66    0.44
   0   3  19   12.13    0.45
   0   3  19   10.92    0.41
   1  -3  19    3.80    0.31
   1   3  19    4.74    0.27
   1   3  19    4.41    0.31
   2  -3  19   10.98    0.47
   2   3  19   11.34    0.42
   2   3  19   10.89    0.45
   3  -3  19   -0.08    0.14
   3   3  19    0.15    0.14
   3   3  19   -0.04    0.11
   4  -3  19   15.11    0.58
   4   3  19   14.29    0.55
   4   3  19   15.40    0.50
   5  -3  19    0.52    0.18
   5   3  19    0.54    0.18
   6  -3  19    3.31    0.35
   6   3  19    2.77    0.30
   7  -3  19    4.84    0.38
   7   3  19    4.14    0.35
   8  -3  19    0.16    0.18
   8   3  19    0.23    0.19
   9  -4 -19    1.67    0.27
  -9  -4  19    2.43    0.31
  -9   4  19    2.43    0.30
  -8  -4  19    0.99    0.23
   8  -4 -19    0.95    0.23
  -8   4  19    1.14    0.24
   7  -4 -19    0.69    0.19
  -7  -4  19    0.51    0.20
  -7   4  19    0.27    0.17
  -6  -4  19   13.08    0.52
   6  -4 -19   12.85    0.54
  -6   4  19   12.78    0.53
  -5  -4  19    8.24    0.40
  -5   4  19    8.28    0.42
  -4  -4  19   15.81    0.54
  -4  -4  19   16.95    0.54
  -4   4  19   16.15    0.57
  -3  -4  19    0.13    0.13
  -3  -4  19    0.42    0.14
  -3   4  19    0.40    0.16
  -2  -4  19    0.58    0.16
  -2  -4  19    0.23    0.15
  -2   4  19    0.49    0.16
  -1  -4  19   33.90    0.84
  -1   4  19   33.72    0.84
   0  -4  19    2.25    0.27
   0   4  19    2.16    0.24
   0   4  19    2.87    0.27
   1  -4  19   59.78    1.26
   1   4  19   60.25    1.22
   1   4  19   60.86    1.25
   2  -4  19    5.43    0.36
   2   4  19    5.83    0.37
   2   4  19    5.40    0.33
   3  -4  19   19.64    0.67
   3   4  19   19.00    0.65
   3   4  19   18.66    0.60
   4  -4  19    0.26    0.17
   4   4  19    0.16    0.17
   4   4  19    0.07    0.14
   5  -4  19    0.06    0.16
   5   4  19    0.03    0.13
   5   4  19    0.14    0.17
   6  -4  19    0.70    0.23
   6   4  19    0.59    0.21
  -8  -5  19    0.09    0.18
   8  -5 -19   -0.08    0.16
  -8   5  19   -0.16    0.15
   7  -5 -19   10.93    0.53
  -7  -5  19   10.55    0.51
  -7   5  19   10.91    0.51
  -6  -5  19    0.71    0.20
   6  -5 -19    0.51    0.19
  -6   5  19    0.43    0.19
  -5  -5  19    3.70    0.32
   5  -5 -19    3.84    0.33
  -5   5  19    3.85    0.34
  -4  -5  19    4.66    0.33
  -4  -5  19    5.28    0.34
  -4   5  19    4.83    0.36
  -3  -5  19    1.65    0.24
  -3  -5  19    1.94    0.24
  -3   5  19    1.54    0.24
  -2  -5  19   12.49    0.52
  -2   5  19   11.60    0.50
  -1  -5  19    2.15    0.28
  -1   5  19    2.19    0.28
   0  -5  19    1.29    0.24
   0   5  19    0.99    0.21
   1  -5  19   -0.07    0.15
   1   5  19    0.06    0.14
   2  -5  19    1.10    0.23
   2   5  19    1.00    0.20
   3  -5  19    0.93    0.24
   3   5  19    0.96    0.21
   4  -5  19   14.73    0.64
   4   5  19   14.78    0.58
   5  -5  19   -0.03    0.18
   5   5  19   -0.10    0.14
  -5  -6  19    3.61    0.36
  -5   6  19    3.21    0.34
  -4  -6  19    6.52    0.40
  -4   6  19    6.33    0.42
  -3  -6  19    0.77    0.22
  -3   6  19    0.74    0.22
  -2  -6  19   19.96    0.70
  -2   6  19   20.43    0.72
  -1  -6  19    0.16    0.19
  -1   6  19    0.27    0.17
   0  -6  19    4.69    0.37
   0   6  19    4.38    0.36
   1  -6  19    1.29    0.26
   1   6  19    1.54    0.26
   2  -6  19    0.22    0.19
   2   6  19    0.01    0.15
 -11   0  20   -0.17    0.16
  11   0 -20   -0.41    0.13
  10   0 -20   38.50    1.01
 -10   0  20   37.58    0.99
   9   0 -20    0.34    0.16
  -8   0  20   10.74    0.47
   8   0 -20   10.64    0.48
  -7   0  20    0.27    0.16
   7   0 -20    0.23    0.14
  -6   0  20   22.33    0.64
  -5   0  20    0.01    0.12
  -4   0  20    4.37    0.28
  -4   0  20    3.78    0.23
  -3   0  20    0.02    0.10
  -3   0  20    0.03    0.09
  -2   0  20   -0.11    0.09
  -2   0  20    0.03    0.10
  -1   0  20   -0.02    0.08
  -1   0  20   -0.02    0.11
   0   0  20    0.20    0.13
   0   0  20    0.69    0.12
   1   0  20    6.56    0.33
   2   0  20   27.16    0.71
   4   0  20   44.21    1.01
   5   0  20    0.02    0.13
   6   0  20   10.60    0.48
   7   0  20    0.04    0.15
   8   0  20    0.88    0.22
 -11  -1  20    1.77    0.28
  11  -1 -20    1.47    0.26
 -11   1  20    1.46    0.27
  11   1 -20    1.64    0.25
  10  -1 -20    5.44    0.40
 -10  -1  20    5.15    0.37
  10   1 -20    5.43    0.38
 -10   1  20    6.07    0.41
   9  -1 -20   17.67    0.66
  -9  -1  20   17.68    0.62
  -9   1  20   17.28    0.62
   9   1 -20   17.09    0.61
   8  -1 -20    3.16    0.30
  -8  -1  20    3.64    0.30
  -8   1  20    2.95    0.28
   8   1 -20    3.03    0.28
   7  -1 -20    5.35    0.37
  -7  -1  20    6.41    0.37
   7   1 -20    6.08    0.34
  -7   1  20    6.06    0.35
  -6  -1  20   19.08    0.59
  -6   1  20   19.03    0.59
  -5  -1  20    0.32    0.14
  -5   1  20    0.25    0.13
  -4  -1  20   22.53    0.61
  -4  -1  20   23.59    0.56
  -4   1  20   22.14    0.54
  -4   1  20   23.43    0.63
  -3  -1  20    9.84    0.36
  -3  -1  20    9.78    0.37
  -3   1  20    9.80    0.36
  -3   1  20    9.31    0.37
  -2  -1  20    9.65    0.38
  -2  -1  20    9.56    0.36
  -2   1  20    9.90    0.37
  -2   1  20   10.15    0.37
  -1  -1  20    0.27    0.11
  -1  -1  20    0.51    0.14
  -1   1  20    0.41    0.13
  -1   1  20    0.42    0.13
   0  -1  20    0.63    0.12
   0  -1  20    0.73    0.16
   0   1  20    0.69    0.15
   0   1  20    0.59    0.13
   1  -1  20   13.43    0.48
   1   1  20   13.08    0.39
   1   1  20   12.30    0.45
   2  -1  20    8.72    0.40
   2   1  20    9.22    0.32
   2   1  20    9.50    0.41
   3  -1  20   30.30    0.80
   3   1  20   29.15    0.77
   4  -1  20   12.51    0.51
   4   1  20   12.83    0.50
   5  -1  20    0.72    0.19
   5   1  20    0.65    0.19
   6  -1  20    0.58    0.19
   6   1  20    0.54    0.18
   7  -1  20    3.21    0.34
   7   1  20    2.68    0.31
   8  -1  20    0.92    0.23
   8   1  20    0.70    0.20
  11  -2 -20    0.41    0.18
 -11  -2  20    0.23    0.20
 -11   2  20    0.24    0.18
 -10  -2  20    0.03    0.16
  10  -2 -20    0.05    0.14
 -10   2  20    0.13    0.17
  -9  -2  20    5.97    0.38
   9  -2 -20    5.51    0.39
  -9   2  20    5.74    0.37
   9   2 -20    6.34    0.37
  -8  -2  20    0.45    0.17
   8  -2 -20    0.36    0.18
  -8   2  20    0.30    0.17
   8   2 -20    0.37    0.15
  -7  -2  20    2.79    0.27
   7  -2 -20    2.19    0.27
  -7   2  20    2.64    0.28
   7   2 -20    2.34    0.24
  -6  -2  20    1.59    0.22
  -6   2  20    2.19    0.24
  -5  -2  20    0.24    0.14
  -5   2  20    0.13    0.13
  -5   2  20    0.04    0.11
  -4  -2  20    0.10    0.12
  -4  -2  20    0.39    0.14
  -4   2  20    0.27    0.13
  -3  -2  20    0.06    0.11
  -3  -2  20    0.20    0.12
  -3   2  20    0.09    0.12
  -3   2  20    0.31    0.12
  -2  -2  20    1.95    0.20
  -2  -2  20    1.47    0.21
  -2   2  20    3.09    0.24
  -2   2  20    2.54    0.23
  -1  -2  20    0.13    0.10
  -1  -2  20    0.12    0.12
  -1   2  20    0.08    0.12
  -1   2  20    0.20    0.12
   0  -2  20    0.60    0.17
   0   2  20    0.62    0.16
   0   2  20    0.63    0.14
   1  -2  20   34.43    0.85
   1   2  20   34.83    0.76
   1   2  20   34.31    0.82
   2  -2  20    0.26    0.14
   2   2  20    0.20    0.14
   2   2  20    0.20    0.11
   3  -2  20   63.26    1.30
   3   2  20   60.82    1.25
   3   2  20   63.30    1.14
   4  -2  20    1.20    0.23
   4   2  20    0.80    0.20
   5  -2  20    0.49    0.17
   5   2  20    0.09    0.14
   6  -2  20    0.18    0.16
   6   2  20   -0.05    0.14
   7  -2  20    0.47    0.21
   7   2  20    0.65    0.19
   8  -2  20    1.30    0.26
   8   2  20    1.45    0.26
 -10  -3  20    0.53    0.20
  10  -3 -20   -0.05    0.16
 -10   3  20    0.28    0.19
  -9  -3  20    8.97    0.48
   9  -3 -20    9.40    0.51
  -9   3  20    9.55    0.47
   8  -3 -20    0.69    0.21
  -8  -3  20    0.74    0.20
  -8   3  20    1.30    0.24
  -7  -3  20   28.56    0.80
   7  -3 -20   29.27    0.85
  -7   3  20   28.56    0.80
  -6  -3  20   17.72    0.59
  -6   3  20   17.64    0.60
  -5  -3  20   10.30    0.43
  -5   3  20   10.46    0.45
  -4  -3  20   26.47    0.68
  -4  -3  20   26.41    0.66
  -4   3  20   26.07    0.72
  -3  -3  20    0.45    0.14
  -3  -3  20    0.54    0.14
  -3   3  20    0.61    0.16
  -3   3  20    0.54    0.15
  -2  -3  20    5.30    0.27
  -2  -3  20    5.44    0.31
  -2   3  20    5.59    0.32
  -2   3  20    5.27    0.31
  -1  -3  20   20.30    0.60
  -1   3  20   20.60    0.59
  -1   3  20   20.66    0.60
   0  -3  20   -0.11    0.12
   0   3  20    0.09    0.13
   0   3  20    0.09    0.12
   1  -3  20    1.16    0.21
   1   3  20    1.16    0.21
   1   3  20    1.40    0.19
   2  -3  20    7.26    0.39
   2   3  20    7.42    0.35
   2   3  20    7.26    0.39
   3  -3  20    3.86    0.33
   3   3  20    3.07    0.25
   3   3  20    3.48    0.30
   4  -3  20    6.32    0.41
   4   3  20    6.09    0.39
   4   3  20    5.74    0.32
   5  -3  20    0.06    0.16
   5   3  20    0.14    0.16
   6  -3  20    1.56    0.27
   6   3  20    1.48    0.25
   7  -3  20    0.29    0.20
   7   3  20    0.17    0.16
  -9  -4  20    3.94    0.37
   9  -4 -20    4.50    0.38
  -9   4  20    4.37    0.35
  -8  -4  20    1.17    0.24
   8  -4 -20    1.03    0.23
  -8   4  20    1.18    0.23
   7  -4 -20    0.33    0.16
  -7  -4  20    0.50    0.19
  -7   4  20    0.56    0.20
  -6  -4  20    5.00    0.35
   6  -4 -20    5.10    0.36
  -6   4  20    5.07    0.35
  -5  -4  20    5.03    0.33
  -5   4  20    5.43    0.37
  -4  -4  20    7.22    0.36
  -4  -4  20    6.88    0.36
  -4   4  20    6.93    0.38
  -3  -4  20    0.50    0.16
  -3  -4  20    0.50    0.16
  -3   4  20    0.45    0.16
  -2  -4  20    1.92    0.25
  -2   4  20    1.46    0.22
  -1  -4  20    8.20    0.40
  -1   4  20    7.99    0.40
   0  -4  20   -0.04    0.14
   0   4  20    0.21    0.14
   0   4  20    0.19    0.16
   1  -4  20    0.31    0.20
   1   4  20    0.57    0.16
   1   4  20    0.10    0.16
   2  -4  20    1.44    0.24
   2   4  20    1.55    0.23
   2   4  20    1.40    0.24
   3  -4  20    0.70    0.21
   3   4  20    0.51    0.20
   3   4  20    1.06    0.20
   4  -4  20    4.73    0.38
   4   4  20    4.91    0.33
   4   4  20    4.84    0.38
   5  -4  20    1.25    0.25
   5   4  20    0.80    0.22
   6  -4  20    4.13    0.36
   6   4  20    3.41    0.32
  -7  -5  20    5.79    0.40
   7  -5 -20    5.63    0.41
  -7   5  20    5.46    0.38
   6  -5 -20    2.25    0.29
  -6  -5  20    2.52    0.30
  -6   5  20    2.63    0.32
   5  -5 -20    4.41    0.35
  -5  -5  20    4.48    0.34
  -5   5  20    4.20    0.35
  -4  -5  20   14.15    0.54
  -4  -5  20   14.11    0.53
  -4   5  20   13.40    0.57
  -3  -5  20    0.78    0.20
  -3   5  20    0.93    0.22
  -2  -5  20   13.44    0.54
  -2   5  20   11.93    0.52
  -1  -5  20    1.00    0.22
  -1   5  20    1.06    0.21
   0  -5  20    1.44    0.25
   0   5  20    0.97    0.21
   1  -5  20    0.16    0.16
   1   5  20    0.24    0.16
   2  -5  20    2.49    0.32
   2   5  20    2.41    0.29
   3  -5  20    8.53    0.50
   3   5  20    8.20    0.44
   4  -5  20    0.73    0.22
   4   5  20    0.52    0.19
  -4  -6  20    0.07    0.17
  -4   6  20    0.05    0.17
  -3  -6  20    1.90    0.29
  -3   6  20    1.36    0.26
  -2  -6  20    2.23    0.31
  -2   6  20    2.18    0.30
  -1  -6  20   14.47    0.61
  -1   6  20   12.91    0.57
   0  -6  20    2.27    0.31
   0   6  20    2.15    0.29
   1  -6  20   13.89    0.62
   1   6  20   13.79    0.60
  11   0 -21    0.23    0.18
 -11   0  21    0.13    0.19
  10   0 -21    0.16    0.16
 -10   0  21    0.12    0.18
   9   0 -21   20.40    0.69
  -9   0  21   19.15    0.66
   8   0 -21   -0.15    0.13
  -8   0  21    0.15    0.15
  -7   0  21   48.86    1.08
   7   0 -21   47.33    1.09
  -6   0  21    0.34    0.15
  -5   0  21   14.71    0.51
  -4   0  21   -0.12    0.10
  -4   0  21   -0.02    0.12
  -3   0  21    1.14    0.17
  -3   0  21    1.14    0.18
  -2   0  21    0.01    0.11
  -2   0  21   -0.15    0.11
  -1   0  21   93.17    1.51
  -1   0  21   94.26    1.60
   0   0  21    0.06    0.09
   0   0  21   -0.04    0.11
   1   0  21   35.87    0.84
   1   0  21   36.35    0.71
   3   0  21    6.18    0.36
   5   0  21    4.16    0.32
   6   0  21   -0.06    0.15
   7   0  21    9.71    0.50
   8   0  21    0.03    0.16
  11  -1 -21    0.58    0.21
 -11  -1  21    0.41    0.21
  11   1 -21    0.56    0.19
 -11   1  21    0.52    0.20
 -10  -1  21   17.27    0.65
  10  -1 -21   17.18    0.68
  10   1 -21   17.21    0.64
 -10   1  21   17.43    0.66
   9  -1 -21    0.12    0.17
  -9  -1  21    0.34    0.17
  -9   1  21    0.26    0.18
   9   1 -21    0.03    0.15
   8  -1 -21    5.63    0.39
  -8  -1  21    5.80    0.37
  -8   1  21    6.20    0.38
   8   1 -21    5.58    0.36
   7  -1 -21    0.81    0.21
  -7  -1  21    0.82    0.19
  -7   1  21    1.09    0.20
   7   1 -21    0.96    0.18
  -6  -1  21   14.24    0.52
  -6   1  21   13.43    0.50
  -5  -1  21    0.33    0.15
  -5   1  21    0.14    0.14
  -4  -1  21   69.42    1.29
  -4  -1  21   70.42    1.22
  -4   1  21   72.08    1.23
  -4   1  21   71.49    1.32
  -3  -1  21    0.19    0.12
  -3  -1  21    0.37    0.14
  -3   1  21    0.25    0.12
  -3   1  21    0.26    0.13
  -2  -1  21  154.10    2.33
  -2  -1  21  157.65    2.38
  -2   1  21  153.42    2.36
  -2   1  21  154.18    2.36
  -1  -1  21    5.93    0.33
  -1  -1  21    5.70    0.27
  -1   1  21    5.91    0.31
  -1   1  21    6.02    0.29
   0  -1  21   24.92    0.67
   0  -1  21   25.15    0.55
   0   1  21   24.19    0.59
   0   1  21   24.70    0.65
   1  -1  21   15.03    0.53
   1   1  21   15.35    0.44
   1   1  21   14.81    0.51
   2  -1  21   13.86    0.51
   2   1  21   14.14    0.51
   2   1  21   13.99    0.41
   3  -1  21   21.80    0.67
   3   1  21   22.37    0.67
   4  -1  21    5.30    0.35
   4   1  21    6.48    0.38
   5  -1  21   -0.04    0.15
   5   1  21   -0.06    0.14
   6  -1  21   -0.05    0.15
   6   1  21    0.06    0.16
   7  -1  21    1.15    0.25
   7   1  21    1.19    0.24
   8  -1  21    2.37    0.31
   8   1  21    2.57    0.32
 -11  -2  21    0.50    0.22
 -11   2  21    0.40    0.21
 -10  -2  21    2.98    0.34
  10  -2 -21    2.93    0.33
 -10   2  21    3.20    0.34
   9  -2 -21    0.45    0.18
  -9  -2  21    0.15    0.17
  -9   2  21    0.53    0.19
   9   2 -21    0.41    0.17
  -8  -2  21   10.71    0.49
   8  -2 -21   11.08    0.53
   8   2 -21   10.71    0.45
  -8   2  21   10.24    0.47
   7  -2 -21    1.98    0.27
  -7  -2  21    1.88    0.25
   7   2 -21    2.27    0.24
  -7   2  21    2.13    0.27
  -6  -2  21    2.76    0.25
  -6   2  21    2.68    0.25
  -5  -2  21    0.53    0.16
  -5   2  21    0.44    0.16
  -4  -2  21    1.74    0.20
  -4  -2  21    1.44    0.21
  -4   2  21    1.58    0.19
  -4   2  21    1.49    0.21
  -3  -2  21    5.62    0.30
  -3  -2  21    5.60    0.30
  -3   2  21    5.64    0.32
  -3   2  21    5.87    0.30
  -2  -2  21    5.49    0.32
  -2  -2  21    5.57    0.29
  -2   2  21    6.08    0.31
  -2   2  21    6.10    0.32
  -1  -2  21    3.79    0.23
  -1  -2  21    3.27    0.26
  -1   2  21    3.58    0.27
  -1   2  21    3.52    0.25
   0  -2  21   14.13    0.51
   0   2  21   14.66    0.50
   0   2  21   13.84    0.45
   1  -2  21    1.97    0.25
   1   2  21    3.17    0.28
   2  -2  21    0.22    0.16
   2   2  21    0.06    0.13
   2   2  21    0.48    0.14
   3  -2  21    4.07    0.34
   3   2  21    5.29    0.36
   4  -2  21   35.17    0.93
   4   2  21   34.31    0.89
   5  -2  21    0.34    0.16
   5   2  21    0.66    0.20
   6  -2  21   19.76    0.71
   6   2  21   20.66    0.70
   7  -2  21    0.85    0.23
   7   2  21    1.15    0.24
  10  -3 -21    6.60    0.46
 -10  -3  21    6.10    0.43
 -10   3  21    6.20    0.42
   9  -3 -21    1.21    0.25
  -9  -3  21    1.12    0.24
  -9   3  21    1.45    0.26
   8  -3 -21    2.18    0.29
  -8  -3  21    2.54    0.30
  -8   3  21    2.17    0.28
   7  -3 -21    2.72    0.31
  -7  -3  21    3.17    0.29
  -7   3  21    2.74    0.30
  -6  -3  21   25.78    0.73
  -6   3  21   26.36    0.75
  -5  -3  21    6.11    0.34
  -5   3  21    6.49    0.37
  -4  -3  21   17.11    0.54
  -4  -3  21   17.22    0.53
  -4   3  21   16.05    0.56
  -3  -3  21    0.31    0.13
  -3  -3  21    0.19    0.13
  -3   3  21    0.27    0.14
  -3   3  21    0.36    0.15
  -2  -3  21   10.78    0.44
  -2  -3  21   10.14    0.38
  -2   3  21   10.94    0.44
  -2   3  21   10.75    0.43
  -1  -3  21    0.10    0.14
  -1   3  21    0.09    0.13
  -1   3  21   -0.07    0.13
   0  -3  21    4.00    0.31
   0   3  21    4.08    0.28
   0   3  21    4.12    0.30
   1  -3  21    1.82    0.24
   1   3  21    2.02    0.25
   1   3  21    2.02    0.22
   2  -3  21    0.48    0.19
   2   3  21    0.63    0.20
   2   3  21    0.79    0.17
   3  -3  21    2.91    0.31
   3   3  21    3.05    0.31
   3   3  21    2.99    0.26
   4  -3  21    3.31    0.31
   4   3  21    2.69    0.31
   5  -3  21    0.73    0.22
   5   3  21    0.95    0.22
   6  -3  21    0.20    0.19
   6   3  21    0.34    0.19
   7  -3  21    0.33    0.21
   7   3  21    0.25    0.19
  -9  -4  21    7.96    0.47
   9  -4 -21    7.87    0.49
  -9   4  21    8.44    0.48
  -8  -4  21    0.14    0.19
   8  -4 -21    0.13    0.18
  -8   4  21    0.47    0.20
  -7  -4  21   19.35    0.68
   7  -4 -21   18.70    0.71
  -7   4  21   22.78    0.73
   6  -4 -21    5.57    0.39
  -6  -4  21    5.90    0.38
  -6   4  21    5.82    0.39
  -5  -4  21   10.20    0.46
  -5   4  21   10.25    0.48
  -4  -4  21    0.31    0.16
  -4   4  21    0.20    0.15
  -3  -4  21    0.22    0.13
  -3  -4  21    0.30    0.16
  -3   4  21    0.47    0.16
  -2  -4  21    5.39    0.35
  -2   4  21    5.15    0.34
  -1  -4  21   10.69    0.48
  -1   4  21   11.06    0.47
   0  -4  21    0.22    0.16
   0   4  21    0.14    0.16
   0   4  21    0.14    0.14
   1  -4  21    3.62    0.32
   1   4  21    3.74    0.31
   1   4  21    4.26    0.31
   2  -4  21    0.76    0.22
   2   4  21    1.49    0.23
   2   4  21    1.15    0.22
   3  -4  21    0.94    0.23
   3   4  21    0.76    0.23
   3   4  21    0.89    0.19
   4  -4  21    0.07    0.18
   4   4  21    0.07    0.17
   4   4  21    0.24    0.15
   5  -4  21    1.69    0.28
   5   4  21    1.57    0.28
  -7  -5  21    4.05    0.36
   7  -5 -21    4.00    0.36
  -7   5  21    4.16    0.36
   6  -5 -21   -0.10    0.16
  -6  -5  21   -0.07    0.14
  -6   5  21   -0.13    0.15
  -5  -5  21    3.25    0.31
   5  -5 -21    2.94    0.32
  -5   5  21    3.31    0.34
  -4  -5  21   15.94    0.57
  -4  -5  21   16.30    0.59
  -4   5  21   15.76    0.61
  -3  -5  21    1.01    0.22
  -3   5  21    1.30    0.25
  -2  -5  21   26.12    0.78
  -2   5  21   26.02    0.79
  -1  -5  21    3.63    0.33
  -1   5  21    3.64    0.32
   0  -5  21    5.63    0.39
   0   5  21    6.20    0.39
   1  -5  21    1.27    0.26
   1   5  21    1.55    0.25
   2  -5  21    0.00    0.17
   2   5  21    0.11    0.16
   3  -5  21    3.73    0.39
   3   5  21    3.14    0.31
   4  -5  21    0.37    0.20
   4   5  21   -0.03    0.15
  -3  -6  21    0.45    0.19
  -3   6  21    0.24    0.19
  -2  -6  21   -0.10    0.17
  -2   6  21    0.46    0.20
  -1  -6  21    0.84    0.24
  -1   6  21    0.84    0.22
   0  -6  21    0.55    0.22
   0   6  21    0.43    0.19
  11   0 -22    0.24    0.18
 -11   0  22    0.22    0.18
  10   0 -22    1.94    0.28
 -10   0  22    2.23    0.30
  -9   0  22    0.03    0.16
   9   0 -22   -0.16    0.14
  -8   0  22    3.50    0.30
   8   0 -22    3.29    0.32
  -7   0  22    0.14    0.16
  -6   0  22   36.81    0.89
  -5   0  22   -0.08    0.11
  -4   0  22    7.66    0.32
  -4   0  22    7.84    0.36
  -3   0  22   -0.18    0.09
  -3   0  22   -0.02    0.12
  -2   0  22   36.11    0.78
  -2   0  22   36.85    0.81
   0   0  22   21.26    0.61
   0   0  22   20.86    0.52
   2   0  22   11.40    0.48
   3   0  22    0.25    0.15
   4   0  22   19.03    0.64
   5   0  22    0.02    0.15
   6   0  22   30.46    0.88
   7   0  22    0.56    0.21
 -11  -1  22   -0.07    0.18
  11  -1 -22    0.13    0.18
 -11   1  22    0.19    0.17
  11   1 -22    0.00    0.15
  10  -1 -22    0.05    0.16
 -10  -1  22    0.24    0.20
  10   1 -22   -0.11    0.15
 -10   1  22    0.27    0.19
  -9  -1  22    0.66    0.20
   9  -1 -22    0.34    0.19
  -9   1  22    0.78    0.21
   9   1 -22    0.08    0.15
  -8  -1  22    1.38    0.24
   8  -1 -22    1.40    0.24
   8   1 -22    1.54    0.23
  -8   1  22    1.80    0.26
  -7  -1  22    2.95    0.29
   7   1 -22    3.22    0.29
  -7   1  22    2.91    0.30
  -6  -1  22    0.29    0.16
  -6   1  22    0.21    0.15
  -5  -1  22    0.94    0.19
  -5   1  22    1.04    0.19
  -4  -1  22   29.10    0.66
  -4  -1  22   25.95    0.69
  -4   1  22   28.77    0.73
  -4   1  22   28.06    0.66
  -3  -1  22    9.84    0.38
  -3  -1  22    9.77    0.39
  -3   1  22    9.58    0.39
  -3   1  22    9.82    0.38
  -2  -1  22    1.64    0.19
  -1  -1  22   66.70    1.26
  -1  -1  22   67.78    1.16
  -1   1  22   63.74    1.19
  -1   1  22   67.25    1.25
   0  -1  22    0.37    0.15
   1  -1  22   30.35    0.79
   1   1  22   31.58    0.68
   1   1  22   29.99    0.78
   2  -1  22    0.45    0.17
   2   1  22    0.47    0.16
   3  -1  22    3.23    0.30
   3   1  22    3.31    0.30
   4  -1  22    0.09    0.16
   4   1  22    0.20    0.16
   5  -1  22    0.12    0.14
   5   1  22   -0.07    0.14
   6  -1  22    0.53    0.21
   6   1  22    0.62    0.21
   7  -1  22    7.79    0.47
   7   1  22    7.62    0.45
 -10  -2  22   -0.03    0.16
  10  -2 -22   -0.01    0.17
 -10   2  22   -0.02    0.16
   9  -2 -22   18.38    0.71
  -9  -2  22   17.60    0.66
  -9   2  22   18.62    0.67
   9   2 -22   17.90    0.62
   8  -2 -22    4.09    0.34
  -8  -2  22    3.63    0.31
  -8   2  22    3.38    0.32
   8   2 -22    3.52    0.30
  -7  -2  22   37.12    0.94
   7  -2 -22   37.64    0.99
   7   2 -22   38.66    0.91
  -7   2  22   36.71    0.93
  -6  -2  22    1.16    0.21
  -6   2  22    1.61    0.24
  -5  -2  22   21.42    0.64
  -5   2  22   21.78    0.65
  -4  -2  22    1.22    0.19
  -4  -2  22    1.07    0.18
  -4   2  22    1.01    0.18
  -4   2  22    1.00    0.17
  -3  -2  22    1.81    0.21
  -3  -2  22    2.37    0.23
  -3   2  22    2.12    0.23
  -3   2  22    2.15    0.22
  -2  -2  22    1.55    0.21
  -2  -2  22    1.64    0.19
  -2   2  22    1.23    0.19
  -2   2  22    1.50    0.19
  -1  -2  22    0.94    0.18
  -1   2  22    0.82    0.17
  -1   2  22    0.79    0.16
   0  -2  22    8.97    0.42
   0   2  22    9.66    0.38
   0   2  22    9.61    0.41
   1  -2  22    0.17    0.16
   1   2  22    0.28    0.13
   1   2  22    0.37    0.16
   2  -2  22    0.10    0.16
   2   2  22    0.19    0.16
   2   2  22   -0.01    0.12
   3  -2  22    1.25    0.24
   3   2  22    1.12    0.21
   4  -2  22    0.67    0.20
   4   2  22    1.00    0.22
   5  -2  22   -0.09    0.14
   5   2  22   -0.06    0.13
   6  -2  22    0.14    0.20
   6   2  22    0.55    0.19
   7  -2  22   -0.20    0.17
   7   2  22    0.11    0.17
   9  -3 -22    0.44    0.19
  -9  -3  22   -0.01    0.16
  -9   3  22    0.13    0.18
   8  -3 -22    1.21    0.24
  -8  -3  22    1.41    0.25
  -8   3  22    1.09    0.22
  -7  -3  22    8.35    0.43
   7  -3 -22    9.00    0.48
  -7   3  22    8.71    0.45
  -6  -3  22    3.62    0.31
  -6   3  22    3.54    0.32
  -5  -3  22    2.43    0.26
  -5   3  22    2.69    0.26
  -4  -3  22    1.36    0.21
  -4  -3  22    1.28    0.20
  -4   3  22    1.37    0.22
  -3  -3  22    0.22    0.14
  -3  -3  22    0.28    0.14
  -3   3  22   -0.03    0.13
  -3   3  22    0.18    0.14
  -2  -3  22   12.71    0.49
  -2   3  22   12.67    0.48
  -2   3  22   13.07    0.48
  -1  -3  22    8.32    0.41
  -1   3  22    8.17    0.39
  -1   3  22    8.28    0.39
   0  -3  22    1.82    0.25
   0   3  22    1.75    0.22
   0   3  22    2.05    0.25
   1  -3  22   27.16    0.78
   1   3  22   26.59    0.71
   1   3  22   27.25    0.76
   2  -3  22    2.34    0.29
   2   3  22    2.60    0.29
   2   3  22    2.42    0.25
   3  -3  22   20.09    0.70
   3   3  22   20.43    0.68
   3   3  22   20.85    0.61
   4  -3  22    1.91    0.29
   4   3  22    2.08    0.29
   5  -3  22    1.09    0.24
   5   3  22    1.17    0.23
   6  -3  22    1.03    0.24
   6   3  22    0.89    0.22
  -8  -4  22    0.47    0.19
   8  -4 -22    0.79    0.23
  -8   4  22    0.74    0.23
  -7  -4  22    0.23    0.18
   7  -4 -22    0.20    0.18
  -7   4  22    0.19    0.17
  -6  -4  22    1.52    0.24
   6  -4 -22    1.55    0.25
  -6   4  22    1.45    0.25
  -5  -4  22    0.58    0.18
  -5   4  22    0.66    0.19
  -4  -4  22    4.31    0.32
  -4  -4  22    3.48    0.28
  -4   4  22    4.00    0.32
  -3  -4  22    1.82    0.24
  -3   4  22    1.89    0.25
  -2  -4  22   15.46    0.56
  -2   4  22   14.27    0.54
  -1  -4  22   -0.20    0.14
  -1   4  22    0.24    0.14
   0  -4  22    4.86    0.34
   0   4  22    4.49    0.34
   0   4  22    4.59    0.32
   1  -4  22    0.89    0.22
   1   4  22    1.19    0.21
   1   4  22    0.96    0.23
   2  -4  22    1.66    0.28
   2   4  22    1.81    0.25
   2   4  22    1.74    0.27
   3  -4  22    4.99    0.38
   3   4  22    5.95    0.36
   3   4  22    5.91    0.40
   4  -4  22    8.22    0.48
   4   4  22    8.53    0.48
   5  -4  22   -0.14    0.17
   5   4  22    0.33    0.19
  -6  -5  22    2.10    0.29
   6  -5 -22    1.75    0.28
  -6   5  22    1.99    0.29
   5  -5 -22    0.77    0.22
  -5  -5  22    1.15    0.24
  -5   5  22    1.19    0.25
  -4  -5  22    2.81    0.31
  -4   5  22    2.42    0.31
  -3  -5  22    0.28    0.17
  -3   5  22    0.18    0.16
  -2  -5  22    0.13    0.19
  -2   5  22    0.26    0.17
  -1  -5  22   10.59    0.51
  -1   5  22    9.49    0.47
   0  -5  22    2.74    0.32
   0   5  22    2.02    0.27
   1  -5  22   15.97    0.65
   1   5  22   13.78    0.57
   2  -5  22    0.90    0.24
   2   5  22    0.63    0.20
   3  -5  22    5.68    0.43
   3   5  22    5.18    0.37
 -10   0  23    0.29    0.20
  10   0 -23    0.08    0.17
  -9   0  23    2.68    0.31
   9   0 -23    2.28    0.30
  -8   0  23   -0.10    0.13
   8   0 -23   -0.22    0.12
  -7   0  23   27.96    0.80
  -6   0  23    0.27    0.15
  -5   0  23   31.80    0.81
  -4   0  23   -0.07    0.11
  -4   0  23    0.23    0.14
  -3   0  23    0.29    0.13
  -3   0  23    0.11    0.12
  -1   0  23    5.52    0.32
  -1   0  23    4.54    0.26
   0   0  23    1.22    0.19
   0   0  23    1.51    0.17
   1   0  23    0.33    0.16
   2   0  23    0.47    0.17
   3   0  23    2.55    0.28
   5   0  23    1.36    0.24
   7   0  23   12.48    0.58
  10  -1 -23    6.89    0.46
 -10  -1  23    8.13    0.47
  10   1 -23    7.06    0.44
 -10   1  23    7.95    0.47
   9  -1 -23    2.03    0.28
  -9  -1  23    2.52    0.30
   9   1 -23    2.36    0.29
  -9   1  23    2.08    0.29
   8  -1 -23    3.07    0.31
  -8  -1  23    3.55    0.31
   8   1 -23    3.02    0.30
  -8   1  23    3.99    0.32
  -7  -1  23    1.14    0.22
  -7   1  23    1.52    0.24
  -6  -1  23    3.16    0.27
  -6   1  23    2.76    0.26
  -5  -1  23   11.59    0.46
  -5   1  23   11.02    0.46
  -4  -1  23   10.18    0.42
  -4  -1  23   11.49    0.40
  -4   1  23   10.75    0.40
  -4   1  23   10.83    0.44
  -3  -1  23    0.98    0.17
  -3  -1  23    0.49    0.15
  -3   1  23    0.51    0.15
  -3   1  23    0.54    0.15
  -2  -1  23    0.52    0.14
  -2  -1  23    0.42    0.15
  -2   1  23    0.48    0.15
  -2   1  23    0.38    0.14
   0  -1  23    4.50    0.31
   0   1  23    4.61    0.31
   0   1  23    4.20    0.25
   1  -1  23   16.91    0.59
   1   1  23   17.46    0.58
   1   1  23   17.12    0.48
   2  -1  23    1.47    0.23
   2   1  23    1.50    0.23
   3  -1  23    8.93    0.46
   3   1  23   10.66    0.48
   4  -1  23    0.40    0.18
   4   1  23    0.23    0.16
   5  -1  23    2.04    0.28
   5   1  23    2.57    0.30
   6  -1  23   20.57    0.74
   6   1  23   21.05    0.73
   7  -1  23   -0.13    0.17
   7   1  23    0.09    0.17
 -10  -2  23    2.07    0.31
  10  -2 -23    1.84    0.30
 -10   2  23    2.16    0.31
   9  -2 -23    0.57    0.21
  -9  -2  23    0.31    0.17
  -9   2  23    0.65    0.20
   8  -2 -23    0.17    0.17
  -8  -2  23    0.32    0.18
   8   2 -23    0.15    0.15
  -8   2  23    0.13    0.17
  -7  -2  23    5.88    0.37
   7  -2 -23    6.39    0.42
   7   2 -23    6.39    0.38
  -7   2  23    6.80    0.39
  -6  -2  23    7.81    0.40
  -6   2  23    7.62    0.41
  -5  -2  23    0.18    0.14
  -5   2  23    0.17    0.14
  -4  -2  23   46.45    1.00
  -4  -2  23   46.77    0.96
  -4   2  23   45.78    1.02
  -4   2  23   47.60    0.96
  -3  -2  23    4.43    0.30
  -3  -2  23    4.59    0.29
  -3   2  23    5.31    0.30
  -3   2  23    4.38    0.29
  -2  -2  23    3.39    0.25
  -2  -2  23    3.23    0.27
  -2   2  23    3.43    0.27
  -2   2  23    3.32    0.26
  -1  -2  23   -0.12    0.13
  -1   2  23    0.14    0.12
  -1   2  23    0.12    0.13
   0  -2  23    6.07    0.36
   0   2  23    6.75    0.33
   0   2  23    7.38    0.38
   1  -2  23    0.10    0.15
   1   2  23   -0.14    0.13
   1   2  23    0.13    0.12
   2  -2  23   10.16    0.48
   2   2  23    9.81    0.46
   2   2  23   10.73    0.41
   3  -2  23   -0.01    0.16
   3   2  23    0.02    0.14
   4  -2  23    0.12    0.16
   4   2  23   -0.33    0.14
   5  -2  23    0.05    0.17
   5   2  23   -0.01    0.14
   6  -2  23    0.30    0.19
   6   2  23    0.27    0.18
   9  -3 -23    0.18    0.18
  -9  -3  23    0.35    0.19
  -9   3  23    0.10    0.18
   8  -3 -23    0.68    0.21
  -8  -3  23    0.53    0.20
  -8   3  23    0.24    0.18
   7  -3 -23    1.25    0.24
  -7  -3  23    1.23    0.22
  -7   3  23    1.42    0.24
  -6  -3  23    2.79    0.29
  -6   3  23    2.86    0.31
  -5  -3  23   10.90    0.47
  -5   3  23   11.09    0.48
  -4  -3  23    0.54    0.16
  -4  -3  23    0.16    0.14
  -4   3  23    0.17    0.14
  -3  -3  23    1.11    0.19
  -3  -3  23    1.59    0.23
  -3   3  23    1.13    0.20
  -3   3  23    1.04    0.20
  -2  -3  23    0.35    0.17
  -2   3  23    0.48    0.16
  -2   3  23    0.50    0.16
  -1  -3  23    9.03    0.43
  -1   3  23    8.81    0.42
  -1   3  23    8.01    0.39
   0  -3  23    2.14    0.27
   0   3  23    2.15    0.25
   0   3  23    2.20    0.26
   1  -3  23   20.91    0.69
   1   3  23   21.54    0.63
   1   3  23   21.60    0.69
   2  -3  23   13.22    0.57
   2   3  23   13.04    0.54
   2   3  23   13.19    0.48
   3  -3  23   17.82    0.68
   3   3  23   18.18    0.66
   4  -3  23    7.79    0.46
   4   3  23    9.32    0.47
   5  -3  23    0.03    0.17
   5   3  23    0.14    0.17
  -8  -4  23    0.60    0.20
   8  -4 -23    0.37    0.20
  -8   4  23    0.38    0.21
   7  -4 -23    5.95    0.43
  -7  -4  23    6.42    0.41
  -7   4  23    6.48    0.41
   6  -4 -23    1.23    0.25
  -6  -4  23    1.44    0.24
  -6   4  23    1.12    0.24
  -5  -4  23   14.26    0.54
  -5   4  23   13.22    0.55
  -4  -4  23    3.21    0.30
  -4  -4  23    2.85    0.28
  -4   4  23    2.76    0.30
  -3  -4  23    2.98    0.30
  -3   4  23    2.83    0.30
  -2  -4  23    1.90    0.27
  -2   4  23    2.15    0.27
  -1  -4  23    0.19    0.16
  -1   4  23    0.22    0.14
   0  -4  23    2.00    0.28
   0   4  23    1.89    0.27
   0   4  23    1.55    0.23
   1  -4  23    3.43    0.34
   1   4  23    3.48    0.29
   1   4  23    3.46    0.31
   2  -4  23    8.49    0.48
   2   4  23    8.53    0.43
   2   4  23    8.95    0.47
   3  -4  23    9.92    0.53
   3   4  23    9.37    0.45
   3   4  23    9.55    0.50
   4  -4  23    1.68    0.29
   4   4  23    2.13    0.31
   5  -5 -23    0.15    0.18
  -5  -5  23   -0.02    0.16
  -5   5  23    0.30    0.18
  -4   5  23    0.99    0.23
  -3  -5  23    0.39    0.19
  -3   5  23    0.14    0.17
  -2  -5  23    0.60    0.22
  -2   5  23    0.47    0.18
  -1  -5  23    0.00    0.17
  -1   5  23    0.35    0.17
   0  -5  23    0.62    0.22
   0   5  23    1.07    0.23
   1  -5  23    4.09    0.38
   1   5  23    4.25    0.35
   2  -5  23    0.10    0.19
   2   5  23    0.27    0.17
  10   0 -24    7.54    0.47
 -10   0  24    7.71    0.46
  -9   0  24    0.10    0.16
   9   0 -24   -0.12    0.15
  -8   0  24    1.63    0.26
   8   0 -24    1.41    0.25
  -7   0  24    0.13    0.17
  -6   0  24    6.98    0.40
  -5   0  24    0.12    0.15
  -4   0  24   17.63    0.52
  -4   0  24   18.37    0.57
  -3   0  24   -0.04    0.11
  -3   0  24    0.10    0.12
  -2   0  24    4.00    0.26
  -2   0  24    4.27    0.29
  -1   0  24    0.26    0.12
  -1   0  24    0.19    0.13
   0   0  24    0.08    0.14
   1   0  24    0.20    0.15
   2   0  24    1.18    0.21
   3   0  24    0.13    0.15
   4   0  24   -0.03    0.14
   5   0  24    0.10    0.17
   6   0  24    6.04    0.43
 -10  -1  24    4.10    0.37
  10  -1 -24    3.78    0.36
  10   1 -24    3.95    0.35
 -10   1  24    4.19    0.37
  -9  -1  24    4.51    0.35
   9  -1 -24    4.50    0.39
   9   1 -24    4.36    0.36
  -9   1  24    4.74    0.36
  -8  -1  24    2.08    0.28
   8  -1 -24    2.09    0.29
  -8   1  24    2.32    0.29
   8   1 -24    2.07    0.27
  -7  -1  24   19.55    0.66
  -7   1  24   19.82    0.67
  -6  -1  24    1.69    0.25
  -6   1  24    2.18    0.27
  -5  -1  24   15.85    0.55
  -5   1  24   15.00    0.55
  -4  -1  24    2.32    0.25
  -4  -1  24    2.78    0.24
  -4   1  24    1.77    0.22
  -4   1  24    2.34    0.23
  -3  -1  24    2.41    0.24
  -3  -1  24    2.83    0.24
  -3   1  24    2.83    0.24
  -3   1  24    2.63    0.25
  -2  -1  24   10.58    0.40
  -2  -1  24   11.49    0.45
  -2   1  24   10.78    0.42
  -2   1  24   11.50    0.44
  -1  -1  24    1.33    0.21
  -1   1  24    0.76    0.16
  -1   1  24    0.82    0.18
   0  -1  24    0.45    0.16
   0   1  24    0.78    0.18
   0   1  24    0.60    0.14
   1  -1  24    2.99    0.28
   1   1  24    3.52    0.29
   2  -1  24    2.27    0.27
   2   1  24    2.59    0.29
   3  -1  24    1.00    0.22
   3   1  24    1.32    0.23
   4  -1  24    5.25    0.38
   4   1  24    5.63    0.39
   5  -1  24    0.09    0.17
   5   1  24   -0.09    0.16
   6  -1  24    3.35    0.38
   6   1  24    3.95    0.34
   9  -2 -24    0.64    0.21
  -9  -2  24    0.68    0.21
  -9   2  24    0.91    0.22
   8  -2 -24    0.75    0.21
  -8  -2  24    0.81    0.21
  -8   2  24    1.12    0.24
   8   2 -24    1.26    0.23
  -7  -2  24    0.75    0.19
  -7   2  24    0.56    0.18
   7   2 -24    0.51    0.17
  -6  -2  24    8.89    0.44
  -6   2  24    9.51    0.45
  -5  -2  24    0.18    0.15
  -5   2  24    0.11    0.15
  -4  -2  24    0.33    0.16
  -4   2  24    0.31    0.14
  -3  -2  24   20.68    0.61
  -3  -2  24   20.43    0.59
  -3   2  24   19.91    0.61
  -3   2  24   20.34    0.59
  -2  -2  24    7.76    0.40
  -2   2  24    7.42    0.37
  -2   2  24    7.20    0.37
  -1  -2  24   21.22    0.66
  -1   2  24   21.52    0.65
  -1   2  24   21.27    0.61
   0  -2  24    0.23    0.16
   0   2  24    0.14    0.13
   0   2  24    0.35    0.13
   1  -2  24   17.31    0.63
   1   2  24   17.57    0.53
   1   2  24   17.50    0.61
   2  -2  24    3.90    0.34
   2   2  24    4.11    0.32
   3  -2  24   15.49    0.61
   3   2  24   15.28    0.60
   4  -2  24    0.46    0.20
   4   2  24    0.91    0.23
   5  -2  24    1.57    0.27
   5   2  24    1.13    0.24
   6  -2  24   -0.07    0.19
   6   2  24   -0.16    0.16
  -9  -3  24    3.01    0.35
  -9   3  24    3.31    0.35
  -8  -3  24    0.02    0.15
   8  -3 -24   -0.23    0.15
  -8   3  24   -0.05    0.15
  -7  -3  24    6.67    0.41
   7  -3 -24    6.12    0.43
  -7   3  24    6.65    0.42
  -6  -3  24    0.08    0.15
  -6   3  24    0.10    0.16
  -5  -3  24    9.16    0.44
  -5   3  24    9.23    0.45
  -4  -3  24    0.22    0.16
  -4  -3  24    0.30    0.15
  -4   3  24    0.29    0.16
  -3  -3  24    0.25    0.16
  -3   3  24    0.40    0.17
  -3   3  24    0.47    0.17
  -2  -3  24    1.29    0.23
  -2   3  24    1.11    0.19
  -2   3  24    1.36    0.22
  -1  -3  24    6.59    0.39
  -1   3  24    6.43    0.35
  -1   3  24    6.39    0.37
   0  -3  24    5.58    0.36
   0   3  24    5.11    0.32
   0   3  24    5.65    0.35
   1  -3  24    0.07    0.18
   1   3  24    0.26    0.17
   1   3  24    0.35    0.15
   2  -3  24    5.46    0.39
   2   3  24    5.64    0.39
   2   3  24    5.46    0.33
   3  -3  24   -0.04    0.16
   3   3  24    0.14    0.17
   4  -3  24    1.55    0.27
   4   3  24    2.05    0.29
   5  -3  24    0.82    0.24
   5   3  24    0.60    0.21
  -7  -4  24    0.60    0.21
   7  -4 -24    0.51    0.20
  -7   4  24    0.49    0.20
   6  -4 -24    5.02    0.40
  -6  -4  24    4.78    0.35
  -6   4  24    4.71    0.38
  -5  -4  24    0.21    0.17
  -5   4  24    0.08    0.15
  -4   4  24   30.22    0.86
  -3  -4  24   -0.07    0.15
  -3   4  24    0.00    0.14
  -2  -4  24   27.20    0.80
  -2   4  24   28.38    0.81
  -1  -4  24    1.18    0.23
  -1   4  24    0.67    0.20
  -1   4  24    1.04    0.21
   0  -4  24    1.51    0.26
   0   4  24    1.31    0.25
   0   4  24    1.09    0.22
   1  -4  24    3.70    0.38
   1   4  24    3.77    0.33
   1   4  24    3.77    0.31
   2  -4  24    6.82    0.44
   2   4  24    6.49    0.38
   2   4  24    7.02    0.43
   3  -4  24    4.09    0.39
   3   4  24    3.52    0.30
   3   4  24    4.32    0.36
  -4   5  24    0.98    0.24
  -3  -5  24    0.08    0.17
  -3   5  24    0.10    0.16
  -2  -5  24    0.81    0.23
  -2   5  24    0.64    0.21
  -1  -5  24    0.19    0.18
  -1   5  24    0.33    0.17
   0  -5  24    3.26    0.37
   0   5  24    3.48    0.33
   1  -5  24    6.32    0.44
   1   5  24    7.20    0.43
 -10   0  25   -0.11    0.17
  10   0 -25    0.05    0.17
   9   0 -25   -0.16    0.15
  -9   0  25    0.07    0.17
  -8   0  25    0.13    0.17
   8   0 -25   -0.14    0.14
  -7   0  25   14.51    0.58
  -6   0  25   -0.04    0.14
  -5   0  25    9.90    0.45
  -4   0  25    0.35    0.14
  -4   0  25    0.11    0.14
  -3   0  25    7.74    0.37
  -3   0  25    7.15    0.36
  -2   0  25    0.20    0.13
  -2   0  25    0.09    0.13
  -1   0  25   10.62    0.45
  -1   0  25   10.89    0.40
   0   0  25   -0.04    0.14
   1   0  25   48.30    1.10
   2   0  25   -0.13    0.12
   3   0  25   25.93    0.79
   4   0  25    0.06    0.15
   5   0  25    0.03    0.17
   6   0  25    0.09    0.19
  -9  -1  25    0.22    0.17
   9  -1 -25   -0.06    0.17
  -9   1  25    0.44    0.19
   9   1 -25    0.07    0.15
   8  -1 -25    0.74    0.22
  -8  -1  25    1.21    0.24
   8   1 -25    0.80    0.21
  -8   1  25    1.11    0.23
  -7  -1  25   11.57    0.51
  -7   1  25   12.12    0.52
  -6  -1  25    3.74    0.31
  -6   1  25    4.23    0.33
  -5  -1  25   12.04    0.49
  -5   1  25   11.60    0.48
  -4  -1  25    4.46    0.31
  -4  -1  25    4.55    0.30
  -4   1  25    4.53    0.30
  -4   1  25    4.06    0.31
  -3  -1  25   18.14    0.56
  -3  -1  25   17.18    0.55
  -3   1  25   17.53    0.55
  -3   1  25   17.62    0.57
  -2  -1  25   13.51    0.46
  -2  -1  25   13.34    0.49
  -2   1  25   12.81    0.48
  -2   1  25   12.76    0.47
  -1  -1  25    0.50    0.18
  -1   1  25    0.51    0.17
  -1   1  25    0.56    0.15
   0  -1  25    7.41    0.40
   0   1  25    7.84    0.35
   0   1  25    8.03    0.40
   1  -1  25    3.16    0.32
   1   1  25    3.53    0.32
   2  -1  25    0.57    0.18
   2   1  25    0.71    0.19
   3  -1  25    0.87    0.22
   3   1  25    0.76    0.22
   4  -1  25    0.50    0.19
   4   1  25    0.47    0.18
   5  -1  25    0.08    0.16
   5   1  25    0.37    0.19
   6  -1  25    0.61    0.23
   6   1  25    0.72    0.23
  -9  -2  25   -0.14    0.16
   9  -2 -25   -0.18    0.13
  -9   2  25    0.00    0.17
  -8  -2  25   11.29    0.53
   8  -2 -25   10.86    0.55
   8   2 -25   11.12    0.50
  -8   2  25   11.26    0.53
  -7  -2  25    0.75    0.21
   7   2 -25    0.65    0.19
  -7   2  25    0.65    0.19
  -6  -2  25    2.68    0.30
  -6   2  25    2.51    0.30
  -5  -2  25    1.07    0.21
  -5   2  25    0.93    0.21
  -4  -2  25    7.43    0.38
  -4   2  25    7.36    0.36
  -4   2  25    7.07    0.38
  -3  -2  25    1.00    0.20
  -3  -2  25    1.19    0.21
  -3   2  25    1.19    0.20
  -3   2  25    1.27    0.20
  -2  -2  25   48.27    1.07
  -2   2  25   48.55    1.05
  -2   2  25   47.64    1.04
  -1  -2  25    1.15    0.22
  -1   2  25    1.44    0.22
   0  -2  25    6.09    0.37
   0   2  25    6.09    0.33
   0   2  25    5.76    0.35
   1  -2  25    7.39    0.42
   1   2  25    8.11    0.44
   1   2  25    8.32    0.38
   2  -2  25   -0.04    0.16
   2   2  25    0.28    0.18
   3  -2  25    3.31    0.32
   3   2  25    3.67    0.34
   4  -2  25    2.65    0.32
   4   2  25    2.57    0.32
   5  -2  25   -0.10    0.17
   5   2  25    0.14    0.18
   8  -3 -25    0.08    0.18
  -8  -3  25    0.17    0.16
  -8   3  25   -0.02    0.16
   7  -3 -25    0.81    0.23
  -7  -3  25    0.86    0.22
  -7   3  25    1.26    0.25
  -6  -3  25    1.43    0.24
  -6   3  25    1.58    0.25
  -5  -3  25   10.76    0.47
  -5   3  25   11.59    0.52
  -4  -3  25    8.12    0.40
  -4   3  25    7.52    0.41
  -3  -3  25   16.69    0.59
  -3   3  25   16.38    0.59
  -3   3  25   16.08    0.56
  -2  -3  25   10.52    0.48
  -2   3  25   10.75    0.47
  -2   3  25   10.42    0.46
  -1  -3  25    0.68    0.20
  -1   3  25    0.39    0.16
  -1   3  25    0.38    0.18
   0  -3  25   -0.09    0.14
   0   3  25    0.17    0.13
   0   3  25    0.11    0.15
   1  -3  25    6.98    0.44
   1   3  25    6.29    0.36
   1   3  25    6.94    0.42
   2  -3  25    1.02    0.25
   2   3  25    1.24    0.24
   3  -3  25    0.21    0.19
   3   3  25    0.38    0.21
   4  -3  25    0.76    0.23
   4   3  25    0.40    0.20
  -6  -4  25    0.92    0.23
   6  -4 -25    0.12    0.19
  -6   4  25    0.29    0.19
  -5  -4  25    8.36    0.43
  -5   4  25    7.26    0.44
  -4   4  25    0.49    0.19
  -3  -4  25   -0.02    0.15
  -3   4  25    0.20    0.16
  -2  -4  25   -0.46    0.15
  -2   4  25    0.25    0.16
  -1  -4  25    5.12    0.38
  -1   4  25    5.07    0.37
  -1   4  25    4.88    0.35
   0  -4  25    0.02    0.17
   0   4  25   -0.07    0.14
   0   4  25   -0.08    0.16
   1  -4  25   10.64    0.54
   1   4  25   10.58    0.52
   1   4  25   10.82    0.49
   2  -4  25    0.57    0.21
   2   4  25    0.23    0.19
   2   4  25    0.26    0.17
   3  -4  25   11.62    0.58
   3   4  25   12.46    0.57
  -2  -5  25    2.86    0.34
  -2   5  25    2.56    0.32
  -1  -5  25    0.60    0.22
  -9   0  26   -0.04    0.17
   9   0 -26   -0.14    0.15
   8   0 -26    0.03    0.16
  -8   0  26    0.17    0.18
  -7   0  26    0.32    0.18
  -6   0  26   -0.07    0.15
  -5   0  26    0.08    0.14
  -4   0  26    0.76    0.19
  -3   0  26    0.26    0.14
  -3   0  26    0.17    0.13
  -2   0  26    4.40    0.32
  -2   0  26    5.07    0.31
  -1   0  26    0.68    0.18
   0   0  26    2.61    0.29
   1   0  26    3.84    0.32
   2   0  26   -0.10    0.12
   4   0  26    5.74    0.39
   5   0  26    0.04    0.17
  -9  -1  26    0.33    0.18
   9  -1 -26    0.14    0.18
   9   1 -26    0.29    0.18
  -9   1  26    0.43    0.20
   8  -1 -26    3.75    0.36
  -8  -1  26    3.82    0.34
   8   1 -26    4.05    0.35
  -8   1  26    3.79    0.33
  -7  -1  26    0.20    0.18
  -7   1  26    0.22    0.18
  -6  -1  26    0.23    0.16
  -6   1  26    0.35    0.17
  -5  -1  26    9.75    0.45
  -5   1  26    9.96    0.46
  -4  -1  26   22.52    0.66
  -4   1  26   21.63    0.66
  -4   1  26   23.00    0.63
  -3  -1  26    1.56    0.21
  -3   1  26    1.75    0.23
  -2  -1  26   34.87    0.80
  -2  -1  26   35.10    0.87
  -2   1  26   35.29    0.86
  -2   1  26   35.38    0.84
  -1  -1  26    1.05    0.21
  -1   1  26    1.02    0.20
  -1   1  26    1.11    0.19
   0  -1  26    2.62    0.29
   0   1  26    2.72    0.30
   1  -1  26    3.82    0.33
   1   1  26    3.21    0.30
   2  -1  26    2.95    0.31
   2   1  26    2.86    0.31
   3  -1  26    4.39    0.36
   3   1  26    4.52    0.35
   4  -1  26    0.44    0.19
   4   1  26    0.53    0.21
   5  -1  26    5.42    0.42
   5   1  26    6.18    0.43
  -8  -2  26    0.58    0.22
   8  -2 -26    0.27    0.18
  -8   2  26    0.38    0.20
  -7  -2  26   11.35    0.52
  -7   2  26    9.98    0.49
  -6  -2  26    0.05    0.15
  -6   2  26    0.07    0.16
  -5  -2  26   21.81    0.68
  -5   2  26   22.01    0.70
  -4  -2  26    0.72    0.19
  -4   2  26    0.66    0.17
  -4   2  26    1.04    0.21
  -3  -2  26   24.04    0.67
  -3  -2  26   23.90    0.69
  -3   2  26   23.87    0.68
  -3   2  26   23.95    0.71
  -2   2  26    0.90    0.19
  -1  -2  26    1.31    0.23
  -1   2  26    1.26    0.23
  -1   2  26    1.39    0.21
   0  -2  26    0.11    0.16
   0   2  26    0.53    0.18
   0   2  26    0.21    0.14
   1  -2  26   31.50    0.90
   1   2  26   31.82    0.88
   2  -2  26    6.72    0.43
   2   2  26    6.17    0.41
   3  -2  26    7.72    0.46
   3   2  26    8.20    0.47
   4  -2  26    0.38    0.20
   4   2  26    0.44    0.19
  -7  -3  26    3.10    0.34
   7  -3 -26    3.26    0.36
  -7   3  26    3.06    0.34
  -6  -3  26    0.79    0.22
  -6   3  26    0.82    0.22
  -5  -3  26    3.33    0.31
  -5   3  26    3.42    0.31
  -4   3  26    5.85    0.38
  -3  -3  26    1.29    0.24
  -3   3  26    1.13    0.22
  -3   3  26    1.06    0.21
  -2  -3  26   11.56    0.51
  -2   3  26   11.23    0.48
  -2   3  26   10.84    0.48
  -1  -3  26    0.10    0.17
  -1   3  26    0.15    0.14
  -1   3  26    0.00    0.15
   0  -3  26    1.39    0.26
   0   3  26    1.66    0.23
   0   3  26    1.46    0.25
   1  -3  26   -0.08    0.16
   1   3  26    0.26    0.16
   1   3  26    0.27    0.15
   2  -3  26   -0.11    0.15
   2   3  26    0.00    0.18
   3  -3  26    5.07    0.41
   3   3  26    5.17    0.38
  -5   4  26    0.15    0.18
  -4   4  26   -0.03    0.16
  -3  -4  26    0.40    0.18
  -3   4  26    0.36    0.18
  -2  -4  26    0.40    0.20
  -2   4  26    0.56    0.19
  -1  -4  26   -0.09    0.16
  -1   4  26    0.00    0.18
  -1   4  26    0.18    0.16
   0  -4  26    0.02    0.18
   0   4  26    0.16    0.15
   0   4  26    0.09    0.19
   1  -4  26    1.06    0.26
   1   4  26    0.78    0.23
   1   4  26    0.93    0.21
  -9   0  27    2.49    0.32
  -8   0  27    0.08    0.16
   8   0 -27   -0.30    0.13
  -7   0  27   10.16    0.50
  -6   0  27   -0.16    0.15
  -5   0  27   30.47    0.83
  -4   0  27    0.11    0.14
  -3   0  27    2.80    0.27
  -3   0  27    2.97    0.27
  -2   0  27    0.15    0.16
  -2   0  27    0.17    0.14
  -1   0  27    5.91    0.37
   0   0  27    0.09    0.16
   1   0  27    3.67    0.32
   2   0  27   -0.19    0.14
   3   0  27    3.01    0.34
   4   0  27    0.23    0.17
  -8  -1  27    1.43    0.26
   8  -1 -27    1.79    0.28
   8   1 -27    1.40    0.25
  -8   1  27    1.71    0.29
  -7  -1  27    0.80    0.22
  -7   1  27    0.83    0.21
  -6  -1  27    0.88    0.22
  -6   1  27    1.46    0.25
  -5  -1  27    1.88    0.26
  -5   1  27    1.93    0.27
  -4  -1  27   13.50    0.52
  -4   1  27   14.58    0.55
  -3  -1  27    0.42    0.16
  -3  -1  27    0.73    0.18
  -3   1  27    0.13    0.16
  -3   1  27    0.41    0.17
  -2  -1  27   21.34    0.66
  -2   1  27   20.66    0.62
  -2   1  27   20.84    0.65
  -1  -1  27    0.23    0.17
  -1   1  27    0.21    0.16
  -1   1  27    0.31    0.14
   0  -1  27    5.21    0.37
   0   1  27    5.56    0.36
   1  -1  27    6.39    0.41
   1   1  27    5.96    0.40
   2  -1  27    0.33    0.17
   2   1  27    0.28    0.19
   3  -1  27    2.39    0.31
   3   1  27    2.55    0.32
   4  -1  27    0.00    0.15
   4   1  27    0.02    0.16
  -8  -2  27    5.63    0.39
   8  -2 -27    6.16    0.45
  -8   2  27    5.69    0.41
  -7  -2  27    0.32    0.19
  -7   2  27    0.50    0.21
  -6  -2  27    1.11    0.23
  -6   2  27    1.26    0.24
  -5  -2  27    0.39    0.18
  -5   2  27    0.48    0.19
  -4  -2  27    2.07    0.26
  -4   2  27    2.22    0.28
  -3  -2  27    0.59    0.18
  -2  -2  27    7.64    0.42
  -2   2  27    7.73    0.40
  -2   2  27    7.30    0.40
  -1  -2  27    0.47    0.18
  -1   2  27    0.44    0.18
  -1   2  27    0.42    0.16
   0  -2  27   14.70    0.59
   0   2  27   16.37    0.55
   0   2  27   16.13    0.60
   1  -2  27    2.33    0.30
   1   2  27    2.48    0.29
   2  -2  27    3.67    0.34
   2   2  27    4.56    0.35
   3  -2  27    0.08    0.18
   3   2  27    0.27    0.19
   4  -2  27    1.16    0.26
   4   2  27    0.88    0.24
  -7  -3  27    4.30    0.37
  -7   3  27    4.18    0.37
  -6  -3  27    0.70    0.21
  -6   3  27    0.33    0.20
  -5  -3  27    1.83    0.27
  -5   3  27    1.95    0.28
  -4   3  27    3.31    0.32
  -3  -3  27    0.11    0.16
  -3   3  27   -0.03    0.15
  -3   3  27    0.42    0.17
  -2  -3  27   11.26    0.52
  -2   3  27   12.20    0.52
  -2   3  27   11.92    0.51
  -1  -3  27    1.62    0.26
  -1   3  27    1.59    0.26
  -1   3  27    1.40    0.23
   0  -3  27    5.68    0.41
   0   3  27    5.25    0.37
   0   3  27    5.39    0.35
   1  -3  27    1.79    0.30
   1   3  27    1.68    0.27
   2  -3  27    1.72    0.30
   2   3  27    1.45    0.27
  -4   4  27    2.57    0.31
  -3  -4  27    1.73    0.27
  -3   4  27    1.21    0.24
  -2  -4  27    0.08    0.17
  -2   4  27    0.03    0.16
  -1  -4  27    0.24    0.19
  -1   4  27   -0.09    0.17
  -1   4  27    0.19    0.16
   0  -4  27   -0.21    0.18
   0   4  27   -0.05    0.18
   0   4  27    0.12    0.16
   8   0 -28    0.08    0.16
  -8   0  28   -0.29    0.15
  -7   0  28   -0.05    0.17
  -6   0  28    2.74    0.31
  -5   0  28    0.38    0.17
  -4   0  28   13.31    0.52
  -3   0  28    0.21    0.16
  -3   0  28   -0.04    0.13
  -2   0  28   30.63    0.82
  -2   0  28   29.39    0.75
  -1   0  28    0.49    0.18
   0   0  28   15.09    0.58
   1   0  28    0.25    0.18
   2   0  28    3.55    0.37
   3   0  28    0.12    0.18
   4   0  28    1.93    0.29
   8  -1 -28    1.63    0.28
  -8  -1  28    1.82    0.29
   8   1 -28    1.28    0.26
  -8   1  28    1.44    0.27
  -7  -1  28    5.40    0.39
  -7   1  28    4.57    0.37
  -6  -1  28    0.13    0.17
  -6   1  28    0.21    0.17
  -5  -1  28    9.77    0.46
  -5   1  28    8.96    0.44
  -4  -1  28    1.02    0.21
  -4   1  28    1.10    0.21
  -3  -1  28    1.52    0.24
  -3  -1  28    1.52    0.22
  -3   1  28    1.65    0.24
  -3   1  28    1.46    0.23
  -2  -1  28    3.88    0.33
  -2   1  28    4.30    0.31
  -2   1  28    4.05    0.33
  -1  -1  28    3.69    0.32
  -1   1  28    3.28    0.29
   0  -1  28    1.59    0.26
   0   1  28    1.84    0.26
   1  -1  28    3.90    0.35
   1   1  28    3.79    0.34
   2  -1  28    0.08    0.15
   2   1  28   -0.02    0.15
   3  -1  28    5.54    0.42
   3   1  28    5.62    0.41
  -7  -2  28   16.78    0.66
  -7   2  28   19.53    0.71
  -6  -2  28    0.06    0.16
  -6   2  28   -0.06    0.16
  -5  -2  28   12.36    0.52
  -5   2  28   11.89    0.53
  -4  -2  28    0.29    0.16
  -4   2  28    0.21    0.16
  -3  -2  28    5.67    0.37
  -3   2  28    5.94    0.36
  -3   2  28    6.37    0.38
  -2  -2  28    1.28    0.24
  -2   2  28    0.82    0.21
  -2   2  28    0.79    0.18
  -1  -2  28   -0.07    0.15
  -1   2  28    0.32    0.17
  -1   2  28   -0.11    0.12
   0  -2  28    1.10    0.25
   0   2  28    1.60    0.26
   1  -2  28    0.36    0.21
   1   2  28    0.35    0.18
   2  -2  28    1.68    0.28
   2   2  28    1.05    0.23
   3  -2  28    0.53    0.21
   3   2  28    1.06    0.24
  -5   3  28    7.77    0.46
  -4   3  28    0.14    0.16
  -3  -3  28    0.33    0.18
  -3   3  28    0.18    0.17
  -3   3  28    0.17    0.17
  -2  -3  28   -0.10    0.17
  -2   3  28    0.46    0.17
  -2   3  28    0.34    0.18
  -1  -3  28    3.54    0.36
  -1   3  28    2.85    0.32
  -1   3  28    3.14    0.31
   0  -3  28    1.09    0.26
   0   3  28    0.93    0.24
   0   3  28    0.97    0.21
   1  -3  28   11.14    0.57
   1   3  28   10.08    0.53
  -7   0  29   -0.05    0.16
  -6   0  29   -0.03    0.16
  -5   0  29    2.46    0.30
  -4   0  29    0.29    0.16
  -3   0  29   16.76    0.58
  -3   0  29   16.66    0.58
  -1   0  29    3.36    0.32
   0   0  29    1.29    0.24
   1   0  29    0.41    0.20
   2   0  29    0.37    0.20
   3   0  29    1.44    0.28
  -7  -1  29    0.67    0.22
  -7   1  29    0.47    0.21
  -6  -1  29    0.81    0.22
  -6   1  29    0.63    0.20
  -5  -1  29    3.44    0.31
  -5   1  29    3.72    0.33
  -4  -1  29   12.01    0.51
  -4   1  29   11.67    0.51
  -3  -1  29   12.55    0.52
  -3   1  29   14.01    0.53
  -3   1  29   13.71    0.54
  -2  -1  29    5.13    0.37
  -2   1  29    5.46    0.34
  -2   1  29    5.64    0.38
  -1  -1  29    0.17    0.17
  -1   1  29    0.12    0.16
   0  -1  29    0.28    0.18
   0   1  29    1.10    0.23
   1  -1  29    1.81    0.28
   1   1  29    2.01    0.28
   2  -1  29    0.43    0.21
   2   1  29    0.36    0.19
  -6  -2  29   -0.07    0.17
  -6   2  29    0.07    0.17
  -5  -2  29    0.27    0.18
  -5   2  29    0.53    0.19
  -4   2  29    0.15    0.15
  -3  -2  29    0.26    0.17
  -3   2  29    0.12    0.15
  -3   2  29    0.05    0.15
  -2  -2  29   15.94    0.61
  -2   2  29   16.98    0.60
  -2   2  29   16.83    0.61
  -1  -2  29    1.26    0.25
  -1   2  29    1.52    0.25
  -1   2  29    1.24    0.22
   0  -2  29   25.65    0.82
   0   2  29   24.69    0.79
   1  -2  29    0.05    0.17
   1   2  29    0.15    0.19
   2  -2  29    3.98    0.36
   2   2  29    4.10    0.37
  -4   3  29    2.13    0.29
  -3   3  29    4.33    0.35
  -3   3  29    4.22    0.35
  -2  -3  29    4.31    0.37
  -2   3  29    4.40    0.34
  -2   3  29    4.45    0.36
  -1  -3  29    0.16    0.19
  -1   3  29    0.02    0.15
  -1   3  29    0.36    0.19
   0  -3  29    0.86    0.26
  -6   0  30    2.51    0.31
  -5   0  30    0.00    0.15
  -4   0  30    2.39    0.29
  -2   0  30    2.88    0.31
  -1   0  30    0.16    0.17
   0   0  30   14.86    0.62
   1   0  30   -0.18    0.16
  -6  -1  30    0.15    0.18
  -6   1  30    0.37    0.19
  -5  -1  30   14.32    0.58
  -5   1  30   13.96    0.58
  -4   1  30    3.56    0.32
  -3   1  30    9.29    0.45
  -3   1  30    9.58    0.46
  -2  -1  30    3.44    0.33
  -2   1  30    3.34    0.34
  -1  -1  30    0.05    0.16
  -1   1  30   -0.06    0.15
   0  -1  30    6.61    0.43
   0   1  30    6.01    0.41
   1  -1  30    0.56    0.22
   1   1  30    0.48    0.20
  -5   2  30    0.05    0.17
  -4   2  30    0.24    0.18
  -3   2  30    2.11    0.27
  -3   2  30    1.83    0.26
  -2  -2  30    2.72    0.31
  -2   2  30    2.43    0.30
  -2   2  30    2.43    0.28
  -1  -2  30    1.81    0.28
  -1   2  30    1.93    0.28
   0  -2  30    1.46    0.27
   0   2  30    1.49    0.26
  -5   0  31    6.10    0.40
  -4   0  31   -0.03    0.16
  -2   0  31    0.18    0.17
  -1   0  31    0.49    0.20
   0   0  31    0.75    0.23
  -4   1  31    1.37    0.25
  -3   1  31    0.62    0.19
  -2  -1  31    4.85    0.37
  -2   1  31    5.12    0.38
  -1  -1  31   -0.01    0.16
  -1   1  31    0.12    0.17
   0   0   0    0.00    0.00
;
_shelx_hkl_checksum              22977
_olex2_submission_special_instructions 'No special instructions were received'
loop_
_space_group_symop_operation_xyz
'x, y, z'
'-x+1/2, y+1/2, -z+1/2'
'-x, -y, -z'
'x-1/2, -y-1/2, z-1/2'
loop_
_atom_site_label
_atom_site_type_symbol
_atom_site_fract_x
_atom_site_fract_y
_atom_site_fract_z
_atom_site_U_iso_or_equiv
_atom_site_adp_type
_atom_site_occupancy
_atom_site_site_symmetry_order
_atom_site_calc_flag
_atom_site_refinement_flags_posn
_atom_site_refinement_flags_adp
S1 S 0.66785(9) 0.62387(15) 0.17668(4) 0.0377(2) Uani 1 1 d . .
S2 S 0.28487(7) 0.62273(11) 0.14664(3) 0.02524(19) Uani 1 1 d . .
F1 F 0.3657(2) 1.0494(3) 0.17824(10) 0.0438(5) Uani 1 1 d . .
F2 F 0.1737(3) 0.9278(4) 0.20735(11) 0.0522(6) Uani 1 1 d . .
F3 F 0.1712(2) 1.0310(3) 0.11374(9) 0.0404(4) Uani 1 1 d . .
O1 O 0.1903(2) 0.4193(4) -0.00114(9) 0.0293(4) Uani 1 1 d . .
O2 O 0.3411(2) 0.1277(3) -0.01177(10) 0.0293(4) Uani 1 1 d . .
C1 C 0.8370(3) 0.5619(6) 0.21119(13) 0.0321(6) Uani 1 1 d . .
H1 H 0.8883 0.6534 0.2436 0.039 Uiso 1 1 calc R .
C2 C 0.8935(3) 0.3704(6) 0.18875(14) 0.0360(6) Uani 1 1 d . .
H2 H 0.9875 0.3176 0.2054 0.043 Uiso 1 1 calc R .
C3 C 0.8046(3) 0.2484(5) 0.13802(11) 0.0306(6) Uani 1 1 d D U
H3 H 0.8280 0.1153 0.1162 0.037 Uiso 1 1 calc R .
C4 C 0.6641(3) 0.3875(4) 0.12848(11) 0.0226(4) Uani 1 1 d D .
C5 C 0.5435(3) 0.3211(4) 0.08162(10) 0.0209(4) Uani 1 1 d . .
H5 H 0.5541 0.1754 0.0625 0.025 Uiso 1 1 calc R .
C6 C 0.4184(3) 0.4324(4) 0.06073(10) 0.0200(4) Uani 1 1 d . .
C7 C 0.3767(3) 0.6673(4) 0.08158(11) 0.0216(4) Uani 1 1 d . .
H7A H 0.3122 0.7474 0.0478 0.026 Uiso 1 1 calc R .
H7B H 0.4632 0.7651 0.0941 0.026 Uiso 1 1 calc R .
C8 C 0.2479(3) 0.9198(5) 0.16192(12) 0.0285(5) Uani 1 1 d . .
C9 C 0.3162(2) 0.3091(4) 0.01261(10) 0.0211(4) Uani 1 1 d . .
C10 C 0.0847(3) 0.3037(6) -0.04659(14) 0.0357(6) Uani 1 1 d . .
H10A H 0.1210 0.2920 -0.0852 0.054 Uiso 1 1 calc GR .
H10B H -0.0047 0.3939 -0.0532 0.054 Uiso 1 1 calc GR .
H10C H 0.0663 0.1469 -0.0321 0.054 Uiso 1 1 calc GR .
loop_
_atom_site_aniso_label
_atom_site_aniso_U_11
_atom_site_aniso_U_22
_atom_site_aniso_U_33
_atom_site_aniso_U_23
_atom_site_aniso_U_13
_atom_site_aniso_U_12
S1 0.0411(4) 0.0389(4) 0.0312(4) -0.0069(3) 0.0015(3) 0.0031(3)
S2 0.0365(3) 0.0194(3) 0.0226(3) -0.00061(19) 0.0128(2) 0.0040(2)
F1 0.0499(11) 0.0286(9) 0.0490(11) -0.0126(8) -0.0015(9) -0.0024(8)
F2 0.0760(15) 0.0427(11) 0.0478(12) -0.0096(9) 0.0378(11) 0.0134(10)
F3 0.0472(10) 0.0307(9) 0.0400(10) -0.0021(7) -0.0009(8) 0.0169(8)
O1 0.0270(9) 0.0341(10) 0.0259(9) -0.0087(8) 0.0025(7) 0.0093(7)
O2 0.0322(9) 0.0223(9) 0.0319(10) -0.0084(7) 0.0016(7) 0.0054(7)
C1 0.0330(13) 0.0365(14) 0.0247(12) -0.0013(10) -0.0002(10) 0.0014(11)
C2 0.0368(14) 0.0405(16) 0.0295(13) 0.0052(11) 0.0026(11) 0.0103(12)
C3 0.0457(14) 0.0272(11) 0.0128(9) 0.0068(8) -0.0111(9) -0.0215(11)
C4 0.0289(11) 0.0198(10) 0.0199(10) -0.0008(8) 0.0069(8) 0.0019(8)
C5 0.0277(11) 0.0178(9) 0.0184(9) -0.0010(8) 0.0075(8) 0.0021(8)
C6 0.0280(10) 0.0170(9) 0.0166(9) -0.0002(7) 0.0087(8) 0.0028(8)
C7 0.0316(11) 0.0164(9) 0.0187(9) 0.0005(8) 0.0095(8) 0.0046(8)
C8 0.0353(13) 0.0253(11) 0.0258(11) -0.0055(9) 0.0078(10) 0.0061(10)
C9 0.0241(10) 0.0210(10) 0.0195(10) 0.0013(8) 0.0073(8) 0.0027(8)
C10 0.0246(11) 0.0491(17) 0.0318(13) -0.0113(12) 0.0007(10) 0.0040(11)
loop_
_atom_type_symbol
_atom_type_description
_atom_type_scat_dispersion_real
_atom_type_scat_dispersion_imag
_atom_type_scat_source
C C 0.0033 0.0016 'International Tables Vol C Tables 4.2.6.8 and 6.1.1.4'
H H 0.0000 0.0000 'International Tables Vol C Tables 4.2.6.8 and 6.1.1.4'
F F 0.0171 0.0103 'International Tables Vol C Tables 4.2.6.8 and 6.1.1.4'
O O 0.0106 0.0060 'International Tables Vol C Tables 4.2.6.8 and 6.1.1.4'
S S 0.1246 0.1234 'International Tables Vol C Tables 4.2.6.8 and 6.1.1.4'
loop_
_geom_angle_atom_site_label_1
_geom_angle_atom_site_label_2
_geom_angle_atom_site_label_3
_geom_angle
C1 S1 C4 91.63(14)
C8 S2 C7 98.82(12)
C9 O1 C10 114.8(2)
S1 C1 H1 122.9
C2 C1 S1 114.2(2)
C2 C1 H1 122.9
C1 C2 H2 121.3
C1 C2 C3 117.4(3)
C3 C2 H2 121.3
C2 C3 H3 128.5
C2 C3 C4 103.0(2)
C4 C3 H3 128.5
C3 C4 S1 113.74(18)
C5 C4 S1 125.25(18)
C5 C4 C3 121.0(2)
C4 C5 H5 114.7
C6 C5 C4 130.6(2)
C6 C5 H5 114.7
C5 C6 C7 125.5(2)
C5 C6 C9 116.1(2)
C9 C6 C7 118.4(2)
S2 C7 H7A 110.1
S2 C7 H7B 110.1
C6 C7 S2 107.82(16)
C6 C7 H7A 110.1
C6 C7 H7B 110.1
H7A C7 H7B 108.5
F1 C8 S2 113.57(19)
F1 C8 F3 105.0(2)
F2 C8 S2 109.0(2)
F2 C8 F1 107.7(2)
F2 C8 F3 107.7(2)
F3 C8 S2 113.55(19)
O1 C9 C6 112.3(2)
O2 C9 O1 122.7(2)
O2 C9 C6 125.0(2)
O1 C10 H10A 109.5
O1 C10 H10B 109.5
O1 C10 H10C 109.5
H10A C10 H10B 109.5
H10A C10 H10C 109.5
H10B C10 H10C 109.5
loop_
_geom_bond_atom_site_label_1
_geom_bond_atom_site_label_2
_geom_bond_distance
S1 C1 1.684(3)
S1 C4 1.722(3)
S2 C7 1.830(2)
S2 C8 1.783(3)
F1 C8 1.335(4)
F2 C8 1.327(3)
F3 C8 1.341(3)
O1 C9 1.335(3)
O1 C10 1.447(3)
O2 C9 1.214(3)
C1 H1 0.9500
C1 C2 1.354(4)
C2 H2 0.9500
C2 C3 1.457(4)
C3 H3 0.9500
C3 C4 1.532(4)
C4 C5 1.450(3)
C5 H5 0.9500
C5 C6 1.352(3)
C6 C7 1.499(3)
C6 C9 1.485(3)
C7 H7A 0.9900
C7 H7B 0.9900
C10 H10A 0.9800
C10 H10B 0.9800
C10 H10C 0.9800
loop_
_geom_torsion_atom_site_label_1
_geom_torsion_atom_site_label_2
_geom_torsion_atom_site_label_3
_geom_torsion_atom_site_label_4
_geom_torsion
S1 C1 C2 C3 1.3(4)
S1 C4 C5 C6 7.6(4)
C1 S1 C4 C3 -1.1(2)
C1 S1 C4 C5 -179.9(2)
C1 C2 C3 C4 -1.9(4)
C2 C3 C4 S1 1.8(3)
C2 C3 C4 C5 -179.4(2)
C3 C4 C5 C6 -171.1(2)
C4 S1 C1 C2 -0.1(3)
C4 C5 C6 C7 2.1(4)
C4 C5 C6 C9 -178.6(2)
C5 C6 C7 S2 -89.7(3)
C5 C6 C9 O1 173.8(2)
C5 C6 C9 O2 -5.6(4)
C7 S2 C8 F1 -62.6(2)
C7 S2 C8 F2 177.3(2)
C7 S2 C8 F3 57.3(2)
C7 C6 C9 O1 -6.8(3)
C7 C6 C9 O2 173.8(2)
C8 S2 C7 C6 -179.93(18)
C9 C6 C7 S2 91.0(2)
C10 O1 C9 O2 1.1(4)
C10 O1 C9 C6 -178.3(2)
loop_
_cod_related_entry_id
_cod_related_entry_database
_cod_related_entry_code
1 PubChem 168303640
