#------------------------------------------------------------------------------
#$Date: 2025-08-19 00:06:14 +0300 (Tue, 19 Aug 2025) $
#$Revision: 301780 $
#$URL: file:///home/coder/svn-repositories/cod/cif/1/55/43/1554358.cif $
#------------------------------------------------------------------------------
#
# This file is available in the Crystallography Open Database (COD),
# http://www.crystallography.net/
#
# All data on this site have been placed in the public domain by the
# contributors.
#
data_1554358
loop_
_publ_author_name
'Cheng, Yuyu'
'Fang, Zhiqiang'
'Li, Wenjun'
'Li, Pengfei'
_publ_section_title
;
 Phosphine-mediated enantioselective [4 + 1] annulations between
 ortho-quinone methides and Morita--Baylis--Hillman carbonates
;
_journal_issue                   18
_journal_name_full               'Organic Chemistry Frontiers'
_journal_page_first              2728
_journal_paper_doi               10.1039/C8QO00487K
_journal_volume                  5
_journal_year                    2018
_chemical_absolute_configuration ad
_chemical_formula_moiety         'C20 H22 O5'
_chemical_formula_sum            'C20 H22 O5'
_chemical_formula_weight         342.37
_space_group_crystal_system      monoclinic
_space_group_IT_number           4
_space_group_name_Hall           'P 2yb'
_space_group_name_H-M_alt        'P 1 21 1'
_atom_sites_solution_hydrogens   geom
_atom_sites_solution_primary     dual
_audit_creation_date             2018-04-14
_audit_creation_method
;
Olex2 1.2
(compiled 2018.04.03 svn.r3497 for OlexSys, GUI svn.r5486)
;
_audit_update_record
;
2018-04-17 deposited with the CCDC.
2018-08-15 downloaded from the CCDC.
;
_cell_angle_alpha                90
_cell_angle_beta                 93.360(3)
_cell_angle_gamma                90
_cell_formula_units_Z            2
_cell_length_a                   12.8740(5)
_cell_length_b                   4.9000(2)
_cell_length_c                   13.9299(6)
_cell_measurement_reflns_used    5245
_cell_measurement_temperature    100
_cell_measurement_theta_max      68.38
_cell_measurement_theta_min      3.18
_cell_volume                     877.22(6)
_computing_cell_refinement       'SAINT v8.37A (Bruker, 2015)'
_computing_data_reduction        'SAINT v8.37A (Bruker, 2015)'
_computing_molecular_graphics    'Olex2 (Dolomanov et al., 2009)'
_computing_publication_material  'Olex2 (Dolomanov et al., 2009)'
_computing_structure_refinement  'XL (Sheldrick, 2008)'
_computing_structure_solution    'ShelXT (Sheldrick, 2015)'
_diffrn_ambient_temperature      100
_diffrn_detector                 'Bruker PHOTO 100 area detector'
_diffrn_detector_area_resol_mean 7.9
_diffrn_detector_type            'CCD area detector'
_diffrn_measured_fraction_theta_full 0.987
_diffrn_measured_fraction_theta_max 0.985
_diffrn_measurement_device       'three-circle diffractometer'
_diffrn_measurement_device_type  'Bruker PHOTO 100 area detector'
_diffrn_measurement_method       '\w and \f scans'
_diffrn_radiation_monochromator  'mirror optics'
_diffrn_radiation_probe          x-ray
_diffrn_radiation_type           CuK\a
_diffrn_radiation_wavelength     1.54178
_diffrn_reflns_av_R_equivalents  0.0527
_diffrn_reflns_av_unetI/netI     0.0561
_diffrn_reflns_Laue_measured_fraction_full 0.987
_diffrn_reflns_Laue_measured_fraction_max 0.985
_diffrn_reflns_limit_h_max       15
_diffrn_reflns_limit_h_min       -15
_diffrn_reflns_limit_k_max       5
_diffrn_reflns_limit_k_min       -5
_diffrn_reflns_limit_l_max       16
_diffrn_reflns_limit_l_min       -16
_diffrn_reflns_number            8859
_diffrn_reflns_point_group_measured_fraction_full 0.983
_diffrn_reflns_point_group_measured_fraction_max 0.979
_diffrn_reflns_theta_full        67.679
_diffrn_reflns_theta_max         68.987
_diffrn_reflns_theta_min         3.178
_diffrn_source                   'microfocus sealed X-ray tube'
_diffrn_source_type              'Incoatec I\ms'
_diffrn_standards_number         0
_exptl_absorpt_coefficient_mu    0.760
_exptl_absorpt_correction_T_max  0.7531
_exptl_absorpt_correction_T_min  0.5238
_exptl_absorpt_correction_type   multi-scan
_exptl_absorpt_process_details
'SADABS-2014/5 (Bruker,2014/5) was used for absorption correction. wR2(int) was 0.1126 before and 0.0664 after correction. The Ratio of minimum to maximum transmission is 0.6955. The \l/2 correction factor is Not present.'
_exptl_crystal_colour            colourless
_exptl_crystal_colour_primary    colourless
_exptl_crystal_density_diffrn    1.296
_exptl_crystal_description       block
_exptl_crystal_F_000             364
_exptl_crystal_size_max          0.42
_exptl_crystal_size_mid          0.38
_exptl_crystal_size_min          0.37
_refine_diff_density_max         0.502
_refine_diff_density_min         -0.231
_refine_diff_density_rms         0.054
_refine_ls_abs_structure_details
;
 Flack x determined using 1065 quotients [(I+)-(I-)]/[(I+)+(I-)]
 (Parsons, Flack and Wagner, Acta Cryst. B69 (2013) 249-259).
;
_refine_ls_abs_structure_Flack   0.1(5)
_refine_ls_extinction_coef       0.042(8)
_refine_ls_extinction_expression Fc^*^=kFc[1+0.001xFc^2^\l^3^/sin(2\q)]^-1/4^
_refine_ls_extinction_method     'SHELXL-2014/7 (Sheldrick 2014'
_refine_ls_goodness_of_fit_ref   1.048
_refine_ls_hydrogen_treatment    constr
_refine_ls_matrix_type           full
_refine_ls_number_parameters     248
_refine_ls_number_reflns         3178
_refine_ls_number_restraints     3
_refine_ls_restrained_S_all      1.055
_refine_ls_R_factor_all          0.0790
_refine_ls_R_factor_gt           0.0699
_refine_ls_shift/su_max          0.000
_refine_ls_shift/su_mean         0.000
_refine_ls_structure_factor_coef Fsqd
_refine_ls_weighting_details
'w=1/[\s^2^(Fo^2^)+(0.1120P)^2^+0.6051P] where P=(Fo^2^+2Fc^2^)/3'
_refine_ls_weighting_scheme      calc
_refine_ls_wR_factor_gt          0.1821
_refine_ls_wR_factor_ref         0.1928
_reflns_Friedel_coverage         0.765
_reflns_Friedel_fraction_full    0.977
_reflns_Friedel_fraction_max     0.971
_reflns_number_gt                2799
_reflns_number_total             3178
_reflns_threshold_expression     'I > 2\s(I)'
_cod_data_source_file            c8qo00487k2.cif
_cod_data_source_block           cu_cxy0340_0m
_cod_database_code               1554358
_shelx_shelxl_version_number     2014/7
_shelx_space_group_comment
;
The symmetry employed for this shelxl refinement is uniquely defined
by the following loop, which should always be used as a source of
symmetry information in preference to the above space-group names.
They are only intended as comments.
;
_shelx_estimated_absorpt_t_max   0.766
_shelx_estimated_absorpt_t_min   0.741
_olex2_refinement_description
;
1. Fixed Uiso
 At 1.2 times of:
  All C(H) groups, All C(H,H) groups
 At 1.5 times of:
  All C(H,H,H) groups, All O(H) groups
2. Uiso/Uaniso restraints and constraints
Uanis(C15) = Uanis(C15A)
Uanis(C16) = Uanis(C16A)
Uanis(C17) = Uanis(C17A)
Uanis(C18) = Uanis(C18A)
Uanis(O19) = Uanis(O19A)
3. Others
 Sof(H6B)=Sof(O19A)=Sof(H19A)=Sof(C15A)=Sof(H15A)=Sof(C16A)=Sof(C17A)=
 Sof(H17C)=Sof(H17D)=Sof(C18A)=Sof(H18C)=Sof(H18D)=1-FVAR(1)
 Sof(H6A)=Sof(O19)=Sof(H19)=Sof(C15)=Sof(H15)=Sof(C16)=Sof(C17)=Sof(H17A)=
 Sof(H17B)=Sof(C18)=Sof(H18A)=Sof(H18B)=FVAR(1)
4.a Ternary CH refined with riding coordinates:
 C6(H6A), C6(H6B), C15(H15), C15A(H15A)
4.b Secondary CH2 refined with riding coordinates:
 C18(H18A,H18B), C18A(H18C,H18D)
4.c Aromatic/amide H refined with riding coordinates:
 C3(H3), C8(H8), C9(H9), C14(H14), C20(H20), C21(H21)
4.d X=CH2 refined with riding coordinates:
 C17(H17A,H17B), C17A(H17C,H17D)
4.e Idealised Me refined as rotating group:
 C1(H1A,H1B,H1C), C11(H11A,H11B,H11C), C13(H13A,H13B,H13C)
4.f Idealised tetrahedral OH refined as rotating group:
 O19(H19), O19A(H19A)
;
_shelx_res_file
;
    cu_cxy0340_0m.res created by SHELXL-2014/7

TITL cu_cxy0340_0m_a.res in P2(1)
CELL 1.54178 12.874 4.9 13.9299 90 93.36 90
ZERR 2 0.0005 0.0002 0.0006 0 0.003 0
LATT -1
SYMM -X,0.5+Y,-Z
SFAC C H O
UNIT 40 44 10
EADP C15 C15A
EADP C16 C16A
EADP C17 C17A
EADP C18 C18A
EADP O19 O19A

L.S. 20
PLAN  -5 0 0
SIZE 0.42 0.38 0.37
TEMP -173.15
HTAB
bump
BOND $H
CONF
fmap 2
acta
REM <olex2.extras>
REM <HklSrc "%.\\cu_cxy0340_0m.hkl">
REM </olex2.extras>

WGHT    0.112000    0.605100
EXTI    0.042143
FVAR       1.69876   0.71126
O1    3    0.141292    0.449778    0.361318    11.00000    0.04560    0.04311 =
         0.03493   -0.00915   -0.01206   -0.00593
O2    3    0.685984    0.222850    0.894408    11.00000    0.03589    0.13347 =
         0.05112   -0.00017   -0.00743    0.00495
O3    3    0.288487    0.784663    0.413499    11.00000    0.04862    0.02737 =
         0.03665    0.00481   -0.00868   -0.00499
O4    3    0.128942    0.143088    0.690868    11.00000    0.04622    0.04880 =
         0.03518   -0.01121    0.00797   -0.02507
C1    1    0.075500    0.232617    0.325693    11.00000    0.04513    0.03734 =
         0.04925   -0.01160   -0.01526   -0.00232
AFIX 137
H1A   2    0.108655    0.057040    0.341609    11.00000   -1.50000
H1B   2    0.064345    0.248989    0.255732    11.00000   -1.50000
H1C   2    0.008433    0.243062    0.355335    11.00000   -1.50000
AFIX   0
C2    1    0.170203    0.447959    0.457595    11.00000    0.03462    0.02807 =
         0.03261   -0.00924   -0.00474    0.00375
C3    1    0.126262    0.279171    0.523484    11.00000    0.03056    0.03625 =
         0.04183   -0.01565    0.00044   -0.01017
AFIX  43
H3    2    0.071118    0.157762    0.505045    11.00000   -1.20000
AFIX   0
C4    1    0.166709    0.295517    0.618333    11.00000    0.03331    0.03171 =
         0.03584   -0.00911    0.00257   -0.00277
C5    1    0.246333    0.464326    0.647263    11.00000    0.03379    0.02337 =
         0.03644   -0.00566   -0.00497   -0.00235
C6    1    0.269638    0.430374    0.754365    11.00000    0.03525    0.02291 =
         0.03727   -0.00012   -0.00328   -0.00583
PART 1
AFIX  13
H6A   2    0.239798    0.586404    0.789939    21.00000   -1.20000
AFIX  13
PART 0
PART 2
H6B   2    0.247037    0.603054    0.785220   -21.00000   -1.20000
AFIX   0
PART 0
C7    1    0.383138    0.386910    0.787868    11.00000    0.03496    0.03283 =
         0.03389    0.00515   -0.00611   -0.01098
C8    1    0.447954    0.227293    0.736568    11.00000    0.04278    0.05145 =
         0.05514   -0.01585   -0.00976    0.00067
AFIX  43
H8    2    0.422525    0.156809    0.676149    11.00000   -1.20000
AFIX   0
C9    1    0.549429    0.164569    0.769515    11.00000    0.03839    0.07303 =
         0.05621   -0.00782   -0.00127   -0.00011
AFIX  43
H9    2    0.591440    0.050386    0.732606    11.00000   -1.20000
AFIX   0
C10   1    0.587761    0.267994    0.854803    11.00000    0.03153    0.07856 =
         0.03686    0.00697   -0.00072   -0.00325
C11   1    0.750517    0.043154    0.844230    11.00000    0.03238    0.17646 =
         0.08323   -0.02684    0.00054    0.01709
AFIX 137
H11A  2    0.712029   -0.124472    0.827595    11.00000   -1.50000
H11B  2    0.812641   -0.001809    0.885200    11.00000   -1.50000
H11C  2    0.771353    0.131906    0.785315    11.00000   -1.50000
AFIX   0
C12   1    0.251527    0.630360    0.485538    11.00000    0.03630    0.02136 =
         0.03486   -0.00356   -0.00386    0.00082
C13   1    0.370101    0.972068    0.440168    11.00000    0.04552    0.02742 =
         0.04442    0.00359   -0.00515   -0.00472
AFIX 137
H13A  2    0.347574    1.093426    0.490862    11.00000   -1.50000
H13B  2    0.386728    1.080667    0.384018    11.00000   -1.50000
H13C  2    0.432006    0.870712    0.463924    11.00000   -1.50000
AFIX   0
C14   1    0.289440    0.635952    0.581128    11.00000    0.03994    0.02046 =
         0.03872   -0.00008   -0.00811   -0.00350
AFIX  43
H14   2    0.344421    0.756378    0.600944    11.00000   -1.20000
AFIX   0
C20   1    0.524071    0.434516    0.907137    11.00000    0.04516    0.10987 =
         0.03900   -0.01402   -0.01498    0.00377
AFIX  43
H20   2    0.550137    0.510484    0.966502    11.00000   -1.20000
AFIX   0
C21   1    0.422815    0.490255    0.873186    11.00000    0.04442    0.08201 =
         0.03204   -0.01099   -0.00312    0.00227
AFIX  43
H21   2    0.380254    0.602763    0.910161    11.00000   -1.20000
AFIX   0
PART 1
O19   3    0.022512    0.376107    0.960508    21.00000    0.04263    0.03107 =
         0.03834    0.00518    0.01542    0.00470
AFIX 147
H19   2   -0.003218    0.227641    0.977699    21.00000   -1.50000
AFIX   0
C15   1    0.205132    0.171194    0.768026    21.00000    0.03105    0.02675 =
         0.02735   -0.00054    0.00082   -0.00261
AFIX  13
H15   2    0.252882    0.010347    0.767227    21.00000   -1.20000
AFIX   0
C16   1    0.154499    0.172969    0.862325    21.00000    0.02567    0.02189 =
         0.03222    0.00335    0.00280   -0.00175
C17   1    0.196732    0.037895    0.937191    21.00000    0.03927    0.04164 =
         0.03137    0.00621    0.00104    0.01301
AFIX  93
H17A  2    0.259521   -0.061018    0.931393    21.00000   -1.20000
H17B  2    0.164231    0.039940    0.996679    21.00000   -1.20000
AFIX   0
C18   1    0.058986    0.347369    0.866048    21.00000    0.02944    0.03230 =
         0.03188    0.00699    0.00425    0.00292
AFIX  23
H18A  2    0.074409    0.530768    0.840680    21.00000   -1.20000
H18B  2    0.002839    0.266611    0.823503    21.00000   -1.20000
AFIX   0
PART 0
PART 2
O19A  3    0.074819    0.355442    1.026539   -21.00000    0.04263    0.03107 =
         0.03834    0.00518    0.01542    0.00470
AFIX 147
H19A  2    0.058214    0.521182    1.024025   -21.00000   -1.50000
AFIX   0
C15A  1    0.192519    0.182988    0.792229   -21.00000    0.03105    0.02675 =
         0.02735   -0.00054    0.00082   -0.00261
AFIX  13
H15A  2    0.232252    0.015801    0.813119   -21.00000   -1.20000
AFIX   0
C16A  1    0.110039    0.256787    0.859808   -21.00000    0.02567    0.02189 =
         0.03222    0.00335    0.00280   -0.00175
C17A  1    0.009514    0.269001    0.836369   -21.00000    0.03927    0.04164 =
         0.03137    0.00621    0.00104    0.01301
AFIX  93
H17C  2   -0.038072    0.308015    0.884143   -21.00000   -1.20000
H17D  2   -0.015391    0.238795    0.771694   -21.00000   -1.20000
AFIX   0
C18A  1    0.152989    0.301108    0.957577   -21.00000    0.02944    0.03230 =
         0.03188    0.00699    0.00425    0.00292
AFIX  23
H18C  2    0.201808    0.457217    0.957599   -21.00000   -1.20000
H18D  2    0.193302    0.137633    0.978760   -21.00000   -1.20000
AFIX   0
HKLF 4

REM  cu_cxy0340_0m_a.res in P2(1)
REM R1 =  0.0699 for    2799 Fo > 4sig(Fo)  and  0.0790 for all    3178 data
REM    248 parameters refined using      3 restraints

END

WGHT      0.1120      0.6050

REM Instructions for potential hydrogen bonds
EQIV $1 -x+1, y-1/2, -z+2
HTAB C11 O19A_$1
EQIV $2 -x+1, y-1/2, -z+1
HTAB C11 O1_$2
EQIV $3 -x, y-1/2, -z+2
HTAB O19 O19_$3
EQIV $4 -x, y+1/2, -z+2
HTAB O19A O19A_$4

REM Highest difference peak  0.502,  deepest hole -0.231,  1-sigma level  0.054
Q1    1   0.6748  0.4201  0.8993  11.00000  0.05    0.50
Q2    1   0.4971  0.6122  0.8997  11.00000  0.05    0.34
Q3    1   0.5671  0.4668  0.8590  11.00000  0.05    0.30
Q4    1   0.7378  0.2589  0.8473  11.00000  0.05    0.28
Q5    1   0.4288  0.1114  0.7792  11.00000  0.05    0.27
;
_shelx_res_checksum              65613
_shelx_hkl_file
;
   1   0   0  276.67   16.40
   3   0   0 1748.63  103.39
   4   0   0   80.09    5.00
   4   0   0   69.49    4.70
   4   0   0   77.49    4.80
   5   0   0   18.40    2.30
   5   0   0   16.80    1.60
   5   0   0   14.30    1.50
   5   0   0   18.60    1.80
   6   0   0  265.67   16.20
  -7   0   0 3377.06  201.98
   8   0   0   43.90    4.00
  -8   0   0   48.20    8.90
  -9   0   0  268.47   21.70
  -9   0   0  277.47   20.00
  -9   0   0  204.28   21.50
   9   0   0  257.87   16.10
  10   0   0  252.97   15.90
 -10   0   0  263.07   21.90
 -10   0   0  223.68   21.40
 -10   0   0  213.28   20.10
 -10   0   0  261.97   19.50
 -11   0   0   -2.10    6.40
  11   0   0   12.00    4.00
 -11   0   0   -7.30    9.40
 -11   0   0   12.30    9.40
 -11   0   0    8.00    8.60
 -12   0   0    1.10    8.70
 -12   0   0   18.80   10.00
 -12   0   0  -10.10   11.40
 -12   0   0    0.40    6.90
  12   0   0    8.40    4.80
 -13   0   0   68.49   12.60
 -13   0   0   54.39   14.60
 -13   0   0   61.79   10.10
 -13   0   0   48.20    9.50
 -14   0   0   -4.40   11.70
 -15   0   0   17.20    4.70
   0  -1   0   -0.80    1.00
   0  -1   0    0.70    0.70
   0   1   0   -0.30    0.70
   0   1   0    0.30    1.10
   1  -1   0 4153.68  244.98
   1  -1   0 4104.79  244.58
  -1  -1   0 4032.40  244.88
  -1  -1   0 4275.97  244.48
  -1   1   0 4236.98  255.17
   1   1   0 4213.78  255.17
  -1   1   0 4493.15  254.67
   3  -1   0 5192.98  315.77
   3  -1   0 5485.15  315.27
   3   1   0 5381.26  318.17
   4  -1   0  996.10   62.59
   4  -1   0 1018.30   62.09
  -4  -1   0 1121.19   62.49
  -4   1   0 1155.38   66.49
   4   1   0 1184.78   65.89
   4   1   0  992.20   66.29
   5  -1   0 1964.30  119.39
  -5  -1   0 1996.30  119.09
   5  -1   0 2057.19  118.89
   5   1   0 2348.17  147.59
  -5   1   0 2643.74  148.19
   6  -1   0  475.95   31.50
   6  -1   0  547.25   30.90
   6   1   0  493.75   32.80
   6   1   0  627.24   32.90
  -6   1   0  517.15   35.60
   7  -1   0  260.77   16.30
   7   1   0  306.67   17.70
  -7   1   0  257.97   20.90
   8  -1   0  909.71   54.79
  -8  -1   0  954.00   56.79
  -8  -1   0  871.61   56.99
  -8   1   0  908.71   58.39
  -8   1   0  923.61   58.49
  -8   1   0  869.71   57.79
   8   1   0  976.50   55.29
   9  -1   0  483.65   29.30
  -9  -1   0  501.45   31.60
  -9  -1   0  448.16   34.20
  -9  -1   0  455.85   32.20
  -9   1   0  473.75   33.40
  -9   1   0  466.65   33.20
   9   1   0  480.95   29.80
  -9   1   0  519.35   36.60
  -9   1   0  482.85   32.80
 -10  -1   0    5.30    7.80
 -10  -1   0   -1.30    8.60
  10  -1   0    5.50    3.40
 -10  -1   0    7.60   11.60
 -10   1   0    3.50   11.20
  10   1   0    4.30    3.50
 -10   1   0   -0.50    7.60
 -10   1   0   13.60    8.30
 -10   1   0    5.10    8.20
  11  -1   0  374.16   23.60
 -11  -1   0  337.97   26.00
 -11  -1   0  385.76   26.10
 -11   1   0  362.16   27.40
 -11   1   0  378.06   27.40
  11   1   0  403.46   24.30
 -11   1   0  369.66   28.40
 -11   1   0  353.86   29.10
 -12  -1   0    9.60    6.10
 -12  -1   0   14.40    7.10
  12  -1   0   -0.60    5.20
  12   1   0    3.30    5.70
 -12   1   0   -2.10    7.10
 -12   1   0    9.90    7.30
 -13  -1   0  110.79   11.90
 -13  -1   0  112.29   12.10
 -13   1   0  120.79   12.70
 -13   1   0  106.19   15.20
 -13   1   0  128.99   13.70
 -14  -1   0   25.50    5.30
 -14  -1   0   14.20    5.30
 -14   1   0   39.70   10.10
 -14   1   0   16.90    5.70
 -14   1   0   21.80    6.50
 -15  -1   0   23.00    4.50
  15  -1   0   37.90    7.30
 -15   1   0   17.80    6.40
 -15   1   0   44.20   11.10
 -15   1   0   20.50    4.60
   0  -2   0  658.83   41.30
   0  -2   0  683.03   40.30
   0   2   0  758.72   43.40
   0   2   0  688.23   45.20
   1  -2   0  535.15   32.70
   1  -2   0  551.84   33.90
  -1  -2   0  538.35   33.70
  -1   2   0  549.45   33.40
   1   2   0  519.05   34.70
   1   2   0  597.04   33.50
  -2  -2   0 1042.60   61.59
   2  -2   0 1036.10   61.79
   2  -2   0  964.40   60.49
  -2   2   0 1180.68   64.59
   2   2   0  980.40   65.79
   2   2   0 1089.89   64.69
   3  -2   0  658.03   41.20
  -3  -2   0  671.23   41.00
   3  -2   0  662.03   40.00
   3   2   0  756.12   41.10
   3   2   0  605.14   42.40
  -4  -2   0   69.39    7.10
   4  -2   0   71.69    5.40
   4   2   0   83.69    5.80
   4   2   0   62.29    9.20
  -5  -2   0  656.93   39.30
   5  -2   0  616.14   39.80
   5  -2   0  616.54   38.50
  -5   2   0  782.82   48.70
   5   2   0  730.23   45.60
   6  -2   0   61.29   10.30
   6  -2   0   78.99    6.20
  -6   2   0  107.59   12.70
   6   2   0   85.19    6.90
  -6   2   0   61.19   12.20
  -7  -2   0  224.68   27.20
   7  -2   0  260.97   16.40
  -7  -2   0  276.77   18.90
  -7  -2   0  231.38   19.70
   7   2   0  307.57   19.20
  -7   2   0  266.67   24.30
  -7   2   0  313.17   23.30
  -8  -2   0  607.54   38.40
  -8  -2   0  615.44   37.50
  -8  -2   0  515.55   42.60
   8  -2   0  581.54   35.90
  -8   2   0  613.94   40.90
   8   2   0  583.74   37.00
  -8   2   0  602.64   40.90
  -8   2   0  595.64   39.70
   9  -2   0  454.85   28.70
  -9   2   0  468.65   35.30
   9   2   0  528.55   31.80
  10  -2   0  214.98   14.70
 -10  -2   0  180.38   16.90
 -10  -2   0  209.38   16.50
 -10   2   0  203.28   20.00
  10   2   0  214.98   15.70
 -10   2   0  200.18   20.60
 -10   2   0  210.78   18.30
 -11  -2   0   13.30    5.90
  11  -2   0    7.30    5.90
 -11  -2   0   11.30    6.70
 -11   2   0   21.10    8.20
 -11   2   0    5.70    8.70
  11   2   0   14.00    6.70
  12  -2   0   40.30   13.70
 -12  -2   0   42.30    7.70
 -12  -2   0   51.19    8.60
 -12   2   0   35.70    8.40
 -12   2   0   29.40    9.20
 -13  -2   0   25.30    5.50
  13  -2   0   18.70    8.20
 -13   2   0   14.60    8.90
 -13   2   0   11.90    5.90
 -13   2   0    6.70    5.60
 -14  -2   0    9.50    3.90
 -14  -2   0   20.30    4.20
 -14   2   0   19.10    5.50
  14   2   0   13.20    6.80
 -14   2   0   32.40   11.50
 -14   2   0   16.00    5.20
   0   3   0    1.50    5.30
   0   3   0    2.20    3.50
   1  -3   0  366.26   26.80
  -1  -3   0  394.46   27.10
   1   3   0  454.25   26.10
   1   3   0  402.06   27.60
  -1   3   0  390.36   27.50
   2  -3   0  242.78   15.70
   2  -3   0  222.78   19.30
  -2  -3   0  238.58   19.20
   2   3   0  243.18   20.00
  -2   3   0  275.77   19.60
   2   3   0  304.97   18.40
   3  -3   0  129.99   11.00
  -3  -3   0  139.09   16.00
  -3  -3   0  126.19   13.80
  -3  -3   0  121.39   19.40
   3  -3   0  161.78   16.80
   3   3   0  160.48   11.30
   3   3   0  150.18   14.40
  -3   3   0  126.79   22.30
  -3   3   0  157.78   13.30
  -4  -3   0  270.77   24.00
  -4  -3   0  236.78   18.60
  -4  -3   0  253.07   21.80
   4  -3   0  246.38   16.80
  -4   3   0  323.17   22.60
   4   3   0  276.07   22.70
  -4   3   0  311.97   26.00
   4   3   0  288.37   19.70
   5  -3   0   73.99    7.30
  -5  -3   0   77.79   10.30
  -5  -3   0   72.89   13.70
  -5  -3   0   83.69   12.90
  -5   3   0  111.29   15.50
  -5   3   0   72.29   11.00
   5   3   0  107.29   16.40
   5   3   0   81.29    8.50
  -5   3   0   83.59   13.00
   6  -3   0  144.49   11.60
  -6  -3   0  142.39   13.50
  -6  -3   0  144.89   19.20
  -6  -3   0  165.28   16.00
  -6   3   0  167.28   18.00
   6   3   0  149.39   12.90
  -6   3   0  163.38   19.60
  -6   3   0  173.48   15.50
  -6   3   0  174.08   18.10
  -7  -3   0   44.50   12.30
   7  -3   0   29.80    5.90
  -7   3   0   90.49   13.50
   7   3   0   72.49    9.50
  -7   3   0   75.69   19.10
  -7   3   0   54.19   13.20
  -8  -3   0  392.76   27.30
  -8  -3   0  415.66   26.70
   8  -3   0  378.76   26.00
  -8  -3   0  363.96   31.60
  -8   3   0  377.06   30.70
   8   3   0  406.36   28.00
  -8   3   0  435.76   30.00
  -8   3   0  443.26   32.70
  -9  -3   0    8.50    7.60
   9  -3   0   14.80    7.80
  -9  -3   0   17.00    5.90
  -9   3   0    7.50    9.20
  -9   3   0    8.50    8.40
  -9   3   0    2.30   11.40
   9   3   0   21.40    8.30
 -10  -3   0   77.19    9.90
 -10  -3   0   84.89   12.30
  10   3   0   57.19   10.50
 -10   3   0   84.99   17.00
 -10   3   0   79.39   12.70
 -10   3   0   77.39   13.00
 -11   3   0   20.20    9.60
 -11   3   0    4.00   11.90
  11   3   0   39.30    8.00
 -11   3   0   45.00   11.60
 -12  -3   0    9.00    4.70
 -12  -3   0    4.30    4.00
 -12   3   0   -2.70    9.20
 -12   3   0   -0.10    5.40
  12   3   0   -4.50    5.40
 -12   3   0   -2.30    5.20
 -13  -3   0    1.00    3.70
 -13  -3   0   -0.40    3.40
 -13   3   0   -2.30    4.60
 -13   3   0    0.70    4.20
 -13   3   0    4.70    9.40
  13   3   0    3.90    7.40
   0   4   0  483.75   32.80
   1   4   0   29.30    7.90
  -1   4   0   37.20    8.10
   1   4   0   38.30    8.60
  -2  -4   0   35.80    7.50
   2   4   0   41.90    6.80
  -2   4   0   48.30    9.00
   2   4   0   68.69   10.00
  -3  -4   0   88.29   11.30
   3   4   0   96.79   14.30
   3   4   0  101.29   11.90
  -3   4   0  124.39   12.80
  -4  -4   0   63.09   14.10
  -4  -4   0   63.49   10.50
   4   4   0   81.39   10.70
   4   4   0   49.90   10.50
  -4   4   0   60.19   11.00
  -5  -4   0   15.10    6.10
  -5  -4   0    7.70   10.00
  -5   4   0   17.20    7.80
   5   4   0    1.30    5.60
   5   4   0    0.20   11.10
  -6  -4   0    5.00    5.40
  -6  -4   0   -6.10    9.10
  -6   4   0    6.80   15.30
   6   4   0   -2.10    5.80
  -7  -4   0    7.90    9.30
  -7  -4   0   11.90    5.50
   7   4   0   10.80    5.80
  -7   4   0   18.80   11.60
  -7   4   0   -5.40    8.20
  -8  -4   0   52.79   11.60
  -8  -4   0   44.30    7.00
  -8   4   0   23.10   11.20
  -8   4   0   58.69   16.90
   8   4   0   43.30    7.20
  -9  -4   0   16.20    4.50
  -9  -4   0    8.90    6.80
  -9   4   0    8.70   14.10
  -9   4   0   43.30    9.00
   9   4   0   22.60    5.40
 -10  -4   0   35.20    5.90
 -10  -4   0   52.59    8.60
  10   4   0   64.19    7.90
 -10   4   0   70.69   15.40
 -11  -4   0   37.20    6.20
 -11   4   0   11.60    7.00
  11   4   0   21.70    3.70
 -11   4   0   17.20   19.50
   0  -5   0    4.00    5.40
   0   5   0   10.50    6.40
   1  -5   0  152.38   14.20
  -1  -5   0  186.98   14.30
   1   5   0  232.28   18.40
  -1   5   0  206.88   17.70
   2  -5   0   58.29    9.90
  -2  -5   0   69.89    9.20
   2   5   0   82.69   11.30
  -2   5   0   77.99   11.00
   2   5   0   72.49   12.40
   3  -5   0  148.29   15.60
  -3  -5   0  135.29   14.90
  -3   5   0  169.88   14.90
   3   5   0  173.28   16.70
   4  -5   0   31.50    6.10
  -4   5   0   60.29   11.40
   4   5   0   69.09   13.00
   4   5   0   73.29    7.50
   5  -5   0   26.60    5.40
  -5   5   0   68.89   10.50
   5   5   0   98.39    8.30
  -6  -5   0  113.89    9.60
   6   5   0  172.98   12.30
  -7  -5   0    1.50    3.10
  -7   5   0  -13.50   13.10
   7   5   0    8.00    2.90
  -8  -5   0   10.60    3.50
   8   5   0   20.00    3.10
 -15   0   1   29.50    6.00
 -14   0   1   15.30   12.60
 -14   0   1    3.60    5.10
 -13   0   1   42.50    8.50
 -13   0   1   31.60   15.10
 -13   0   1   55.89    9.40
 -13   0   1   35.30   11.00
 -12   0   1    9.30    6.60
 -12   0   1   10.50   10.50
 -12   0   1   -6.40    8.60
 -12   0   1    7.60    9.90
  12   0  -1   -3.60    4.20
 -11   0   1  181.28   16.40
 -11   0   1  184.08   18.80
  11   0  -1  179.78   12.70
 -11   0   1  201.18   19.30
 -11   0   1  171.58   18.70
 -10   0   1  102.59   15.70
 -10   0   1  143.89   16.20
 -10   0   1  133.39   13.70
 -10   0   1  118.09   14.60
  10   0  -1  140.39    9.30
   9   0  -1   30.30    3.70
  -9   0   1   34.20   10.60
  -9   0   1   35.00    7.80
  -9   0   1   49.70   11.70
  -8   0   1 1374.66   87.99
   8   0  -1 1499.85   85.49
   7   0  -1   71.19    5.80
  -7   0   1   73.49   11.70
   7   0  -1   80.09    5.10
   6   0  -1  157.68    9.90
   6   0  -1  158.18    9.80
   6   0  -1  157.68   10.40
   6   0  -1  167.88   10.80
   5   0  -1 1359.56   88.79
   5   0  -1 1699.43   89.79
   5   0  -1 1640.74   89.49
   5   0  -1 1325.47   88.79
   4   0  -1 4657.93  275.47
   3   0  -1  852.41   55.79
   3   0  -1 1018.90   55.69
   0   0  -1  395.66   23.70
   0   0  -1  397.46   23.50
  -1   0  -1  314.57   19.30
   1   0   1  353.26   19.30
  -1   0  -1  307.47   19.30
   3   0   1  106.09    6.60
   4   0   1   25.40    2.10
   5   0   1  854.71   50.89
   6   0   1  421.36   25.40
   7   0   1 1082.79   59.99
  -7   0  -1  920.41   62.19
   8   0   1  227.48   14.10
  -8   0  -1  210.08   18.00
   9   0   1  580.04   34.10
  -9   0  -1  559.04   37.60
  -9   0  -1  545.85   37.00
  -9   0  -1  556.24   37.30
  -9   0  -1  546.85   37.70
 -10   0  -1  228.78   19.50
 -10   0  -1  198.68   18.10
 -10   0  -1  206.18   19.20
  10   0   1  208.38   14.10
 -10   0  -1  205.68   19.30
 -11   0  -1    9.00    9.60
 -11   0  -1   34.40    7.90
 -11   0  -1   31.80    9.50
  11   0   1   21.90    4.80
 -11   0  -1   21.50    9.20
 -12   0  -1  267.37   20.10
 -12   0  -1  233.38   20.90
  12   0   1  253.57   17.70
 -12   0  -1  240.98   20.60
 -13   0  -1   47.70   11.40
 -13   0  -1   28.10   11.40
 -13   0  -1   31.80    7.20
 -13   0  -1   37.70    8.70
 -14   0  -1   37.50    7.50
  15   0   1    1.90    6.20
 -15   0  -1    5.10    4.00
 -15  -1   1   37.50    5.70
 -15  -1   1   32.50    5.40
 -15   1   1   36.00   11.70
 -15   1   1   27.20    6.20
 -15   1   1   45.70    6.80
 -14  -1   1   -3.60    4.70
 -14  -1   1   -1.50    4.60
 -14   1   1    9.30    6.10
 -14   1   1   -2.30    9.00
 -14   1   1   -0.90    5.20
 -13  -1   1   61.29    9.30
 -13  -1   1   63.69   10.50
 -13   1   1   68.99   13.30
 -13   1   1   67.99   12.80
 -13   1   1   65.19   11.20
  12  -1  -1   36.20    6.00
 -12  -1   1   23.70    7.70
 -12  -1   1   46.20    9.20
 -12   1   1   50.39    9.50
 -12   1   1   43.20    9.50
  12   1  -1   45.70    6.70
 -12   1   1   58.19   15.90
 -11  -1   1   92.79   13.10
  11  -1  -1   97.89    8.70
 -11  -1   1  110.79   12.00
  11   1  -1   94.99    9.10
 -11   1   1  111.89   15.90
 -11   1   1  108.29   13.30
 -11   1   1  114.19   13.00
 -11   1   1  125.39   18.90
  10  -1  -1  308.77   19.60
 -10  -1   1  279.27   24.20
 -10  -1   1  322.57   23.70
 -10   1   1  307.47   24.30
 -10   1   1  351.86   28.10
 -10   1   1  272.57   26.10
 -10   1   1  282.87   23.00
  10   1  -1  311.17   19.50
  -9  -1   1  305.67   22.30
   9  -1  -1  289.27   18.40
  -9  -1   1  279.47   21.20
  -9   1   1  285.47   22.00
  -9   1   1  254.07   28.50
  -9   1   1  292.07   22.00
  -9   1   1  268.97   22.10
   9   1  -1  308.67   18.20
  -8  -1   1   56.69    9.10
  -8  -1   1   66.29   10.10
   8  -1  -1   47.20    4.50
  -8   1   1   69.69   12.10
   8   1  -1   52.69    4.70
  -8   1   1   58.89   10.00
  -8   1   1   57.99    9.90
   7  -1  -1 1064.29   63.49
   7   1  -1 1200.68   70.49
  -7   1   1 1167.68   73.29
   6  -1  -1  224.08   13.50
   6  -1  -1  210.38   14.70
   6   1  -1  273.47   16.00
  -6   1   1  246.68   19.60
   5  -1  -1 1676.43  105.59
   5  -1  -1 1863.61  104.89
   5   1  -1 2085.39  113.89
   5   1  -1 1753.82  113.99
   5   1  -1 1932.91  114.79
  -4  -1   1 3298.57  177.98
   4  -1  -1 2759.32  177.88
   4  -1  -1 2941.11  177.28
  -4   1   1 3444.76  187.58
   4   1  -1 2802.92  186.88
   4   1  -1 3243.18  186.78
  -2  -1   1 1423.36   81.09
   2  -1  -1 1324.27   80.49
   2  -1  -1 1332.87   81.09
   2   1  -1 1433.46   85.89
   2   1  -1 1471.65   86.69
   1  -1  -1 3767.02  226.78
  -1  -1   1 4051.89  227.28
   1  -1  -1 3701.13  227.18
   1   1  -1 4047.99  240.58
  -1   1   1 4056.09  240.48
  -1   1   1 4088.79  239.88
  -1  -1  -1  863.41   50.19
   1  -1   1  838.72   50.69
  -1  -1  -1  824.72   50.59
   1  -1   1  855.51   50.19
  -1   1  -1  945.71   51.09
  -1   1  -1  841.12   51.59
   1   1   1  808.92   51.29
   1   1   1  845.52   51.49
  -2  -1  -1 2527.95  150.38
   2  -1   1 2602.94  150.48
   2  -1   1 2568.14  150.88
  -2  -1  -1 2481.75  150.78
   2   1   1 2433.46  158.48
  -2   1  -1 2428.86  158.58
  -2   1  -1 2886.91  158.18
   2   1   1 2957.30  158.28
   3  -1   1  186.08   12.20
   3  -1   1  193.58   11.70
  -3  -1  -1  191.38   12.00
   3   1   1  201.98   11.50
   3   1   1  178.78   11.70
  -3   1  -1  177.98   12.00
   4  -1   1  712.93   46.90
   4  -1   1  789.62   46.60
  -4  -1  -1  839.22   46.70
   4   1   1  850.61   49.80
   4   1   1  821.02   49.90
   5  -1   1  296.47   19.10
   5  -1   1  313.17   18.70
   5   1   1  371.96   20.70
   5   1   1  308.57   20.40
   6  -1   1 1915.21  116.29
   6  -1   1 1997.40  116.09
  -6   1  -1 2011.70  121.59
   7  -1   1  835.62   50.39
  -7  -1  -1  842.12   53.59
  -7   1  -1  874.71   56.89
   7   1   1  934.31   54.29
  -8  -1  -1  225.38   20.00
  -8  -1  -1  214.18   20.80
  -8  -1  -1  249.48   18.80
   8  -1   1  236.78   15.00
  -8   1  -1  197.48   19.00
  -8   1  -1  239.18   19.90
   8   1   1  234.38   14.60
  -8   1  -1  219.28   19.10
  -9  -1  -1  111.89   13.70
   9  -1   1  107.29    8.60
  -9  -1  -1  124.59   12.20
   9   1   1  111.69    8.70
  -9   1  -1  108.19   19.20
  -9   1  -1  113.99   14.10
  -9   1  -1  105.69   13.40
  -9   1  -1  113.69   14.10
 -10  -1  -1   49.40   12.10
  10  -1   1   64.99    6.80
  10   1   1   89.49    7.90
 -10   1  -1   71.19   13.10
 -10   1  -1   83.39   13.30
 -10   1  -1   56.99   15.60
 -11  -1  -1   44.70   13.70
 -11  -1  -1   57.49    9.70
  11  -1   1   47.90    7.30
 -11  -1  -1   51.19    9.00
  11   1   1   47.90    6.70
 -11   1  -1   37.60   11.10
 -11   1  -1   42.90    8.80
 -11   1  -1   54.69    9.50
  12  -1   1  213.68   15.80
 -12  -1  -1  208.88   16.60
 -12  -1  -1  192.88   17.70
 -12   1  -1  219.48   20.60
  12   1   1  189.78   16.10
 -12   1  -1  215.38   17.80
 -12   1  -1  207.38   18.00
 -13  -1  -1   35.60    7.60
 -13  -1  -1   25.90    6.30
 -13   1  -1   29.80    9.90
 -13   1  -1   30.10    9.20
 -13   1  -1   39.50    8.50
 -14  -1  -1   63.89    8.00
  14  -1   1   60.49    8.90
 -14  -1  -1   66.29    8.70
 -14   1  -1   55.49    9.00
 -14   1  -1   38.70    7.90
 -14   1  -1   70.49   11.40
 -15  -1  -1   23.20    4.40
  15  -1   1   19.90    5.60
 -15   1  -1   10.30    9.30
 -15   1  -1   19.50    4.80
 -15   1  -1    8.40    5.50
 -14  -2   1   29.30    5.20
 -14  -2   1   31.40    5.00
 -14   2   1   40.50    7.60
 -14   2   1   35.90   10.40
 -14   2   1   40.20    7.10
 -13  -2   1  149.88   12.90
 -13  -2   1  153.98   12.80
 -13   2   1  161.48   16.90
 -13   2   1  148.79   14.10
 -13   2   1  160.08   13.30
 -12  -2   1   27.70    6.90
 -12  -2   1   19.60    5.90
 -12   2   1   16.80    7.70
 -12   2   1   22.50    8.10
 -12   2   1   22.20    9.00
 -11  -2   1   77.19   11.30
 -11  -2   1   76.89   10.70
  11  -2  -1   74.89    9.40
 -11   2   1   76.09   13.00
 -11   2   1   91.89   12.90
  11   2  -1   66.99   10.10
 -10  -2   1  114.49   19.10
  10  -2  -1  109.19   10.00
 -10  -2   1  111.19   12.60
 -10  -2   1  123.09   12.40
 -10   2   1  130.69   14.60
  10   2  -1   92.89   10.30
 -10   2   1  108.79   14.30
 -10   2   1  122.99   16.70
   9  -2  -1  224.18   15.40
   9   2  -1  247.98   16.30
  -9   2   1  217.98   20.30
  -8  -2   1  124.69   12.60
  -8  -2   1   98.29   17.20
   8  -2  -1  106.09    8.70
  -8  -2   1  122.59   11.90
   8   2  -1  121.59    9.60
  -8   2   1  146.79   14.40
  -8   2   1  125.39   15.00
  -8   2   1  107.09   14.10
  -7  -2   1  166.88   23.00
  -7  -2   1  171.38   15.30
  -7  -2   1  172.68   14.70
   7  -2  -1  166.38   11.50
   7   2  -1  188.58   12.30
  -7   2   1  159.88   17.20
  -7   2   1  179.58   17.60
   6  -2  -1 1051.39   62.29
   6  -2  -1 1023.30   64.39
  -6   2   1 1153.68   73.89
   6   2  -1 1221.78   72.99
  -6   2   1 1280.67   75.99
   5  -2  -1 2444.56  150.08
  -5  -2   1 2598.74  149.69
   5  -2  -1 2463.65  148.49
   5   2  -1 2819.32  165.18
  -5   2   1 2682.33  165.98
  -5   2   1 2853.81  167.68
  -4  -2   1  176.58   12.60
   4  -2  -1  161.78   10.70
   4  -2  -1  160.48   12.90
   4   2  -1  145.89   14.60
   4   2  -1  196.58   11.40
   3  -2  -1  821.02   50.09
   3  -2  -1  790.32   51.79
  -3  -2   1  894.61   51.19
   3   2  -1 1004.10   54.89
   3   2  -1  825.02   56.29
   2  -2  -1 2977.70  182.18
   2  -2  -1 2995.20  181.08
  -2  -2   1 3203.28  182.18
   2   2  -1 3391.96  199.28
   2   2  -1 3342.97  200.78
  -1  -2   1  304.27   19.50
   1  -2  -1  288.47   18.30
   1  -2  -1  299.17   19.50
   1   2  -1  304.07   21.10
   1   2  -1  313.77   19.40
  -1   2   1  330.77   19.40
   0  -2  -1  165.28   10.80
   0  -2  -1  170.68   12.10
   0  -2   1  174.98   10.80
   0  -2   1  167.78   12.10
   0   2  -1  187.88   11.50
   0   2   1  188.28   11.50
   0   2   1  167.58   13.00
  -1  -2  -1   11.50    3.10
   1  -2   1   20.30    2.60
  -1  -2  -1   15.90    2.30
   1  -2   1   15.10    3.30
  -1   2  -1   20.50    2.50
   1   2   1   16.70    2.60
   1   2   1   16.80    4.00
  -1   2  -1   11.20    4.00
   2  -2   1  925.31   55.59
   2  -2   1  882.71   54.39
  -2  -2  -1  922.51   55.39
   2   2   1  880.01   56.29
  -2   2  -1  822.42   55.09
   2   2   1 1062.99   55.29
   3  -2   1 1303.37   79.19
  -3  -2  -1 1292.47   78.99
   3  -2   1 1334.27   78.09
   3   2   1 1508.65   83.79
   3   2   1 1302.17   84.69
  -4  -2  -1 2806.42  170.28
   4  -2   1 2912.41  169.48
   4   2   1 2634.14  172.78
   4   2   1 3163.28  171.98
  -5  -2  -1  425.76   27.30
   5  -2   1  429.66   28.10
   5   2   1  500.05   31.40
  -5   2  -1  525.15   34.70
   6  -2   1   61.29   10.70
   6  -2   1   63.69    5.70
  -6   2  -1   86.79   13.00
   6   2   1   63.39    6.10
   7  -2   1  141.89   10.20
  -7  -2  -1  157.98   16.20
  -7  -2  -1  160.48   21.90
  -7  -2  -1  129.09   12.80
   7   2   1  134.59    9.90
  -7   2  -1  140.99   15.40
  -7   2  -1  119.19   17.90
   8  -2   1   14.60    4.00
  -8  -2  -1   18.20    7.80
  -8  -2  -1   25.80   13.60
  -8  -2  -1   20.60    6.10
  -8   2  -1   20.10    8.80
  -8   2  -1   19.80    8.00
  -8   2  -1    8.60    9.60
   8   2   1   15.90    4.30
  -9  -2  -1  218.98   26.40
   9  -2   1  213.58   16.10
  -9  -2  -1  267.07   19.50
  -9   2  -1  234.08   21.80
   9   2   1  233.78   16.70
 -10  -2  -1   54.29    8.80
 -10  -2  -1   36.10    8.40
  10  -2   1   56.79    7.80
  10   2   1   53.99    8.00
 -10   2  -1   52.39    9.80
 -10   2  -1   61.59   12.50
 -10   2  -1   44.80   11.10
 -11  -2  -1   48.00    9.30
 -11  -2  -1   39.50    8.30
  11  -2   1   36.40    7.40
  11  -2   1   30.90   11.10
  11   2   1   36.00    8.20
 -11   2  -1   32.90   10.20
 -11   2  -1   55.39    9.50
 -11   2  -1   43.90   18.50
 -12  -2  -1   41.00    7.20
  12  -2   1   62.99   15.20
 -12  -2  -1   46.10    7.90
 -12   2  -1   41.70   10.50
 -12   2  -1   27.20    8.10
 -13  -2  -1   37.30    7.10
  13  -2   1   37.50    7.20
 -13  -2  -1   26.60    5.90
 -13   2  -1   18.10    9.00
 -13   2  -1   19.80    6.30
 -14  -2  -1   19.70    4.10
 -14  -2  -1   26.30    5.00
 -14   2  -1   11.60    4.90
 -14   2  -1   12.90    4.40
 -14   2  -1   23.60    8.20
 -13  -3   1    9.30    3.70
 -13  -3   1    4.00    3.30
  13   3  -1   19.80    5.30
 -13   3   1   12.20    4.40
 -13   3   1   13.40    8.30
 -13   3   1    4.10    4.20
 -12  -3   1   -0.90    4.20
 -12  -3   1   -0.50    4.40
 -12   3   1    4.00    5.10
 -12   3   1   -3.00    5.10
 -12   3   1   -8.80    9.20
  12   3  -1   -2.30    6.60
 -11  -3   1   21.80    7.80
 -11  -3   1   30.40    8.70
 -11   3   1   28.00   10.50
 -11   3   1   29.70   12.50
 -11   3   1   40.40   13.30
 -10  -3   1   27.60    7.40
 -10  -3   1   28.80    6.20
 -10   3   1   46.40   12.20
 -10   3   1   44.20   10.30
 -10   3   1   47.60    9.80
  -9  -3   1  422.36   26.10
   9  -3  -1  346.57   25.60
  -9  -3   1  379.86   26.60
  -9  -3   1  350.36   31.70
  -9   3   1  433.56   33.40
  -9   3   1  456.15   30.80
  -9   3   1  400.26   31.30
   9   3  -1  426.06   29.10
  -8  -3   1   99.79   18.90
   8  -3  -1   98.49   11.00
  -8  -3   1  103.39   12.70
  -8  -3   1  132.29   12.10
  -8   3   1  108.59   17.30
   8   3  -1  118.09   11.80
  -8   3   1  112.79   15.40
  -8   3   1   97.79   15.20
   7  -3  -1  392.46   24.80
  -7  -3   1  345.67   31.20
  -7  -3   1  390.76   31.90
  -7   3   1  439.16   33.30
  -7   3   1  429.36   30.30
   7   3  -1  459.85   29.10
  -6  -3   1   37.20    7.10
  -6  -3   1    8.10   11.00
   6  -3  -1   21.50    4.80
  -6  -3   1   11.40    7.40
  -6   3   1   21.70    9.80
  -6   3   1   21.20   10.10
  -6   3   1   20.00    9.50
   6   3  -1   22.20    5.60
  -5  -3   1   66.79   11.30
   5  -3  -1   76.59    7.50
  -5  -3   1   83.99   16.60
  -5  -3   1   79.39   12.50
  -5   3   1  108.49   16.00
   5   3  -1   86.99    8.60
   5   3  -1   89.49   20.90
  -5   3   1  103.59   18.00
  -5   3   1   95.19   13.00
  -5   3   1   84.79   11.40
  -4  -3   1  194.08   15.50
  -4  -3   1  184.48   20.40
  -4  -3   1  174.68   17.20
   4  -3  -1  172.28   12.70
  -4  -3   1  149.29   25.80
  -4   3   1  172.38   19.50
   4   3  -1  210.48   14.10
  -4   3   1  224.68   21.50
   4   3  -1  183.68   18.10
  -3  -3   1  579.84   38.10
  -3  -3   1  553.14   40.20
   3  -3  -1  567.14   35.00
   3   3  -1  724.83   40.30
  -3   3   1  576.04   42.80
   3   3  -1  628.74   42.10
  -3   3   1  649.54   41.30
  -3   3   1  683.13   44.90
   2  -3  -1  177.68   16.80
  -2  -3   1  191.98   16.60
   2  -3  -1  176.98   12.50
   2   3  -1  224.18   14.30
   2   3  -1  199.38   17.70
  -2   3   1  208.68   15.90
  -1  -3   1  122.89   13.10
   1  -3  -1  120.29    9.50
   1  -3  -1  116.09   13.40
  -1   3   1  148.69   12.60
   1   3  -1  128.49   13.60
   1   3  -1  157.58   10.50
   0  -3  -1   69.79   11.10
   0  -3   1   74.99   11.10
   0   3   1   61.39    9.50
   0   3  -1   88.19    6.90
   0   3  -1   84.99   10.40
  -1  -3  -1   61.59   11.00
   1  -3   1   73.79   11.10
  -1   3  -1   53.29    9.50
   1   3   1   71.49    8.70
   1   3   1   64.89    6.70
  -2  -3  -1  170.08   29.70
  -2  -3  -1  139.09   14.70
   2  -3   1  134.89   15.60
  -2   3  -1  176.78   14.40
   2   3   1  163.28   15.00
   2   3   1  164.08   12.00
  -3  -3  -1   79.59   14.00
   3  -3   1   71.99    7.30
  -3  -3  -1   76.99   13.30
  -3  -3  -1   65.49    9.10
   3   3   1   80.39    8.00
  -3   3  -1   88.99   10.60
   3   3   1   79.69   11.40
  -4  -3  -1   65.09   13.10
  -4  -3  -1   60.09   10.40
   4  -3   1   71.99    7.30
  -4  -3  -1   62.79   11.70
   4   3   1   94.59   15.00
  -4   3  -1  102.59   20.10
  -4   3  -1   80.19   13.20
   4   3   1   66.69   10.30
   4   3   1   74.89    8.20
  -5  -3  -1  101.09   16.20
  -5  -3  -1   64.69    9.80
   5  -3   1   77.39    7.70
  -5  -3  -1   74.69   14.20
   5   3   1   82.79    8.70
  -5   3  -1   77.39   10.10
   5   3   1   70.09   10.50
  -5   3  -1   84.79   16.40
  -5   3  -1   94.89   14.80
  -6  -3  -1  543.35   34.40
   6  -3   1  532.25   33.60
  -6  -3  -1  548.45   36.30
  -6  -3  -1  496.85   39.40
  -6   3  -1  579.24   39.20
  -6   3  -1  640.74   41.60
  -6   3  -1  557.94   41.30
  -6   3  -1  624.04   42.20
   6   3   1  617.84   38.20
   6   3   1  593.74   39.80
   7  -3   1  254.97   18.60
  -7  -3  -1  269.57   19.60
   7   3   1  295.87   20.60
  -7   3  -1  298.87   25.50
  -7   3  -1  272.07   26.60
   7   3   1  260.47   23.40
   8  -3   1   69.69   10.70
  -8  -3  -1   99.59   14.00
  -8  -3  -1   94.29   10.30
   8   3   1   85.89   12.50
   8   3   1  110.29   15.40
  -8   3  -1  106.09   14.40
  -8   3  -1  105.79   18.00
   9  -3   1  124.09   16.00
  -9  -3  -1  164.68   16.30
  -9  -3  -1  191.68   14.50
   9   3   1  185.48   18.50
  -9   3  -1  210.68   18.50
  -9   3  -1  173.78   19.80
   9   3   1  207.78   18.50
  -9   3  -1  179.98   23.20
 -10  -3  -1   55.09    9.70
 -10  -3  -1   63.69    9.10
  10   3   1  103.39   12.90
 -10   3  -1   80.89   13.10
 -10   3  -1   74.59   13.10
 -10   3  -1   73.09   15.70
 -11  -3  -1    2.00    6.00
 -11  -3  -1    7.40    6.60
 -11   3  -1    6.80   10.40
 -11   3  -1   17.90    8.30
  11   3   1    8.70    5.80
 -11   3  -1    8.60    8.40
 -12  -3  -1    8.00    5.30
 -12  -3  -1   13.70    3.80
  12   3   1   27.70    5.10
 -12   3  -1   22.60   11.00
 -12   3  -1   24.70    6.90
 -12   3  -1   25.20    6.10
  12   3   1   13.30    9.40
 -13  -3  -1    9.00    3.30
 -13  -3  -1    9.00    4.30
 -13   3  -1   26.70   10.10
 -13   3  -1    7.20    5.00
  13   3   1   11.40    5.00
 -13   3  -1    4.40    4.10
 -11  -4   1   55.29    7.50
 -11  -4   1   64.19    6.40
 -11   4   1   76.29    8.80
 -11   4   1   67.79   15.00
  11   4  -1   74.79    7.70
 -10  -4   1   15.50    5.60
 -10   4   1   -1.50   14.20
 -10   4   1   14.60    6.50
  10   4  -1   13.10    4.40
  -9  -4   1    4.20    4.30
  -9  -4   1   10.00    6.60
  -9   4   1    8.40   13.20
  -9   4   1    2.50    7.60
   9   4  -1    9.40    5.10
  -8  -4   1   71.79   11.90
  -8  -4   1   62.89    9.30
  -8   4   1   62.09   13.00
   8   4  -1   61.69   11.00
  -8   4   1   41.10   14.20
  -8   4   1   41.30    8.70
  -7  -4   1  201.58   17.50
  -7  -4   1  200.38   15.90
   7   4  -1  199.28   17.70
  -7   4   1  257.67   21.70
  -7   4   1  232.38   18.40
  -7   4   1  166.38   27.20
  -6  -4   1   50.09    9.90
  -6  -4   1   27.00   10.70
  -6  -4   1   33.70    6.80
  -6   4   1   70.89   13.60
   6   4  -1   80.19   13.50
   6   4  -1   71.49   12.40
  -5  -4   1  253.17   18.70
  -5  -4   1  245.68   20.30
  -5  -4   1  215.78   23.40
   5   4  -1  304.47   21.60
  -5   4   1  304.17   21.80
   5   4  -1  244.28   23.50
   5   4  -1  261.87   24.40
  -4  -4   1  212.18   17.50
  -4  -4   1  227.98   23.40
  -4  -4   1  220.18   20.00
   4   4  -1  296.37   21.40
   4   4  -1  262.87   23.10
  -4   4   1  276.87   20.80
   4   4  -1  286.07   23.30
  -3  -4   1  219.08   23.90
  -3  -4   1  221.98   17.40
  -3  -4   1  230.88   21.40
   3   4  -1  226.88   21.80
  -3   4   1  267.47   19.70
   3   4  -1  282.77   20.00
  -2  -4   1   68.29   14.80
  -2  -4   1   72.79   12.90
  -2   4   1   77.99   11.90
   2   4  -1   98.79   11.70
   2   4  -1   71.89   13.40
  -1   4   1  234.08   19.50
  -1   4   1  268.67   17.50
   1   4  -1  258.37   20.20
   1   4  -1  210.08   20.20
   0  -4  -1  103.89   14.80
   0   4  -1  104.79   13.20
   0   4   1  112.79   12.70
  -1  -4  -1  346.17   25.20
   1   4   1  494.75   29.90
   1   4   1  490.05   32.10
  -1   4  -1  413.96   31.60
  -2  -4  -1  126.09   13.10
   2   4   1  170.88   13.40
  -2   4  -1  146.49   15.60
   2   4   1  164.68   16.60
  -3  -4  -1  122.09   12.70
   3   4   1  160.08   13.90
  -3   4  -1  170.98   15.50
   3   4   1  168.18   16.50
  -4  -4  -1   28.30    6.80
   4   4   1   53.39   10.30
  -4   4  -1   35.70    8.60
   4   4   1   40.10    6.70
  -5  -4  -1   21.30    6.00
   5   4   1   19.10   11.20
  -5   4  -1   15.20    8.30
   5   4   1   16.20    5.90
  -6  -4  -1   76.29   12.60
  -6  -4  -1   63.09   10.40
   6   4   1   90.69   10.60
  -6   4  -1   60.09   12.80
  -7  -4  -1  101.49   15.70
  -7  -4  -1  112.79   11.10
  -7   4  -1   96.79   15.20
  -7   4  -1  120.79   17.90
   7   4   1  114.29   11.70
  -8  -4  -1   90.09    9.60
  -8  -4  -1   61.39   12.50
   8   4   1  117.39   11.90
  -9  -4  -1   36.20    6.90
  -9  -4  -1   53.19    8.50
  -9   4  -1   43.90   21.60
   9   4   1   52.29    8.00
  -9   4  -1   34.00    8.70
 -10  -4  -1   51.19    6.80
 -10  -4  -1   56.69    8.50
 -10   4  -1   56.69   10.10
 -10   4  -1   88.79   25.20
  10   4   1   64.29    7.40
 -11  -4  -1   34.00    6.80
 -11  -4  -1   52.39    6.00
 -11   4  -1   22.50    6.00
  11   4   1   14.80    6.30
  -8  -5   1   12.90    3.80
   8   5  -1   16.70    3.00
  -7  -5   1    9.50    3.70
  -7   5   1    0.60    8.80
   7   5  -1    1.90    3.00
  -6  -5   1   10.10    3.90
   6   5  -1   41.50    6.20
  -6   5   1   50.09    9.30
  -5  -5   1   48.10    7.20
   5   5  -1   57.39    7.60
   5   5  -1   74.09   14.00
  -5   5   1   72.49   10.40
   4  -5  -1   97.89   11.20
  -4  -5   1  133.29   10.80
  -4   5   1  165.58   14.60
   4   5  -1  168.48   16.90
   4   5  -1  151.58   12.50
  -3  -5   1  113.19   11.70
  -3   5   1  109.09   12.80
   3   5  -1  142.39   14.90
  -2  -5   1  223.68   19.40
   2  -5  -1  257.37   18.50
   2   5  -1  362.86   25.50
  -2   5   1  334.57   24.30
   2   5  -1  335.77   22.90
   1  -5  -1  431.46   29.30
  -1  -5   1  458.05   30.70
  -1   5   1  581.24   39.40
   1   5  -1  637.94   40.30
   0  -5  -1   16.30    6.00
   0  -5   1    3.80    6.10
   0   5   1    2.70    5.90
   0   5  -1   17.60    6.80
  -1  -5  -1   -4.00    5.20
   1  -5   1    4.80    7.20
  -1   5  -1    5.80    6.90
   1   5   1    0.80    6.70
   1   5   1  -18.80   12.80
  -2  -5  -1   99.79   10.50
  -2   5  -1  117.69   13.10
   2   5   1  118.29   13.20
   3  -5   1   55.39    8.90
   3   5   1   93.19   10.30
  -3   5  -1   90.59   11.60
   3   5   1   92.09   12.70
  -4  -5  -1  139.39   10.90
   4  -5   1  110.69   11.50
  -4   5  -1  189.98   16.60
   4   5   1  200.58   13.40
   4   5   1  191.78   18.10
   5  -5   1   25.30    5.50
  -5   5  -1   49.10    8.50
   5   5   1   59.09    6.40
   6  -5   1   58.29    7.90
  -6  -5  -1   46.30    6.20
   6   5   1   97.59    7.60
  -6   5  -1   62.59   11.40
   7  -5   1   26.50    5.20
  -7  -5  -1   37.30    5.50
   7   5   1   40.90    5.20
   8  -5   1   43.50    5.50
   8   5   1  104.89   11.10
   8   5   1  110.49    8.30
 -15   0   2  186.38   13.90
 -14   0   2    8.10    5.50
 -14   0   2   -9.50    6.80
 -13   0   2  163.68   18.70
 -13   0   2  151.88   16.10
 -13   0   2  150.18   14.90
 -12   0   2   -5.40    6.30
  12   0  -2    0.60    4.10
 -12   0   2   11.10   10.60
 -12   0   2   -5.90    9.20
 -11   0   2   23.50    7.40
 -11   0   2   18.20   10.30
 -11   0   2   12.70    9.80
 -11   0   2   24.40   10.50
  11   0  -2   14.40    3.60
 -10   0   2  312.37   25.60
 -10   0   2  291.97   24.80
  10   0  -2  333.47   19.90
 -10   0   2  317.57   23.40
 -10   0   2  335.47   26.20
  -9   0   2  110.69   16.80
  -9   0   2   98.09   12.30
  -9   0   2   79.49   13.10
   9   0  -2   90.39    6.60
  -8   0   2  255.57   19.60
   8   0  -2  246.48   15.40
   7   0  -2    1.10    0.80
  -7   0   2   -2.70    7.40
   7   0  -2    1.00    2.80
   6   0  -2    9.30    3.30
   5   0  -2   69.59    6.10
   5   0  -2   66.29    5.40
   4   0  -2    3.00    1.40
   4   0  -2    2.70    2.00
   3   0  -2  602.74   36.60
   2   0  -2 3588.54  212.48
   1   0  -2 1033.20   61.69
   0   0  -2   58.39    4.20
   0   0  -2   59.09    3.60
   1   0   2 1203.48   72.59
  -1   0  -2 1243.78   72.59
  -1   0  -2 1236.88   72.89
  -2   0  -2  387.06   22.40
   2   0   2  375.76   22.40
  -2   0  -2  361.86   22.40
   4   0   2   24.70    2.20
   5   0   2  890.41   53.09
   6   0   2 4894.81  289.27
  -7   0  -2    4.50    6.90
   7   0   2    3.50    1.80
   8   0   2  226.88   14.50
  -8   0  -2  221.58   18.80
  -9   0  -2  184.08   20.20
   9   0   2  233.88   14.80
  -9   0  -2  229.08   19.90
  -9   0  -2  216.88   18.90
  -9   0  -2  243.48   18.70
 -10   0  -2   23.70    9.10
 -10   0  -2   22.80    9.70
  10   0   2   25.20    4.60
 -10   0  -2   40.40    8.60
 -10   0  -2   20.30    8.60
 -11   0  -2   -3.00    8.00
 -11   0  -2   -1.30    6.30
 -11   0  -2   14.00    9.60
  11   0   2    3.70    4.70
 -11   0  -2   -1.50    8.90
 -12   0  -2   94.09   12.40
 -12   0  -2   81.99   13.70
 -12   0  -2  104.39   13.80
  12   0   2   71.69   10.40
 -13   0  -2  202.18   16.90
 -13   0  -2  203.18   16.50
 -13   0  -2  208.08   20.40
 -14   0  -2    4.20   13.20
 -14   0  -2    4.00    4.60
  14   0   2    8.30    6.30
  15   0   2    3.30    7.60
 -15   0  -2    0.00    3.30
 -15  -1   2   36.40    6.20
 -15  -1   2   44.90    6.50
 -15   1   2   47.70    8.60
 -15   1   2   46.40    7.00
 -15   1   2   43.90   11.00
 -14  -1   2   30.70    5.70
 -14  -1   2   29.30    6.30
 -14   1   2   29.20    6.40
 -14   1   2   16.30    5.30
 -13  -1   2   91.59   10.40
 -13  -1   2   95.79   12.10
 -13   1   2  123.39   16.10
 -13   1   2  127.19   15.90
 -13   1   2  120.29   13.60
 -12  -1   2   22.30    7.10
 -12  -1   2   21.90    6.60
  12   1  -2   32.90    5.60
 -12   1   2   27.70    8.00
 -12   1   2   35.60    9.00
 -12   1   2   12.90    8.80
 -11  -1   2  285.07   21.50
  11  -1  -2  294.07   18.80
 -11  -1   2  281.67   21.50
  11   1  -2  271.37   18.10
 -11   1   2  289.67   22.00
 -11   1   2  279.37   21.70
 -11   1   2  263.57   22.80
 -10  -1   2  215.68   21.20
 -10  -1   2  257.87   22.60
  10  -1  -2  269.87   16.50
 -10   1   2  278.67   22.40
 -10   1   2  262.27   21.50
  10   1  -2  271.57   17.40
  -9  -1   2   66.79   10.50
   9  -1  -2   64.49    5.60
  -9  -1   2   61.29   11.00
   9   1  -2   71.69    5.70
  -9   1   2   66.69   11.80
  -9   1   2   61.39   11.40
  -9   1   2   71.89   11.70
  -8  -1   2  180.38   16.30
  -8  -1   2  210.68   16.90
   8  -1  -2  173.98   11.90
  -8   1   2  188.08   17.10
  -8   1   2  211.38   18.30
  -8   1   2  185.68   17.70
   8   1  -2  200.38   12.50
   7  -1  -2  644.04   41.50
   7  -1  -2  683.33   39.90
  -7   1   2  756.82   48.80
   7   1  -2  775.52   45.70
   6  -1  -2  207.98   12.70
   6  -1  -2  199.78   14.50
   6   1  -2  235.08   16.70
  -6   1   2  213.18   17.80
   6   1  -2  241.08   14.10
   5  -1  -2   73.99    7.00
   5  -1  -2   82.39    5.20
   5   1  -2   90.49    8.30
   5   1  -2   93.79    5.80
  -4  -1   2  965.10   57.39
   4  -1  -2  990.70   56.49
   4  -1  -2  959.10   57.39
   4  -1  -2  884.41   56.29
   4   1  -2  995.30   62.69
   4   1  -2 1016.40   61.39
   4   1  -2  966.60   61.29
  -4   1   2 1171.88   62.49
   3  -1  -2 2288.67  139.09
  -3  -1   2 2443.66  139.09
   3  -1  -2 2120.89  138.19
   3  -1  -2 2503.95  138.29
  -3   1   2 2580.64  146.79
   3   1  -2 2518.95  147.19
   3   1  -2 2449.85  145.99
   3   1  -2 2337.27  145.89
   1  -1  -2 1138.69   68.59
  -1  -1   2 1229.38   69.29
   1  -1  -2 1105.19   69.19
   1   1  -2 1318.87   76.49
   1   1  -2 1164.38   75.59
  -1   1   2 1348.77   76.19
   0  -1  -2 3162.08  188.68
   0  -1  -2 3108.29  188.18
   0  -1   2 3191.98  188.08
   0  -1   2 3278.17  188.78
   0   1   2 3160.18  193.88
   0   1   2 3409.96  194.78
   0   1  -2 3276.37  193.88
   1  -1   2 2565.54  144.89
  -1  -1  -2 2259.17  144.29
   1  -1   2 2557.64  144.29
  -1  -1  -2 2379.16  144.69
   1   1   2 2599.74  155.38
   1   1   2 2578.34  154.98
  -1   1  -2 2688.13  154.98
   2  -1   2  199.98   11.60
  -2  -1  -2  172.98   11.90
   2  -1   2  198.18   12.20
  -2  -1  -2  184.48   11.60
   2   1   2  212.68   12.70
   2   1   2  208.48   12.90
  -2   1  -2  197.08   12.50
  -3  -1  -2  570.24   38.00
   3  -1   2  658.03   37.80
   3  -1   2  669.83   38.30
   3   1   2  661.63   40.20
  -3   1  -2  693.53   40.00
   3   1   2  657.03   40.10
   4  -1   2 1250.17   73.59
   4  -1   2 1244.18   73.19
  -4  -1  -2 1201.28   73.19
   4   1   2 1398.76   85.19
   4   1   2 1468.55   85.09
   5  -1   2  497.65   29.90
   5  -1   2  481.15   29.60
  -5   1  -2  492.15   30.50
   5   1   2  510.15   30.30
   6  -1   2  318.47   20.20
   6  -1   2  335.27   20.20
   6   1   2  382.96   22.00
  -6   1  -2  322.47   24.80
   7  -1   2  205.28   12.90
  -7  -1  -2  185.98   18.30
  -7   1  -2  225.48   18.60
   7   1   2  237.38   15.00
  -8  -1  -2  271.77   22.20
  -8  -1  -2  267.27   20.80
  -8  -1  -2  258.47   19.40
   8  -1   2  237.78   16.40
   8   1   2  259.17   16.80
  -8   1  -2  247.18   22.00
  -8   1  -2  260.37   23.50
  -8   1  -2  270.27   21.10
   9  -1   2   54.39    6.00
  -9  -1  -2   54.59    9.80
  -9  -1  -2   58.09   11.60
  -9  -1  -2   61.39   10.00
  -9   1  -2   66.09   12.00
  -9   1  -2   61.29   11.00
   9   1   2   70.39    7.00
  -9   1  -2   60.59   12.00
  -9   1  -2   83.39   13.90
 -10  -1  -2  172.18   14.30
 -10  -1  -2  157.98   18.20
  10  -1   2  158.28   11.80
 -10  -1  -2  134.09   16.20
  10   1   2  168.58   12.00
 -10   1  -2  153.28   16.70
 -10   1  -2  108.69   19.40
 -10   1  -2  145.89   17.40
 -11  -1  -2  101.09   18.90
 -11  -1  -2   98.49   11.50
  11  -1   2   91.19    9.90
 -11  -1  -2   97.69   13.30
 -11   1  -2   81.19   14.10
  11   1   2  100.19   10.40
 -11   1  -2  101.09   13.70
 -11   1  -2  119.79   16.00
 -12  -1  -2   15.00    6.30
 -12  -1  -2   28.30    7.80
  12  -1   2   47.10   11.10
  12  -1   2   30.10    7.60
 -12  -1  -2   20.90   14.10
 -12   1  -2   37.00    8.60
 -12   1  -2   40.90    9.30
  12   1   2   39.00    8.50
 -12   1  -2   30.30   10.10
 -13  -1  -2   27.30    9.90
  13  -1   2   15.90    8.50
 -13  -1  -2   29.90    8.20
 -13   1  -2   21.80    9.40
  13   1   2   37.70    7.90
 -13   1  -2   42.80    9.30
 -14  -1  -2   10.20    5.00
 -14  -1  -2    1.60    4.20
  14  -1   2   11.30    5.90
  14   1   2   11.20    5.70
 -14   1  -2    0.40    5.70
 -14   1  -2    7.00    5.70
 -14   1  -2   -0.50    8.30
 -15  -1  -2    0.20    2.90
  15  -1   2   17.00    9.30
  15  -1   2    5.60    4.30
 -15   1  -2    2.00    4.30
 -15   1  -2    2.60    4.90
  15   1   2    5.30    4.20
 -15   1  -2    5.90    9.60
 -14  -2   2    6.80    3.90
 -14  -2   2    4.30    4.00
 -14   2   2    1.70    4.40
 -14   2   2   -4.00    4.20
 -14   2   2   10.30    8.00
 -13  -2   2   83.79    9.70
 -13  -2   2   93.39    9.70
 -13   2   2   83.99   11.30
 -13   2   2   97.09   14.00
 -13   2   2   99.29   10.00
 -12  -2   2   20.30    5.80
 -12  -2   2   13.20    5.90
 -12   2   2   17.10    6.90
 -12   2   2   11.80    6.90
 -12   2   2   14.60    8.30
 -11  -2   2  134.49   12.70
  11  -2  -2  111.19   11.00
 -11  -2   2  126.19   13.20
 -11   2   2  124.29   15.70
  11   2  -2  126.19   11.60
 -11   2   2  140.69   14.50
 -10  -2   2  113.59   11.80
 -10  -2   2  112.59   12.50
  10  -2  -2   93.09    9.10
 -10  -2   2   76.59   16.60
 -10   2   2  101.09   13.00
  10   2  -2   94.39    9.70
 -10   2   2  118.49   14.80
 -10   2   2  116.29   15.40
  -9  -2   2  264.47   22.30
   9  -2  -2  202.88   15.20
  -9   2   2  238.38   21.70
   9   2  -2  242.88   16.50
  -9   2   2  274.27   26.80
  -9   2   2  230.58   21.30
   8  -2  -2 1052.69   63.39
  -8  -2   2  990.20   64.79
  -8  -2   2 1163.08   65.19
  -8  -2   2  996.50   68.19
  -8   2   2 1091.29   70.79
  -8   2   2 1096.09   70.39
  -8   2   2 1162.68   70.09
   8   2  -2 1135.89   67.59
  -7  -2   2  435.56   30.00
  -7  -2   2  478.15   30.10
   7  -2  -2  437.36   27.80
  -7  -2   2  446.96   35.50
  -7   2   2  477.65   34.30
  -7   2   2  462.95   33.60
   7   2  -2  531.75   30.60
  -7   2   2  463.35   34.00
  -7   2   2  533.25   32.60
  -6  -2   2  593.04   37.90
   6  -2  -2  571.14   38.50
   6  -2  -2  593.74   35.70
   6   2  -2  734.03   44.30
  -6   2   2  720.13   47.50
  -6   2   2  742.93   45.70
   5  -2  -2 2791.72  162.18
   5  -2  -2 2674.83  163.98
  -5   2   2 3174.78  186.78
   5   2  -2 3108.09  186.08
  -5   2   2 3134.99  188.48
   4  -2  -2 1221.08   71.19
   4  -2  -2 1160.28   72.79
  -4  -2   2 1194.28   72.49
  -4   2   2 1281.17   83.19
  -4   2   2 1418.36   85.19
   4   2  -2 1449.15   82.39
   3  -2  -2 2798.82  173.48
   3  -2  -2 2792.62  172.08
  -3  -2   2 3124.79  173.48
   3   2  -2 3164.98  187.38
  -2  -2   2 1922.91  113.79
   2  -2  -2 1812.62  114.49
   2  -2  -2 1958.40  112.79
   2   2  -2 2118.09  118.09
   2   2  -2 1857.71  119.99
  -1  -2   2  649.14   39.00
   1  -2  -2  595.34   37.80
   1  -2  -2  642.14   39.10
   1   2  -2  619.84   42.20
   1   2  -2  680.93   40.40
  -1   2   2  718.13   40.50
   0  -2   2  747.23   44.10
   0  -2   2  791.32   45.40
   0  -2  -2  734.33   45.30
   0  -2  -2  673.83   44.10
   0   2   2  794.92   50.39
   0   2  -2  848.22   49.20
  -1  -2  -2 1397.76   88.09
   1  -2   2 1559.44   89.29
  -1  -2  -2 1487.35   89.19
   1   2   2 1694.43   97.79
  -1   2  -2 1587.34   96.39
   1   2   2 1593.64   96.59
  -2  -2  -2  997.00   61.89
   2  -2   2 1031.40   60.89
   2  -2   2 1031.30   62.09
  -2   2  -2 1186.28   68.89
   2   2   2 1130.79   70.09
   2   2   2 1152.28   69.09
   3  -2   2  618.84   38.60
  -3  -2  -2  582.64   38.10
   3  -2   2  643.44   37.20
  -3   2  -2  626.74   38.40
   3   2   2  659.33   38.70
   3   2   2  630.14   39.80
   4  -2   2 1059.29   61.49
  -4  -2  -2  995.70   62.39
   4   2   2 1000.90   65.99
   4   2   2 1168.98   65.09
   5  -2   2  136.99    8.80
  -5  -2  -2  115.49   10.50
   5  -2   2  114.99   11.90
   5   2   2  135.99    9.90
  -5   2  -2  148.99   15.30
  -6  -2  -2   30.90   13.50
  -6  -2  -2   16.40    9.20
   6  -2   2   40.20    4.40
  -6   2  -2   44.80   10.00
   6   2   2   38.80    5.00
   7  -2   2   81.89    7.20
  -7  -2  -2   86.89   10.10
  -7   2  -2   85.19   13.80
  -7   2  -2   80.89   13.70
   7   2   2   84.39    7.90
  -7   2  -2   96.29   13.50
  -8  -2  -2   54.69    9.50
  -8  -2  -2   50.79    9.70
   8  -2   2   70.19   12.10
   8  -2   2   56.79    6.70
  -8   2  -2   52.99   11.30
   8   2   2   75.19    7.70
  -8   2  -2   66.99   12.70
  -8   2  -2   71.69   11.00
   9  -2   2  298.87   19.90
  -9  -2  -2  293.07   22.60
  -9  -2  -2  292.27   21.10
  -9   2  -2  320.77   23.90
   9   2   2  307.87   21.30
  -9   2  -2  297.07   25.20
  -9   2  -2  319.17   25.90
 -10  -2  -2  124.59   11.90
  10  -2   2  123.59   11.70
 -10  -2  -2  120.39   14.70
  10  -2   2  109.29   16.30
 -10   2  -2  152.68   15.90
  10   2   2  122.89   12.80
 -10   2  -2  159.08   19.40
 -10   2  -2  109.19   17.30
 -11  -2  -2  112.29   11.40
  11  -2   2  108.29   12.60
  11  -2   2  108.89   15.40
 -11  -2  -2   96.99   12.40
  11   2   2  115.59   14.20
 -11   2  -2  122.49   14.30
 -11   2  -2   76.39   14.30
 -11   2  -2  128.89   16.50
  11   2   2   96.99   14.90
 -12  -2  -2   27.40    7.30
 -12  -2  -2   31.40    6.50
  12  -2   2   19.90   10.80
 -12   2  -2   11.70    9.10
 -12   2  -2   28.90    8.00
  12   2   2   37.30    6.50
 -12   2  -2   28.90   11.00
  13  -2   2   68.59    9.60
 -13  -2  -2   65.29    8.10
 -13  -2  -2   62.09    9.00
 -13   2  -2   82.09   13.90
 -13   2  -2   55.59    8.80
 -13   2  -2   61.79   10.50
  13   2   2   69.89    9.10
 -14  -2  -2   17.00    4.40
 -14  -2  -2   12.80    3.70
  14   2   2   21.60    4.80
 -14   2  -2    9.70    4.50
 -14   2  -2   11.30    8.00
 -14   2  -2    8.40    5.00
 -13  -3   2   22.20    4.10
 -13  -3   2   20.20    4.80
 -13   3   2   23.90    9.30
 -13   3   2   20.10    4.80
 -13   3   2   31.20    5.60
 -12  -3   2    1.60    4.30
 -12  -3   2   10.70    4.80
 -12   3   2    6.40    9.10
 -12   3   2    7.40    5.00
 -12   3   2   10.30    5.60
 -11  -3   2    5.70    4.70
 -11   3   2    0.90    9.50
 -10  -3   2    3.30    6.00
 -10  -3   2   -7.60   10.50
 -10  -3   2   -1.20    5.90
 -10   3   2    8.90    7.20
 -10   3   2    4.40    7.50
 -10   3   2   -3.80    9.70
  -9  -3   2  475.25   32.30
  -9  -3   2  516.15   31.90
  -9  -3   2  470.75   36.90
   9  -3  -2  479.45   31.70
  -9   3   2  605.44   42.40
   9   3  -2  545.25   36.30
  -9   3   2  539.05   38.90
  -9   3   2  567.74   38.10
   8  -3  -2  215.48   17.00
  -8  -3   2  259.57   18.40
  -8  -3   2  212.68   23.00
  -8  -3   2  244.38   18.50
   8   3  -2  273.17   19.40
  -8   3   2  252.37   21.50
  -8   3   2  263.97   24.10
  -8   3   2  297.07   21.00
  -8   3   2  257.47   23.10
  -7  -3   2 1201.18   72.69
  -7  -3   2 1115.79   75.59
   7  -3  -2 1218.48   71.59
  -7   3   2 1258.97   87.29
  -7   3   2 1464.25   85.59
  -7   3   2 1296.67   89.09
  -7   3   2 1455.55   88.49
   7   3  -2 1545.55   85.29
  -6  -3   2  495.75   39.70
  -6  -3   2  560.24   34.80
   6  -3  -2  535.95   33.30
  -6  -3   2  523.25   34.80
  -6   3   2  655.93   42.00
   6   3  -2  606.24   37.60
  -6   3   2  624.34   38.30
   6   3  -2  519.45   40.90
  -6   3   2  549.85   40.50
  -6   3   2  635.94   41.00
  -5  -3   2   73.29   11.30
  -5  -3   2   87.29   17.70
   5  -3  -2   95.39    8.30
  -5   3   2  109.39   14.80
  -5   3   2  110.09   16.70
  -5   3   2  105.49   11.00
   5   3  -2  105.09    9.20
  -5   3   2  119.19   16.10
   4  -3  -2   39.90    5.60
  -4  -3   2   38.80    8.20
  -4  -3   2   50.69   12.40
  -4  -3   2   43.20    9.40
  -4   3   2   54.79    8.90
   4   3  -2   54.39    6.30
  -4   3   2   32.00   13.30
  -4   3   2   46.20   12.00
   3  -3  -2  132.89    9.80
  -3  -3   2  104.69   18.70
  -3   3   2  139.69   19.80
  -3   3   2  133.59   13.10
  -3   3   2  120.89   15.40
   3   3  -2  135.89   10.20
  -2  -3   2  580.24   40.50
  -2  -3   2  656.53   45.50
   2   3  -2  720.63   43.00
  -2   3   2  688.23   44.00
   1  -3  -2  776.62   45.10
   1  -3  -2  715.03   47.80
  -1  -3   2  720.43   47.60
   1   3  -2  886.41   53.59
  -1   3   2  885.61   54.69
   0  -3   2  201.68   18.10
   0  -3  -2  209.18   17.70
   0   3  -2  249.88   15.90
   0   3   2  234.98   17.50
  -1  -3  -2  443.56   31.00
   1  -3   2  450.35   31.40
  -1   3  -2  465.75   31.90
  -1   3  -2  481.95   29.70
   1   3   2  492.25   31.20
  -2  -3  -2  211.88   20.00
  -2  -3  -2  228.88   17.60
   2  -3   2  239.88   19.60
  -2   3  -2  298.57   20.30
   2   3   2  300.17   19.00
   2   3   2  261.07   20.40
  -2   3  -2  266.77   20.90
  -3  -3  -2  366.36   26.00
  -3  -3  -2  406.66   29.20
   3   3   2  492.05   31.80
   3   3   2  503.45   30.80
  -3   3  -2  538.25   31.40
   3   3   2  453.65   32.00
  -3   3  -2  451.25   32.40
   4  -3   2   26.00    6.20
  -4  -3  -2   28.60    6.50
   4   3   2   18.10    6.70
   4   3   2   17.60    8.30
   4   3   2   14.80    5.00
  -4   3  -2    7.40   10.60
   5  -3   2  169.88   12.80
  -5  -3  -2  118.89   19.70
  -5  -3  -2  176.48   13.90
  -5   3  -2  191.88   20.80
  -5   3  -2  193.48   17.10
  -5   3  -2  245.38   32.50
   5   3   2  173.78   16.90
   5   3   2  179.38   14.50
  -5   3  -2  193.58   22.60
   6  -3   2  145.89   12.70
  -6  -3  -2  146.59   18.10
  -6  -3  -2  147.49   13.00
  -6   3  -2  134.09   17.10
   6   3   2  155.88   14.00
   6   3   2  176.28   16.10
  -6   3  -2  182.88   20.50
  -6   3  -2  179.58   20.10
  -6   3  -2  165.38   19.00
  -7  -3  -2  208.28   15.60
   7  -3   2  163.78   15.30
   7   3   2  204.28   21.90
   7   3   2  216.18   17.50
  -7   3  -2  194.48   21.50
  -7   3  -2  221.78   19.90
  -7   3  -2  222.78   23.20
  -8  -3  -2  262.07   22.10
   8  -3   2  282.67   21.60
  -8  -3  -2  260.77   19.50
   8   3   2  276.67   21.90
  -8   3  -2  287.17   25.30
  -8   3  -2  293.17   26.60
   8   3   2  293.07   22.40
  -8   3  -2  303.57   23.40
  -9  -3  -2   34.30    9.20
  -9  -3  -2   25.60    6.20
   9   3   2   25.60   11.40
  -9   3  -2   30.70   10.80
  -9   3  -2   14.30    9.60
   9   3   2   20.40    6.80
 -10  -3  -2   59.69    9.00
 -10  -3  -2   39.90    9.10
 -10   3  -2   49.70   11.80
 -10   3  -2   67.59   14.00
  10   3   2   61.69    8.00
 -11  -3  -2   23.00    6.30
 -11  -3  -2   32.70    6.50
 -11   3  -2   28.70    9.40
 -11   3  -2   28.30   11.40
  11   3   2   48.90    8.60
  11   3   2   21.00    8.20
 -11   3  -2   37.90    7.60
 -12  -3  -2  112.19   10.00
 -12  -3  -2   79.49    8.10
 -12   3  -2  130.49   12.40
 -12   3  -2  135.19   13.30
 -12   3  -2  118.29   19.30
  12   3   2  133.59   10.70
 -13  -3  -2    5.20    4.00
 -13  -3  -2    9.00    3.10
 -13   3  -2   -4.10    9.20
 -13   3  -2    5.80    4.30
  13   3   2    6.70    3.20
 -11  -4   2   40.00    7.00
 -11  -4   2   60.89    8.00
 -11   4   2   49.99   13.30
 -11   4   2   38.50    7.00
 -10  -4   2   22.10    5.00
 -10  -4   2   17.20    4.90
 -10   4   2   37.90    7.30
  10   4  -2   30.50    5.60
 -10   4   2   17.40   12.00
  -9  -4   2   55.09    8.10
  -9  -4   2   50.29    7.70
  -9   4   2   49.00    8.50
   9   4  -2   60.09   10.20
  -9   4   2   47.10   13.30
  -8  -4   2   72.29   12.70
  -8  -4   2   83.99   11.60
  -8   4   2   69.19   14.40
  -8   4   2   66.49   12.30
  -7  -4   2   39.70   11.60
  -7  -4   2   49.60    9.50
  -7  -4   2   30.40    8.10
   7   4  -2   51.19    8.60
  -7   4   2   51.79   11.80
  -7   4   2   64.69   10.50
  -6  -4   2  304.37   21.10
  -6  -4   2  287.97   21.90
  -6  -4   2  278.37   25.30
  -6   4   2  337.97   27.00
   6   4  -2  309.47   26.40
   6   4  -2  356.76   25.10
  -5  -4   2  436.96   34.80
  -5  -4   2  459.05   30.50
  -5  -4   2  486.85   31.70
   5   4  -2  465.35   37.30
   5   4  -2  553.84   36.80
  -5   4   2  609.24   36.40
   5   4  -2  559.94   36.50
  -4  -4   2  637.54   41.00
  -4  -4   2  616.74   40.40
  -4  -4   2  633.44   45.00
   4   4  -2  773.32   49.50
   4   4  -2  789.52   49.70
  -4   4   2  781.52   49.30
   4   4  -2  767.72   50.59
  -3  -4   2   95.19   15.40
  -3  -4   2   84.39   12.30
  -3  -4   2   91.79   14.20
   3   4  -2  107.19   15.20
   3   4  -2  118.69   13.80
   3   4  -2   81.69   14.90
  -3   4   2  110.09   12.40
  -2  -4   2   46.80   13.60
  -2  -4   2   50.39    9.00
   2   4  -2   71.09   12.80
   2   4  -2   80.49   11.90
  -2   4   2   80.29   10.60
  -1  -4   2   81.39   12.70
  -1  -4   2   80.39   16.70
   1   4  -2  134.09   15.10
   1   4  -2  118.29   13.10
  -1   4   2  127.09   12.70
   0  -4  -2  219.18   17.30
   0   4   2  302.97   22.30
   0   4  -2  272.87   22.60
   0   4  -2  308.27   21.10
  -1  -4  -2   17.30    6.70
   1   4   2    6.40    4.60
   1   4   2    9.50    7.10
  -1   4  -2    9.30    5.30
  -1   4  -2    5.10    7.30
  -2  -4  -2  276.07   20.60
  -2   4  -2  331.87   26.70
   2   4   2  390.86   24.30
   2   4   2  379.76   26.80
  -2   4  -2  373.36   24.10
  -3  -4  -2  242.88   18.60
   3   4   2  306.27   23.00
  -3   4  -2  279.57   22.60
   3   4   2  306.27   20.40
  -4  -4  -2  348.27   24.10
   4   4   2  443.26   29.90
  -4   4  -2  350.06   28.90
   4   4   2  423.56   26.70
  -5  -4  -2  154.58   13.40
   5   4   2  166.28   13.50
  -5   4  -2  141.59   16.30
  -6  -4  -2   91.59   10.40
   6   4   2  112.49   11.20
  -6   4  -2   91.69   14.60
  -7  -4  -2    2.80    5.00
  -7  -4  -2   -3.20   16.30
  -7   4  -2   16.60    9.60
   7   4   2   -2.30    4.80
  -7   4  -2    6.50   11.50
  -8  -4  -2   42.50    7.30
  -8  -4  -2   33.00   10.20
   8   4   2   64.59    8.70
  -8   4  -2   41.20   10.70
  -9  -4  -2   42.40    8.70
  -9  -4  -2   66.09    7.80
   9   4   2   68.89    8.00
 -10  -4  -2   29.00    5.40
 -10  -4  -2    7.00    6.80
  10   4   2   22.60    6.40
 -10   4  -2   17.80    7.50
 -11  -4  -2   81.59   11.30
 -11  -4  -2  102.49    8.10
  11   4   2  133.69   13.10
  11   4   2  127.09    9.20
  -8  -5   2    7.80    6.40
   8   5  -2   32.10    4.90
  -7  -5   2   11.60    5.80
  -7  -5   2    1.30    9.30
   7   5  -2    1.00    3.10
  -7   5   2    8.10    8.40
  -6  -5   2   14.00    4.40
   6   5  -2   44.50    6.80
  -6   5   2   36.00    8.60
  -5  -5   2   47.20    7.70
   5   5  -2   71.99    8.00
   5   5  -2   71.69   12.70
  -5   5   2   67.69   10.40
   4  -5  -2  196.88   16.10
  -4  -5   2  231.48   15.60
  -4   5   2  318.07   22.10
   4   5  -2  297.37   20.70
   4   5  -2  329.17   24.10
  -3  -5   2  193.08   14.60
  -3   5   2  253.47   19.10
   3   5  -2  249.58   20.50
  -2  -5   2  220.68   15.70
   2  -5  -2  181.08   16.80
   2   5  -2  246.68   20.60
   2   5  -2  263.67   18.20
  -2   5   2  264.57   19.60
   1  -5  -2   54.69    9.50
  -1  -5   2   78.39   12.80
  -1   5   2   87.89   11.50
   1   5  -2   88.49   13.20
   1   5  -2   81.59   12.40
   0  -5  -2  172.58   15.40
   0  -5   2  237.28   19.10
   0   5  -2  235.08   18.60
   0   5   2  211.48   17.40
   1  -5   2   23.50    7.10
  -1  -5  -2   14.30    5.70
  -1   5  -2    5.10    6.50
   1   5   2    8.10    6.30
   1   5   2   30.90   13.20
  -2  -5  -2    5.30    5.70
   2  -5   2   25.80    6.30
   2   5   2   35.10   11.10
   2   5   2   26.60    7.70
  -2   5  -2   20.20    7.00
   3  -5   2   16.30    6.60
  -3  -5  -2   23.20    6.40
   3   5   2   19.10    8.10
  -3   5  -2    8.30    6.60
   3   5   2   18.20    9.70
   4  -5   2   24.80    6.20
  -4  -5  -2   24.90    5.30
   4   5   2    8.60    9.50
   4   5   2   29.80    8.00
   4   5   2   34.80    6.20
  -4   5  -2   20.00    6.50
   5  -5   2   59.39    8.70
  -5  -5  -2   71.19    7.70
   5   5   2   89.99    7.20
   5   5   2   64.59   11.80
  -5   5  -2   72.99   12.30
  -6  -5  -2    3.30    3.40
   6  -5   2    8.90    5.10
  -6   5  -2   15.90    9.00
   6   5   2   12.50    3.00
   6   5   2    8.80    6.30
   7  -5   2    5.20    5.10
  -7  -5  -2    7.20    3.00
   7   5   2   12.40    3.00
   7   5   2   15.70    5.90
 -15   0   3    1.50    3.90
 -14   0   3   11.90    5.50
 -13   0   3    5.10   13.50
 -13   0   3    4.30    6.10
 -13   0   3   10.30   11.40
 -12   0   3   73.29   11.80
 -12   0   3   59.69   11.20
 -12   0   3   81.89   14.70
  11   0  -3   98.99    7.50
 -11   0   3   68.19   12.20
 -11   0   3   84.09   12.60
 -11   0   3  117.79   16.00
 -11   0   3   90.59   16.20
  10   0  -3  118.09    8.20
 -10   0   3  156.78   18.60
 -10   0   3  122.09   15.30
 -10   0   3  110.59   13.90
 -10   0   3   96.59   14.80
  -9   0   3   43.50   12.30
   9   0  -3   36.60    3.70
  -9   0   3   41.40   14.80
  -9   0   3   44.80    8.80
  -9   0   3   34.40   11.20
  -8   0   3   -1.90    7.70
   8   0  -3    0.60    1.10
   7   0  -3   23.20    4.60
  -7   0   3   15.70    7.90
   6   0  -3    9.50    3.10
   6   0  -3    8.50    4.70
   5   0  -3  872.31   56.79
   5   0  -3  993.50   56.39
   4   0  -3    6.00    1.80
   4   0  -3    7.10    2.80
   3   0  -3 1488.35   89.29
   2   0  -3  771.92   46.90
   0   0  -3 2047.70  118.19
   0   0  -3 1926.91  117.39
  -1   0  -3   33.10    2.40
   1   0   3   33.70    2.50
  -1   0  -3   36.70    3.30
   2   0   3 3287.77  210.98
  -2   0  -3 3847.82  210.78
  -3   0  -3   35.50    2.90
   3   0   3   41.20    2.90
   4   0   3  331.07   20.10
   5   0   3  145.29    9.30
   6   0   3 1504.65   85.99
  -6   0  -3 1381.56   87.89
   7   0   3   29.20    3.60
  -7   0  -3   19.50    7.50
   8   0   3   32.40    4.30
  -8   0  -3   24.90    8.50
  -8   0  -3   38.00    9.50
  -8   0  -3   44.20    9.70
  -8   0  -3   23.10   11.60
  -9   0  -3    2.00    7.80
  -9   0  -3   14.60    7.60
   9   0   3    5.10    3.20
  -9   0  -3   -5.80    8.50
  -9   0  -3    8.80    7.80
 -10   0  -3   29.00    9.80
 -10   0  -3   32.20   12.00
  10   0   3   40.80    6.40
 -10   0  -3   20.10    9.40
 -11   0  -3   77.69   14.80
 -11   0  -3   75.99   12.80
 -11   0  -3   75.19   11.70
  11   0   3   61.69    9.20
 -12   0  -3   -8.50    7.80
 -12   0  -3   -3.90    9.40
  12   0   3  -14.50    7.80
 -12   0  -3   -8.00    6.20
 -12   0  -3   -3.50    7.60
  12   0   3   18.00    8.00
  13   0   3   30.10    6.70
 -13   0  -3   27.00    8.00
 -13   0  -3   28.00    9.90
 -13   0  -3   22.00    9.70
 -14   0  -3   67.09    9.10
 -14   0  -3   65.99   12.20
  14   0   3   82.39    9.50
 -15   0  -3    7.30    3.80
  15   0   3   13.70    6.00
 -15  -1   3    9.20    3.90
 -15  -1   3   14.60    5.20
 -15   1   3    4.20    7.70
 -14  -1   3   20.70    5.40
 -14  -1   3   33.90    5.50
 -14   1   3   57.29    9.00
 -14   1   3   51.19   10.30
 -13  -1   3  106.19   15.20
 -13   1   3   84.29   13.00
 -13   1   3   80.99   12.70
 -12  -1   3  127.49   13.70
 -12  -1   3  145.19   14.30
  12  -1  -3  131.79   11.10
 -12   1   3  112.29   14.10
 -12   1   3  144.89   14.70
  12   1  -3  123.39   10.90
 -12   1   3  124.99   15.80
 -11  -1   3  387.96   27.30
  11  -1  -3  386.56   24.70
 -11  -1   3  399.16   27.30
 -11   1   3  374.56   27.50
  11   1  -3  406.86   24.20
 -11   1   3  383.26   29.40
 -11   1   3  364.16   27.40
  10  -1  -3   72.09    6.50
 -10   1   3   90.59   15.30
  10   1  -3   84.09    6.80
 -10   1   3   59.79   12.90
  -9  -1   3  279.17   20.00
   9  -1  -3  249.78   16.50
  -9  -1   3  255.77   20.40
   9   1  -3  293.07   17.10
  -9   1   3  256.67   21.40
  -9   1   3  262.17   21.70
  -9   1   3  273.77   21.80
  -8  -1   3  -11.80    7.30
  -8  -1   3   -0.10    7.50
   8  -1  -3    2.40    1.80
  -8   1   3   -0.80    7.60
   8   1  -3    5.00    1.70
  -8   1   3   -1.50    7.50
   7  -1  -3  107.69   12.20
   7  -1  -3  121.89    7.80
  -7   1   3  128.09   13.50
   7   1  -3  143.09    8.70
   6  -1  -3   59.29    7.20
   6  -1  -3   58.29    4.10
   6   1  -3   69.89   10.40
  -6   1   3   54.19    9.90
   5  -1  -3  170.88   11.50
   5  -1  -3  216.48   12.60
   5  -1  -3  182.28   13.40
   5   1  -3  192.48   15.30
   5   1  -3  190.88   11.80
   5   1  -3  213.58   11.90
   4  -1  -3  213.28   12.30
   4  -1  -3  194.98   13.70
   4  -1  -3  203.68   12.40
  -4  -1   3  191.18   13.80
   4   1  -3  225.88   15.70
   4   1  -3  236.08   13.20
   4   1  -3  205.98   13.20
   3  -1  -3 1212.38   72.29
  -3  -1   3 1214.08   73.29
   3  -1  -3 1229.78   73.29
   3   1  -3 1395.06   85.59
   3   1  -3 1334.37   83.99
   3   1  -3 1533.55   83.99
  -2  -1   3 2325.97  135.79
   2  -1  -3 2235.68  135.79
   2   1  -3 2353.86  140.69
  -2   1   3 2637.74  141.59
   2   1  -3 2050.79  140.59
   2   1  -3 2481.05  141.99
   1  -1  -3 5459.35  334.17
  -1  -1   3 5836.12  334.27
   1   1  -3 5961.50  361.16
  -1   1   3 6240.18  360.76
   0  -1  -3 1408.56   85.49
   0  -1  -3 1387.76   84.89
   0  -1   3 1500.55   85.69
   0   1  -3 1376.96   80.99
   0   1  -3 1430.26   82.09
   0   1   3 1296.67   80.99
   1  -1   3  295.57   17.90
  -1  -1  -3  284.07   18.40
  -1  -1  -3  294.57   18.00
   1  -1   3  309.07   18.60
  -1   1  -3  319.77   19.40
   1   1   3  307.97   19.40
  -1   1  -3  300.37   20.30
   1   1   3  355.66   19.90
  -2  -1  -3 1067.39   66.79
   2  -1   3 1237.58   67.19
  -2  -1  -3 1040.90   66.49
   2  -1   3 1128.49   66.39
  -2   1  -3 1332.27   74.29
   2   1   3 1232.48   74.39
   2   1   3 1336.57   74.69
  -2   1  -3 1105.19   74.89
  -3  -1  -3  273.57   18.80
  -3  -1  -3  292.77   19.00
   3  -1   3  346.27   19.50
   3  -1   3  321.37   18.80
  -3   1  -3  314.57   19.10
   3   1   3  350.46   19.30
  -3   1  -3  278.37   19.70
   4  -1   3   12.70    2.50
  -4  -1  -3   11.60    2.40
   4  -1   3   15.80    2.20
  -4   1  -3   11.30    2.50
   4   1   3   16.80    2.20
  -4   1  -3    7.60    2.40
   5  -1   3 1716.33   99.39
   5  -1   3 1619.44   99.09
   5   1   3 1693.13   97.99
  -5   1  -3 1598.14  100.39
   6  -1   3  671.73   37.60
  -6  -1  -3  562.64   39.90
   6   1   3  717.63   41.20
  -6   1  -3  633.64   43.50
   7  -1   3  161.08   10.40
  -7  -1  -3  132.59   14.80
  -7   1  -3  171.68   15.90
   7   1   3  176.48   11.90
  -8  -1  -3   26.30    9.10
  -8  -1  -3   47.70   10.60
   8  -1   3   45.10    5.20
  -8  -1  -3   54.79    8.80
  -8   1  -3   57.39   11.90
  -8   1  -3   38.10   11.40
   8   1   3   58.39    6.10
  -8   1  -3   52.79   10.00
  -8   1  -3   38.30    9.50
   9  -1   3   67.99    7.20
  -9  -1  -3   75.29   13.90
  -9  -1  -3   88.89   11.70
  -9   1  -3   71.19   13.80
   9   1   3   82.49    8.20
  -9   1  -3   85.69   15.30
  -9   1  -3   89.59   12.80
 -10  -1  -3    7.40    6.20
 -10  -1  -3   -0.90    9.80
 -10  -1  -3    8.90    7.60
 -10   1  -3   12.80    9.00
 -10   1  -3    1.20    7.70
 -10   1  -3   10.30    8.40
  11  -1   3   -0.80    8.40
 -11  -1  -3   15.80    6.60
 -11  -1  -3   10.60    7.50
 -11  -1  -3    0.70   11.90
  11  -1   3   11.70    6.60
 -11   1  -3   12.30    8.10
 -11   1  -3    3.30    7.90
 -11   1  -3    7.40    9.70
  11   1   3    7.50    7.00
  11   1   3   20.60   12.60
 -12  -1  -3  155.98   19.40
 -12  -1  -3  145.59   13.80
  12  -1   3  144.79   16.20
 -12  -1  -3  128.89   14.70
 -12   1  -3  140.79   15.10
  12   1   3  147.89   15.30
 -12   1  -3  146.29   17.90
 -12   1  -3  143.89   15.30
  13  -1   3   21.30    6.70
 -13  -1  -3   26.10    6.00
 -13  -1  -3   17.50    6.00
  13   1   3   29.80    6.30
 -13   1  -3   13.20    6.70
 -13   1  -3   28.30    7.40
 -13   1  -3   30.10    9.60
  14  -1   3   26.60    5.10
 -14  -1  -3   21.20    4.70
  14   1   3   14.20    5.00
 -14   1  -3   21.90    5.80
 -14   1  -3   20.40    5.80
 -14   1  -3   33.50   15.70
 -14  -2   3    2.70    4.30
 -14  -2   3   -0.90    3.50
 -14   2   3   -1.60    4.40
 -14   2   3   18.40    8.80
 -14   2   3   -1.70    4.10
 -13  -2   3   -3.00    4.40
 -13  -2   3    0.40    4.50
 -13   2   3    6.70    5.20
 -13   2   3   -5.20    5.50
 -13   2   3   -8.40    8.50
 -12  -2   3  116.69   11.50
 -12  -2   3  114.09   12.80
 -12   2   3  115.89   13.10
 -12   2   3  136.49   15.50
 -12   2   3  104.79   11.70
 -11  -2   3  391.26   25.60
 -11  -2   3  372.46   25.70
 -11  -2   3  333.47   33.70
  11  -2  -3  356.86   24.10
 -11   2   3  386.96   27.60
 -11   2   3  404.36   29.00
  11   2  -3  382.06   25.90
 -11   2   3  419.26   31.30
 -10  -2   3  708.53   52.69
 -10  -2   3  805.22   47.50
 -10  -2   3  700.23   47.30
  10  -2  -3  769.42   45.90
 -10   2   3  848.82   52.59
 -10   2   3  804.42   53.99
  10   2  -3  819.52   49.99
 -10   2   3  798.42   53.09
  -9  -2   3  735.83   53.59
  -9  -2   3  820.12   53.59
  -9  -2   3  766.32   49.40
   9  -2  -3  813.72   47.90
   9   2  -3  878.71   51.79
  -9   2   3  805.92   54.69
  -9   2   3  846.12   54.39
  -9   2   3  873.51   55.79
   8  -2  -3  201.78   14.00
  -8  -2   3  215.58   16.80
  -8  -2   3  232.58   17.40
  -8  -2   3  174.88   23.80
   8   2  -3  254.17   16.10
  -8   2   3  226.58   19.70
  -8   2   3  241.48   20.50
  -8   2   3  227.18   20.50
  -8   2   3  267.97   23.30
  -7  -2   3   58.49   12.30
   7  -2  -3   57.99    5.40
   7  -2  -3   29.00   14.00
  -7  -2   3   66.19    9.40
  -7  -2   3   52.79    8.10
   7   2  -3   72.69    6.30
  -7   2   3   67.99   12.90
  -7   2   3   64.79   11.20
  -7   2   3   67.79   12.40
  -7   2   3   88.19   10.70
   6  -2  -3  197.88   18.40
  -6  -2   3  209.88   23.70
  -6  -2   3  224.08   18.10
   6  -2  -3  222.68   14.10
  -6  -2   3  224.98   17.30
  -6   2   3  304.27   20.60
  -6   2   3  281.97   24.30
  -6   2   3  316.17   25.40
  -6   2   3  271.97   22.50
   6   2  -3  307.17   18.70
   5  -2  -3  429.96   29.40
  -5  -2   3  449.76   29.00
   5  -2  -3  441.76   26.50
  -5  -2   3  399.36   28.80
   5   2  -3  515.85   31.00
  -5   2   3  504.85   34.20
  -5   2   3  503.55   32.10
   4  -2  -3  923.61   56.39
  -4  -2   3  950.90   55.89
   4  -2  -3  872.81   54.29
  -4  -2   3  867.31   55.59
  -4   2   3 1116.79   66.89
   4   2  -3 1087.39   65.79
  -4   2   3 1102.09   68.59
  -3  -2   3   89.19    8.30
  -3  -2   3   82.59   14.80
   3  -2  -3   78.29    8.50
   3  -2  -3   79.69    5.90
   3   2  -3   93.59    6.70
  -3   2   3  102.69    9.40
  -2  -2   3 2062.69  120.09
   2  -2  -3 1977.60  118.79
   2  -2  -3 1959.60  120.19
   2   2  -3 2311.17  136.99
   1  -2  -3  700.13   43.50
   1  -2  -3  724.53   46.20
  -1  -2   3  746.43   45.00
   1   2  -3  794.62   47.60
   0  -2  -3  211.08   13.20
   0  -2  -3  203.38   14.60
   0   2  -3  240.48   14.20
   0   2   3  211.88   14.30
  -1  -2  -3  166.18   12.30
  -1  -2  -3  164.88   10.70
   1  -2   3  157.38   10.50
  -1   2  -3  187.28   11.70
   1   2   3  188.08   13.70
   1   2   3  179.78   12.00
  -2  -2  -3 1232.58   76.49
   2  -2   3 1294.17   75.29
   2   2   3 1289.37   81.19
  -2   2  -3 1343.57   79.99
   2   2   3 1398.16   80.19
  -3  -2  -3  501.95   34.20
   3  -2   3  570.14   34.80
   3  -2   3  566.04   33.10
   3   2   3  574.14   35.60
  -3   2  -3  610.24   35.40
   3   2   3  571.84   36.90
   4  -2   3  725.43   44.70
   4  -2   3  783.42   46.50
  -4  -2  -3  716.83   45.70
  -4   2  -3  875.81   55.59
   4   2   3  845.42   51.89
   5  -2   3  354.96   25.00
   5  -2   3  368.26   22.60
   5   2   3  411.06   25.80
  -5   2  -3  410.86   29.80
  -6  -2  -3  250.57   19.20
   6  -2   3  262.37   16.70
   6   2   3  291.77   19.10
  -6   2  -3  303.97   24.10
  -6   2  -3  285.77   23.90
  -7  -2  -3  344.07   25.50
   7  -2   3  329.57   25.10
  -7  -2  -3  312.77   22.30
   7  -2   3  317.57   20.90
   7   2   3  292.27   27.60
   7   2   3  338.77   21.70
  -7   2  -3  311.37   28.40
  -7   2  -3  342.67   25.20
  -7   2  -3  343.67   25.90
  -8  -2  -3  114.19   14.70
   8  -2   3  117.49   15.50
  -8  -2  -3   87.89   11.50
   8  -2   3  122.99    9.70
  -8   2  -3  131.59   16.00
   8   2   3  154.18   16.90
   8   2   3  121.89   11.20
  -8   2  -3  125.29   16.90
  -8   2  -3  127.29   19.00
   9  -2   3  289.47   22.80
  -9  -2  -3  318.67   23.80
  -9  -2  -3  325.97   22.20
   9  -2   3  310.37   23.90
   9   2   3  323.37   25.10
  -9   2  -3  338.37   26.80
  -9   2  -3  293.87   27.30
  -9   2  -3  338.07   25.40
 -10  -2  -3  222.58   17.40
  10  -2   3  227.58   17.50
  10  -2   3  242.38   19.20
 -10  -2  -3  216.28   19.00
  10   2   3  291.07   20.70
 -10   2  -3  284.07   21.50
 -10   2  -3  267.07   23.60
 -10   2  -3  230.28   23.30
  10   2   3  213.98   19.90
 -11  -2  -3   25.30    8.30
 -11  -2  -3   43.40    7.20
  11  -2   3   42.50    8.50
  11   2   3   28.30    6.90
 -11   2  -3   44.60   10.70
 -11   2  -3   40.70   11.10
 -11   2  -3   31.30    8.70
  12  -2   3   57.49   10.30
 -12  -2  -3   70.39   10.20
  12  -2   3   91.69   10.40
 -12   2  -3  107.29   17.50
  12   2   3   99.39   10.30
 -12   2  -3   81.29   13.00
 -12   2  -3   77.59   15.40
 -13  -2  -3   81.89    8.20
  13  -2   3   65.19   10.70
  13  -2   3   82.49    9.00
 -13  -2  -3   67.29    8.60
 -13   2  -3   76.29   14.80
 -13   2  -3   76.89    8.90
 -13   2  -3   67.79   11.00
 -14  -2  -3    7.80    3.00
 -14   2  -3   14.10    7.80
 -14   2  -3   21.70    6.30
 -14   2  -3   18.10    4.50
 -13  -3   3    8.00    3.40
 -13  -3   3   12.60    4.30
 -13   3   3    5.50    4.00
 -13   3   3   16.60    8.90
 -13   3   3    8.40    4.10
 -12  -3   3   16.70    4.80
 -12  -3   3   10.70    4.60
 -12   3   3   15.70    5.10
 -12   3   3    5.00    4.60
 -12   3   3   23.00    9.10
 -11  -3   3    8.80    5.20
 -11  -3   3    6.20    7.10
 -11   3   3    9.30    7.10
 -11   3   3   19.90    7.60
 -11   3   3   10.80    9.30
 -10  -3   3   41.20    7.30
 -10  -3   3   61.49    9.80
 -10  -3   3   31.80   11.30
 -10   3   3   68.29   12.60
 -10   3   3   57.79   10.40
 -10   3   3   45.50    9.60
  -9  -3   3 1121.79   65.29
  -9  -3   3 1069.19   65.69
   9  -3  -3 1013.90   64.69
  -9  -3   3 1026.30   68.89
  -9   3   3 1129.59   74.89
  -9   3   3 1238.58   74.29
   9   3  -3 1105.79   72.39
  -9   3   3 1304.87   83.49
   8  -3  -3   11.40    5.80
  -8  -3   3   24.40    7.10
  -8  -3   3   19.30    7.10
  -8  -3   3    7.50   10.40
  -8   3   3   19.00   11.00
  -8   3   3   21.70    9.40
   8   3  -3   11.50    5.80
  -8   3   3   14.80    7.20
  -8   3   3   21.30    8.20
  -7  -3   3 1305.07   84.79
   7  -3  -3 1327.37   81.79
  -7  -3   3 1371.26   81.89
  -7   3   3 1585.74   97.39
  -7   3   3 1597.84   98.99
  -7   3   3 1726.23   96.19
  -7   3   3 1424.66   97.69
  -6  -3   3  298.77   22.50
  -6  -3   3  329.07   22.90
   6  -3  -3  298.17   20.60
  -6   3   3  386.56   25.20
  -6   3   3  388.06   27.70
   6   3  -3  367.76   23.90
  -6   3   3  368.06   28.40
  -6   3   3  315.37   27.30
  -5  -3   3  283.67   20.50
  -5  -3   3  246.98   19.70
  -5  -3   3  271.17   24.10
   5  -3  -3  257.27   17.90
  -5   3   3  317.67   25.70
  -5   3   3  310.77   22.10
  -5   3   3  293.17   24.80
  -5   3   3  336.37   25.00
   5   3  -3  331.57   21.00
  -4  -3   3   85.39   12.30
  -4  -3   3  131.49   15.60
  -4  -3   3  101.89   17.40
   4  -3  -3  128.29    9.50
   4   3  -3  144.09   10.80
  -4   3   3  118.39   15.80
  -4   3   3  149.88   13.00
  -4   3   3  189.98   19.60
  -3  -3   3  305.47   23.00
  -3  -3   3  290.97   27.90
   3  -3  -3  321.57   20.20
   3   3  -3  374.36   23.70
  -3   3   3  375.46   29.10
  -3   3   3  371.06   25.20
  -2  -3   3 1391.66   91.19
   2  -3  -3 1529.75   87.69
  -2  -3   3 1453.45   91.59
  -2   3   3 2117.39  122.99
   2   3  -3 1808.52  119.59
  -2   3   3 2102.19  121.49
   1  -3  -3   35.30    5.10
  -1   3   3   50.39    8.00
   1   3  -3   41.30    5.50
   0  -3  -3 1144.99   69.69
   0  -3  -3 1168.08   72.59
   0   3  -3 1476.15   85.69
   0   3   3 1385.46   86.49
  -1  -3  -3  668.53   44.50
  -1  -3  -3  744.73   46.60
   1   3   3  923.71   58.09
   1   3   3  950.10   57.29
  -1   3  -3  992.20   58.69
  -1   3  -3  912.91   56.89
  -2  -3  -3  122.19   12.90
  -2  -3  -3  112.59   15.30
  -2   3  -3  153.48   14.30
  -2   3  -3  154.28   14.70
   2   3   3  170.88   14.30
   2   3   3  144.99   12.70
  -3  -3  -3  105.59   11.30
  -3  -3  -3   97.59   16.80
   3  -3   3  114.09   20.60
  -3   3  -3  144.49   13.50
   3   3   3  152.98   14.50
   3   3   3  152.98   13.30
   3   3   3  144.39   12.80
   4  -3   3  511.35   36.90
  -4  -3  -3  526.55   33.70
   4   3   3  617.64   37.10
  -4   3  -3  513.45   36.60
  -4   3  -3  564.14   34.70
   4   3   3  602.14   35.50
   4   3   3  564.54   35.40
  -4   3  -3  462.85   39.60
  -5  -3  -3  208.08   16.80
   5  -3   3  217.28   23.10
  -5   3  -3  232.58   20.20
  -5   3  -3  277.97   24.10
  -5   3  -3  250.97   26.70
   5   3   3  278.57   18.70
  -5   3  -3  212.78   24.50
   5   3   3  239.98   18.40
   6  -3   3   48.30   13.10
  -6  -3  -3   33.90   12.30
  -6  -3  -3   46.10   11.20
  -6   3  -3   18.50   11.40
   6   3   3   37.40    8.30
   6   3   3   45.90    7.00
  -6   3  -3   68.69   12.60
  -6   3  -3   28.60   10.40
  -6   3  -3   52.99   15.20
  -7  -3  -3  116.39   18.10
   7  -3   3  120.49   19.50
  -7  -3  -3  141.59   12.70
   7   3   3  123.99   19.20
  -7   3  -3  137.29   17.70
  -7   3  -3  181.98   20.90
   7   3   3  131.69   14.00
  -7   3  -3  135.39   19.60
  -8  -3  -3  264.47   21.90
   8  -3   3  205.38   23.70
  -8  -3  -3  254.97   18.20
  -8   3  -3  275.77   23.20
  -8   3  -3  293.07   26.80
  -8   3  -3  253.37   24.90
   8   3   3  242.88   23.00
   8   3   3  275.97   20.00
  -9  -3  -3  109.79   11.10
  -9  -3  -3   93.69   14.70
   9   3   3  124.69   11.70
  -9   3  -3  104.29   14.20
  -9   3  -3   88.99   16.90
  -9   3  -3  122.89   18.20
   9   3   3   72.39   15.60
 -10  -3  -3  281.27   20.20
 -10  -3  -3  302.47   22.30
  10   3   3  318.77   21.10
 -10   3  -3  308.17   23.00
 -10   3  -3  305.57   27.00
 -10   3  -3  262.67   27.30
 -11  -3  -3   64.69    7.90
 -11  -3  -3   59.79   10.60
 -11   3  -3   60.99    9.20
  11   3   3   40.00    8.70
 -11   3  -3   37.80    9.00
 -12  -3  -3  113.19    9.40
  12   3   3  149.39   10.80
 -12   3  -3  126.99   12.50
 -11  -4   3   43.00    6.50
 -11   4   3   52.59   13.70
  11   4  -3   51.99    8.10
 -10  -4   3   78.49    8.50
 -10  -4   3   70.59    9.20
 -10   4   3  123.09   18.70
 -10   4   3   97.19   10.50
  10   4  -3   88.79   10.50
  -9  -4   3  133.19   11.30
  -9  -4   3   98.69   11.00
   9   4  -3  156.78   13.90
  -9   4   3  152.28   20.60
  -9   4   3  137.89   13.70
  -8  -4   3   38.50    9.20
  -8  -4   3   45.80    8.30
   8   4  -3   39.40    7.60
  -8   4   3   29.10   10.90
  -8   4   3   61.29   14.60
  -8   4   3   62.39   11.00
  -7  -4   3   17.30    6.50
  -7  -4   3   20.40    7.20
  -7  -4   3   20.60   10.70
  -7   4   3   23.50    6.30
  -7   4   3   39.30   10.20
   7   4  -3   47.70    9.00
  -7   4   3   26.70   13.30
  -6  -4   3  147.29   20.00
  -6  -4   3  157.98   15.30
  -6  -4   3  177.68   14.90
   6   4  -3  158.18   17.90
  -6   4   3  210.78   23.50
  -6   4   3  179.68   14.80
   6   4  -3  190.88   19.20
   6   4  -3  155.68   18.60
  -6   4   3  191.28   19.30
  -5  -4   3  336.57   23.20
  -5  -4   3  322.57   23.50
  -5  -4   3  300.07   28.10
   5   4  -3  369.46   28.50
  -5   4   3  413.06   31.30
   5   4  -3  390.76   28.40
  -5   4   3  407.16   36.50
   5   4  -3  385.56   30.00
  -5   4   3  422.46   27.60
  -4  -4   3  288.37   27.00
  -4  -4   3  292.57   22.20
  -4  -4   3  314.17   22.30
   4   4  -3  350.56   26.50
   4   4  -3  352.06   26.10
   4   4  -3  337.07   27.70
  -4   4   3  380.36   25.50
  -3  -4   3   71.49   12.50
  -3  -4   3   41.90   12.70
  -3  -4   3   63.99   12.50
   3   4  -3   64.39   11.10
   3   4  -3   44.30    8.90
  -3   4   3   59.19    9.80
   3   4  -3   69.49   10.90
  -2  -4   3  491.95   33.60
  -2  -4   3  496.65   33.20
  -2  -4   3  495.25   37.10
   2   4  -3  585.84   41.10
   2   4  -3  620.04   40.40
  -2   4   3  653.83   40.20
  -1  -4   3  334.27   24.60
  -1  -4   3  325.27   27.20
  -1  -4   3  281.37   30.20
   1   4  -3  426.06   28.40
   1   4  -3  375.96   29.70
  -1   4   3  440.36   28.30
   0  -4   3   10.30   14.10
   0  -4  -3   12.90    6.90
   0   4   3   -1.60    6.50
   0   4  -3   12.00    8.00
   0   4  -3   11.10    6.10
  -1  -4  -3   53.79    9.70
   1  -4   3   58.49   12.50
   1  -4   3   79.59   15.90
   1   4   3   81.29   11.90
  -1   4  -3   60.69   10.80
   1   4   3   83.09    8.80
  -1   4  -3   97.49   11.00
  -2  -4  -3    5.20    6.20
   2   4   3   26.80    5.10
  -2   4  -3   27.30    8.70
  -2   4  -3   19.50    5.70
   2   4   3   33.90    8.20
  -3  -4  -3    5.30    5.80
   3   4   3   -1.20    4.40
   3   4   3   -1.90    8.30
  -3   4  -3    7.90    8.20
  -4  -4  -3  100.69   11.00
   4   4   3  115.89   16.70
  -4   4  -3  116.09   14.50
   4   4   3  130.49   11.20
  -5  -4  -3   45.10    8.80
   5   4   3   55.69    8.60
  -6  -4  -3  246.88   18.40
  -6   4  -3  239.68   21.40
   6   4   3  282.27   18.60
  -7  -4  -3  281.77   19.90
   7   4   3  339.77   22.70
  -8   4  -3  146.29   16.90
  -9  -4  -3   57.49    7.50
   9   4   3   72.79   11.10
   9   4   3   65.39    7.20
  -9   4  -3   50.19    9.90
 -10  -4  -3   26.80    4.50
 -10   4  -3   15.00    7.70
  10   4   3   38.70    6.90
  10   4   3   25.00    3.70
  -7  -5   3    7.60    6.70
  -7   5   3   -2.80    7.20
   7   5  -3    0.60    3.50
  -6  -5   3    1.00    6.20
   6   5  -3    6.70    3.60
   5  -5  -3    2.10    4.50
  -5  -5   3   -2.70    6.80
   5   5  -3   11.40    4.10
   5   5  -3   -8.70   14.70
  -5   5   3   12.70    6.10
   4  -5  -3   57.39    8.20
  -4  -5   3   87.39   12.10
  -4   5   3  111.19   11.50
   4   5  -3  109.39   10.30
   4   5  -3  112.69   14.80
   3  -5  -3   46.40    8.20
  -3   5   3   80.99   10.10
   3   5  -3   87.09   10.30
   3   5  -3   71.19   11.00
  -2  -5   3   67.79   11.00
   2  -5  -3   71.39   14.40
  -2   5   3  107.39   11.40
   2   5  -3   78.79   13.00
   2   5  -3   80.29   14.10
  -1  -5   3   15.90    6.90
   1  -5  -3   10.70    6.80
   1   5  -3   27.40    7.90
  -1   5   3   18.70    5.90
   0  -5  -3  140.99   12.90
   0  -5   3  138.39   14.60
   0   5  -3  218.28   16.10
   0   5   3  227.88   17.30
   0   5  -3  189.48   17.90
   1  -5   3  105.89   13.70
  -1  -5  -3  162.68   13.50
  -1   5  -3  192.58   17.60
   1   5   3  219.18   17.20
   1   5   3  212.68   22.30
   2  -5   3   15.80    8.90
  -2  -5  -3   33.10    9.10
  -2   5  -3   27.10    7.00
   2   5   3   33.30   10.30
  -3  -5  -3   13.70    4.30
   3   5   3   36.50    9.20
   3   5   3   26.60    9.00
  -3   5  -3   40.20    7.90
  -4  -5  -3   24.70    4.90
  -4   5  -3   21.80    6.80
   4   5   3   32.60    8.60
  -5  -5  -3   45.40    6.40
  -5   5  -3   32.00    9.90
   5   5   3   59.09   11.40
  -6  -5  -3   85.39    7.60
   6   5   3  146.79   13.50
  -7  -5  -3   42.60    5.50
   7   5   3   48.60    8.70
 -15   0   4   43.40    6.80
 -14   0   4   16.60    5.70
 -13   0   4   76.59   13.30
 -13   0   4   91.69   20.00
 -13   0   4   84.99   12.80
 -12   0   4  667.03   44.00
  12   0  -4  696.13   41.50
 -12   0   4  680.23   45.10
 -12   0   4  686.53   46.20
 -11   0   4  568.44   38.00
 -11   0   4  520.85   36.40
 -11   0   4  525.45   37.30
  11   0  -4  587.94   33.40
 -11   0   4  540.75   38.50
 -10   0   4  124.49   16.80
  10   0  -4  115.99    7.80
 -10   0   4  107.59   16.10
 -10   0   4   87.99   16.00
  -9   0   4    9.80   12.00
  -9   0   4   13.80    8.90
   9   0  -4   11.00    1.90
  -9   0   4   14.80    8.20
  -9   0   4    7.60   10.80
  -8   0   4   23.20    9.10
  -7   0   4  141.69   15.10
   7   0  -4  125.59   11.80
   6   0  -4  175.18   12.30
   6   0  -4  146.99   14.50
   5   0  -4  173.68   14.60
   5   0  -4  214.68   13.70
   4   0  -4 3023.70  169.48
   4   0  -4 2672.43  169.98
   3   0  -4  182.78   13.10
   2   0  -4  629.14   38.90
   1   0  -4  931.31   52.19
   1   0  -4  931.51   53.69
   1   0  -4  782.42   52.19
   0   0  -4 1991.10  112.79
   0   0  -4 1785.32  111.59
   1   0   4  718.03   44.10
  -1   0  -4  764.92   44.10
  -2   0  -4  100.29    6.40
  -2   0  -4   99.99    7.00
   2   0   4   94.09    6.40
  -3   0  -4  959.40   51.39
  -3   0  -4  795.52   51.39
   3   0   4  821.82   51.19
   4   0   4   86.29    5.50
  -4   0  -4   68.79    5.10
  -5   0  -4  693.03   45.10
   5   0   4  736.23   43.00
  -6   0  -4  131.89   12.70
   6   0   4  132.09    9.00
   7   0   4  621.84   39.10
  -7   0  -4  664.83   41.80
   8   0   4  516.85   30.20
  -8   0  -4  467.55   33.40
  -8   0  -4  479.95   33.40
  -8   0  -4  458.75   34.00
  -8   0  -4  495.95   33.30
  -9   0  -4  889.81   54.89
  -9   0  -4  903.11   55.79
  -9   0  -4  858.71   54.99
  -9   0  -4  841.72   54.89
   9   0   4  837.32   52.39
   9   0   4  829.42   55.19
 -10   0  -4   11.80    7.90
 -10   0  -4   10.40    9.20
 -10   0  -4   -4.40    8.40
 -10   0  -4    8.30    8.80
  11   0   4  209.18   18.30
 -11   0  -4  215.58   17.80
 -11   0  -4  196.58   18.90
  11   0   4  190.78   16.90
 -11   0  -4  204.88   19.00
 -11   0  -4  222.98   20.50
 -12   0  -4    6.30    7.00
  12   0   4   -0.30    6.80
 -12   0  -4    4.10    9.60
 -12   0  -4   -2.50    8.20
  13   0   4   23.10    5.40
 -13   0  -4   17.90    6.30
 -13   0  -4    9.50    9.80
 -13   0  -4    2.40    7.50
  14   0   4    4.70    4.10
 -14   0  -4   -2.70    9.50
 -14   0  -4   -6.80    9.00
 -14   0  -4   -0.70    4.60
 -15  -1   4    0.00    4.20
 -15   1   4    4.90    5.20
 -14  -1   4   81.59    8.90
 -14   1   4   92.99   10.00
 -14   1   4   90.29   10.10
 -13  -1   4   56.09    9.30
 -13  -1   4   51.89    8.10
 -13   1   4   32.20   10.20
 -13   1   4   35.30    7.00
 -13   1   4   64.19   12.80
 -12  -1   4  350.66   24.70
 -12  -1   4  325.87   24.10
 -12   1   4  318.97   25.00
 -12   1   4  361.56   27.30
 -12   1   4  354.86   24.90
 -11  -1   4  215.98   17.90
 -11  -1   4  225.68   17.90
  11  -1  -4  204.48   14.50
 -11   1   4  228.98   18.60
  11   1  -4  208.78   14.30
 -11   1   4  199.98   18.90
 -11   1   4  215.18   20.50
 -10  -1   4  360.56   26.50
 -10  -1   4  379.36   26.40
 -10   1   4  370.76   27.80
 -10   1   4  379.96   28.60
  10   1  -4  381.06   23.90
 -10   1   4  399.26   27.20
  -9  -1   4   95.09   12.10
   9  -1  -4   91.09    6.80
  -9  -1   4   80.49   12.20
  -9  -1   4   81.19   17.40
  -9   1   4  113.09   12.90
   9   1  -4  109.99    7.30
  -9   1   4   91.79   13.40
  -9   1   4   94.89   14.30
  -8  -1   4    2.20    7.60
  -8  -1   4   16.60   14.00
   8  -1  -4   19.00    3.00
  -8  -1   4   10.00    8.30
   8   1  -4   16.20    2.50
  -8   1   4   12.50    7.30
  -8   1   4    9.60    7.90
  -8   1   4   33.80    8.50
   7  -1  -4   98.09    6.60
   7  -1  -4   90.69   12.40
  -7   1   4  114.09   11.50
   7   1  -4  118.09    7.20
  -7   1   4  103.89   13.10
   6  -1  -4  162.68   13.60
  -6   1   4  169.28   14.10
  -6   1   4  166.28   15.10
   5  -1  -4  135.39   11.00
  -5   1   4  116.39   12.50
   4  -1  -4 2948.51  169.48
   4  -1  -4 2731.23  167.88
   4   1  -4 2748.12  170.78
   4   1  -4 2947.01  173.28
   4   1  -4 2988.70  170.78
   3  -1  -4  246.48   15.10
   3  -1  -4  274.67   16.90
   3  -1  -4  240.28   15.50
  -3  -1   4  241.08   16.70
   3   1  -4  283.67   18.80
   3   1  -4  269.87   16.00
   3   1  -4  249.28   16.00
  -2  -1   4 1528.25   92.29
   2  -1  -4 1586.14   92.29
   2  -1  -4 1499.25   91.09
   2   1  -4 1433.76   93.59
   2   1  -4 1611.64   93.79
   2   1  -4 1704.23   95.59
   1  -1  -4  884.31   54.49
   1  -1  -4  998.40   55.69
  -1  -1   4  870.11   55.49
   1   1  -4  988.30   58.29
   1   1  -4  921.91   56.69
   0  -1  -4  893.81   52.09
   0  -1   4  827.62   52.09
   0   1  -4  914.31   53.59
   0   1  -4  842.92   52.19
  -1  -1  -4 1377.76   75.39
   1  -1   4 1275.17   75.39
   1  -1   4 1114.79   74.39
   1   1   4 1193.38   76.99
  -1   1  -4 1330.07   76.99
  -1   1  -4 1367.96   78.19
  -2  -1  -4 1657.43  104.69
  -2  -1  -4 1725.33  104.29
   2  -1   4 1772.52  104.19
   2  -1   4 1876.91  105.09
  -2   1  -4 2019.90  112.49
   2   1   4 1860.41  112.59
  -2   1  -4 1814.92  113.49
   3  -1   4  154.88   10.30
   3  -1   4  148.39    9.20
  -3  -1  -4  127.49    9.60
   3   1   4  154.18    9.80
  -3   1  -4  161.08    9.60
  -3   1  -4  132.89   10.70
   4  -1   4 1021.10   57.79
  -4  -1  -4  863.01   57.79
   4  -1   4 1020.30   58.49
  -4   1  -4  994.10   59.99
   4   1   4 1138.59   60.29
  -4   1  -4  884.71   60.59
   5  -1   4   89.29    7.40
  -5  -1  -4   70.79   11.40
   5  -1   4   90.09    6.40
  -5   1  -4   78.69    8.70
  -5   1  -4  108.89   12.00
   5   1   4  109.29    7.30
  -6  -1  -4  923.81   57.89
   6   1   4 1053.49   63.19
  -6   1  -4 1048.90   65.79
  -7  -1  -4   66.19   10.50
  -7  -1  -4   68.99   13.40
   7  -1   4   64.69    6.10
  -7  -1  -4   63.79   11.00
  -7   1  -4   70.89   11.10
  -7   1  -4   61.89   11.40
   7   1   4   72.89    6.70
   8  -1   4   -8.70    8.00
  -8  -1  -4   -6.70    6.40
   8  -1   4    1.30    3.60
  -8  -1  -4   12.00    8.80
  -8  -1  -4    7.20    8.10
  -8  -1  -4    6.70   18.00
  -8   1  -4   13.40   11.60
  -8   1  -4    5.70    8.20
  -8   1  -4   -2.10    7.50
   8   1   4    3.10    3.80
   8   1   4   10.00    9.30
  -9  -1  -4  569.84   35.30
  -9  -1  -4  511.75   36.80
   9  -1   4  546.25   35.60
   9  -1   4  498.05   33.50
  -9  -1  -4  547.45   36.70
   9   1   4  546.05   36.50
  -9   1  -4  553.04   38.60
   9   1   4  554.94   34.70
  -9   1  -4  551.84   37.70
  -9   1  -4  544.25   38.20
 -10  -1  -4  103.09   15.60
 -10  -1  -4  104.99   12.10
  10  -1   4  102.09   14.10
  10  -1   4   94.29   10.90
 -10  -1  -4  114.99   14.70
  10   1   4  126.49   14.70
 -10   1  -4  123.69   16.30
 -10   1  -4  122.79   14.40
  10   1   4  118.79   12.40
 -10   1  -4  135.69   17.00
 -11  -1  -4  530.65   36.10
  11  -1   4  599.44   35.10
 -11  -1  -4  504.25   34.70
  11  -1   4  487.25   34.60
  11   1   4  607.64   36.20
 -11   1  -4  534.75   37.60
 -11   1  -4  572.64   37.40
 -11   1  -4  545.55   41.90
  11   1   4  493.65   36.20
 -12  -1  -4   82.99   17.30
 -12  -1  -4   99.09   13.00
 -12  -1  -4   85.89   10.90
  12  -1   4  117.79   12.20
 -12   1  -4   96.99   14.90
  12   1   4  121.39   12.20
 -12   1  -4  119.59   13.50
 -12   1  -4   79.09   13.70
 -13  -1  -4   12.80    5.50
  13  -1   4   14.70    5.30
 -13   1  -4    6.80    6.70
 -13   1  -4   19.60    9.40
 -13   1  -4    0.60    6.00
  13   1   4   14.80    4.80
 -14  -1  -4   80.59    8.40
  14  -1   4   83.09    8.10
 -14   1  -4   76.19   12.60
 -14   1  -4   59.89    9.00
 -14   1  -4   67.49    8.50
 -14  -2   4   19.60    5.70
 -14  -2   4   20.20    4.40
 -14   2   4   44.30    7.80
 -14   2   4   31.50   10.40
 -13  -2   4    6.40    5.20
 -13  -2   4    4.60    4.20
 -13   2   4   12.20    8.20
 -13   2   4    1.40    5.00
 -13   2   4   -2.10    4.60
 -12  -2   4   29.00    8.00
 -12  -2   4   50.19    9.00
 -12   2   4   43.90    9.70
 -12   2   4   79.99   12.90
 -12   2   4   62.29   10.90
 -11  -2   4   58.79    9.90
  11  -2  -4   41.80    6.70
 -11  -2   4   51.29   10.30
 -11  -2   4   22.80   15.50
 -11   2   4   41.30    8.80
  11   2  -4   56.19    7.60
 -11   2   4   61.29   12.30
 -11   2   4   43.90    8.70
  10  -2  -4  306.07   20.20
 -10  -2   4  299.87   22.00
 -10  -2   4  319.07   22.50
 -10  -2   4  286.47   30.00
 -10   2   4  320.17   25.20
 -10   2   4  325.67   26.50
 -10   2   4  353.16   25.00
  10   2  -4  352.26   22.10
  -9  -2   4  240.78   24.70
  -9  -2   4  300.27   20.40
  -9  -2   4  265.17   19.50
   9  -2  -4  211.88   18.40
  -9   2   4  282.07   23.40
  -9   2   4  291.27   22.30
  -9   2   4  285.87   23.60
  -8  -2   4   54.99    8.30
  -8  -2   4   45.70    8.80
  -8  -2   4   28.00   11.80
   8  -2  -4   48.20    5.60
  -8   2   4   53.09   11.00
   8   2  -4   53.09    6.10
  -8   2   4   69.19   11.40
  -8   2   4   67.99   11.30
  -8   2   4   86.39   13.90
  -7  -2   4   83.79   10.80
  -7  -2   4   85.09   13.10
  -7  -2   4   90.19   14.50
   7  -2  -4   85.39    7.00
  -7   2   4   79.79   10.90
   7   2  -4   90.69    6.90
  -7   2   4   77.49   13.90
  -7   2   4   93.69   12.90
  -7   2   4   83.69   13.00
  -6  -2   4   68.79   10.40
  -6  -2   4   88.79   16.70
   6  -2  -4   81.59   15.40
   6  -2  -4   69.49    5.80
  -6  -2   4   43.80    9.80
  -6   2   4   98.19   13.00
   6   2  -4   83.69    6.70
  -6   2   4   90.59    9.60
  -6   2   4   84.29   12.30
  -5  -2   4  122.49   11.90
  -5  -2   4  114.29   12.60
   5  -2  -4  124.39    8.60
  -5   2   4  167.48   15.60
   5   2  -4  161.28   11.00
  -5   2   4  170.68   12.80
  -4  -2   4  380.86   26.60
   4  -2  -4  404.76   27.50
  -4  -2   4  401.66   26.80
   4  -2  -4  410.86   24.70
  -4   2   4  504.45   34.50
  -4   2   4  520.65   32.30
   4   2  -4  515.75   31.20
   3  -2  -4 2262.07  131.89
  -3  -2   4 2284.37  131.49
  -3  -2   4 2011.30  130.79
  -3   2   4 2649.43  151.88
  -3   2   4 2638.44  153.58
   3   2  -4 2352.26  151.28
  -2  -2   4 1296.17   76.39
   2  -2  -4 1265.37   74.89
  -2  -2   4 1128.99   75.89
   2  -2  -4 1323.47   76.79
   2   2  -4 1467.95   85.19
  -2   2   4 1392.06   85.99
  -1  -2   4  141.69   10.90
   1  -2  -4  133.39    9.00
  -1  -2   4  120.49   11.30
   1  -2  -4  132.49   11.30
   1   2  -4  138.59    9.10
  -1   2   4  139.29   11.30
   0  -2   4  212.38   13.90
   0  -2  -4  184.08   13.80
   0  -2   4  173.38   14.00
   0  -2  -4  168.28   12.00
   0   2  -4  201.78   12.80
  -1  -2  -4  574.64   36.70
   1  -2   4  602.64   36.80
  -1  -2  -4  567.54   35.30
  -1   2  -4  669.93   40.30
   2  -2   4   34.40    5.60
  -2  -2  -4   25.40    4.10
  -2   2  -4   33.20    3.50
   2   2   4   29.10    4.10
  -3  -2  -4  627.94   41.40
   3  -2   4  650.03   40.10
   3  -2   4  715.23   42.00
  -3   2  -4  779.32   46.60
   3   2   4  772.12   47.00
  -4  -2  -4    1.20   10.40
  -4  -2  -4   17.70    4.90
   4  -2   4    4.80    5.00
   4  -2   4    7.50    2.90
  -4   2  -4    7.50   10.30
   4   2   4    6.70    2.90
   5  -2   4  165.58   18.50
  -5  -2  -4  185.38   18.30
   5  -2   4  174.18   12.00
   5   2   4  186.38   13.40
  -5   2  -4  200.28   18.40
  -6  -2  -4 1231.68   74.29
   6  -2   4 1112.39   68.49
  -6  -2  -4 1111.59   69.59
  -6  -2  -4 1105.09   71.59
   6  -2   4 1138.99   69.79
  -6   2  -4 1275.97   76.39
   6   2   4 1164.98   74.29
   6   2   4 1219.58   73.69
  -7  -2  -4  224.58   21.40
  -7  -2  -4  231.58   17.10
   7  -2   4  212.08   15.30
   7  -2   4  225.28   18.40
   7   2   4  243.78   17.90
  -7   2  -4  257.67   21.70
  -7   2  -4  241.98   21.90
  -7   2  -4  250.87   26.30
   7   2   4  281.77   19.90
   8  -2   4  439.86   29.30
  -8  -2  -4  490.75   32.20
   8  -2   4  446.96   31.10
  -8   2  -4  456.55   38.60
   8   2   4  499.25   34.20
  -8   2  -4  518.05   37.80
   8   2   4  587.94   35.00
  -8   2  -4  622.94   44.80
   9  -2   4  554.14   38.60
  -9  -2  -4  654.93   40.70
  -9  -2  -4  610.64   39.10
   9  -2   4  604.74   39.20
   9   2   4  688.53   42.60
  -9   2  -4  697.33   44.70
  -9   2  -4  699.83   46.60
   9   2   4  661.13   42.90
  -9   2  -4  613.34   45.80
 -10  -2  -4   81.19   13.40
  10  -2   4   82.59   11.70
 -10  -2  -4   72.79    9.80
  10   2   4  105.39   18.00
  10   2   4   41.40   11.60
 -10   2  -4   67.39   13.30
 -10   2  -4   56.69   14.80
 -10   2  -4   69.19   13.10
  10   2   4   90.19   11.00
 -11  -2  -4   10.60    5.80
 -11  -2  -4   -0.70    7.60
  11  -2   4    3.90    6.30
 -11   2  -4   -4.70    9.20
 -11   2  -4    3.50   10.40
 -11   2  -4   11.10    7.80
  11   2   4    9.70    5.70
 -12  -2  -4   63.69    9.90
  12  -2   4   48.00    9.40
  12  -2   4   64.09    9.10
 -12  -2  -4   62.29    8.10
 -12   2  -4   69.19    9.90
  12   2   4   76.29    8.80
 -12   2  -4   57.79   11.30
 -13  -2  -4   39.80    6.30
 -13  -2  -4   34.30    5.40
  13  -2   4   20.50    7.70
 -13   2  -4   23.50    5.50
 -13   2  -4   26.50    9.30
 -13   2  -4   17.00    7.10
 -13  -3   4   11.10    3.30
 -13   3   4    9.80    8.10
 -12  -3   4   31.40    6.10
 -12  -3   4   37.10    6.00
 -12   3   4   50.99   10.30
 -12   3   4   27.40    6.10
 -12   3   4   42.60    7.30
 -11  -3   4   12.60    5.80
 -11  -3   4    7.00    4.70
 -11  -3   4    6.90    9.80
 -11   3   4   16.10    8.70
 -11   3   4    4.90    5.30
 -11   3   4    5.30    5.30
 -10  -3   4   57.89   10.30
 -10  -3   4   60.49    9.50
 -10  -3   4   60.99   13.80
 -10   3   4   65.39   10.80
 -10   3   4   65.89   12.20
  -9  -3   4  178.48   15.00
  -9  -3   4  169.98   15.20
  -9  -3   4  146.99   20.50
  -9   3   4  181.18   19.10
   9   3  -4  188.08   15.70
  -9   3   4  171.38   18.20
  -9   3   4  202.38   17.40
  -9   3   4  229.48   17.60
   8  -3  -4   26.10    6.00
  -8  -3   4   28.20    7.00
  -8  -3   4   17.60    7.10
  -8  -3   4   26.40   11.10
  -8   3   4   24.50    7.10
  -8   3   4   17.20   11.20
  -8   3   4   29.40    9.20
   8   3  -4   31.30    6.20
  -8   3   4   30.50    8.50
  -7  -3   4  706.63   50.59
   7  -3  -4  735.63   46.20
  -7  -3   4  809.32   47.50
  -7  -3   4  721.83   47.10
  -7   3   4  974.40   60.49
  -7   3   4  989.40   57.09
   7   3  -4  893.81   56.19
  -7   3   4  903.51   58.29
  -7   3   4  825.32   58.69
   6  -3  -4  163.88   12.90
  -6  -3   4  189.08   21.20
  -6  -3   4  157.98   16.30
   6   3  -4  233.48   16.30
  -6   3   4  218.38   19.80
  -6   3   4  212.68   22.40
  -6   3   4  255.87   17.70
  -5  -3   4  495.65   32.50
   5  -3  -4  500.15   30.90
  -5  -3   4  461.95   35.90
  -5   3   4  624.14   41.60
  -5   3   4  627.24   38.20
   5   3  -4  574.84   37.00
  -5   3   4  526.95   39.80
  -5   3   4  633.04   40.10
  -4  -3   4   93.49   17.70
   4  -3  -4  113.09    9.80
  -4  -3   4  133.99   13.10
  -4   3   4  127.39   15.70
  -4   3   4  128.49   17.60
  -4   3   4  141.09   12.50
   4   3  -4  149.49   10.70
  -4   3   4  156.58   18.10
  -3  -3   4   86.79   17.10
   3  -3  -4   56.69    7.50
  -3  -3   4   81.09   11.00
   3   3  -4   80.69    7.10
  -3   3   4   48.40   12.30
  -3   3   4   74.19    9.10
  -2  -3   4   64.09   14.00
  -2  -3   4   61.39    9.40
   2  -3  -4   64.09    7.30
  -2   3   4   78.89    9.80
  -2   3   4   97.09   15.70
   2   3  -4   74.19    7.10
   1  -3  -4  210.28   15.40
  -1  -3   4  226.58   18.30
   1   3  -4  252.37   16.20
  -1   3   4  229.38   23.20
   0  -3  -4  605.34   39.60
   0  -3   4  679.83   42.20
   0   3   4  598.54   41.50
   0   3  -4  668.43   39.70
   0   3  -4  679.23   42.80
   1  -3   4  633.44   39.90
  -1  -3  -4  554.64   37.90
  -1   3  -4  787.92   45.90
   1   3   4  733.73   45.70
   1   3   4  754.52   47.00
  -1   3  -4  728.73   47.80
   2  -3   4  129.09   15.80
  -2  -3  -4  118.99   12.20
   2   3   4  141.49   13.40
   2   3   4  124.19   10.90
  -2   3  -4  108.09   13.40
  -3  -3  -4   55.39    8.20
   3  -3   4   45.80   10.80
   3   3   4   67.99    9.00
  -3   3  -4   65.99   10.70
  -3   3  -4   77.79   13.00
   3   3   4   94.89   11.80
   4  -3   4   67.19   11.60
  -4  -3  -4   49.10    9.90
   4   3   4   73.39    9.00
  -4   3  -4   53.79    7.40
  -4   3  -4   65.79   10.50
  -5  -3  -4  150.38   13.70
   5  -3   4  178.38   19.00
  -5   3  -4  172.08   20.10
  -5   3  -4  142.99   16.80
   5   3   4  151.58   13.10
  -6  -3  -4  270.77   19.90
   6   3   4  320.17   21.50
  -6   3  -4  295.57   29.70
  -7  -3  -4   15.00    5.70
  -7  -3  -4   27.40   12.10
   7  -3   4   11.00   10.40
  -7   3  -4    3.10   12.90
  -7   3  -4   38.10   15.60
  -7   3  -4   22.90   10.20
   7   3   4   18.50    5.30
   8  -3   4  130.89   17.40
  -8  -3  -4  111.99   11.80
  -8  -3  -4  108.59   16.70
   8   3   4  137.09   12.50
  -8   3  -4  127.09   20.60
  -8   3  -4  130.49   22.20
  -8   3  -4  156.98   17.00
  -9  -3  -4   67.09   11.70
   9  -3   4   86.89   13.30
  -9  -3  -4   76.89    9.30
  -9   3  -4   78.29   15.30
   9   3   4   87.59    9.60
  -9   3  -4   53.59   10.90
   9   3   4   81.39   14.60
  -9   3  -4   70.49   14.60
 -10  -3  -4  288.07   24.40
 -10  -3  -4  345.37   23.40
  10  -3   4  362.76   26.10
  10   3   4  341.87   25.40
 -10   3  -4  439.86   31.40
  10   3   4  416.56   27.90
 -10   3  -4  322.27   28.00
 -11  -3  -4   90.89   11.20
 -11  -3  -4   65.89    7.80
 -11   3  -4   73.79   15.00
 -11   3  -4   91.19   17.50
 -11   3  -4   95.39   11.00
  11   3   4  100.79   13.80
 -12  -3  -4   10.40    3.50
 -12  -3  -4   17.70    5.50
 -12   3  -4   12.50    5.30
  12   3   4   17.10    3.40
 -12   3  -4    8.00   11.00
 -11  -4   4  126.19   10.00
 -11   4   4  196.08   24.10
  11   4  -4  168.88   12.60
 -11   4   4  141.99   11.90
 -10  -4   4   75.19    8.20
 -10   4   4   86.09   17.30
  10   4  -4   75.89   10.50
 -10   4   4   82.19    9.70
  -9  -4   4  121.39   10.30
  -9  -4   4   91.59   13.90
  -9   4   4  152.28   13.90
  -9   4   4  168.08   21.10
   9   4  -4  142.99   14.50
  -8  -4   4   42.00    9.30
   8   4  -4  104.59   13.90
  -8   4   4  117.79   19.90
  -8   4   4  102.49   11.70
  -8   4   4   96.59   12.50
  -7  -4   4    8.80    6.10
  -7  -4   4   14.20    9.20
  -7   4   4   12.10    5.90
  -7   4   4   25.10   13.20
  -7   4   4   18.60    8.50
   7   4  -4   14.70    8.60
  -6  -4   4   31.40    7.10
  -6  -4   4   29.50   10.60
   6   4  -4   22.00    8.80
  -6   4   4   31.20   15.10
   6   4  -4   17.10   11.50
   6   4  -4   22.40   13.20
  -6   4   4   39.10   10.10
  -5  -4   4   48.50   11.70
  -5   4   4  108.29   16.10
   5   4  -4   71.59   11.20
  -5   4   4  109.59   14.40
   5   4  -4   72.99   11.60
  -4  -4   4  130.29   19.20
  -4  -4   4  120.99   13.60
   4   4  -4  144.49   16.80
   4   4  -4  153.78   15.70
  -4   4   4  150.28   13.30
   4   4  -4  132.39   17.10
  -3  -4   4    8.20   11.10
  -3  -4   4   26.40    7.20
   3   4  -4   42.80    8.80
   3   4  -4   35.30    9.30
  -3   4   4   42.70    7.90
   3   4  -4   43.90   12.20
  -2  -4   4  474.85   37.40
  -2  -4   4  516.75   33.60
   2   4  -4  561.04   41.50
  -2   4   4  667.63   40.00
   2   4  -4  609.64   40.20
  -1  -4   4   59.39   15.50
  -1  -4   4   53.09    8.90
   1   4  -4   79.79   12.30
   1   4  -4   72.49   13.40
  -1   4   4   66.69   10.80
   0  -4  -4  293.77   22.50
   0  -4   4  351.36   24.70
   0   4  -4  414.16   28.10
   0   4   4  468.15   28.90
   0   4   4  417.26   32.00
   0   4  -4  363.76   30.10
  -1  -4  -4  106.19   11.60
   1  -4   4  118.69   15.70
   1   4   4  161.78   15.40
   1   4   4  168.38   18.20
  -1   4  -4  162.38   14.50
  -1   4  -4  148.89   16.70
   2  -4   4  108.89   15.60
  -2  -4  -4   84.19   11.00
   2   4   4  105.09   13.40
  -2   4  -4  118.59   11.40
   2   4   4  110.09    9.80
  -2   4  -4   99.89   15.20
  -3  -4  -4  235.38   18.10
   3  -4   4  231.18   21.40
   3   4   4  301.37   22.60
  -3   4  -4  267.77   23.00
   3   4   4  283.47   18.50
  -3   4  -4  267.07   18.70
  -4  -4  -4   95.89   11.20
   4  -4   4   97.79   17.60
  -4   4  -4  115.19   15.80
   4   4   4  128.79   10.80
   4   4   4  145.19   17.40
  -5  -4  -4   53.59    8.50
  -5   4  -4   46.70    9.80
   5   4   4   44.40    7.30
  -6  -4  -4  114.59   10.90
   6   4   4  146.49   11.40
  -6   4  -4  129.99   16.10
  -7  -4  -4   67.49    8.80
   7   4   4   76.79    8.50
   7   4   4  105.29   14.80
  -8  -4  -4   91.69    9.10
   8   4   4  125.09    9.50
   8   4   4  107.19   13.90
  -9  -4  -4   34.70    6.10
   9   4   4   51.19    5.90
   9   4   4   51.59   10.70
  -9   4  -4   35.10    9.70
 -10  -4  -4  127.99    9.80
  10   4   4  164.98   10.90
  10   4   4  156.98   14.00
   7  -5  -4    5.40    3.30
  -7  -5   4   21.20    5.30
  -7   5   4   17.00    6.90
   7   5  -4   18.10    3.60
   6  -5  -4   45.30    6.70
  -6  -5   4   59.69    8.20
  -6   5   4   74.89   10.40
   6   5  -4   93.49    8.50
   5  -5  -4  103.09   10.20
  -5  -5   4  131.49   11.30
   5   5  -4  193.48   14.20
  -5   5   4  212.98   15.60
   5   5  -4  173.68   21.00
   4  -5  -4   19.00    5.50
  -4  -5   4   13.10    6.50
   4   5  -4   25.20    5.00
   4   5  -4   33.00    8.90
  -4   5   4   35.90    6.50
   3  -5  -4   65.39    8.10
  -3  -5   4   75.49   11.30
   3   5  -4  117.59    9.90
   3   5  -4   84.39   14.20
  -3   5   4  108.39   10.70
   2  -5  -4   42.10    8.10
  -2  -5   4   39.00    8.80
  -2   5   4   25.20    5.80
   2   5  -4   34.50    7.70
   1  -5  -4   40.60    7.80
  -1  -5   4   74.49   14.30
   1   5  -4   50.79    7.10
  -1   5   4   57.99    9.80
   0  -5  -4   57.49   10.40
   0   5   4   57.69   10.30
   0   5  -4   63.19    7.00
   0   5  -4   47.30    8.80
  -1  -5  -4   49.60    8.50
  -1   5  -4   71.59   11.90
   1   5   4   67.39   11.20
   1   5   4   86.19   17.90
  -2  -5  -4    4.20    4.00
   2   5   4   34.00    8.90
   2   5   4   39.40    9.90
  -3  -5  -4  103.39    9.80
   3   5   4  126.09   15.30
  -3   5  -4  118.89   13.40
   3   5   4  144.69   18.40
  -4  -5  -4   52.69    6.90
   4   5   4   74.69   12.40
  -4   5  -4   64.89   10.10
  -5  -5  -4   72.59    7.60
   5   5   4   96.09   11.70
  -5   5  -4   96.79   13.60
  -6  -5  -4   26.60    5.20
   6   5   4   54.69   10.30
  -7  -5  -4   50.19    5.30
   7   5   4  109.39   11.60
 -15   0   5   39.30    7.60
 -14   0   5  122.89   11.30
 -13   0   5   70.99   10.20
 -12   0   5   91.59   12.50
  11   0  -5    9.40    3.20
 -11   0   5   15.30    7.40
 -11   0   5   27.30   10.00
 -11   0   5    9.00   11.10
 -10   0   5   51.89   10.90
  10   0  -5   51.99    4.70
 -10   0   5   54.59   12.30
   9   0  -5  209.68   12.90
  -9   0   5  209.68   19.90
  -9   0   5  204.28   19.20
  -9   0   5  227.88   20.30
  -8   0   5   64.09   12.60
  -8   0   5   63.79   12.70
  -8   0   5   92.69   14.50
   7   0  -5   52.99   10.70
  -7   0   5   80.89   10.30
  -7   0   5   67.09   11.90
  -6   0   5   75.69   10.60
  -6   0   5   71.89   13.00
   6   0  -5   80.89    9.10
   5   0  -5  485.25   30.90
   4   0  -5  297.87   22.60
   4   0  -5  354.96   21.40
   3   0  -5 1590.34   96.29
   2   0  -5 1018.00   65.39
   2   0  -5 1105.49   65.29
   2   0  -5 1190.68   67.59
   1   0  -5  528.75   31.00
   1   0  -5  511.15   32.90
   0   0  -5  178.88   12.60
   0   0  -5  174.38   10.80
  -1   0  -5  142.29   10.70
  -1   0  -5  155.98    9.40
  -2   0  -5  349.67   21.10
   2   0   5  304.97   20.10
  -2   0  -5  335.57   20.10
  -3   0  -5  201.08   12.80
   3   0   5  188.98   12.10
  -3   0  -5  184.28   12.00
  -4   0  -5  378.36   24.00
   4   0   5  436.56   24.00
  -4   0  -5  353.66   24.80
   5   0   5  732.93   45.50
  -5   0  -5  781.62   48.00
  -6   0  -5   -4.90    6.10
   6   0   5    2.90    2.50
  -7   0  -5    1.60   10.70
  -7   0  -5   20.20    9.80
   7   0   5    7.40    3.40
  -7   0  -5    1.00    8.40
  -8   0  -5   67.09   12.30
   8   0   5   48.90    8.40
   8   0   5   54.29    6.50
  -8   0  -5   66.79   11.40
  -8   0  -5   50.29   10.40
  -8   0  -5   52.19   10.10
   9   0   5  488.05   30.70
  -9   0  -5  396.56   35.80
   9   0   5  451.15   29.20
  -9   0  -5  432.76   32.20
  -9   0  -5  483.15   32.40
  -9   0  -5  459.05   32.40
 -10   0  -5  329.07   25.10
 -10   0  -5  321.37   25.90
  10   0   5  345.47   23.40
  10   0   5  290.97   22.70
 -10   0  -5  333.87   24.60
 -10   0  -5  324.37   24.70
  11   0   5  809.02   51.99
 -11   0  -5  800.02   52.09
  11   0   5  865.51   50.89
 -11   0  -5  791.92   52.49
  12   0   5   59.49    9.10
 -12   0  -5   36.30    8.30
 -12   0  -5   56.19   10.00
 -13   0  -5    2.80    9.80
 -13   0  -5    5.10    6.10
 -13   0  -5    1.30    6.80
  13   0   5    8.80    4.40
 -14   0  -5    0.20    5.00
 -14   0  -5   13.60    9.00
  14   0   5   10.30    3.40
 -14   0  -5    4.40   10.00
 -14  -1   5   38.30    6.30
 -14  -1   5   43.70    7.30
 -14   1   5   49.40   11.40
 -14   1   5   41.10    7.30
 -14   1   5   51.49    8.20
 -13  -1   5  125.29   11.90
 -13   1   5  156.08   14.50
 -13   1   5  193.38   18.20
 -13   1   5  177.78   14.40
 -12  -1   5  407.26   27.90
 -12  -1   5  397.56   27.60
 -12   1   5  385.46   29.70
 -12   1   5  459.55   32.00
 -12   1   5  463.55   29.90
 -11  -1   5   62.69   11.80
  11  -1  -5   52.39    7.00
 -11  -1   5   83.99   12.40
 -11   1   5   75.69   12.10
 -11   1   5   65.79   12.80
 -11   1   5   61.89   12.00
  11   1  -5   65.89    7.00
  10  -1  -5   48.70    5.60
 -10  -1   5   35.10    8.50
 -10  -1   5   47.70    8.60
  10   1  -5   43.40    5.20
 -10   1   5   61.49   11.70
 -10   1   5   60.09   10.00
 -10   1   5   40.60    8.40
  -9  -1   5   78.19   16.60
  -9  -1   5   63.69   10.20
  -9  -1   5   64.59    9.40
   9  -1  -5   56.59    5.40
  -9   1   5   62.99   13.00
  -9   1   5   78.59   13.80
   9   1  -5   83.69    5.70
  -9   1   5   59.79    9.90
   8  -1  -5  619.14   37.90
  -8  -1   5  636.34   41.40
  -8  -1   5  605.04   45.60
  -8  -1   5  655.43   41.00
  -8   1   5  767.62   46.00
  -8   1   5  666.93   47.50
   8   1  -5  777.62   43.60
  -8   1   5  727.03   47.60
  -8   1   5  712.73   47.20
  -7  -1   5  426.56   28.40
   7  -1  -5  437.26   25.40
   7  -1  -5  403.16   30.30
  -7  -1   5  403.86   32.80
  -7   1   5  499.05   35.60
   7   1  -5  564.84   31.90
  -7   1   5  576.04   34.40
  -7   1   5  503.35   35.90
  -6  -1   5  740.23   50.29
   6  -1  -5  877.71   48.40
  -6   1   5  934.51   53.39
  -6   1   5  803.02   54.79
   5  -1  -5  634.54   40.10
  -5  -1   5  623.04   39.70
  -5   1   5  706.93   42.60
  -5   1   5  630.34   44.20
   5   1  -5  695.63   40.90
   5   1  -5  723.13   40.90
   4  -1  -5  120.49    7.90
   4  -1  -5  134.69   10.80
  -4   1   5  124.29   13.50
  -4   1   5  123.59   11.20
   4   1  -5  152.58    8.60
   4   1  -5  144.59    8.70
   3  -1  -5 1391.46   82.49
   3   1  -5 1390.06   87.19
   3   1  -5 1556.14   87.39
  -2  -1   5  130.29   11.10
   2  -1  -5  174.58   11.40
   2  -1  -5  145.49    9.40
   2   1  -5  156.28    9.70
   1  -1  -5  451.15   26.80
   1  -1  -5  449.16   28.10
  -1  -1   5  434.66   28.20
   1   1  -5  462.45   27.80
   0  -1  -5  493.35   29.10
   0  -1   5  442.56   29.10
   0  -1  -5  453.25   27.90
   0   1  -5  445.66   30.80
   0   1  -5  517.95   29.10
   1  -1   5   97.29    8.30
  -1  -1  -5  108.79    8.20
  -1   1  -5   87.69    8.50
   1   1   5   74.09    6.60
  -1   1  -5  108.19    6.10
   2  -1   5  733.43   46.40
  -2  -1  -5  813.02   47.30
  -2  -1  -5  750.32   46.60
   2  -1   5  812.82   47.70
  -2   1  -5  809.82   52.29
  -2   1  -5  894.01   50.89
  -3  -1  -5  189.48   12.20
   3  -1   5  207.18   13.50
   3  -1   5  176.18   12.00
  -3  -1  -5  182.78   12.70
   3   1   5  206.58   12.40
  -3   1  -5  191.08   11.90
  -3   1  -5  166.68   13.80
  -4  -1  -5  769.12   49.80
   4  -1   5  861.81   48.10
  -4  -1  -5  767.22   48.30
   4   1   5  927.51   49.60
  -4   1  -5  761.52   49.20
  -4   1  -5  900.31   52.09
  -4   1  -5  700.53   50.19
   5  -1   5  133.19    9.10
  -5  -1  -5  131.89   13.10
  -5   1  -5  134.09   13.90
   5   1   5  144.49   10.00
  -6  -1  -5 1381.06   84.49
   6  -1   5 1377.26   82.69
  -6   1  -5 1574.24   93.79
   6   1   5 1475.45   91.19
  -7  -1  -5  204.48   16.80
  -7  -1  -5  201.18   19.80
  -7  -1  -5  209.98   18.90
   7  -1   5  157.38   12.60
   7  -1   5  156.18   15.80
  -7   1  -5  180.18   17.20
   7   1   5  139.49   15.60
   7   1   5  158.68   12.10
   7   1   5  179.08   21.70
  -7   1  -5  178.38   16.70
   8  -1   5  587.04   37.30
  -8  -1  -5  592.84   39.90
   8  -1   5  564.14   38.60
  -8  -1  -5  602.64   40.30
  -8  -1  -5  675.63   39.20
  -8  -1  -5  577.14   41.40
   8   1   5  643.94   40.80
  -8   1  -5  600.74   45.00
   8   1   5  688.13   41.60
  -8   1  -5  665.63   44.00
  -8   1  -5  668.43   43.40
   9  -1   5  342.77   31.10
  -9  -1  -5  429.26   27.60
  -9  -1  -5  390.06   28.20
   9  -1   5  351.16   24.90
  -9  -1  -5  345.97   29.70
  -9  -1  -5  386.06   28.40
  -9   1  -5  390.76   28.90
   9   1   5  395.76   26.90
  -9   1  -5  419.46   30.50
 -10  -1  -5   23.00   11.30
  10  -1   5   15.10    6.50
 -10  -1  -5   15.00    6.80
 -10  -1  -5   10.20   11.30
  10  -1   5   17.00    8.70
 -10   1  -5   -0.80   10.20
 -10   1  -5   16.20    8.20
 -10   1  -5    5.70   10.70
  10   1   5    9.30    5.80
  10   1   5   32.60    9.50
 -11  -1  -5  191.38   16.20
 -11  -1  -5  196.98   20.30
  11  -1   5  204.78   16.20
 -11  -1  -5  191.98   17.40
 -11   1  -5  173.88   19.90
 -11   1  -5  205.38   17.60
  11   1   5  213.48   16.00
 -11   1  -5  200.68   19.80
  11   1   5  212.68   24.20
 -12  -1  -5   69.19   10.80
 -12  -1  -5   97.39   17.10
  12  -1   5   71.49   10.50
 -12  -1  -5   45.20    9.30
 -12   1  -5   76.39   14.70
 -12   1  -5   96.49   13.00
 -12   1  -5   90.99   13.20
 -13  -1  -5  168.88   14.30
  13  -1   5  215.48   14.10
 -13   1  -5  226.68   19.10
  13   1   5  243.08   14.70
 -13   1  -5  177.48   15.30
 -13   1  -5  172.68   16.90
  14  -1   5   11.70    3.20
 -14  -1  -5   13.80    5.10
  14  -1   5    7.90    5.40
 -14   1  -5   21.30    7.20
 -14   1  -5   14.00    7.80
 -14   1  -5    3.10    4.80
  14   1   5    8.30    3.00
 -14  -2   5    0.20    4.00
 -14   2   5   11.60    9.40
 -14   2   5   11.60    4.90
 -14   2   5   14.50    5.20
 -13  -2   5   21.60    6.00
 -13  -2   5    4.60    4.00
 -13   2   5   17.30    5.50
 -13   2   5   22.00    5.30
 -13   2   5   22.80    9.20
 -12  -2   5   22.40    5.70
 -12  -2   5   29.30    6.60
 -12   2   5   36.50    9.20
 -12   2   5   10.10    5.70
 -12   2   5   22.40    6.20
 -11  -2   5   90.69   11.10
 -11  -2   5  122.89   23.50
 -11  -2   5  101.79   12.40
 -11   2   5  129.49   12.80
 -11   2   5   94.79   14.10
 -11   2   5  104.99   15.50
 -10  -2   5  159.58   15.40
 -10  -2   5  158.78   14.60
  10  -2  -5  149.59   12.20
 -10  -2   5  165.88   23.40
  10   2  -5  183.88   13.60
 -10   2   5  217.78   20.00
 -10   2   5  185.98   16.10
 -10   2   5  164.58   17.80
   9  -2  -5  397.96   25.20
  -9  -2   5  383.96   28.10
  -9  -2   5  395.16   26.90
  -9  -2   5  404.46   32.20
  -9   2   5  389.76   31.00
  -9   2   5  438.76   32.10
  -9   2   5  478.95   30.00
  -9   2   5  425.16   30.00
   9   2  -5  447.76   27.40
   8  -2  -5   15.20    3.70
  -8  -2   5   12.40   11.00
   8   2  -5   23.30    4.00
  -8   2   5   24.70    9.30
  -8   2   5   26.30    7.40
  -8   2   5   19.00   10.60
  -8   2   5   15.50   11.00
  -7  -2   5  173.28   14.80
  -7  -2   5  156.28   16.50
  -7  -2   5  167.88   20.60
   7  -2  -5  176.48   11.90
  -7   2   5  190.18   18.40
   7   2  -5  221.68   13.90
  -7   2   5  230.58   16.40
  -7   2   5  178.88   19.60
  -7   2   5  214.48   17.90
   6  -2  -5  144.39   10.00
  -6  -2   5  120.69   18.20
  -6  -2   5  144.99   13.50
  -6  -2   5  140.79   13.90
  -6   2   5  161.88   15.70
  -6   2   5  170.18   16.30
   6   2  -5  172.58   11.20
  -6   2   5  137.89   18.30
  -6   2   5  173.58   16.10
  -5  -2   5   56.59    9.90
  -5  -2   5   68.89    9.30
  -5  -2   5   54.09   10.10
   5  -2  -5   71.99   13.10
  -5  -2   5   65.09   12.30
   5  -2  -5   68.69    5.70
  -5   2   5   69.89   12.90
  -5   2   5   82.79    8.70
  -5   2   5   81.99   12.40
   5   2  -5   78.39    6.20
   4  -2  -5  903.61   52.29
  -4  -2   5  819.92   54.49
  -4  -2   5  861.51   53.69
   4  -2  -5  877.41   55.29
  -4   2   5 1115.89   66.09
   4   2  -5 1073.99   65.09
  -4   2   5 1074.29   68.09
  -3  -2   5  472.65   32.00
   3  -2  -5  500.95   30.40
  -3  -2   5  497.55   32.70
   3  -2  -5  516.35   33.50
   3   2  -5  628.34   38.50
  -3   2   5  649.74   41.90
  -3   2   5  636.14   39.50
   2  -2  -5  257.17   16.70
   2  -2  -5  246.18   19.00
  -2  -2   5  267.97   18.50
  -2  -2   5  238.48   17.90
  -2   2   5  338.77   24.60
  -2   2   5  330.67   21.40
   2   2  -5  310.17   20.10
  -1  -2   5  355.56   22.90
  -1  -2   5  309.87   22.20
   1  -2  -5  331.47   23.00
   1  -2  -5  332.27   20.80
   1   2  -5  423.56   25.60
  -1   2   5  399.06   28.80
  -1   2   5  417.06   26.40
   0  -2  -5  542.25   35.60
   0  -2   5  516.65   35.00
   0  -2   5  580.14   35.60
   0  -2  -5  575.94   33.90
   0   2   5  645.54   40.70
   0   2   5  687.03   43.20
   0   2  -5  643.74   39.70
  -1  -2  -5  183.38   11.80
  -1  -2  -5  180.08   14.00
   1  -2   5  176.98   14.00
   1  -2   5  159.68   14.00
   1   2   5  203.38   15.40
   1   2   5  208.68   18.90
  -1   2  -5  212.48   13.30
  -2  -2  -5  704.53   45.50
  -2  -2  -5  716.63   43.90
   2  -2   5  749.82   45.70
  -2   2  -5  791.62   49.10
   2   2   5  844.72   50.39
  -3  -2  -5  247.48   19.20
   3  -2   5  277.37   19.90
  -3   2  -5  311.87   25.70
   3   2   5  262.17   18.80
  -3   2  -5  302.77   18.40
  -4  -2  -5  441.86   30.80
   4   2   5  479.75   31.50
  -4   2  -5  533.05   35.50
   5  -2   5  336.27   24.60
  -5  -2  -5  321.17   23.30
  -5  -2  -5  336.87   25.10
   5  -2   5  299.67   22.30
   5   2   5  366.56   25.00
  -5   2  -5  396.36   29.90
  -5   2  -5  407.46   29.30
   5   2   5  364.76   24.50
  -5   2  -5  354.16   25.00
   6  -2   5  365.16   27.50
  -6  -2  -5  400.66   30.80
  -6  -2  -5  398.36   26.20
   6  -2   5  387.76   26.20
  -6  -2  -5  376.56   30.20
   6   2   5  420.16   30.30
   6   2   5  453.75   30.70
  -6   2  -5  531.45   34.50
  -6   2  -5  512.65   34.60
  -7  -2  -5   -1.40   10.30
   7  -2   5    0.80    6.40
  -7  -2  -5    7.70    6.00
  -7  -2  -5   10.70   10.10
  -7   2  -5   11.10   10.00
   7   2   5    9.70    6.60
  -7   2  -5   15.50    9.20
   7   2   5    9.40    5.30
  -8  -2  -5  820.32   52.69
  -8  -2  -5  776.52   53.59
  -8  -2  -5  859.41   51.09
   8  -2   5  793.42   50.69
   8   2   5  954.90   57.79
   8   2   5  889.41   55.29
   8   2   5  836.92   55.99
  -8   2  -5  914.21   59.39
  -8   2  -5  894.11   57.99
   9  -2   5  269.87   21.10
  -9  -2  -5  296.67   23.30
  -9  -2  -5  306.57   21.40
   9   2   5  304.07   25.10
   9   2   5  331.97   26.50
   9   2   5  337.07   22.10
  -9   2  -5  310.87   24.70
  -9   2  -5  349.27   27.80
  -9   2  -5  257.57   28.10
 -10  -2  -5   41.40    9.50
 -10  -2  -5   58.39    9.40
  10  -2   5   48.80    7.40
 -10   2  -5   72.99   13.70
 -10   2  -5   89.69   13.20
 -10   2  -5   44.20   11.60
  10   2   5   68.19    9.40
  11  -2   5   17.90    5.90
 -11  -2  -5   25.70    8.00
 -11  -2  -5   18.90    6.20
  11  -2   5   25.20    9.90
 -11   2  -5   41.10   11.30
  11   2   5   22.10    5.40
 -11   2  -5   26.10   11.30
 -11   2  -5   19.20    7.60
  12  -2   5   25.30    7.20
 -12  -2  -5   18.00    4.50
 -12   2  -5   21.60    6.50
 -12   2  -5   19.90    9.40
 -12   2  -5   28.70    9.70
  12   2   5   31.90    4.90
  13  -2   5   34.80    7.30
 -13   2  -5   41.00    9.30
  13   2   5   33.50    5.60
 -13   2  -5   22.00    5.70
 -12  -3   5    5.80    4.10
 -12   3   5    7.30    4.00
 -12   3   5   15.00   11.30
 -11  -3   5   42.70   10.40
 -11  -3   5   28.60    5.80
 -11   3   5   24.10    5.70
 -11   3   5   26.10    6.90
 -11   3   5   21.30    8.80
 -10  -3   5    9.30    5.20
 -10   3   5    5.70    9.00
 -10   3   5   23.00    7.70
 -10   3   5   14.50    6.50
  -9  -3   5   12.20    6.00
  -9  -3   5   18.00   10.70
   9  -3  -5  -11.60    9.50
  -9   3   5    4.70    9.70
  -9   3   5    0.50    7.00
  -9   3   5    7.50    7.30
  -9   3   5   11.70    6.70
  -8  -3   5  103.19   17.70
  -8  -3   5  125.39   12.40
   8  -3  -5   91.49   11.20
  -8   3   5  117.49   14.40
  -8   3   5  122.69   15.30
   8   3  -5  102.29   11.40
  -8   3   5  154.08   13.80
  -8   3   5  121.89   17.80
  -7  -3   5  147.49   18.50
  -7  -3   5  127.69   13.00
   7  -3  -5  146.79   12.30
  -7   3   5  199.68   14.70
   7   3  -5  162.98   13.30
  -7   3   5  181.78   20.50
  -7   3   5  164.68   17.90
  -7   3   5  155.68   16.70
   6  -3  -5   19.70    6.20
  -6  -3   5   11.90    6.10
  -6  -3   5   29.00   10.50
  -6   3   5   15.50    8.10
  -6   3   5   16.40    9.00
  -6   3   5   11.30    6.10
  -6   3   5   21.80   10.40
  -5  -3   5  247.88   33.10
  -5  -3   5  314.17   22.30
   5  -3  -5  313.97   20.40
  -5   3   5  398.06   30.10
   5   3  -5  408.56   25.40
  -5   3   5  340.07   28.70
  -5   3   5  396.86   28.40
  -5   3   5  414.56   26.30
  -4  -3   5   18.50    6.90
  -4  -3   5   15.20   11.10
   4  -3  -5   22.10    5.40
   4   3  -5   26.40    4.80
  -4   3   5   38.40   10.50
  -4   3   5   29.60    9.60
  -4   3   5   23.50    5.70
  -3  -3   5  431.86   34.00
   3  -3  -5  420.56   27.30
  -3  -3   5  426.76   28.80
  -3   3   5  547.95   34.40
   3   3  -5  488.35   33.20
  -3   3   5  551.94   37.70
  -3   3   5  562.34   37.50
  -2  -3   5   38.20    8.00
  -2  -3   5   68.09   13.60
   2  -3  -5   38.70    6.30
   2   3  -5   69.39    6.70
  -2   3   5   57.49    8.20
  -2   3   5   61.29   13.80
  -1  -3   5   50.39   15.00
   1  -3  -5   74.99    8.40
  -1  -3   5   49.30    8.80
   1   3  -5   75.49    7.00
  -1   3   5   71.09    9.30
  -1   3   5   52.09   12.30
  -1   3   5   81.79   14.00
   1   3  -5   74.59   13.60
   0  -3   5   49.40    9.00
   0  -3  -5   60.59    8.50
   0  -3   5   31.20   18.30
   0   3   5   96.09   10.50
   0   3  -5   89.59    7.80
   0   3   5   68.99   13.70
   0   3  -5  100.79   15.60
   0   3   5   64.39   14.00
  -1  -3  -5   55.89   10.60
   1  -3   5   60.19   10.20
   1   3   5   74.69   13.30
   1   3   5   48.10    6.30
  -1   3  -5   55.09    7.00
   1   3   5   65.69    9.80
  -1   3  -5   72.09    9.50
  -2  -3  -5   94.89   12.30
   2  -3   5   92.29   13.60
  -2   3  -5  145.89   13.60
   2   3   5  108.79   10.20
   2   3   5  109.69   13.00
  -3  -3  -5  284.57   21.20
   3  -3   5  312.17   23.40
   3   3   5  380.56   25.40
   3   3   5  344.27   22.90
  -3   3  -5  337.37   24.40
  -4  -3  -5  145.59   13.20
   4  -3   5  110.99   15.30
  -4   3  -5  108.09   15.80
  -4   3  -5  123.29   12.10
  -5   3  -5   48.20   13.70
   5   3   5   27.70    7.10
  -5   3  -5   15.70   10.50
   6  -3   5  129.79   16.70
  -6  -3  -5  126.39   12.60
  -6   3  -5  120.89   24.40
   6   3   5  156.68   12.30
  -6   3  -5  138.59   19.40
   7  -3   5  273.37   23.50
  -7  -3  -5  290.87   20.30
  -7   3  -5  363.66   33.40
   7   3   5  341.97   23.10
  -7   3  -5  338.47   27.60
  -8  -3  -5  175.88   18.50
  -8  -3  -5  135.39   12.90
   8  -3   5  123.39   16.80
  -8   3  -5  160.08   18.00
   8   3   5  177.08   13.90
  -8   3  -5  173.18   22.90
   8   3   5  209.98   18.60
  -9  -3  -5  113.39   19.00
   9  -3   5   63.39   11.30
  -9  -3  -5   78.29    9.50
   9   3   5   82.49    9.70
  -9   3  -5   94.69   19.80
  -9   3  -5   95.79   13.50
   9   3   5  112.69   15.30
  10  -3   5   86.09   13.70
 -10  -3  -5   88.49    9.20
 -10  -3  -5   87.29   14.00
  10   3   5  117.49   10.20
  10   3   5  139.39   15.40
 -10   3  -5  117.69   12.60
  11  -3   5    3.90    9.10
 -11  -3  -5    9.10    4.10
 -11  -3  -5    6.90    6.70
  11   3   5   14.60    8.00
 -11   3  -5   15.50    6.80
  11   3   5   17.00    3.60
 -12  -3  -5    6.00    3.90
 -12   3  -5    5.00    5.20
 -12   3  -5    9.80   11.00
  12   3   5   13.90    2.80
 -10  -4   5   38.20    6.20
 -10   4   5   37.60   11.70
 -10   4   5   19.60    5.10
  -9  -4   5   22.60    7.40
  -9   4   5   50.99   18.40
  -9   4   5   20.80    6.10
   9   4  -5   25.30    6.50
  -8  -4   5   84.19    9.20
  -8  -4   5   78.59   14.60
  -8   4   5  101.79   12.30
   8   4  -5  107.89   14.40
  -8   4   5  117.49   12.70
  -8   4   5  115.39   19.30
  -7  -4   5   57.49    8.60
  -7  -4   5   30.20   16.70
  -7   4   5   71.89   10.00
  -7   4   5   67.09   16.80
   7   4  -5   59.19   13.00
  -7   4   5   63.59   14.30
   7   4  -5   56.19    9.50
  -6  -4   5   94.99   11.00
  -6  -4   5   76.99   13.80
   6   4  -5   94.49   16.90
  -6   4   5  102.69   15.00
  -6   4   5  116.49   12.00
  -6   4   5  151.68   21.00
   6   4  -5  102.99   17.10
  -5  -4   5   10.50    6.60
  -5  -4   5   19.30   10.50
   5   4  -5   24.90   10.70
  -5   4   5   16.90    5.90
   5   4  -5   38.90   10.00
  -5   4   5   32.40   10.50
   5   4  -5    8.60    8.60
  -5   4   5   23.00   14.80
  -4  -4   5  164.28   20.60
  -4  -4   5  205.08   16.60
  -4   4   5  223.08   18.10
   4   4  -5  219.88   19.50
   4   4  -5  249.58   20.90
   4   4  -5  172.88   24.90
  -3  -4   5  113.99   12.30
  -3  -4   5  103.99   16.10
   3   4  -5  163.68   16.10
   3   4  -5  127.89   17.60
   3   4  -5  134.89   17.10
  -3   4   5  160.98   13.90
  -2  -4   5  134.69   22.70
  -2  -4   5  195.48   16.40
  -2   4   5  279.67   18.80
   2   4  -5  191.28   21.40
   2   4  -5  226.08   19.90
   1  -4  -5   27.00    7.90
  -1  -4   5    7.30    6.80
  -1  -4   5   21.20   15.00
  -1   4   5   44.40   13.50
   1   4  -5   44.80   12.00
   1   4  -5   40.00    8.30
  -1   4   5   54.79   10.20
   0  -4  -5   31.80    7.40
   0   4   5   46.20    8.40
   0   4   5   37.10   12.00
   0   4  -5   38.70    7.70
   0   4  -5   56.09   11.70
  -1  -4  -5   -1.00    6.00
   1  -4   5    0.20    7.50
  -1   4  -5    0.20    5.70
  -1   4  -5   -7.60    9.30
   1   4   5   -8.70    9.30
   1   4   5   -4.70    6.90
  -2  -4  -5   17.90    6.60
   2  -4   5   12.80    8.10
   2   4   5    7.00    8.60
  -2   4  -5   10.90    9.00
  -2   4  -5   13.70    5.90
   2   4   5   14.10    7.90
  -3  -4  -5   28.60    7.10
   3  -4   5   22.30    9.40
  -3   4  -5   29.60    5.70
   3   4   5   31.60    9.10
   3   4   5   21.10    4.80
   3   4   5   26.00    9.30
  -3   4  -5   23.00    9.90
   4  -4   5   60.19   11.10
  -4  -4  -5   64.89    9.90
  -4   4  -5   54.09   13.20
   4   4   5   93.09   14.10
   4   4   5   75.79    8.20
   5  -4   5  129.39   18.20
  -5  -4  -5  157.18   13.30
  -5   4  -5  132.09   16.90
   5   4   5  166.38   17.60
   5   4   5  175.18   12.20
  -6  -4  -5   42.10    7.90
   6   4   5   35.50    8.80
   6   4   5   49.00    6.70
   7  -4   5  -24.70   14.80
  -7  -4  -5   10.90    5.70
   7   4   5   15.50    6.80
  -8  -4  -5   29.40    5.30
   8   4   5   54.99   10.80
   8   4   5   37.70    5.50
  -8   4  -5   33.40   14.90
  -9  -4  -5    5.50    3.70
   9   4   5    3.00    2.50
  -9   4  -5   -1.20   11.20
   9   4   5    4.60    5.90
 -10  -4  -5   19.70    3.90
  10   4   5   27.00    6.90
  10   4   5   20.30    3.70
 -10   4  -5   14.50    7.60
  -7  -5   5    1.70    4.20
   7  -5  -5    5.20    3.40
  -7   5   5    0.90    8.20
   7   5  -5    6.50    3.40
   6  -5  -5   27.60    4.90
  -6  -5   5   36.50    5.40
   5  -5  -5  116.09    9.60
   5   5  -5  224.28   21.10
  -5   5   5  301.67   20.60
   5   5  -5  251.17   17.70
   4  -5  -5   98.19    8.90
  -4  -5   5   86.79   10.70
  -4   5   5  140.09   12.70
   4   5  -5  168.28   12.30
   4   5  -5  146.99   15.70
  -3  -5   5   11.50    6.10
   3  -5  -5   -0.70    4.30
  -3   5   5   12.40    5.10
   3   5  -5    3.60    4.40
   3   5  -5    4.50    7.90
   2  -5  -5   21.60    5.60
  -2  -5   5   16.90    6.70
   2   5  -5    8.70    7.00
  -2   5   5   14.60    6.00
   2   5  -5   23.00    5.00
   1  -5  -5   31.60    5.80
  -1  -5   5   13.90    7.60
   1   5  -5   46.80    7.50
  -1   5   5   52.29    9.30
   0  -5  -5   53.59    7.60
   0  -5   5   32.70    8.60
   0   5   5   33.40    6.60
   0   5  -5   36.90    7.70
  -1  -5  -5   44.70    7.40
  -1   5  -5   74.89   10.80
   1   5   5   54.29    8.90
   1   5   5   78.69   16.30
  -2  -5  -5   67.09    7.70
   2   5   5  111.29   13.30
   2   5   5  117.19   15.40
  -2   5  -5   98.49   13.40
  -3  -5  -5    5.40    4.00
  -3   5  -5    7.90    7.60
   3   5   5    3.20    7.30
  -4  -5  -5   80.49    8.00
   4   5   5  118.29   13.50
  -4   5  -5   91.39   15.90
  -5  -5  -5   55.89    6.70
  -5   5  -5  112.89   15.30
   5   5   5   79.99   11.80
  -6  -5  -5   33.10    5.20
   6   5   5   67.59    9.60
 -14   0   6   79.09   10.10
 -13   0   6  319.77   22.10
 -12   0   6  125.09   13.90
 -11   0   6  374.46   27.30
 -11   0   6  333.27   26.30
  11   0  -6  377.76   22.30
  10   0  -6    3.20    2.80
 -10   0   6   -3.60    8.70
 -10   0   6  -12.40   10.30
 -10   0   6    2.70    9.10
  -9   0   6  173.88   18.80
  -9   0   6  178.78   17.90
  -9   0   6  168.48   18.10
  -8   0   6  479.35   33.70
  -8   0   6  507.35   34.10
  -8   0   6  462.75   37.30
   7   0  -6  163.48   17.90
  -7   0   6  198.78   15.00
  -7   0   6  171.28   17.90
  -6   0   6 5034.10  297.77
   6   0  -6 5359.76  298.97
  -6   0   6 4660.53  298.87
  -5   0   6   65.79    8.60
   5   0  -6   53.19    7.70
  -5   0   6   52.39   11.00
   4   0  -6  518.75   32.20
   4   0  -6  494.75   32.10
   4   0  -6  596.24   34.50
  -4   0   6  568.44   34.10
   3   0  -6  793.02   45.30
   3   0  -6  725.43   43.40
   3   0  -6  677.13   43.50
   2   0  -6 3027.80  178.88
   1   0  -6 1185.38   69.39
   1   0  -6 1151.58   73.09
   0   0  -6   85.39    5.60
   0   0  -6   77.59    9.10
  -1   0  -6 9999.00  591.84
  -2   0  -6  182.58   14.30
  -2   0  -6  186.78   12.40
  -2   0  -6  221.98   13.50
  -3   0  -6 4206.38  259.97
  -3   0  -6 4228.18  261.47
  -3   0  -6 4940.21  260.57
  -3   0  -6 4417.16  260.87
   3   0   6 4184.98  259.97
  -4   0  -6 1028.90   55.09
   4   0   6  876.01   54.79
  -4   0  -6  929.61   56.89
  -4   0  -6  818.62   54.79
   5   0   6  207.68   14.90
  -5   0  -6  253.87   18.00
  -6   0  -6  424.36   30.60
  -6   0  -6  441.56   30.00
  -6   0  -6  447.06   30.90
   7   0   6   27.20    5.20
  -7   0  -6   34.90    8.60
  -7   0  -6   27.70    8.90
  -7   0  -6   50.79   10.10
   7   0   6   32.70    6.40
   8   0   6  839.22   51.39
  -8   0  -6  800.92   53.49
   8   0   6  785.22   50.99
  -8   0  -6  849.52   53.79
  -8   0  -6  873.71   53.39
  -9   0  -6   -2.10    7.90
   9   0   6   -3.30    7.40
   9   0   6   -2.40    5.30
  -9   0  -6   15.50   13.60
  -9   0  -6    3.00    8.20
 -10   0  -6  968.00   63.19
 -10   0  -6  954.10   61.79
  10   0   6 1021.30   60.09
 -10   0  -6  968.80   61.99
 -11   0  -6  152.18   17.90
  11   0   6  211.58   15.30
 -11   0  -6  213.58   18.00
 -11   0  -6  199.58   19.20
 -12   0  -6  550.74   36.20
 -12   0  -6  546.35   34.50
 -12   0  -6  456.55   34.00
  13   0   6  385.86   24.10
 -13   0  -6  378.16   25.50
 -13   0  -6  370.26   27.70
 -14   0  -6    4.40    9.30
  14   0   6   25.80    4.60
 -14   1   6   70.59   12.00
 -14   1   6  120.09   18.60
 -14   1   6   93.19   10.00
 -13  -1   6  102.69   11.90
 -13  -1   6   92.29   11.90
 -13   1   6   89.59   10.30
 -13   1   6   92.99   11.00
 -13   1   6  106.09   15.30
 -12  -1   6   -1.60    8.50
 -12   1   6   33.60   10.50
 -12   1   6   37.60    8.50
 -12   1   6   24.10    8.80
 -11  -1   6  483.35   31.10
 -11  -1   6  402.16   30.80
  11  -1  -6  467.15   28.20
 -11   1   6  438.26   30.40
 -11   1   6  501.15   30.50
  11   1  -6  418.56   27.20
 -11   1   6  412.36   32.00
 -10  -1   6   37.80    9.30
 -10  -1   6   28.00   16.50
 -10  -1   6   36.90    8.90
  10  -1  -6   39.60    5.60
 -10   1   6   34.30   10.70
 -10   1   6   26.10    8.10
  10   1  -6   34.50    4.00
 -10   1   6   41.50    8.50
   9  -1  -6   74.29    6.40
  -9   1   6   91.89   16.10
  -9   1   6   91.69   13.30
   9   1  -6   81.49    6.30
  -9   1   6  103.99   14.10
  -8  -1   6   -3.00    7.60
  -8  -1   6    1.60   11.50
  -8   1   6   24.80    8.70
  -8   1   6   27.10    6.90
  -8   1   6   29.30    9.20
   8   1  -6   22.30    2.80
  -8   1   6   18.70    7.80
  -7  -1   6   16.60    8.30
  -7  -1   6   14.80   11.50
  -7  -1   6    6.40    6.50
  -7   1   6    8.60    5.60
  -7   1   6    1.80    7.30
  -7   1   6   18.20   10.70
  -7   1   6    3.10    7.50
   7   1  -6    4.30    1.40
  -6  -1   6  429.16   34.20
  -6  -1   6  499.45   30.80
  -6   1   6  550.24   36.90
  -6   1   6  538.35   37.20
  -6   1   6  588.64   35.30
   6   1  -6  555.94   33.30
   5  -1  -6  559.74   37.10
  -5  -1   6  561.24   36.00
   5  -1  -6  577.14   34.00
  -5   1   6  628.24   43.20
  -5   1   6  708.03   41.60
   4  -1  -6 3434.26  199.88
  -4  -1   6 3246.48  198.88
   4   1  -6 3422.26  212.88
  -4   1   6 3555.94  215.58
  -4   1   6 3832.72  214.08
   3  -1  -6  168.78   10.60
  -3  -1   6  158.98   13.20
   3  -1  -6  177.28   13.40
  -3   1   6  192.98   13.00
   3   1  -6  174.98   11.10
  -3   1   6  165.88   15.30
   2  -1  -6  265.67   16.20
   2  -1  -6  261.27   18.30
   2   1  -6  340.97   19.40
  -2   1   6  292.87   20.60
   1  -1  -6 1708.73  102.09
   1  -1  -6 1730.53  103.59
   1   1  -6 1930.51  114.39
   0  -1  -6  270.27   16.50
   0  -1  -6  263.67   18.10
   0   1  -6  288.47   17.70
   1  -1   6  873.71   55.49
  -1  -1  -6  933.01   55.29
  -1   1  -6 1020.10   60.79
  -2  -1  -6  736.33   45.30
  -2   1  -6  829.12   49.70
  -3  -1  -6  240.28   16.10
  -3  -1  -6  248.98   17.40
  -3  -1  -6  218.08   15.30
   3   1   6  247.08   16.40
  -3   1  -6  260.37   19.90
  -3   1  -6  227.78   18.70
  -3   1  -6  275.07   16.00
  -4  -1  -6  568.74   37.20
  -4  -1  -6  642.04   38.80
   4  -1   6  601.14   36.70
   4   1   6  694.83   42.70
  -4   1  -6  717.23   45.20
  -4   1  -6  694.73   42.60
  -5  -1  -6 1174.38   68.79
   5  -1   6 1053.09   66.79
   5   1   6 1229.08   76.49
  -5   1  -6 1321.27   78.99
  -6  -1  -6 1056.99   67.59
   6  -1   6 1073.99   65.29
  -6  -1  -6 1135.29   68.79
   6  -1   6 1026.50   64.69
  -6   1  -6 1201.88   78.79
  -6   1  -6 1456.55   80.89
   6   1   6 1231.68   76.59
   6   1   6 1204.28   76.69
  -7  -1  -6  367.66   25.80
  -7  -1  -6  385.96   26.90
  -7  -1  -6  328.07   27.20
   7  -1   6  375.06   24.40
   7  -1   6  344.67   23.40
  -7  -1  -6  349.37   26.80
   7   1   6  392.56   25.70
   7   1   6  354.66   25.30
   7   1   6  396.56   30.90
  -7   1  -6  406.26   29.20
  -7   1  -6  407.66   28.50
  -8  -1  -6  498.55   35.00
  -8  -1  -6  469.85   34.20
  -8  -1  -6  518.85   34.80
   8  -1   6  497.85   32.50
   8  -1   6  463.35   32.20
  -8  -1  -6  550.44   34.30
  -8   1  -6  560.54   36.70
   8   1   6  548.85   34.20
  -8   1  -6  533.95   37.20
   8   1   6  486.15   34.20
  -9  -1  -6  382.46   29.50
   9  -1   6  365.36   26.20
  -9  -1  -6  381.56   29.20
  -9  -1  -6  429.96   28.10
  -9  -1  -6  398.86   29.00
  -9   1  -6  402.16   29.70
   9   1   6  440.86   27.50
   9   1   6  418.76   32.20
  -9   1  -6  396.56   31.00
 -10  -1  -6   63.29   11.60
 -10  -1  -6   53.79   10.20
 -10  -1  -6   86.09   15.20
  10  -1   6   56.99    9.80
 -10  -1  -6   71.39   12.90
 -10   1  -6   74.49   11.90
 -10   1  -6   57.69   12.70
  10   1   6   68.49    9.40
 -10   1  -6   58.79   13.90
 -11  -1  -6   62.49   12.30
 -11  -1  -6   74.79   11.60
 -11  -1  -6   69.39   15.50
  11  -1   6   55.29    9.50
 -11   1  -6   44.80   13.40
 -11   1  -6   68.29   12.60
 -11   1  -6   56.69   10.10
  11   1   6   73.19    9.80
 -12  -1  -6  150.68   14.10
 -12  -1  -6  176.48   19.30
  12  -1   6  182.28   12.80
 -12   1  -6  208.28   18.50
  12   1   6  211.88   14.60
 -12   1  -6  182.88   16.00
 -13  -1  -6   58.69    9.20
 -13  -1  -6   52.19   21.30
  13  -1   6   82.89    7.20
  13   1   6   83.29    7.70
 -13   1  -6  101.99   13.70
 -13   1  -6   66.19    9.70
 -13  -2   6   60.79    7.50
 -13   2   6   62.69    9.10
 -13   2   6   73.19    8.20
 -12  -2   6   80.19    9.60
 -12   2   6   73.89   11.00
 -12   2   6   94.79    9.60
 -12   2   6  106.99   13.10
 -11  -2   6   24.80    6.40
 -11  -2   6   -5.40   15.80
 -11   2   6   34.90    8.50
 -11   2   6   50.09   10.60
 -11   2   6   33.60    7.00
  10  -2  -6   36.10    6.10
 -10  -2   6   30.70   12.50
 -10  -2   6   35.10    6.90
 -10   2   6   19.30    8.20
 -10   2   6   39.10   14.40
 -10   2   6   30.60    7.30
  10   2  -6   41.90    5.70
  -9  -2   6   99.49   19.10
  -9  -2   6  117.89   13.00
   9  -2  -6  126.19   10.00
   9   2  -6  148.49   10.80
  -9   2   6  150.08   15.20
  -9   2   6  136.49   14.40
  -9   2   6  123.39   16.30
  -9   2   6  148.99   17.10
  -8  -2   6  699.73   42.70
  -8  -2   6  666.03   45.90
  -8  -2   6  637.84   43.80
  -8   2   6  919.51   52.49
  -8   2   6  852.11   55.19
  -8   2   6  813.62   53.29
  -8   2   6  765.12   53.99
  -7  -2   6  232.68   24.80
   7  -2  -6  244.58   15.30
  -7  -2   6  214.98   18.40
  -7  -2   6  207.68   17.40
  -7   2   6  291.67   22.50
  -7   2   6  301.87   19.70
   7   2  -6  259.37   17.10
  -7   2   6  253.87   20.80
  -7   2   6  225.98   21.70
  -6  -2   6   47.40    7.80
  -6  -2   6   36.30    7.50
   6  -2  -6   28.10    4.80
  -6  -2   6   46.20   10.30
  -6   2   6   38.40    8.20
   6   2  -6   31.00    4.50
  -6   2   6   43.40    7.80
  -6   2   6   53.59   10.30
  -6   2   6   40.00   10.20
  -5  -2   6  408.26   27.50
  -5  -2   6  383.86   31.10
   5  -2  -6  416.06   25.30
  -5   2   6  406.86   34.60
  -5   2   6  552.64   31.40
   5   2  -6  477.05   29.90
  -5   2   6  512.35   34.00
  -5   2   6  478.25   33.00
   4  -2  -6  198.58   13.10
  -4  -2   6  199.18   16.60
  -4  -2   6  193.18   21.20
  -4  -2   6  189.98   15.80
  -4   2   6  213.08   19.40
  -4   2   6  246.48   19.90
  -4   2   6  242.18   16.80
   4   2  -6  238.38   15.10
  -3  -2   6  219.38   18.80
   3  -2  -6  237.18   15.10
   3  -2  -6  206.38   19.90
  -3  -2   6  229.68   17.30
  -3  -2   6  264.67   22.20
  -3   2   6  296.67   19.80
   3   2  -6  284.27   18.50
  -3   2   6  308.77   23.10
  -2  -2   6  595.44   41.30
  -2  -2   6  624.34   40.30
   2  -2  -6  696.23   39.10
   2  -2  -6  634.94   42.00
  -2   2   6  834.72   51.19
  -2   2   6  841.92   53.39
   2   2  -6  831.92   50.29
   1  -2  -6  380.06   26.50
   1  -2  -6  373.46   23.10
  -1  -2   6  361.16   25.60
  -1  -2   6  355.66   24.80
  -1   2   6  482.65   29.40
   1   2  -6  441.46   28.30
  -1   2   6  465.95   31.80
   0  -2   6   52.59    9.80
   0  -2  -6   56.89   10.40
   0  -2  -6   58.69    5.50
   0  -2   6   57.79    8.60
   0   2   6   68.99    7.80
   0   2   6   64.99   12.30
   0   2  -6   72.89    5.60
   1  -2   6  116.29   12.00
   1  -2   6  109.59   11.20
  -1  -2  -6  109.49   12.80
  -1  -2  -6  109.89    8.70
   1   2   6  149.39   12.40
  -2  -2  -6  214.48   14.80
   2  -2   6  222.18   18.10
  -2  -2  -6  210.88   17.70
   2   2   6  274.67   20.10
  -2   2  -6  295.47   18.10
  -3  -2  -6  222.88   19.50
   3  -2   6  269.57   20.10
   3  -2   6  233.28   19.60
  -3   2  -6  261.77   25.50
   3   2   6  298.27   22.10
   3   2   6  301.87   21.90
  -3   2  -6  272.87   18.30
  -4  -2  -6  341.67   25.60
   4  -2   6  331.17   25.20
  -4  -2  -6  364.16   26.50
  -4   2  -6  368.76   30.40
  -4   2  -6  396.86   30.80
   4   2   6  430.46   28.20
   4   2   6  393.16   25.60
   5  -2   6   21.00    8.50
  -5  -2  -6    7.90    7.00
  -5   2  -6   18.20    6.30
  -5   2  -6   19.70   10.70
   5   2   6   17.10    4.80
   5   2   6   25.00    8.00
  -5   2  -6   26.90   10.70
  -6  -2  -6   36.00    7.40
  -6  -2  -6   42.90   12.60
  -6  -2  -6   24.20   10.40
   6  -2   6   36.10    8.80
   6  -2   6   23.00    6.20
   6   2   6   27.30    5.40
   6   2   6   21.60    8.90
  -6   2  -6   33.20   10.20
  -6   2  -6   14.80   10.50
  -7  -2  -6   28.80   10.10
   7  -2   6   34.00    7.90
  -7  -2  -6   63.79   12.80
   7  -2   6   22.40    9.40
  -7   2  -6   36.90   13.60
   7   2   6   33.50    9.70
  -7   2  -6   42.10   12.00
   7   2   6   30.50    7.70
  -8  -2  -6  252.97   23.90
   8  -2   6  282.27   21.60
  -8  -2  -6  283.37   23.40
   8  -2   6  252.47   19.30
  -8  -2  -6  275.37   20.50
   8   2   6  326.57   26.30
  -8   2  -6  314.27   25.60
  -8   2  -6  324.47   27.60
   8   2   6  322.87   21.70
  -9  -2  -6  550.84   36.30
  -9  -2  -6  498.45   33.90
   9  -2   6  500.35   33.20
   9  -2   6  532.15   35.60
   9   2   6  594.44   40.60
   9   2   6  619.54   37.00
  -9   2  -6  571.04   42.00
  -9   2  -6  559.74   39.60
  10  -2   6  109.29   11.90
 -10  -2  -6  136.29   16.00
 -10  -2  -6  130.69   13.00
  10  -2   6  154.78   15.50
 -10   2  -6  133.29   18.80
  10   2   6  142.89   12.10
 -10   2  -6  138.19   15.50
  11  -2   6   -4.90    6.90
 -11  -2  -6    4.80    5.00
 -11   2  -6   -6.10    8.60
  11   2   6    0.60    5.20
 -11   2  -6    8.00    9.60
  12  -2   6   28.50    7.10
 -12  -2  -6   23.20    5.20
 -12   2  -6   31.50    6.40
  12   2   6   40.20    6.00
 -13  -2  -6   25.70    4.70
  13  -2   6   35.30    6.70
 -13   2  -6   30.00    5.40
 -13   2  -6   40.20    9.10
  13   2   6   26.90    4.70
 -12  -3   6   62.59    7.30
 -12   3   6   63.59    7.80
 -12   3   6   83.29   13.60
 -11  -3   6    5.40    8.60
 -11  -3   6    3.80    4.20
 -11   3   6    2.00    4.50
 -11   3   6    4.40    9.00
 -10  -3   6   25.00    9.30
 -10   3   6   68.49   11.90
 -10   3   6   64.99   11.50
 -10   3   6   56.79   10.70
  -9  -3   6   72.79   10.10
  -9  -3   6   80.89   16.20
  -9   3   6   84.59   12.70
  -9   3   6   90.09   11.90
  -9   3   6   83.19   11.60
  -8  -3   6   69.69   10.00
   8  -3  -6   65.39   10.40
  -8  -3   6   75.79   12.90
  -8   3   6   73.59   10.50
  -8   3   6   70.99   13.70
  -8   3   6   64.19   11.60
  -8   3   6   80.29   12.80
   8   3  -6   73.89    9.70
  -7  -3   6  171.98   14.80
   7  -3  -6  153.58   13.30
  -7  -3   6  146.49   19.90
   7   3  -6  179.78   14.10
  -7   3   6  193.18   17.50
  -7   3   6  175.98   19.00
  -7   3   6  216.48   16.00
  -7   3   6  168.08   19.40
   6  -3  -6  188.78   14.50
  -6  -3   6  191.48   20.30
  -6  -3   6  177.48   15.90
  -6   3   6  274.07   24.00
   6   3  -6  224.98   17.70
  -6   3   6  260.37   20.80
  -6   3   6  277.17   19.10
  -5  -3   6   95.09   11.20
  -5  -3   6   68.39   13.40
   5  -3  -6   96.29    9.70
  -5   3   6  125.59   16.90
  -5   3   6  121.19   11.40
  -5   3   6  108.49   14.50
   5   3  -6  118.29   10.80
   4  -3  -6  165.08   13.00
  -4  -3   6  181.38   20.80
  -4  -3   6  134.29   14.30
  -4   3   6  231.98   21.50
  -4   3   6  214.38   16.60
  -4   3   6  242.28   20.70
   4   3  -6  211.08   15.50
   3  -3  -6  396.26   25.30
  -3  -3   6  382.86   26.50
  -3  -3   6  363.46   30.90
  -3   3   6  499.05   33.00
  -3   3   6  517.15   36.70
  -3   3   6  548.15   36.10
   3   3  -6  487.85   32.00
   2  -3  -6   -9.30    5.20
  -2  -3   6   -2.50   12.20
  -2  -3   6   -3.50    6.30
  -2   3   6   -0.60    9.90
  -2   3   6    0.20    4.60
  -2   3   6  -10.50    9.70
  -2   3   6    9.60   11.00
   2   3  -6   -3.40    3.80
  -1  -3   6  166.28   15.80
  -1  -3   6  206.58   24.80
   1  -3  -6  161.58   14.20
  -1   3   6  228.28   21.50
  -1   3   6  241.68   17.10
  -1   3   6  204.68   23.50
   1   3  -6  236.68   15.50
  -1   3   6  201.38   21.80
   0  -3  -6  211.78   17.80
   0  -3  -6  209.08   16.50
   0  -3   6  171.58   27.80
   0  -3   6  203.78   17.40
   0   3  -6  241.78   17.70
   0   3   6  278.07   19.20
   0   3   6  277.57   22.40
  -1  -3  -6   86.39   12.30
   1  -3   6   78.49   13.10
  -1   3  -6   73.99    8.60
   1   3   6   90.09   10.70
  -1   3  -6   94.29   14.20
   1   3   6   95.59   13.90
  -2  -3  -6   45.50    8.20
   2  -3   6   23.50    8.30
   2   3   6   46.10    9.10
   2   3   6   47.50    7.90
  -2   3  -6   33.20    7.30
   2   3   6   29.90    5.30
   3  -3   6   52.39    9.60
  -3  -3  -6   54.69   11.10
   3   3   6   59.09    7.60
  -3   3  -6   50.09    7.80
  -4   3  -6  477.65   38.40
   4   3   6  661.63   38.70
  -5  -3  -6  121.79   12.70
   5  -3   6  110.09   15.10
  -5   3  -6  146.79   20.80
   5   3   6  156.68   16.10
   5   3   6  130.19   11.20
  -5   3  -6  111.49   17.90
   6  -3   6   63.99   11.00
  -6  -3  -6   46.50    9.20
   6   3   6   62.59   12.70
  -6   3  -6   45.40   23.60
   6   3   6   57.19    8.00
  -6   3  -6   50.89   12.30
  -7  -3  -6  167.68   14.60
   7  -3   6  178.48   17.40
   7   3   6  205.58   18.80
  -7   3  -6  203.48   20.40
   7   3   6  197.48   14.70
  -8  -3  -6  114.09   11.60
   8  -3   6  107.79   14.90
   8   3   6  131.79   17.00
  -8   3  -6  140.69   16.90
   8   3   6  141.39   11.00
  -8   3  -6   93.99   17.80
   9  -3   6   -6.60   10.00
  -9  -3  -6   -0.70    7.90
  -9   3  -6    1.50   13.30
   9   3   6    5.70    4.10
   9   3   6   -3.40    7.30
  10  -3   6   12.80    7.30
 -10  -3  -6    8.20    4.10
  10   3   6    3.60    7.20
 -10   3  -6    8.70    6.40
 -10   3  -6    8.50   13.00
  10   3   6   18.10    3.60
 -11  -3  -6    3.90    3.40
  11  -3   6    9.80    8.00
  11   3   6   17.30    3.10
 -11   3  -6   23.30   12.30
 -11   3  -6   15.70    6.40
 -10  -4   6  118.39    9.60
 -10   4   6  131.79   11.90
  10   4  -6  165.88   13.40
 -10   4   6  121.79   18.50
  -9  -4   6   22.30    7.50
   9   4  -6    0.10    6.30
  -9   4   6   14.40    5.90
  -9   4   6   10.30   13.40
  -9   4   6   10.90    8.20
  -8  -4   6   24.20    7.70
  -8  -4   6   43.80    7.50
  -8   4   6   51.49    9.20
  -8   4   6   36.50   13.70
  -8   4   6   63.09   10.10
   8   4  -6   47.80    8.30
  -7  -4   6   16.40    8.20
  -7  -4   6   12.30    7.00
   7   4  -6    3.30   10.50
   7   4  -6    7.30    7.60
  -7   4   6   18.80   13.90
  -7   4   6    3.10    6.70
  -6  -4   6   51.49    7.70
  -6  -4   6   48.60   11.50
   6   4  -6   55.59   11.40
  -6   4   6   63.19   15.20
  -6   4   6  108.89   20.10
  -6   4   6   58.69    9.20
  -5  -4   6   39.20   11.70
  -5  -4   6   32.30    7.20
  -5   4   6   53.99    8.80
  -5   4   6   45.80   10.80
   5   4  -6   61.89   10.70
   5   4  -6   42.20   12.00
  -5   4   6   78.69   15.80
  -4  -4   6   70.69   10.30
  -4  -4   6   87.29   17.30
   4   4  -6  125.59   16.30
  -4   4   6  132.09   17.50
   4   4  -6  110.59   15.60
  -4   4   6  127.49   12.10
  -3  -4   6   -3.00   11.40
  -3  -4   6   15.90    6.80
   3   4  -6   11.80    8.10
   3   4  -6   36.10    9.80
  -3   4   6   11.40   25.50
  -3   4   6   10.90    9.10
  -2  -4   6   11.40   12.60
  -2  -4   6   12.70    6.40
   2  -4  -6    4.90    7.10
   2   4  -6    5.00    7.50
  -2   4   6   15.00    6.30
   1  -4  -6   25.00    7.60
  -1  -4   6   26.70    7.50
  -1  -4   6   15.60   14.60
  -1   4   6   32.20   12.10
  -1   4   6   36.90    7.20
   1   4  -6   29.40    7.60
   0  -4   6    9.80    7.30
   0  -4  -6    5.10    7.00
   0   4  -6    1.70   10.00
   0   4   6   11.60   10.90
   0   4   6   14.40    6.70
   0   4  -6   15.90    6.60
   1  -4   6  109.19   13.90
  -1  -4  -6  103.99   12.10
   1   4   6  166.58   14.90
  -1   4  -6  137.59   14.20
   1   4   6  152.48   18.20
  -1   4  -6  135.69   17.30
   2  -4   6  167.88   16.60
  -2  -4  -6  163.18   14.20
  -2   4  -6  228.68   17.10
  -2   4  -6  176.68   24.70
   2   4   6  233.88   20.40
   2   4   6  222.18   23.70
  -3  -4  -6   28.90    6.70
   3  -4   6   30.00    8.60
   3   4   6   40.80    9.90
   3   4   6   33.90    9.00
  -3   4  -6   39.00    9.70
  -4  -4  -6   15.80    5.80
   4  -4   6    5.50    8.20
  -4   4  -6   51.29   10.70
   4   4   6   24.60    8.90
   5  -4   6   69.29   11.10
  -5  -4  -6   51.89    8.50
  -5   4  -6   37.70   10.00
   6  -4   6   58.09   10.10
  -7  -4  -6   22.10    5.30
   7  -4   6   20.40    8.60
   7   4   6   23.30    7.50
   7   4   6   28.00    4.90
   8  -4   6    7.90   11.00
  -8  -4  -6   10.50    4.00
   8   4   6    9.30    6.10
  -9  -4  -6   13.60    3.40
   9   4   6   52.09    9.70
   6  -5  -6    8.10    3.60
   6   5  -6   22.50    3.90
  -6   5   6   13.90    5.80
   5  -5  -6   31.40    5.10
  -5  -5   6   22.00    5.10
   5   5  -6   22.10    8.10
  -5   5   6   21.70    4.90
  -4  -5   6   36.30    6.10
   4  -5  -6   34.60    5.60
   4   5  -6   55.99   10.80
   4   5  -6   40.50    7.50
  -4   5   6   55.19    9.10
  -3  -5   6   83.49   10.10
   3  -5  -6  108.29    9.40
  -3   5   6  138.89   11.80
   3   5  -6  109.59   14.60
   3   5  -6  124.49   10.90
   2  -5  -6   31.60    6.10
  -2   5   6   72.59    9.80
   2   5  -6   56.19    8.10
   2   5  -6   68.99   10.20
   1  -5  -6  116.89    9.90
  -1  -5   6   95.99   11.00
  -1   5   6  146.69   12.80
   1   5  -6  147.09   11.10
   1   5  -6  110.49   14.50
   0  -5  -6   14.00    4.40
   0  -5   6    9.20    6.80
   0   5  -6   21.50    7.70
   0   5   6    9.60    6.30
   0   5  -6   19.80    4.00
   1  -5   6   48.10    8.70
  -1  -5  -6   53.89    6.70
  -1   5  -6   78.19   12.10
   1   5   6   68.29   11.40
   1   5   6   88.09   14.80
   2  -5   6   50.19   14.60
  -2  -5  -6   77.39    8.00
   2   5   6   90.79   14.00
  -2   5  -6   76.99   12.30
   2   5   6  101.69   14.80
  -3  -5  -6   -0.80    3.30
  -3   5  -6   21.30    8.40
   3   5   6   11.70    6.90
  -4  -5  -6   10.90    3.40
  -4   5  -6   12.50    9.30
   4   5   6   19.80    7.00
  -5  -5  -6   25.80    4.70
   5   5   6   46.30    7.40
 -13   0   7    2.40    8.90
 -12   0   7   52.09    9.00
 -11   0   7  494.45   36.00
 -11   0   7  587.04   39.10
 -10   0   7  365.56   29.90
 -10   0   7  402.16   31.80
 -10   0   7  378.86   28.10
  -9   0   7  340.77   26.50
  -9   0   7  384.06   28.40
  -8   0   7  129.29   17.30
  -8   0   7  143.39   13.40
  -8   0   7  135.99   16.50
  -7   0   7   73.59    9.50
  -7   0   7   66.09   12.10
  -7   0   7   45.20   13.90
  -6   0   7   92.39   14.20
   6   0  -7  114.19   14.20
  -6   0   7  105.09    9.80
   6   0  -7   95.19    6.10
   5   0  -7   17.60    1.80
  -5   0   7   11.20    7.90
  -5   0   7   17.80    5.20
   5   0  -7   17.20    6.30
  -4   0   7  827.52   56.29
   4   0  -7  942.11   55.99
  -4   0   7  924.81   55.09
   3   0  -7  408.06   24.60
   3   0  -7  454.75   27.00
  -3   0   7  341.27   27.90
  -3   0   7  427.26   26.40
  -2   0   7  146.99   11.50
   2   0  -7  159.48   11.70
   2   0  -7  139.59    9.30
   1   0  -7    9.00    1.60
  -1   0   7    7.10    4.50
   0   0  -7   14.30    3.90
   0   0  -7   13.40    2.00
  -1   0  -7  310.07   19.10
  -2   0  -7  138.99   10.40
  -2   0  -7  181.28   12.20
  -3   0  -7 1050.29   57.79
  -3   0  -7  992.80   59.69
  -3   0  -7  831.32   62.49
  -4   0  -7   40.30    6.50
  -4   0  -7   53.29    8.40
   5   0   7  767.62   48.90
  -5   0  -7  837.12   50.99
  -6   0  -7  812.12   52.99
   6   0   7  836.12   50.69
  -6   0  -7  842.42   52.99
  -7   0  -7  738.33   47.10
  -7   0  -7  716.23   47.30
   7   0   7  721.83   44.70
  -8   0  -7  198.08   20.70
   8   0   7  211.38   18.60
  -8   0  -7  258.67   20.50
   9   0   7    5.00    4.70
  -9   0  -7    2.80    9.20
  -9   0  -7   -1.20    7.80
 -10   0  -7  811.62   52.79
  10   0   7  835.32   50.79
 -11   0  -7  462.15   33.50
  11   0   7  538.05   32.20
 -11   0  -7  511.15   35.60
  12   0   7   42.80    6.40
 -12   0  -7   28.00    8.90
 -12   0  -7   42.20    7.90
  13   0   7   37.40    5.30
 -13   0  -7   26.40    8.80
 -13   0  -7   53.79    8.70
 -14   1   7   23.20   11.40
 -13   1   7  105.59   19.40
 -13   1   7   75.09   10.10
 -12  -1   7   41.30    8.60
 -12   1   7   28.60    7.10
 -12   1   7   46.50    8.40
 -12   1   7   29.30   10.00
 -11  -1   7  280.87   22.40
 -11   1   7  319.57   21.40
 -11   1   7  295.97   23.70
 -11   1   7  229.08   21.80
  10  -1  -7   10.40    3.90
 -10  -1   7   31.50   15.00
 -10  -1   7   -4.20    8.90
 -10   1   7   11.40    7.20
 -10   1   7   -1.50    8.20
 -10   1   7    6.60    9.00
   9  -1  -7  457.55   27.20
  -9  -1   7  441.76   36.00
  -9  -1   7  449.26   30.80
  -9  -1   7  407.16   31.60
  -9   1   7  528.15   36.70
  -9   1   7  523.15   34.50
  -9   1   7  551.84   34.80
  -9   1   7  472.25   35.80
   8  -1  -7  329.67   19.30
  -8  -1   7  319.27   23.00
  -8  -1   7  308.07   23.70
  -8  -1   7  225.28   35.00
  -8   1   7  360.06   27.20
   8   1  -7  348.77   21.70
  -8   1   7  387.46   26.20
  -8   1   7  290.97   27.50
  -8   1   7  401.26   25.10
  -7  -1   7  226.88   22.40
  -7  -1   7  233.18   19.90
  -7  -1   7  215.28   17.80
   7  -1  -7  235.18   14.50
   7   1  -7  248.58   15.90
  -7   1   7  260.17   20.60
  -7   1   7  256.47   21.50
  -7   1   7  275.57   18.50
  -6  -1   7  146.99   17.50
  -6  -1   7  159.88   19.00
   6   1  -7  188.68   12.30
  -6   1   7  166.98   17.00
  -6   1   7  200.58   17.30
  -6   1   7  236.48   15.50
   5  -1  -7  993.50   59.19
  -5  -1   7  960.70   63.39
  -5  -1   7 1057.29   61.19
   5  -1  -7  957.00   62.99
  -5   1   7 1123.39   72.29
  -5   1   7 1256.07   70.99
   5   1  -7 1166.78   69.49
  -5   1   7 1126.99   72.89
   4  -1  -7   66.09    5.00
   4  -1  -7   63.19   10.20
  -4  -1   7   66.99    9.20
   4   1  -7   79.69    5.60
  -4   1   7   88.19    8.40
  -4   1   7   73.29   11.10
  -3  -1   7  182.38   14.80
   3  -1  -7  209.58   16.20
   3  -1  -7  199.08   12.50
  -3   1   7  218.98   18.00
  -3   1   7  225.18   15.70
   3   1  -7  227.78   14.00
  -2  -1   7  705.43   45.10
   2  -1  -7  728.63   45.80
   2  -1  -7  740.93   43.60
  -2   1   7  802.72   52.59
   2   1  -7  852.61   49.80
  -2   1   7  839.52   50.79
  -1  -1   7  200.98   15.30
   1  -1  -7  211.28   15.60
   1   1  -7  196.18   14.80
  -1   1   7  247.58   18.50
  -1   1   7  263.67   16.20
   0  -1   7  766.72   49.20
   0  -1  -7  826.02   47.80
   0  -1  -7  788.42   49.50
   0   1   7  919.11   58.89
   0   1  -7  996.30   56.39
   0   1   7  906.51   57.29
   1  -1   7 1835.32  117.29
  -1  -1  -7 1986.00  116.19
  -1  -1  -7 2042.10  117.79
   1   1   7 2395.16  138.59
  -1   1  -7 2246.38  137.59
   2  -1   7  297.67   21.90
  -2  -1  -7  316.27   21.30
  -2   1  -7  385.26   22.40
  -2   1  -7  333.07   26.60
  -3  -1  -7  495.95   29.30
  -3  -1  -7  443.66   30.30
  -3   1  -7  514.55   32.20
  -3   1  -7  541.85   35.30
  -4  -1  -7   99.99   11.20
  -4   1  -7  138.29   15.00
   5  -1   7  101.39   10.40
   5   1   7  141.59   17.50
  -5   1  -7  133.79   15.80
   5   1   7  100.59   10.40
  -6  -1  -7   29.10    8.40
  -6  -1  -7   37.80   11.30
   6  -1   7   24.50    5.70
  -6  -1  -7   25.10   11.00
  -6   1  -7   34.40    9.30
   6   1   7   25.60    4.70
  -6   1  -7   30.90    9.80
   6   1   7   27.30   10.60
  -7  -1  -7  444.46   30.80
   7  -1   7  414.96   28.10
  -7  -1  -7  437.16   30.70
  -7  -1  -7  471.25   32.00
  -7  -1  -7  411.66   31.90
   7   1   7  532.95   36.40
  -7   1  -7  501.95   35.30
  -7   1  -7  471.75   34.60
   7   1   7  498.15   31.80
  -8  -1  -7 1878.71  114.09
  -8  -1  -7 1865.61  114.59
  -8  -1  -7 1897.01  114.09
   8  -1   7 1838.72  112.09
  -8   1  -7 2100.09  125.19
  -8   1  -7 2049.99  125.99
   8   1   7 1997.60  122.59
  -9  -1  -7 1001.10   65.09
   9  -1   7  964.30   62.19
  -9  -1  -7 1132.99   64.19
  -9  -1  -7  980.90   64.39
   9   1   7 1185.58   69.49
  -9   1  -7 1103.39   71.89
  -9   1  -7 1139.79   73.39
 -10  -1  -7   36.10    8.50
 -10  -1  -7   20.20    9.50
 -10  -1  -7   14.20    8.70
  10  -1   7   21.00    5.30
  10   1   7   34.00    5.70
 -10   1  -7   26.30   10.10
 -10   1  -7   27.90    8.60
 -11  -1  -7   30.90    7.70
 -11  -1  -7   31.70    9.90
 -11  -1  -7   57.59   10.40
  11  -1   7   32.40    5.40
 -11   1  -7   46.60   10.70
 -11   1  -7   33.30    8.20
  11   1   7   55.19    7.50
  12  -1   7   91.99    8.30
 -12  -1  -7   85.09   11.40
 -12  -1  -7  112.79   19.10
  12   1   7  110.59    9.40
 -12   1  -7  112.79   11.60
 -12   1  -7  122.39   14.90
 -13  -1  -7   57.19   11.30
 -13  -1  -7   23.80   25.70
  13   1   7  108.49    8.10
 -13   1  -7  108.99   13.50
 -13  -2   7   76.59    9.40
 -13   2   7  112.59   14.40
 -13   2   7   64.99   11.60
 -13   2   7   91.09    8.80
 -12  -2   7    6.80    4.60
 -12   2   7    4.80    5.60
 -12   2   7    8.50    4.60
 -12   2   7    8.30    8.30
 -11  -2   7   33.90   13.20
 -11  -2   7   36.10    8.10
 -11   2   7   66.19   11.20
 -11   2   7   85.89   13.10
 -11   2   7   52.19    9.00
 -10  -2   7   15.20    6.40
 -10  -2   7   27.90   12.00
 -10   2   7   47.00    9.80
 -10   2   7   11.60    6.40
 -10   2   7   26.00    9.50
  -9  -2   7    5.10    6.30
   9  -2  -7   11.60    4.80
  -9  -2   7    2.40   10.70
  -9   2   7   11.30    9.20
   9   2  -7    2.80    4.20
  -9   2   7    2.40    7.90
  -9   2   7   11.60    7.20
  -9   2   7    6.60    6.50
  -8  -2   7  209.48   16.80
  -8  -2   7  183.98   18.80
   8  -2  -7  204.18   14.00
  -8  -2   7  183.28   21.30
   8   2  -7  238.48   15.70
  -8   2   7  194.98   20.60
  -8   2   7  252.97   21.90
  -8   2   7  223.18   18.70
  -8   2   7  266.67   18.50
   7  -2  -7  305.97   20.20
  -7  -2   7  279.17   25.70
  -7  -2   7  291.97   23.00
  -7  -2   7  348.67   22.50
  -7   2   7  367.46   29.10
   7   2  -7  377.56   24.20
  -7   2   7  426.66   26.40
  -7   2   7  373.56   27.30
  -6  -2   7  309.87   24.20
   6  -2  -7  371.46   21.80
  -6  -2   7  322.77   28.70
  -6  -2   7  338.87   23.70
  -6   2   7  466.65   27.40
  -6   2   7  423.56   30.20
  -6   2   7  413.06   28.40
  -6   2   7  331.97   30.20
   6   2  -7  392.16   25.30
  -5  -2   7   42.50   11.00
  -5  -2   7   33.00    7.90
   5  -2  -7   38.90    5.20
  -5  -2   7   31.80    7.50
  -5   2   7   54.09   12.20
  -5   2   7   50.19    7.00
  -5   2   7   41.60    8.50
   5   2  -7   40.60    4.90
  -5   2   7   43.10    9.90
  -4  -2   7   89.19   11.00
  -4  -2   7  104.79   17.00
  -4  -2   7   84.29   12.70
   4  -2  -7  102.49    7.90
  -4   2   7  123.69   10.70
  -4   2   7  104.59   18.00
  -4   2   7  117.49   14.00
  -4   2   7   99.79   13.50
   4   2  -7  120.49    8.50
  -3  -2   7  225.48   22.20
  -3  -2   7  220.28   18.80
   3  -2  -7  249.78   15.60
  -3   2   7  311.47   24.10
   3   2  -7  312.27   20.20
  -3   2   7  368.76   22.50
  -3   2   7  292.97   26.00
  -2  -2   7  106.99   18.70
   2  -2  -7   75.99    7.00
  -2  -2   7   83.29    9.90
  -2  -2   7   80.09   12.20
   2   2  -7  110.79    7.90
  -2   2   7  115.89    9.90
  -2   2   7  101.29   13.40
  -2   2   7   86.99   14.00
  -1  -2   7   99.99   10.90
  -1  -2   7  107.69   15.20
  -1  -2   7  106.49   16.10
   1  -2  -7  104.79    8.50
   1  -2  -7  100.59   14.80
  -1   2   7  152.98   11.80
  -1   2   7  139.79   14.90
   1   2  -7  145.49   10.10
   0  -2   7  307.07   22.90
   0  -2   7  337.37   24.20
   0  -2  -7  315.97   25.50
   0  -2   7  332.27   24.90
   0  -2  -7  361.86   21.40
   0   2   7  458.55   31.00
   0   2  -7  447.26   27.00
   0   2   7  437.46   28.00
   0   2   7  398.36   30.10
   1  -2   7  252.87   19.00
  -1  -2  -7  253.27   22.10
   1  -2   7  249.48   21.40
  -1  -2  -7  282.17   17.60
   1  -2   7  261.07   20.70
   1   2   7  309.47   24.40
   1   2   7  365.66   22.90
  -1   2  -7  335.37   21.20
   2  -2   7  250.67   20.10
   2  -2   7  262.87   22.00
  -2  -2  -7  225.08   21.30
   2  -2   7  227.78   18.70
  -2  -2  -7  240.08   16.50
   2   2   7  336.77   22.00
   2   2   7  330.97   23.40
  -2   2  -7  282.57   19.90
   3  -2   7   60.49   13.40
   3  -2   7   81.39   10.50
  -3   2  -7  113.29   19.10
  -3   2  -7  120.79   17.80
   3   2   7   90.29    9.20
   3   2   7   82.49   12.70
  -4  -2  -7  491.75   32.90
   4  -2   7  486.05   32.90
  -4  -2  -7  466.55   33.00
  -4   2  -7  558.74   40.20
   4   2   7  564.14   37.30
   5  -2   7  489.95   35.10
  -5  -2  -7  527.55   35.60
  -5  -2  -7  567.84   35.20
   5   2   7  612.24   38.00
   5   2   7  610.14   40.60
  -5   2  -7  587.44   38.50
  -5   2  -7  621.24   42.40
  -5   2  -7  643.24   43.30
  -6  -2  -7  301.97   21.50
  -6  -2  -7  238.68   22.00
  -6   2  -7  349.57   33.90
  -6   2  -7  331.27   27.70
   6   2   7  312.37   25.30
  -7  -2  -7  257.27   19.70
  -7  -2  -7  261.87   24.40
  -7  -2  -7  227.88   21.70
   7  -2   7  258.67   20.90
  -7   2  -7  278.37   26.00
   7   2   7  282.07   19.60
  -7   2  -7  306.17   23.80
   7   2   7  286.57   23.70
   8  -2   7  423.06   30.00
  -8  -2  -7  464.15   29.00
  -8  -2  -7  387.46   31.20
  -8  -2  -7  406.16   31.80
   8   2   7  478.65   31.00
   8   2   7  523.05   34.60
  -8   2  -7  469.55   34.10
  -8   2  -7  478.35   36.90
  -9  -2  -7   98.19   12.00
   9  -2   7  101.49   13.20
  -9   2  -7  110.99   14.00
   9   2   7   82.69   17.00
   9   2   7   95.09    9.60
  -9   2  -7  104.89   17.40
 -10  -2  -7   41.10    9.00
  10  -2   7   47.00    8.50
  10   2   7   71.69    8.00
 -10   2  -7   42.60   11.80
 -10   2  -7   54.09    9.60
  11  -2   7   79.99   10.70
 -11  -2  -7   78.29    9.40
 -11   2  -7   99.59   14.40
 -11   2  -7   76.59   10.90
  11   2   7  109.39    8.70
 -12  -2  -7   -1.70    4.80
  12  -2   7   12.70    5.90
 -12   2  -7    3.40    4.80
 -12   2  -7   -0.60    8.00
  12   2   7    6.40    2.80
 -12  -3   7    0.70    3.00
 -12   3   7   21.00    4.50
 -12   3   7   31.40    9.40
 -11  -3   7   30.30    9.00
 -11  -3   7   37.70    6.40
 -11   3   7   48.20   11.80
 -11   3   7   34.80    6.10
 -10  -3   7    1.70    8.70
 -10  -3   7    4.00    4.50
 -10   3   7   19.00    9.10
 -10   3   7   -0.30    5.10
  -9  -3   7   20.10    5.80
  -9   3   7   35.70    7.70
  -9   3   7   30.60    9.90
  -8  -3   7  165.18   13.70
  -8  -3   7  127.69   18.30
  -8   3   7  203.88   16.00
  -8   3   7  192.58   20.10
  -8   3   7  174.88   16.20
  -7  -3   7   12.50    9.60
   7  -3  -7   15.90    6.90
  -7  -3   7   10.90    6.20
  -7   3   7   15.10    7.50
   7   3  -7   24.60    6.00
  -6  -3   7  152.48   19.50
   6  -3  -7  167.88   14.20
  -6  -3   7  172.18   14.60
  -6   3   7  204.78   22.10
  -6   3   7  234.88   17.30
  -6   3   7  208.78   18.20
   6   3  -7  197.88   15.50
  -5  -3   7   83.39   17.40
  -5  -3   7  124.09   12.30
   5  -3  -7  104.69   11.00
  -5   3   7  148.09   15.90
  -5   3   7  142.99   19.20
  -5   3   7  167.48   14.20
   5   3  -7  170.18   12.60
   4  -3  -7  285.57   20.50
  -4  -3   7  243.18   24.90
  -4  -3   7  289.37   21.00
  -4   3   7  361.76   24.20
  -4   3   7  359.76   28.10
  -4   3   7  340.47   26.60
   3  -3  -7   25.10    6.60
  -3  -3   7   37.90    9.40
  -3  -3   7   44.00   12.30
  -3   3   7   46.70   12.80
  -3   3   7   68.69   13.90
  -3   3   7   55.89    8.70
   3   3  -7   41.00    6.40
  -2  -3   7   77.49   10.90
   2  -3  -7   66.39   10.20
  -2   3   7   83.69   16.00
  -2   3   7  112.49   15.70
  -2   3   7   95.39   10.30
   2   3  -7   95.79    8.90
  -2   3   7   91.89   13.80
  -1  -3   7   39.10    7.70
  -1  -3   7   69.59   14.80
   1  -3  -7   41.50    8.50
  -1   3   7   79.79   13.80
  -1   3   7   64.99   11.20
  -1   3   7   38.80   11.40
   1   3  -7   58.39    7.40
  -1   3   7   59.39    9.10
   0  -3  -7  107.39   14.20
   0  -3   7  110.99   12.50
   0  -3   7   71.29   17.20
   0   3  -7  143.19   12.00
   0   3   7  163.08   13.30
   0   3   7  149.99   20.20
   0   3   7  142.49   18.60
  -1  -3  -7   24.00    8.40
   1  -3   7   -0.20    7.10
  -1   3  -7   15.60    8.10
  -1   3  -7    3.30    5.30
   1   3   7   27.90    7.10
  -2  -3  -7   58.99    9.70
   2   3   7   70.89   11.90
   2   3   7   67.29   10.60
   3  -3   7   87.49   13.00
  -3  -3  -7   87.59   13.30
  -3  -3  -7   75.09   13.90
   3   3   7   83.69   13.00
  -3   3  -7   80.49   11.90
   3   3   7   92.99   14.20
   4  -3   7   38.80    8.90
  -4  -3  -7   29.50    7.60
  -4  -3  -7   35.10   12.80
  -4   3  -7   31.90   11.70
   4   3   7   36.60    9.30
  -4   3  -7   36.20    6.70
   4   3   7   32.10    4.80
  -5  -3  -7   70.79   10.90
   5  -3   7   79.19   13.00
   5   3   7   85.99   11.70
   5   3   7   66.99    7.90
  -5   3  -7   77.09   15.40
  -6  -3  -7   20.80    6.70
   6  -3   7   25.40    9.00
   6   3   7   30.80    8.90
   6   3   7   19.10    4.40
  -6   3  -7   14.40   11.50
  -7  -3  -7   28.30    6.60
   7  -3   7   19.50    8.30
  -7   3  -7   63.89   20.00
  -7   3  -7   26.30   10.20
   7   3   7   16.40    4.20
   7   3   7   27.80    8.50
  -8  -3  -7   61.09   10.10
   8  -3   7   73.89   12.70
   8   3   7   51.29    6.90
  -8   3  -7   50.19    9.90
  -8   3  -7   73.59   17.20
   9  -3   7   91.39   12.00
  -9  -3  -7   87.49    9.50
  -9   3  -7   69.79   12.30
   9   3   7  116.39   13.80
   9   3   7  101.59    8.30
  10  -3   7    7.30    6.50
 -10  -3  -7    1.10    4.40
  10   3   7    6.50    2.80
  10   3   7    8.50    7.00
 -10   3  -7   10.40   15.70
 -10   3  -7   10.00    6.00
  11  -3   7   -1.30    7.00
 -11  -3  -7    3.20    5.20
 -11   3  -7   14.50    5.40
  -9  -4   7   11.80    3.20
  -9  -4   7   14.00    6.10
   9   4  -7   27.60    6.90
  -9   4   7   23.80   10.40
  -9   4   7   29.90    5.90
  -9   4   7   32.70    8.60
  -8  -4   7   35.10    8.60
  -8  -4   7   39.90    6.90
  -8   4   7   54.29   18.20
  -8   4   7   29.90    6.90
   8   4  -7   37.60    7.10
  -7  -4   7    3.80    4.40
  -7  -4   7   11.40    8.20
  -7   4   7    5.20   13.50
   7   4  -7   10.20    7.60
  -7   4   7   -0.40    6.50
  -7   4   7    6.30    5.40
   7   4  -7   -0.50   10.30
  -6  -4   7   29.10    8.60
  -6  -4   7   30.90    8.40
   6   4  -7   40.30   10.40
  -6   4   7   50.59   15.00
  -6   4   7   45.90    9.00
  -6   4   7   54.09    9.10
   6   4  -7   51.79    9.30
  -5  -4   7   35.10   11.10
  -5  -4   7   55.79    8.10
  -5   4   7   87.59   16.80
  -5   4   7   87.19   17.20
  -5   4   7   64.49    9.90
  -4  -4   7   75.09   10.50
  -4  -4   7   62.49   12.90
  -4   4   7  127.19   16.20
   4   4  -7   70.49   11.20
  -4   4   7  103.79   21.60
  -4   4   7  103.59   10.50
   3  -4  -7  281.37   20.70
  -3  -4   7  251.97   26.60
  -3  -4   7  295.27   20.60
  -3   4   7  399.96   26.10
   3   4  -7  370.06   28.10
  -2  -4   7   27.10    6.90
  -2  -4   7   11.60   12.10
   2  -4  -7   26.20    7.70
   2   4  -7   41.40    9.00
  -2   4   7   33.00    6.70
   1  -4  -7  231.48   18.20
  -1  -4   7  195.48   26.70
  -1  -4   7  246.28   18.70
  -1   4   7  298.67   26.20
  -1   4   7  327.27   21.60
   1   4  -7  275.47   22.70
   0  -4   7   76.29   11.80
   0  -4  -7   82.89   11.70
   0   4  -7  108.49   13.40
   0   4   7   99.99   12.00
   0   4   7  139.49   17.20
  -1  -4  -7  155.48   14.30
   1  -4   7  177.68   16.10
   1   4   7  198.98   19.50
  -1   4  -7  159.08   19.00
  -1   4  -7  206.68   16.40
   1   4   7  226.28   17.10
   2  -4   7   10.60    6.90
  -2  -4  -7   18.70    6.80
   2   4   7   14.30    8.30
   2   4   7   13.30    7.80
  -2   4  -7   14.70    5.70
  -2   4  -7   11.20    8.90
   3  -4   7   51.09    9.90
  -3  -4  -7   72.39   10.50
  -3   4  -7   64.19    8.90
   3   4   7   82.99   14.10
  -3   4  -7   59.79   11.30
  -4  -4  -7   84.39   10.60
   4  -4   7   72.99   12.90
   4   4   7  113.49   13.70
  -4   4  -7   88.39   14.90
   5  -4   7   43.20    9.30
  -5   4  -7   93.49   14.80
   5   4   7   95.59   19.80
   6  -4   7   98.59   13.80
  -6  -4  -7  119.79   10.60
   6   4   7  134.89   14.60
  -7  -4  -7   27.90    5.20
   7  -4   7   12.50    7.50
   7   4   7   20.30    6.30
   8  -4   7   41.50    9.00
  -8  -4  -7   40.70    6.10
   8   4   7   56.59    9.80
  -9  -4  -7    9.10    3.60
   9   4   7   12.50    6.90
   5  -5  -7    5.90    3.00
  -5  -5   7    4.30    4.30
  -5   5   7    3.60    4.20
   5   5  -7   15.00    3.60
   5   5  -7   11.80    8.20
  -4  -5   7   15.80    4.80
   4  -5  -7   16.90    4.30
   4   5  -7    9.70    6.90
  -4   5   7    2.80    4.60
  -3  -5   7   -1.10    4.60
   3  -5  -7   -1.90    3.90
  -3   5   7   -5.00    4.70
   3   5  -7   -9.10    8.20
   3   5  -7    4.30    3.70
   2  -5  -7    2.40    3.80
  -2  -5   7    6.00    5.30
   2   5  -7    2.60    7.00
  -2   5   7   11.80    6.20
   2   5  -7    9.30    3.90
  -1  -5   7   90.89   10.60
   1  -5  -7   88.69    8.70
   1   5  -7  111.29   14.10
  -1   5   7  160.58   15.10
   1   5  -7  129.89   10.30
   0  -5   7   57.79    8.00
   0  -5  -7   72.09    7.60
   0   5  -7   74.09   12.00
   0   5   7  101.79   13.80
  -1  -5  -7   46.10    6.70
   1  -5   7   55.19    9.00
   1   5   7   44.10    8.60
  -1   5  -7   64.29   10.10
   1   5   7   71.29   11.70
   2  -5   7   48.60   10.00
  -2  -5  -7   52.69    6.80
   2   5   7   78.69   13.50
  -2   5  -7   48.20    8.90
  -3  -5  -7   -3.40    3.20
   3   5   7   -3.60    6.40
  -3   5  -7    1.10    7.30
  -4  -5  -7    2.40    2.90
   4   5   7   28.80    7.30
 -10   0   8  166.88   18.60
  -9   0   8   88.19   12.70
  -9   0   8   80.49   17.00
  -9   0   8   67.89   10.40
  -8   0   8  117.39   13.80
  -8   0   8  126.29   17.10
   8   0  -8  139.39    8.50
  -8   0   8  144.09   16.80
  -7   0   8  511.15   34.70
  -7   0   8  523.75   37.10
   7   0  -8  557.34   32.10
  -7   0   8  552.94   36.80
  -6   0   8    7.80    9.30
   6   0  -8    1.60    1.40
  -6   0   8    4.40    5.20
  -6   0   8    0.50   11.30
  -5   0   8   63.69   12.10
  -5   0   8   62.19    9.10
   5   0  -8   70.49    4.80
   4   0  -8   30.30    7.50
  -4   0   8   45.00    7.20
  -4   0   8   40.00    9.00
   4   0  -8   47.10    3.50
  -3   0   8 1435.66   79.49
   3   0  -8 1283.27   80.29
  -3   0   8 1249.47   80.69
   3   0  -8 1263.67   77.69
   2   0  -8  535.15   31.70
  -2   0   8  491.05   34.90
  -2   0   8  537.25   33.30
   2   0  -8  532.25   34.20
   1   0  -8  232.78   14.40
  -1   0   8  221.58   16.30
   1   0  -8  232.18   17.00
   0   0  -8  998.10   57.49
   0   0  -8  974.90   59.29
   0   0   8  906.61   58.59
   1   0   8   57.79    9.30
  -1   0  -8   72.29    8.60
  -1   0  -8   74.19    5.70
  -2   0  -8  241.48   17.30
   2   0   8  221.98   18.10
  -2   0  -8  217.28   14.60
  -3   0  -8   31.30    7.10
  -3   0  -8   17.20    3.40
  -3   0  -8   15.10    5.80
   4   0   8   16.50    5.10
  -5   0  -8   55.59   11.10
   5   0   8   54.59    7.90
   5   0   8   39.00   15.20
  -6   0  -8  730.23   47.90
   6   0   8  751.12   45.50
  -6   0  -8  740.53   48.10
  -7   0  -8 2419.66  146.99
  -8   0  -8   41.80    9.50
  -8   0  -8   40.80   10.20
   8   0   8   39.00    5.90
  -9   0  -8   82.99   14.80
   9   0   8   87.79    9.60
  -9   0  -8   82.69   13.30
  10   0   8  324.87   21.30
 -10   0  -8  323.97   25.30
 -10   0  -8  305.67   23.60
 -11   0  -8  195.48   15.60
  11   0   8  150.88   14.50
 -11   0  -8  193.38   17.60
 -12   0  -8   22.30    8.30
 -12   0  -8   45.40    7.30
  12   0   8   41.10    5.50
 -13   0  -8   -0.20    5.90
 -13   0  -8  -13.70    7.80
 -13   1   8  101.69   19.30
 -13   1   8   65.79   10.20
 -12   1   8   43.60    7.60
 -12   1   8   80.59   15.70
 -11  -1   8   11.30   12.20
 -11   1   8    4.60    7.10
 -11   1   8   30.80   10.40
 -11   1   8    4.60   10.00
  10  -1  -8  139.59   11.30
 -10  -1   8  169.58   24.70
 -10  -1   8  142.09   16.70
 -10   1   8  219.28   26.70
 -10   1   8  157.68   14.70
 -10   1   8  172.38   18.00
 -10   1   8  128.79   18.20
  -9  -1   8  104.09   14.60
  -9  -1   8   83.39   14.90
   9  -1  -8   79.39    7.70
  -9  -1   8   70.29   14.70
  -9   1   8   90.99   13.30
  -9   1   8   74.79   12.10
  -9   1   8  105.59   15.00
   9   1  -8   89.69    6.80
  -8  -1   8  134.89   19.90
  -8  -1   8  132.19   14.70
  -8  -1   8  132.39   19.20
  -8   1   8  159.48   14.90
  -8   1   8  132.79   16.60
  -8   1   8  152.48   14.30
  -7  -1   8  249.18   36.50
   7  -1  -8  326.47   19.30
  -7  -1   8  298.47   22.40
  -7  -1   8  310.97   23.90
   7   1  -8  347.47   22.20
  -7   1   8  344.37   27.10
  -7   1   8  388.46   25.00
  -7   1   8  382.86   26.20
  -6  -1   8   35.80   10.30
  -6  -1   8   28.90   10.10
  -6  -1   8   21.50    6.40
  -6   1   8   36.00    6.00
   6   1  -8   33.10    3.50
  -6   1   8   19.60    8.30
  -6   1   8   23.50    7.50
  -5  -1   8   94.59   15.20
   5  -1  -8   84.89    6.50
  -5  -1   8  100.79   11.00
  -5  -1   8   79.69   16.00
  -5   1   8  127.49   10.60
  -5   1   8  109.19   13.50
   5   1  -8  121.09    8.00
  -5   1   8  103.29   13.50
  -5   1   8  135.99   20.70
   4  -1  -8   37.30    3.80
  -4  -1   8   44.90   10.30
  -4   1   8   41.80    8.80
  -4   1   8   52.29   11.90
   4   1  -8   42.90    4.00
  -4   1   8   43.60    9.70
  -3  -1   8   22.10    5.90
   3  -1  -8   39.70    3.70
   3  -1  -8   25.80    7.60
  -3  -1   8   33.60    9.80
  -3   1   8   29.00    8.00
  -3   1   8   34.10    6.20
   3   1  -8   31.40    3.40
   2  -1  -8  317.17   19.00
  -2  -1   8  239.68   29.50
   2  -1  -8  317.07   23.10
  -2  -1   8  315.07   21.20
  -2   1   8  372.76   27.00
   2   1  -8  393.76   23.50
  -2   1   8  379.46   24.70
  -1  -1   8 2161.78  127.99
   1  -1  -8 2153.18  126.69
   1  -1  -8 2080.19  128.99
  -1   1   8 2591.34  155.88
  -1   1   8 2593.54  153.98
   1   1  -8 2559.94  153.08
   0  -1   8   37.70    6.50
   0  -1  -8   35.60    4.40
   0  -1  -8   50.69    8.00
   0   1  -8   57.09   12.80
   0   1  -8   50.59    4.70
   0   1   8   52.89    7.80
  -1  -1  -8  212.88   17.80
   1  -1   8  240.98   17.00
  -1   1  -8  278.07   17.30
   1   1   8  282.17   18.90
  -1   1  -8  251.97   22.20
   2  -1   8   87.59   11.50
  -2  -1  -8   90.79   12.50
   2   1   8  106.49   13.10
  -2   1  -8   77.09   13.40
   2   1   8  108.09   11.50
  -2   1  -8   95.89    7.50
  -3  -1  -8  107.09    8.80
   3  -1   8   76.29   12.60
   3  -1   8  116.69   14.30
  -3   1  -8  131.39   15.50
   3   1   8  141.49   14.90
   4  -1   8   22.90    8.40
  -4  -1  -8   22.30    7.20
   4   1   8   18.20    8.70
   4   1   8   13.40    4.70
  -4   1  -8   38.60   13.80
  -4   1  -8   27.50   10.80
   5  -1   8   42.50    6.40
  -5  -1  -8   52.79   10.10
  -5   1  -8   56.89   11.90
   5   1   8   77.09   13.20
   5   1   8   59.49    7.80
  -5   1  -8   66.49   11.30
   6  -1   8  330.47   21.50
  -6  -1  -8  318.47   24.70
  -6  -1  -8  325.17   24.20
   6   1   8  339.57   23.80
  -6   1  -8  376.76   28.00
  -6   1  -8  352.86   27.70
   6   1   8  413.86   28.70
  -7  -1  -8  593.94   40.00
  -7  -1  -8  602.14   39.50
   7  -1   8  583.64   37.00
   7   1   8  678.43   43.70
  -7   1  -8  686.83   47.70
   7   1   8  771.22   47.40
  -7   1  -8  702.63   46.90
  -8  -1  -8  309.07   23.80
   8  -1   8  313.67   20.90
  -8  -1  -8  308.87   25.00
   8   1   8  360.86   23.80
  -8   1  -8  379.16   27.00
  -8   1  -8  347.77   29.20
  -9  -1  -8  145.99   17.50
   9  -1   8  172.28   12.90
  -9  -1  -8  161.08   16.80
  -9   1  -8  207.68   25.20
   9   1   8  172.78   13.50
  -9   1  -8  173.58   17.20
 -10  -1  -8   22.20    9.40
  10  -1   8   16.10    4.70
 -10  -1  -8   24.40   10.80
 -10   1  -8   24.70    9.50
 -10   1  -8   33.00    8.70
  10   1   8   25.50    5.00
 -11  -1  -8   13.70    9.80
  11  -1   8   33.50    5.80
 -11  -1  -8   51.19    9.50
 -11   1  -8   29.80   10.10
 -11   1  -8   51.29    8.30
  11   1   8   38.00    5.80
 -12  -1  -8   60.69   12.10
  12  -1   8   40.10    6.70
  12   1   8   33.00    4.90
 -12   1  -8   23.00    8.00
 -13   1  -8   24.50    8.90
 -13  -2   8   43.50    7.20
 -13   2   8   70.19   13.00
 -13   2   8   41.20    6.40
 -12  -2   8   21.00    5.10
 -12   2   8    6.40   12.10
 -12   2   8   17.50    4.70
 -11  -2   8  171.28   13.80
 -11  -2   8  161.78   21.00
 -11   2   8  192.28   14.90
 -11   2   8  180.48   18.20
 -10  -2   8   18.20    6.90
 -10   2   8   31.80    8.40
 -10   2   8   14.90    6.20
 -10   2   8    4.70   13.00
 -10   2   8   29.60    9.60
  -9  -2   8   63.09    8.80
  -9  -2   8   53.19   11.70
   9  -2  -8   48.10    7.00
  -9   2   8   88.79   11.10
  -9   2   8   59.49   12.30
   9   2  -8   64.99    7.90
  -9   2   8   75.59   11.30
  -9   2   8   72.69   14.20
   8  -2  -8   -4.70    4.60
  -8  -2   8   -3.20    9.50
  -8  -2   8   -9.60    7.70
  -8  -2   8    4.50    6.30
  -8   2   8   -6.90    6.10
  -8   2   8    7.40    9.80
   8   2  -8    0.50    3.80
  -8   2   8   -1.50    6.00
  -8   2   8    8.70    8.60
  -7  -2   8   97.09   17.10
   7  -2  -8   96.29    8.60
  -7  -2   8   83.59   11.20
  -7  -2   8   71.19   12.60
  -7   2   8  103.49   11.10
  -7   2   8  116.59   17.50
  -7   2   8   93.79   14.60
   7   2  -8  111.09    8.80
  -7   2   8  110.09   12.70
   6  -2  -8  261.57   17.30
  -6  -2   8  254.77   20.20
  -6  -2   8  214.48   23.90
  -6  -2   8  271.47   23.40
  -6   2   8  344.97   25.00
  -6   2   8  341.77   27.10
  -6   2   8  322.17   28.30
   6   2  -8  336.67   21.70
  -6   2   8  366.06   23.60
   5  -2  -8   52.29    6.60
  -5  -2   8   54.09    8.70
  -5  -2   8   61.29   11.30
  -5   2   8   64.79   11.90
  -5   2   8   64.79   11.60
  -5   2   8   70.89    9.00
   5   2  -8   74.19    6.50
  -4  -2   8  209.78   17.30
   4  -2  -8  207.88   14.10
  -4  -2   8  176.68   16.50
  -4  -2   8  222.18   20.70
  -4   2   8  233.78   20.50
  -4   2   8  221.58   23.60
  -4   2   8  272.67   20.00
   4   2  -8  225.18   15.70
  -4   2   8  256.87   17.60
  -3  -2   8  124.29   13.10
   3  -2  -8   98.39    8.80
  -3  -2   8  105.69   17.70
  -3  -2   8  107.79   11.70
  -3   2   8  130.69   14.70
  -3   2   8  134.49   17.10
  -3   2   8  139.39   11.80
   3   2  -8  139.49    9.80
  -3   2   8  135.89   15.10
  -2  -2   8  306.17   22.50
   2  -2  -8  308.97   19.90
  -2  -2   8  288.27   21.70
  -2  -2   8  309.97   26.30
  -2   2   8  387.96   25.40
  -2   2   8  366.06   28.30
   2   2  -8  395.76   24.00
  -2   2   8  368.06   27.80
  -2   2   8  387.96   28.20
  -1  -2   8  520.65   39.00
  -1  -2   8  555.04   35.90
  -1  -2   8  514.45   35.20
   1  -2  -8  571.44   33.90
   1   2  -8  712.03   42.50
  -1   2   8  722.63   46.60
  -1   2   8  666.93   45.10
  -1   2   8  703.13   43.60
  -1   2   8  686.53   45.30
   0  -2   8   97.39   16.30
   0  -2  -8   85.49    8.70
   0  -2   8  102.79   12.50
   0  -2   8   75.29   10.60
   0   2   8  102.69   15.70
   0   2   8  104.69   13.80
   0   2  -8  118.79    8.80
   0   2   8  127.19   11.30
   1  -2   8   66.69   10.20
   1  -2   8   38.60   16.00
   1  -2   8   75.69   11.30
  -1  -2  -8   69.09    8.40
   1   2   8   89.99   14.40
  -1   2  -8  100.19    8.00
   1   2   8   92.59   12.50
   2  -2   8  149.99   14.20
  -2  -2  -8  121.09   16.50
   2  -2   8  117.39   14.10
   2   2   8  171.48   15.50
  -2   2  -8  129.69   22.60
   2   2   8  131.79   17.20
  -2   2  -8  151.18   11.40
   3  -2   8  109.09   13.20
  -3   2  -8  152.18   26.70
   3   2   8  127.09   14.30
  -3   2  -8  146.89   20.00
  -4  -2  -8  337.27   25.20
   4  -2   8  338.37   24.50
   4   2   8  369.06   25.10
  -4   2  -8  437.96   30.80
  -4   2  -8  436.36   32.40
   4   2   8  364.16   29.30
  -5  -2  -8  810.82   50.89
  -5  -2  -8  745.13   51.19
   5  -2   8  831.92   50.89
  -5   2  -8  937.61   65.79
   5   2   8 1087.19   64.09
  -6  -2  -8  436.86   27.90
   6  -2   8  389.16   27.10
  -6  -2  -8  347.97   29.20
  -6  -2  -8  338.67   27.90
  -6   2  -8  429.86   31.70
   6   2   8  426.56   31.10
  -6   2  -8  437.66   33.50
   6   2   8  440.56   27.50
  -7  -2  -8  432.56   32.30
  -7  -2  -8  456.05   31.10
   7  -2   8  459.55   31.40
   7   2   8  537.05   32.20
   7   2   8  498.85   35.80
  -7   2  -8  532.85   36.50
  -7   2  -8  485.95   37.70
  -8  -2  -8  188.28   17.60
  -8  -2  -8  194.08   19.80
   8  -2   8  220.58   18.00
  -8   2  -8  217.18   23.60
   8   2   8  235.48   16.60
  -8   2  -8  251.17   20.60
   8   2   8  261.47   22.10
   9  -2   8    6.40    6.70
  -9  -2  -8   11.90   11.10
  -9  -2  -8    2.70   10.30
  -9   2  -8   -4.70    7.40
   9   2   8    3.10    3.90
  -9   2  -8   10.40   11.60
 -10  -2  -8   18.70   15.30
  10  -2   8   14.60    5.70
 -10  -2  -8   14.70    6.20
  10   2   8   14.10    3.50
 -10   2  -8   19.50   10.50
 -10   2  -8   11.30    6.40
 -11  -2  -8   54.39   11.00
  11  -2   8   55.89    7.60
 -11   2  -8   55.69    8.50
  11   2   8   51.89    5.60
 -11   2  -8   40.40   11.40
  12  -2   8   26.10    5.40
 -12   2  -8   15.10    8.80
 -12   2  -8   11.60    4.20
 -11  -3   8   38.90    5.80
 -11  -3   8   30.00    9.20
 -11   3   8   49.40    7.20
 -11   3   8   61.89   12.90
 -10  -3   8   11.10    3.90
 -10  -3   8   17.50    7.90
 -10   3   8   10.20    4.70
 -10   3   8   15.50    8.60
  -9  -3   8   -0.10    7.50
  -9  -3   8   10.50    4.50
  -9   3   8   14.40    5.80
  -9   3   8   12.00    9.10
  -9   3   8   11.90    6.20
  -8  -3   8   19.40    5.60
  -8  -3   8   23.00   10.50
  -8   3   8   30.40    9.80
  -8   3   8   18.00    5.90
  -8   3   8   20.70    6.90
  -7  -3   8   10.10    9.30
  -7   3   8   13.70    5.60
  -7   3   8   26.30   10.10
  -7   3   8   24.50    7.60
  -6  -3   8  200.98   15.90
   6  -3  -8  184.38   16.30
  -6  -3   8  189.58   20.80
  -6   3   8  294.17   21.90
  -6   3   8  255.47   20.80
   6   3  -8  221.78   17.90
  -5  -3   8   58.19   12.20
   5  -3  -8   82.99   10.50
  -5  -3   8   53.99    9.80
  -5   3   8   66.29   10.10
  -5   3   8   80.99   16.20
   5   3  -8   70.59    8.60
  -5   3   8   66.89   12.70
  -4  -3   8  547.85   34.90
   4  -3  -8  533.45   34.40
  -4  -3   8  491.65   38.70
  -4   3   8  699.43   45.80
  -4   3   8  719.03   47.30
   4   3  -8  752.92   45.10
  -4   3   8  744.03   49.90
  -3  -3   8  154.68   14.40
   3  -3  -8  110.89   13.90
  -3  -3   8  189.18   21.60
  -3   3   8  213.88   16.80
   3   3  -8  223.98   16.10
  -3   3   8  194.28   23.80
  -3   3   8  239.98   22.80
  -3   3   8  227.98   19.40
  -2  -3   8   25.80    7.20
   2  -3  -8   33.40    8.60
  -2  -3   8   14.00   11.50
  -2   3   8   42.50    7.50
  -2   3   8   46.10   11.80
  -2   3   8   77.99   15.80
  -2   3   8   29.90   10.40
  -1  -3   8  246.58   25.30
  -1  -3   8  222.18   17.70
   1  -3  -8  192.78   21.50
   1  -3  -8  203.48   18.60
  -1   3   8  312.17   25.20
  -1   3   8  315.57   22.20
   1   3  -8  336.27   21.40
  -1   3   8  281.57   25.20
   0  -3   8  315.47   21.90
   0  -3  -8  244.78   24.20
   0   3  -8  388.06   25.70
   0   3   8  386.46   28.60
   0   3   8  389.26   26.60
   1  -3   8  150.78   15.50
  -1  -3  -8  159.08   16.40
   1   3   8  111.29   24.60
   1   3   8  201.58   15.30
   1   3   8  148.69   16.90
   2  -3   8  439.56   31.70
  -2  -3  -8  477.85   31.70
   2   3   8  556.04   39.00
  -2   3  -8  552.94   38.00
   2   3   8  635.64   38.20
   3  -3   8  127.09   14.40
  -3  -3  -8  131.99   18.10
  -3  -3  -8  139.09   14.60
  -3   3  -8  119.69   13.60
   3   3   8  149.09   15.40
  -4  -3  -8  593.64   36.80
   4  -3   8  570.24   37.80
  -4  -3  -8  522.95   39.30
   4   3   8  674.23   40.90
  -4   3  -8  616.74   38.00
  -4   3  -8  504.55   41.20
   5  -3   8    5.90    7.50
  -5  -3  -8    4.80    7.50
  -5   3  -8   -2.60   12.20
   5   3   8    4.90    7.50
   6  -3   8  206.58   18.60
  -6  -3  -8  220.58   17.60
   6   3   8  230.18   16.50
  -6   3  -8  252.37   23.60
   6   3   8  272.07   21.40
  -7  -3  -8   32.90    8.40
   7  -3   8   32.80    8.70
   7   3   8   22.50    5.70
  -7   3  -8   25.40   11.10
   8  -3   8   -4.30    6.10
  -8  -3  -8    0.40    5.40
   8   3   8   -2.50    3.00
  -8   3  -8  -10.70    7.50
   8   3   8   11.40    7.00
  -8   3  -8    2.40   24.50
  -9  -3  -8   13.80    5.20
   9  -3   8   24.40    7.00
   9   3   8   25.10    6.70
  -9   3  -8   21.40    7.20
  10  -3   8   -3.80    5.40
 -10   3  -8    1.90    6.00
  10   3   8   11.70    8.10
  -9  -4   8   85.29    7.60
   9   4  -8   86.89   11.20
  -9   4   8   78.69   15.90
  -8  -4   8   97.89   13.00
  -8   4   8  111.29   11.50
   8   4  -8  103.99   18.80
  -8   4   8   93.19   17.50
  -8   4   8  107.49   10.70
  -7  -4   8   77.69   13.70
  -7  -4   8   94.29    8.90
  -7   4   8   91.09   11.20
  -7   4   8  130.09   21.30
   7   4  -8   74.99   14.20
   7   4  -8   80.49   13.60
  -7   4   8  117.39   10.80
  -6  -4   8   82.29   14.20
  -6  -4   8   85.29    9.30
  -6   4   8   84.19   15.30
   6   4  -8   92.79   12.60
  -6   4   8   85.59    9.20
   6   4  -8   76.69   13.60
  -6   4   8   75.09   10.60
  -5  -4   8   18.90    9.40
  -5   4   8   25.50    8.10
  -5   4   8   26.00    5.90
   5   4  -8   18.10    7.80
  -5   4   8   31.60   13.80
   4  -4  -8   54.29   11.00
  -4  -4   8   29.60    6.40
  -4   4   8   38.00    9.50
  -4   4   8   48.80    8.10
   3  -4  -8  145.99   14.20
  -3  -4   8  149.19   13.60
  -3   4   8  214.08   16.10
   3   4  -8  181.18   19.10
  -3   4   8  286.47   31.60
  -2  -4   8   36.20   17.70
   2  -4  -8   45.00    8.40
  -2  -4   8   23.80    6.60
   2   4  -8   39.60    8.70
  -2   4   8   61.69    9.70
  -1  -4   8   80.89   11.40
   1  -4  -8  101.99   12.30
   1   4  -8   88.59   13.50
  -1   4   8  106.19   11.70
  -1   4   8  121.49   19.40
   0  -4  -8   17.70    7.30
   0  -4   8   11.00    6.80
   0   4   8   19.40    8.90
   0   4   8   28.60    7.70
   0   4  -8   34.20    7.40
  -1  -4  -8   98.39   11.70
   1  -4   8   84.39   11.60
  -1   4  -8  101.89   12.20
  -1   4  -8  123.39   15.50
   1   4   8   99.29   15.00
   1   4   8   91.59   12.70
   2  -4   8   34.60    7.80
  -2  -4  -8   34.70    7.00
  -2   4  -8   34.10    6.40
  -2   4  -8   45.10    9.60
   2   4   8   31.90    8.20
   2   4   8   47.10    9.10
   3  -4   8   42.50    8.20
  -3   4  -8   65.79   11.00
  -4  -4  -8  191.68   14.50
   4  -4   8  179.48   15.80
   4   4   8  259.07   18.30
  -4   4  -8  179.78   19.80
   5  -4   8   60.39   10.90
  -5  -4  -8   71.09    8.90
   5   4   8   97.09   12.20
   6  -4   8  188.28   16.30
  -6  -4  -8  218.28   15.30
   6   4   8  258.77   19.40
  -7  -4  -8  200.98   13.60
   7  -4   8  164.68   14.70
  -8  -4  -8   12.10    4.10
   8  -4   8   20.60    6.70
   8   4   8   13.00    4.90
   4  -5  -8    8.40    3.80
  -4  -5   8    6.40    4.90
   4   5  -8    8.20    3.40
   4   5  -8   15.30    7.00
  -4   5   8   17.70    5.10
   3  -5  -8    5.30    4.20
  -3  -5   8    7.70    4.30
   3   5  -8   -3.50    7.30
  -3   5   8    0.40    4.80
   2  -5  -8   54.79    6.50
  -2  -5   8   44.20    7.30
   2   5  -8   50.09    8.90
  -2   5   8   69.89    9.10
   2   5  -8   77.39    7.40
   1  -5  -8    6.30    4.20
  -1  -5   8   12.00    4.90
   1   5  -8    4.30    3.20
   1   5  -8    4.10    6.90
   0  -5   8   90.59    9.90
   0  -5  -8   92.19    8.40
   0   5   8  102.89   12.20
   0   5  -8   78.99   12.30
  -1  -5  -8   88.39    8.20
  -1   5  -8   55.99   10.80
   1   5   8   66.89   16.10
   1   5   8   74.29   14.60
  -2  -5  -8    2.50    3.40
   2  -5   8    6.10    6.00
   2   5   8   -2.80    7.50
  -2   5  -8    4.70    6.80
   3  -5   8   19.00   10.30
  -3  -5  -8    8.00    4.20
   3   5   8   29.90    6.90
 -10   0   9   18.40    9.30
 -10   0   9   30.60   11.30
  -9   0   9   11.50   13.90
  -9   0   9    6.70    9.60
  -9   0   9   32.10    8.80
  -8   0   9   44.40   12.40
   8   0  -9   54.79    5.00
  -8   0   9   42.20    8.10
  -8   0   9   58.79   10.90
  -8   0   9   49.00   14.00
   7   0  -9  521.95   31.10
  -7   0   9  516.55   35.40
  -7   0   9  508.95   36.60
  -7   0   9  512.25   33.90
  -6   0   9   -1.40    5.00
  -6   0   9   -3.70    9.10
   6   0  -9    3.60    1.90
  -6   0   9  -10.40   10.30
  -6   0   9   17.70    9.70
  -5   0   9  617.74   38.00
  -5   0   9  615.14   39.90
  -5   0   9  521.25   40.00
  -5   0   9  595.64   40.30
   5   0  -9  608.74   35.70
  -4   0   9  647.64   43.30
  -4   0   9  673.23   44.40
   4   0  -9  701.43   40.00
  -4   0   9  609.64   43.90
  -4   0   9  684.23   42.00
   3   0  -9  106.59    7.60
  -3   0   9  112.49   14.40
  -3   0   9  119.49   14.90
  -3   0   9  110.99   14.20
  -2   0   9   45.10    9.20
  -2   0   9   37.60    6.50
   2   0  -9   37.50    4.00
   1   0  -9  434.86   30.30
  -1   0   9  414.76   30.20
  -1   0   9  414.66   28.10
   1   0  -9  460.95   26.60
   0   0  -9  494.75   30.60
   0   0  -9  516.95   33.80
   0   0   9  480.85   32.00
   0   0   9  507.55   34.40
  -1   0  -9  226.88   19.20
   1   0   9  256.47   17.80
   1   0   9  226.28   19.90
   1   0   9  264.47   21.70
  -1   0  -9  225.98   15.50
  -2   0  -9   26.90    4.40
   2   0   9   33.70    8.10
  -2   0  -9   47.50   10.30
  -2   0  -9   40.60    8.90
   3   0   9    9.20   10.00
   3   0   9  -11.20   11.30
  -3   0  -9    5.60    7.50
  -3   0  -9    4.90    4.30
  -4   0  -9    3.40    6.80
   4   0   9    8.50   10.90
   5   0   9  161.18   12.90
  -5   0  -9  163.98   16.20
   5   0   9  188.48   22.20
  -6   0  -9   32.30    9.00
  -6   0  -9   18.00   10.30
   7   0   9    8.20    4.40
  -7   0  -9   -3.90    8.00
  -7   0  -9    7.50    8.10
  -8   0  -9  105.29   13.70
  -8   0  -9  126.69   15.80
   8   0   9  116.89   10.30
  -9   0  -9    8.10    8.50
  -9   0  -9    2.60    7.70
   9   0   9    4.80    4.10
 -10   0  -9   -2.10    7.90
 -10   0  -9   -5.70    7.00
  10   0   9    1.60    4.40
  11   0   9    0.50    3.20
 -11   0  -9    4.60    5.70
 -11   0  -9   -4.80    7.90
 -12   0  -9   -0.10    7.70
 -12   0  -9    6.60    5.50
  12   0   9    8.10    4.60
 -12   1   9   33.50   14.90
 -12   1   9    3.20    5.80
 -11   1   9   11.40    6.60
 -11   1   9   30.50   11.30
 -10   1   9  123.39   14.70
 -10   1   9  114.49   13.30
 -10   1   9  108.59   14.80
   9  -1  -9   21.70    5.00
  -9  -1   9   27.50   15.30
  -9  -1   9   12.90   11.40
  -9  -1   9    4.50   11.50
   9   1  -9   17.00    3.40
  -9   1   9   13.40    7.90
  -8  -1   9    8.30   10.10
  -8  -1   9    9.70    7.30
   8  -1  -9   11.50    4.00
  -8  -1   9   17.00   11.40
  -8   1   9    3.50    6.30
   8   1  -9    6.90    2.80
  -8   1   9   19.70    7.60
  -8   1   9    8.80    9.30
  -7  -1   9  130.99   18.30
  -7  -1   9  172.68   14.60
  -7   1   9  190.68   18.90
  -7   1   9  168.48   17.00
  -7   1   9  192.18   15.50
  -6  -1   9   85.39   15.80
  -6  -1   9  102.39   12.20
  -6   1   9  135.69   12.00
  -6   1   9  123.29   14.00
   6   1  -9  118.29    8.60
  -6   1   9  130.19   15.00
  -6   1   9  120.69   17.40
  -5  -1   9  218.58   21.60
  -5  -1   9  242.68   17.90
  -5  -1   9  206.48   20.50
  -5   1   9  279.37   21.90
  -5   1   9  287.77   23.20
   5   1  -9  287.97   17.80
  -5   1   9  285.27   20.30
  -5   1   9  277.37   25.60
  -4  -1   9   39.90   10.20
   4  -1  -9   43.90    4.60
  -4  -1   9   47.80    8.90
  -4  -1   9   45.80   11.10
  -4   1   9   63.79    8.60
  -4   1   9   41.30    9.50
  -4   1   9   55.69    9.50
   4   1  -9   55.79    4.80
  -4   1   9   45.10   11.00
   3  -1  -9  124.99    8.90
  -3  -1   9  127.99   15.50
  -3  -1   9  120.99   17.30
  -3  -1   9  127.49   12.60
   3   1  -9  154.18    9.80
  -3   1   9  153.58   12.00
  -3   1   9  142.89   14.70
  -3   1   9  112.29   17.10
  -3   1   9  143.39   15.30
  -2  -1   9  123.29   16.10
  -2  -1   9  127.29   11.90
  -2  -1   9  132.39   21.80
   2  -1  -9  122.79    9.00
  -2   1   9  128.59   14.30
  -2   1   9  131.09   15.80
   2   1  -9  135.69    9.40
  -2   1   9  141.29   11.80
  -2   1   9  138.79   14.00
  -1  -1   9   74.29   12.10
   1  -1  -9   66.59    6.10
  -1   1   9   58.19    9.10
  -1   1   9   60.39   12.10
   1   1  -9   83.09    6.00
  -1   1   9   77.59   12.20
   0  -1   9  278.67   20.20
   0  -1   9  276.07   24.40
   0  -1   9  266.47   23.50
   0  -1  -9  285.67   18.00
   0   1   9  357.26   22.30
   0   1   9  329.37   24.10
   0   1  -9  284.97   26.40
   0   1   9  300.37   23.90
   0   1  -9  339.07   20.50
  -1  -1  -9   20.60    9.20
   1  -1   9   -0.70    9.00
   1  -1   9    8.10   10.90
   1  -1   9    7.20    5.50
   1   1   9    9.60    5.30
   1   1   9    5.30    7.40
  -1   1  -9    5.70    3.00
  -1   1  -9    2.30   10.40
   1   1   9    6.50    7.20
   2  -1   9   69.69   11.40
   2  -1   9   70.79   11.60
   2   1   9   79.79   12.00
  -2   1  -9   78.09   20.10
   2   1   9   64.59   11.50
  -2   1  -9   68.99    7.00
   2   1   9   75.89   12.50
   3  -1   9   50.19   14.80
   3  -1   9   97.19   16.60
   3  -1   9   61.99   10.20
  -3  -1  -9   62.99   11.00
  -3   1  -9   74.99    8.60
  -3   1  -9   89.09   13.20
   3   1   9   65.49   12.50
   4  -1   9  141.19   15.30
  -4  -1  -9  127.99   14.40
  -4   1  -9  155.48   17.70
   4   1   9  184.38   16.50
  -4   1  -9  145.29   16.60
   5  -1   9   32.00    8.80
  -5  -1  -9   41.60    9.30
   5   1   9   42.40    7.80
  -5   1  -9   52.69   11.80
  -5   1  -9   55.49   11.40
  -6  -1  -9  547.85   37.80
   6  -1   9  562.04   36.80
  -6  -1  -9  553.14   37.60
  -6   1  -9  622.74   42.80
   6   1   9  699.73   42.70
   6   1   9  573.44   38.60
  -6   1  -9  629.34   42.40
  -7  -1  -9  379.56   28.50
  -7  -1  -9  395.56   27.90
   7  -1   9  383.86   24.70
  -7   1  -9  433.76   32.70
   7   1   9  478.25   33.00
  -7   1  -9  444.86   31.70
   7   1   9  409.16   27.70
   8  -1   9   33.80    5.50
  -8  -1  -9   42.20    9.50
  -8   1  -9   34.00   15.90
  -8   1  -9   45.30    9.70
   8   1   9   40.00    5.50
  -9  -1  -9  243.58   20.40
  -9  -1  -9  255.97   21.30
   9  -1   9  243.08   19.70
  -9   1  -9  263.27   21.50
   9   1   9  263.37   17.90
  -9   1  -9  281.17   23.40
 -10  -1  -9    5.60    8.10
 -10  -1  -9    2.10    8.40
  10  -1   9    0.70    7.00
 -10   1  -9   10.00    7.10
 -10   1  -9   16.10    9.10
  11  -1   9    1.10    5.40
 -11  -1  -9    3.70    7.90
 -11  -1  -9    6.10    9.60
 -11   1  -9    9.40    5.30
  11   1   9    5.20    2.90
 -11   1  -9    2.70    7.80
  12  -1   9   48.40    7.10
 -12  -1  -9   39.40   12.30
 -12   1  -9   42.50    9.20
 -12   1  -9   47.70    7.10
 -12  -2   9   13.10    5.50
 -12   2   9    7.70    4.30
 -12   2   9   12.80    8.90
 -11  -2   9   15.30    5.10
 -11  -2   9   38.80   10.80
 -11   2   9   45.90    7.70
 -11   2   9   37.30   10.30
 -10  -2   9   45.00    7.20
 -10  -2   9   55.19   11.40
 -10   2   9   82.89   13.40
 -10   2   9   61.29    9.80
 -10   2   9   87.59   13.60
  -9  -2   9  168.08   19.80
  -9  -2   9  150.38   13.90
  -9   2   9  201.78   19.50
  -9   2   9  231.78   18.50
  -9   2   9  242.48   17.90
   8  -2  -9  103.59   10.80
  -8  -2   9   92.39   12.00
  -8  -2   9   78.19   16.70
  -8  -2   9  120.09   13.20
  -8   2   9  114.59   13.10
  -8   2   9  125.99   12.40
  -8   2   9  116.99   15.50
   8   2  -9  121.79   10.00
   7  -2  -9  274.87   18.00
  -7  -2   9  239.48   20.40
  -7  -2   9  235.98   22.80
  -7  -2   9  266.37   20.00
  -7   2   9  362.56   23.40
   7   2  -9  285.27   20.80
  -7   2   9  327.87   26.00
  -7   2   9  339.37   24.40
  -6  -2   9   30.80    7.70
  -6  -2   9   19.40    8.20
  -6  -2   9   22.70   10.00
   6  -2  -9   33.60    5.60
  -6   2   9   51.99   11.40
  -6   2   9   28.90    8.30
   6   2  -9   39.10    5.70
  -6   2   9   37.60    7.00
  -5  -2   9  181.18   20.70
  -5  -2   9  184.38   16.20
  -5  -2   9  199.18   17.30
  -5   2   9  243.18   22.00
  -5   2   9  254.67   18.30
  -5   2   9  253.17   20.30
  -4  -2   9  175.98   15.40
  -4  -2   9  133.39   19.00
   4  -2  -9  176.48   12.70
  -4  -2   9  167.08   18.90
  -4   2   9  227.98   17.00
  -4   2   9  241.48   20.70
  -4   2   9  169.88   25.20
   4   2  -9  242.08   15.30
  -3  -2   9  186.78   15.80
   3  -2  -9  158.88   12.90
  -3  -2   9  179.08   16.10
   3   2  -9  233.08   15.00
  -3   2   9  213.28   20.00
  -3   2   9  232.48   16.60
  -3   2   9  197.38   20.90
  -3   2   9  220.88   18.90
  -2  -2   9  483.45   35.80
  -2  -2   9  501.85   33.00
  -2  -2   9  472.75   32.60
   2  -2  -9  474.55   30.60
  -2   2   9  639.44   41.50
  -2   2   9  632.74   41.70
  -2   2   9  643.84   42.90
  -2   2   9  638.24   40.00
   2   2  -9  602.24   38.60
  -1  -2   9  533.15   36.20
  -1  -2   9  579.64   36.90
   1  -2  -9  543.15   34.90
  -1  -2   9  562.44   39.80
  -1   2   9  720.93   47.20
  -1   2   9  743.93   47.40
  -1   2   9  704.03   48.50
  -1   2   9  728.33   45.90
   1   2  -9  759.02   44.70
   0  -2  -9  102.29   10.20
   0  -2   9  122.19   21.20
   0  -2   9   84.49   13.30
   0  -2   9   86.79   12.20
   0   2   9  131.29   14.50
   0   2  -9  124.89    9.70
   0   2   9  121.19   11.60
   0   2   9  111.79   13.80
  -1  -2  -9  388.06   25.90
   1  -2   9  358.86   26.90
   1  -2   9  395.56   33.70
   1  -2   9  402.06   27.20
   1   2   9  523.85   35.20
   1   2   9  517.15   35.70
   1   2   9  522.25   33.80
  -1   2  -9  530.65   32.70
   2  -2   9  233.68   20.30
   2  -2   9  264.57   20.50
   2   2   9  315.57   25.00
  -2   2  -9  333.47   29.30
   2   2   9  319.87   22.70
  -2   2  -9  288.07   21.00
  -3   2  -9   54.79   16.90
   3   2   9   71.99   10.50
  -4  -2  -9  207.88   18.80
   4  -2   9  210.28   17.70
  -4   2  -9  237.78   23.30
   4   2   9  257.47   20.80
  -4   2  -9  279.27   27.40
   5  -2   9  787.22   50.09
  -5  -2  -9  778.22   50.79
  -5   2  -9  878.91   59.39
   5   2   9 1047.00   62.19
  -5   2  -9 1008.00   62.79
  -5   2  -9  979.30   64.49
  -6  -2  -9  430.36   30.70
  -6  -2  -9  408.16   30.90
   6  -2   9  417.86   29.00
   6   2   9  430.46   30.90
   6   2   9  542.05   34.80
  -6   2  -9  550.24   35.90
  -6   2  -9  504.75   38.20
   7  -2   9  105.79   12.80
  -7  -2  -9   96.59   14.70
  -7  -2  -9   91.29   15.70
   7   2   9   73.89    8.40
  -7   2  -9  102.89   14.80
  -8  -2  -9   98.09   15.90
   8  -2   9  105.99   12.80
  -8   2  -9  131.69   19.50
   8   2   9  111.79   10.10
   8   2   9  138.19   19.00
  -8   2  -9  130.49   14.40
  -9  -2  -9   18.20   10.30
   9  -2   9   20.10    8.80
  -9   2  -9   13.70   11.60
   9   2   9   20.80    3.80
  -9   2  -9   20.20    7.60
   9   2   9   27.20    9.20
 -10  -2  -9   13.30   16.80
 -10   2  -9   28.70    6.50
 -10   2  -9   24.40   10.40
  11  -2   9   46.70    7.40
 -11   2  -9   36.80    6.50
 -11   3   9   14.60    9.10
 -10  -3   9    7.90    3.40
 -10  -3   9    9.80    7.70
 -10   3   9   22.30    9.60
  -9  -3   9   10.80    4.00
  -9  -3   9    9.70    7.10
  -9   3   9   17.70    8.40
  -9   3   9   24.60    9.90
  -9   3   9   19.50    5.90
  -8  -3   9   -0.70    4.40
  -8  -3   9  -10.30    7.30
  -8   3   9    5.10    5.70
  -8   3   9    9.70    8.70
  -8   3   9   -3.80    5.70
  -7  -3   9    4.10    5.40
  -7  -3   9    6.40    8.60
  -7   3   9   29.50    6.30
  -7   3   9   16.40    6.80
  -7   3   9   27.30   10.60
  -6  -3   9  146.39   18.60
  -6  -3   9  156.78   14.30
  -6   3   9  183.98   17.00
  -6   3   9  174.78   15.00
  -6   3   9  197.58   19.30
   5  -3  -9   19.30    8.20
  -5  -3   9   18.90    6.70
  -5  -3   9    4.10   10.20
   5   3  -9   30.70    6.80
  -5   3   9   17.20    6.30
  -5   3   9   18.70   11.40
  -5   3   9   15.30    8.10
  -4  -3   9  328.97   28.10
   4  -3  -9  309.57   24.30
  -4  -3   9  362.36   24.20
  -4   3   9  459.35   32.40
  -4   3   9  450.75   30.90
  -4   3   9  489.45   35.90
   4   3  -9  483.75   30.40
   3  -3  -9  182.68   19.60
  -3  -3   9  240.68   18.20
   3  -3  -9  210.38   18.70
  -3  -3   9  246.38   23.60
   3   3  -9  299.57   21.10
  -3   3   9  267.77   26.50
  -3   3   9  301.47   21.50
  -3   3   9  314.17   24.10
  -3   3   9  339.97   26.50
   2  -3  -9  123.99   17.10
  -2  -3   9  185.08   15.50
   2  -3  -9  149.29   17.00
  -2  -3   9  170.58   21.60
   2   3  -9  231.78   17.20
  -2   3   9  220.58   20.10
  -2   3   9  230.38   21.40
  -2   3   9  239.48   18.40
  -1  -3   9   16.70    6.60
   1  -3  -9   27.10   10.50
  -1  -3   9   25.30   12.90
   1   3  -9   10.30    6.30
  -1   3   9    7.30    8.60
  -1   3   9    8.30    9.70
   0  -3  -9   74.99   14.60
   0  -3   9   89.59   11.90
   0   3   9   78.19   14.20
   0   3   9   92.79   16.10
   0   3  -9  107.29   12.10
   0   3   9  111.89   11.80
   1  -3   9  511.75   34.90
  -1  -3  -9  524.95   35.20
   1   3   9  634.34   41.80
   1   3   9  671.33   40.60
   1   3   9  574.04   42.20
  -2  -3  -9  975.70   59.49
   2  -3   9  913.61   59.49
   2   3   9 1212.18   74.09
   2   3   9 1229.48   73.09
  -2   3  -9 1108.79   72.79
   3  -3   9  565.54   39.40
  -3  -3  -9  625.04   39.70
  -3  -3  -9  621.04   41.80
   3   3   9  770.92   47.60
  -3   3  -9  687.73   45.80
   4  -3   9 1277.27   79.79
  -4  -3  -9 1207.08   80.19
  -4  -3  -9 1390.16   79.29
   4   3   9 1625.54   91.59
  -4   3  -9 1338.77   88.79
  -5  -3  -9   37.10   11.30
  -5  -3  -9   32.90    9.20
  -5   3  -9   -1.00   13.40
   5   3   9   23.90    8.10
  -6  -3  -9  139.69   16.10
   6  -3   9  110.59   13.40
   7  -3   9   -2.70    5.60
  -7  -3  -9   -0.90    6.40
  -7   3  -9   -7.00    8.70
   7   3   9    5.30    6.50
  -8  -3  -9   84.09   11.40
   8  -3   9  106.59   10.80
   8   3   9  138.19   13.80
  -8   3  -9  105.89   13.30
   9  -3   9   53.99    7.50
  -9   3  -9   50.09    9.30
 -10   3  -9   11.60    6.20
   8  -4  -9   13.80    4.90
  -8  -4   9    7.30    3.30
  -8  -4   9   13.20    6.80
  -8   4   9   14.00    6.00
   8   4  -9   14.30    5.40
  -8   4   9    4.00    4.50
   7  -4  -9   28.10    5.70
  -7  -4   9   16.40    3.90
   7   4  -9   27.60    6.30
  -7   4   9   30.80    5.80
   7   4  -9   31.20    9.50
  -7   4   9   47.80    8.00
  -6  -4   9   55.69    6.90
   6  -4  -9   58.39    8.40
  -6  -4   9   75.69   12.80
   6   4  -9   73.79   12.30
   6   4  -9   62.39   13.00
  -6   4   9   81.79   10.00
  -6   4   9   82.79    9.00
  -5  -4   9    0.60    4.10
   5  -4  -9   -3.70    5.40
  -5  -4   9   -0.80    8.30
  -5   4   9    4.20    6.90
  -5   4   9   12.80    4.80
   5   4  -9    9.90    6.30
  -4  -4   9    0.20    4.60
  -4  -4   9   -2.80    8.90
   4  -4  -9    0.90    5.90
  -4   4   9    9.70    8.30
  -4   4   9    0.50    4.80
   4   4  -9   -0.40    6.80
  -3  -4   9   27.50   11.20
  -3  -4   9   22.40    9.40
   3  -4  -9   28.80    7.00
  -3   4   9   17.50    5.40
   3   4  -9   21.60    6.70
  -3   4   9   37.50    9.90
  -2  -4   9    3.50    7.50
   2  -4  -9    3.70    6.30
  -2  -4   9    9.10   11.30
   2   4  -9   -5.80   11.10
  -2   4   9    8.20    5.80
   1  -4  -9   92.89   11.50
  -1  -4   9   91.59   11.10
  -1  -4   9   85.89   16.40
  -1   4   9  125.09   12.50
   1   4  -9  126.49   13.90
  -1   4   9  128.49   17.60
   0  -4   9  380.66   28.70
   0  -4  -9  473.45   29.30
   0   4   9  521.85   35.30
   0   4   9  520.35   34.00
   0   4  -9  530.65   34.30
  -1  -4  -9  228.88   18.50
   1  -4   9  305.27   23.60
   1   4   9  313.67   22.20
  -1   4  -9  226.58   22.80
  -1   4  -9  288.87   20.40
   1   4   9  286.67   21.00
   2  -4   9  205.48   17.60
  -2  -4  -9  200.88   16.00
  -2   4  -9  256.57   20.10
   2   4   9  266.57   19.50
  -2   4  -9  191.48   20.70
   3  -4   9  100.99   11.20
  -3  -4  -9  112.19   11.30
  -3   4  -9  123.99   16.30
   3   4   9  161.08   15.00
  -4  -4  -9   29.50    6.10
   4   4   9   60.69   10.40
   5  -4   9  102.19   11.30
  -5  -4  -9  140.09   11.30
   5   4   9  167.68   14.60
   6  -4   9  166.88   13.90
  -6  -4  -9  188.88   14.30
  -7  -4  -9   56.79    8.30
   7  -4   9   66.99   10.80
   7   4   9  100.59   11.20
   1  -5  -9   27.50    5.70
   1   5  -9   22.50    8.40
  -1   5   9  -10.30    9.10
   0  -5  -9    7.70    4.80
   0   5  -9   -4.90    7.90
 -10   0  10   -7.90    8.60
  -9   0  10   25.00   15.10
  -9   0  10   31.00    7.80
  -9   0  10   29.70    9.50
   8   0 -10  128.99    9.60
  -8   0  10  115.19   19.90
  -8   0  10  120.59   21.40
  -8   0  10  135.19   13.70
  -8   0  10  144.49   15.60
  -7   0  10    4.50   10.80
  -7   0  10    1.00   10.80
  -7   0  10   -1.60    5.80
   7   0 -10    2.30    2.80
  -7   0  10    1.20    8.30
   6   0 -10   22.20    3.50
  -6   0  10   18.60   10.00
  -6   0  10   24.50    9.90
  -6   0  10   29.70    7.00
  -5   0  10  443.36   29.20
   5   0 -10  420.46   26.60
  -5   0  10  442.86   30.50
  -4   0  10    5.00    8.40
  -4   0  10    9.30    9.60
   4   0 -10   -1.40    2.30
  -4   0  10    3.80    7.80
  -4   0  10   -5.50    4.80
   3   0 -10  151.58   10.50
  -3   0  10  153.18   13.40
  -3   0  10  159.28   15.60
  -3   0  10  152.78   17.30
  -2   0  10   79.09   12.70
  -2   0  10   86.69   10.50
  -2   0  10   79.59   12.90
   2   0 -10   90.49    6.90
  -1   0  10  436.46   30.50
  -1   0  10  440.96   28.90
  -1   0  10  419.86   30.60
   1   0 -10  450.15   27.20
   0   0 -10  343.57   21.90
   0   0  10  358.76   25.80
   0   0  10  335.67   23.80
   0   0  10  339.17   25.20
  -1   0 -10   34.30    5.40
   1   0  10   40.30    9.60
   1   0  10   23.60    6.80
   2   0  10   -0.20    8.50
  -2   0 -10    1.60    8.30
  -2   0 -10    3.60    4.20
   2   0  10    5.20   11.70
   3   0  10   63.89   11.90
  -3   0 -10   56.59   10.90
  -4   0 -10   61.69   13.60
   4   0  10   95.29   13.20
   4   0  10   97.79   14.40
  -5   0 -10  609.04   41.00
   5   0  10  601.34   42.60
  -6   0 -10  180.78   18.20
  -6   0 -10  167.88   16.60
  -7   0 -10  128.19   15.90
  -7   0 -10  108.79   13.60
  -8   0 -10   64.59   12.10
  -8   0 -10   58.39   11.70
  -9   0 -10   68.59   12.00
  -9   0 -10   73.39   10.80
 -10   0 -10  237.48   18.70
 -10   0 -10  250.97   20.80
  10   0  10  250.97   18.60
 -11   0 -10    5.40    5.10
  11   0  10    9.10    4.70
 -12   1  10   32.70    8.70
 -11   1  10   42.80   13.90
 -11   1  10   43.80    7.30
 -10  -1  10   23.80   12.60
 -10   1  10   28.20    8.70
 -10   1  10   29.70    7.40
 -10   1  10   39.80   10.60
  -9  -1  10  190.18   22.40
  -9  -1  10  205.78   17.40
  -9   1  10  247.28   19.60
  -9   1  10  265.17   22.30
  -9   1  10  256.97   19.90
  -8  -1  10   54.39   12.40
   8  -1 -10   40.80    6.10
  -8   1  10   30.70   13.90
  -8   1  10   26.40    8.60
   8   1 -10   40.70    5.50
  -8   1  10   54.19    9.10
  -7  -1  10   76.09   12.10
   7  -1 -10   84.19    8.00
  -7  -1  10   55.69   11.90
  -7   1  10   75.79   11.10
  -7   1  10   60.79   15.70
  -7   1  10   74.99   12.20
   7   1 -10   88.19    6.90
  -7   1  10   88.39   14.70
  -6  -1  10  134.79   17.90
  -6  -1  10  129.39   13.80
  -6   1  10  174.48   15.90
  -6   1  10  194.18   18.70
  -6   1  10  151.88   14.20
   6   1 -10  170.48   11.50
  -5  -1  10    3.70    8.40
  -5  -1  10   -9.00    9.80
  -5  -1  10    4.70    6.20
  -5   1  10    6.60    8.60
   5   1 -10    4.50    2.80
  -5   1  10    5.20   11.30
  -5   1  10    4.80    8.00
  -5   1  10    9.20    5.30
  -4  -1  10  230.68   22.50
  -4  -1  10  263.87   19.30
  -4   1  10  280.87   24.10
  -4   1  10  326.57   23.10
  -4   1  10  297.37   23.90
  -4   1  10  302.17   21.10
   4   1 -10  293.17   18.90
  -3  -1  10  369.86   25.30
  -3  -1  10  374.46   28.50
  -3  -1  10  347.47   30.40
  -3  -1  10  338.37   27.60
   3  -1 -10  369.56   22.90
  -3   1  10  455.15   32.50
  -3   1  10  449.66   30.00
  -3   1  10  427.16   31.90
   3   1 -10  487.75   28.20
  -3   1  10  449.66   31.20
  -2  -1  10  428.86   31.30
   2  -1 -10  435.26   27.20
  -2  -1  10  437.76   29.30
  -2  -1  10  439.26   31.60
  -2   1  10  518.25   33.30
   2   1 -10  507.05   31.60
  -2   1  10  527.35   34.60
  -2   1  10  508.35   35.00
  -2   1  10  511.05   35.80
  -1  -1  10  523.85   36.20
  -1  -1  10  536.05   36.80
  -1  -1  10  518.95   34.40
   1  -1 -10  516.95   32.50
  -1   1  10  645.54   40.20
  -1   1  10  630.54   42.00
  -1   1  10  640.74   41.40
   1   1 -10  618.34   38.70
   0  -1  10  408.56   29.20
   0  -1  10  462.15   31.40
   0  -1  10  443.76   32.40
   0   1  10  528.35   35.30
   0   1  10  503.35   33.70
   0   1 -10  487.05   37.80
   0   1  10  548.15   35.10
   0   1 -10  535.75   32.30
   1  -1  10  194.38   18.60
   1  -1  10  211.28   21.60
   1  -1  10  159.88   15.50
   1   1  10  228.38   19.20
  -1   1 -10  203.88   21.10
   1   1  10  209.48   18.30
  -1   1 -10  216.18   15.00
   1   1  10  224.18   17.30
   2  -1  10   92.79   18.10
  -2  -1 -10  105.79   11.10
   2  -1  10  105.29   13.80
   2  -1  10  105.09   13.80
  -2   1 -10  111.29   10.40
   2   1  10  118.79   14.80
  -2   1 -10  130.99   17.30
   2   1  10  107.79   14.50
   3  -1  10   95.99   15.80
   3  -1  10   96.59   14.10
  -3  -1 -10   97.29   12.90
  -3   1 -10   95.39   15.00
  -4  -1 -10  102.29   14.30
   4  -1  10  116.89   15.40
  -4   1 -10  117.09   17.60
  -4   1 -10  140.49   17.20
   4   1  10  138.89   15.50
  -5  -1 -10  267.57   21.40
   5  -1  10  262.37   21.20
  -5   1 -10  304.07   24.30
   5   1  10  329.67   24.70
  -5   1 -10  295.87   25.20
   6  -1  10  269.97   21.50
  -6  -1 -10  292.07   21.80
  -6  -1 -10  264.77   22.20
   6   1  10  357.46   25.90
  -6   1 -10  302.17   26.80
  -6   1 -10  301.57   24.70
   7  -1  10  255.67   21.00
  -7  -1 -10  274.07   21.40
  -7   1 -10  263.97   23.10
   7   1  10  334.67   26.00
  -8  -1 -10   29.70    9.20
  -8  -1 -10   50.79   10.00
   8  -1  10   52.19    9.20
   8   1  10   50.79    7.80
  -8   1 -10   39.90    9.30
  -8   1 -10   23.40   10.10
   9  -1  10   -3.30    7.30
  -9  -1 -10    9.80    7.30
  -9  -1 -10    7.00    8.40
  -9   1 -10   16.20    8.90
  -9   1 -10   20.80   12.30
  10  -1  10   -2.60    4.60
 -10  -1 -10   -0.90    8.70
 -10  -1 -10   -3.50    7.00
 -10   1 -10    0.60    8.00
 -10   1 -10   -0.70    4.90
  11  -1  10   49.30    7.50
 -11  -1 -10   47.90    9.20
 -11   1 -10   30.80    8.60
  11   1  10   26.90    6.00
 -11   1 -10   23.60    5.20
 -11  -2  10    5.50   15.50
 -11   2  10    4.20    4.10
 -11   2  10   -0.40    9.50
 -10  -2  10    3.30    5.30
 -10  -2  10   16.10    8.50
 -10   2  10   31.00    8.90
 -10   2  10    5.80    9.10
 -10   2  10   26.00    5.80
  -9  -2  10   14.90    8.70
  -9  -2  10   20.70    6.60
  -9   2  10   21.50    6.30
  -9   2  10   28.60    9.20
  -9   2  10   11.30    8.00
  -8  -2  10   63.89   11.60
  -8  -2  10   67.99   12.10
  -8  -2  10   45.30    8.00
  -8   2  10   91.99   13.80
  -8   2  10  101.99   12.50
  -8   2  10  104.69   10.80
   7  -2 -10  179.48   15.00
  -7  -2  10  198.98   16.10
  -7  -2  10  167.28   16.30
  -7  -2  10  179.28   18.90
   7   2 -10  211.68   16.30
  -7   2  10  252.67   21.30
  -7   2  10  252.77   18.10
  -7   2  10  248.08   19.50
   6  -2 -10  120.29   11.50
  -6  -2  10  117.59   17.30
  -6  -2  10  121.99   13.60
  -6  -2  10  127.99   13.70
  -6   2  10  149.99   13.30
  -6   2  10  156.08   18.10
  -6   2  10  149.59   14.70
   6   2 -10  129.59   11.00
  -5  -2  10    4.80    6.70
   5  -2 -10   -1.00    5.00
  -5  -2  10    4.30    8.70
  -5  -2  10    2.00    6.90
   5   2 -10    5.90    4.10
  -5   2  10   -6.60    6.80
  -5   2  10   16.40   13.30
  -5   2  10    5.90    9.50
  -5   2  10    1.40    5.90
  -4  -2  10    2.30    9.00
   4  -2 -10    5.60    5.00
  -4  -2  10   -4.00    7.20
  -4  -2  10    4.20    7.00
  -4   2  10    8.70    5.60
   4   2 -10    7.90    4.10
  -4   2  10   -5.70   10.00
  -4   2  10    5.80    7.10
  -4   2  10    1.50    9.00
  -3  -2  10  354.86   25.20
  -3  -2  10  343.77   25.80
  -3  -2  10  355.36   28.90
  -3   2  10  460.65   29.30
  -3   2  10  427.66   30.80
  -3   2  10  437.66   32.70
  -3   2  10  443.26   32.40
  -2  -2  10  549.54   37.80
   2  -2 -10  572.14   36.40
  -2  -2  10  608.04   38.40
  -2  -2  10  562.24   40.90
  -2   2  10  719.03   48.70
  -2   2  10  759.82   47.50
   2   2 -10  794.62   46.80
  -2   2  10  762.32   49.50
  -2   2  10  739.53   50.39
  -1  -2  10  189.28   16.90
  -1  -2  10  156.68   18.90
   1  -2 -10  192.58   15.10
  -1  -2  10  194.98   22.40
   1   2 -10  278.37   18.10
  -1   2  10  255.57   21.90
  -1   2  10  254.27   20.90
  -1   2  10  267.37   19.30
   0  -2  10  369.96   27.10
   0  -2  10  396.06   27.30
   0  -2  10  387.36   31.20
   0   2  10  482.25   31.90
   0   2 -10  489.45   30.70
   0   2  10  461.85   33.20
   0   2  10  497.15   33.70
  -1  -2 -10  489.15   33.80
   1  -2  10  448.66   30.50
   1  -2  10  401.26   30.30
   1  -2  10  427.36   35.10
   1   2  10  550.84   37.40
  -1   2 -10  550.24   35.30
   1   2  10  585.44   36.40
   1   2  10  541.35   37.60
   2  -2  10  518.25   33.50
   2  -2  10  463.75   40.20
   2   2  10  650.93   42.30
   2   2  10  605.14   42.80
  -2   2 -10  718.23   47.00
  -3  -2 -10  121.49   15.10
   3  -2  10  143.19   14.50
   3   2  10  176.58   17.40
  -3   2 -10  172.58   21.70
  -4  -2 -10   34.30   10.50
   4   2  10   32.70    9.00
  -4   2 -10   37.30   17.20
  -4   2 -10   33.40   12.00
   5  -2  10  108.49   12.50
  -5  -2 -10  107.09   15.00
  -5   2 -10  131.39   17.30
   5   2  10  148.19   16.20
  -5   2 -10   96.39   22.50
  -5   2 -10  115.39   11.70
  -6  -2 -10  288.37   22.50
  -6  -2 -10  273.47   22.50
   6  -2  10  261.67   20.70
  -6   2 -10  389.76   31.20
  -6   2 -10  313.57   27.30
   6   2  10  365.16   27.20
   7  -2  10    2.30    6.20
  -7  -2 -10    6.40    9.00
  -7  -2 -10   -7.00   12.60
  -7   2 -10    0.70    8.10
  -7   2 -10   -9.50   12.80
   7   2  10    6.30    9.30
   8  -2  10   90.79   14.70
  -8  -2 -10   83.89   15.00
   8   2  10   77.69   13.90
  -8   2 -10   55.99   14.30
  -8   2 -10   66.39   10.80
  -9  -2 -10    2.20   11.80
   9  -2  10   23.80    5.80
  -9   2 -10   17.30    6.30
   9   2  10   19.90    9.30
  -9   2 -10   11.10   10.80
  10  -2  10    9.10    4.50
 -10   2 -10    7.80    8.70
 -10  -3  10   16.00    7.70
 -10  -3  10    6.30    3.70
 -10   3  10    7.40    3.80
 -10   3  10   28.60    8.90
  -9  -3  10   16.50    4.00
  -9  -3  10   21.20    7.30
  -9   3  10   58.69   13.60
  -9   3  10   30.70    6.70
  -9   3  10   36.70    6.80
  -8  -3  10   14.30    4.70
  -8  -3  10    4.40    7.80
  -8   3  10   28.70    9.40
  -8   3  10   23.30    5.60
  -8   3  10   13.10    5.50
  -7  -3  10   14.20    7.50
  -7  -3  10   16.60    5.00
  -7   3  10   21.10    6.00
  -7   3  10   16.10    6.00
  -6  -3  10   59.79   13.50
  -6  -3  10   81.69   10.10
  -6   3  10   99.59   15.70
  -6   3  10  114.79   12.60
  -6   3  10  106.09   11.20
  -5  -3  10   33.60    7.00
  -5  -3  10   35.20   10.70
  -5   3  10   70.69   12.30
  -5   3  10   60.49   12.50
  -4  -3  10   42.30   11.50
  -4  -3  10   55.39    9.60
  -4   3  10   43.60   11.60
  -4   3  10   71.09    8.90
  -4   3  10   58.29   10.00
  -3  -3  10   85.79   11.20
  -3  -3  10   95.89   18.50
   3  -3 -10   51.19   12.20
  -3   3  10  122.89   14.40
   3   3 -10   90.49   12.40
  -3   3  10  110.39   11.30
  -3   3  10  128.39   19.40
  -2  -3  10   17.70    6.80
  -2  -3  10   23.80   11.50
   2   3 -10   15.20    7.70
  -2   3  10   22.90    8.90
  -2   3  10    8.00    9.50
  -2   3  10   19.20   10.20
  -1  -3  10   36.70   12.60
  -1  -3  10   31.10    7.20
  -1   3  10   67.89   13.30
   1   3 -10   39.70    9.30
  -1   3  10   43.10    9.90
   0  -3  10  111.79   12.80
   0  -3  10  123.49   22.80
   0   3  10  161.28   16.60
   0   3  10  158.98   17.70
   1  -3  10  256.37   20.00
   1   3  10  352.56   27.70
   1   3  10  330.47   25.70
   2  -3  10  211.58   18.00
  -2  -3 -10  248.18   21.10
   2   3  10  311.27   24.20
  -2   3 -10  308.07   22.70
   2   3  10  314.27   23.90
  -3  -3 -10  562.74   39.70
   3  -3  10  617.44   38.90
  -3   3 -10  722.93   46.60
   3   3  10  769.52   48.40
   4  -3  10  548.65   37.30
  -4  -3 -10  585.94   38.80
   4   3  10  708.93   44.20
  -4   3 -10  641.94   41.50
   5  -3  10  179.08   15.50
  -5  -3 -10  172.38   19.70
  -5   3 -10  228.48   27.40
   6  -3  10    6.20    4.90
  -6   3 -10   14.90   10.00
   6   3  10    8.60    6.30
   7  -3  10   -0.40    4.40
   7   3  10    0.50    5.70
  -7   3 -10  -15.50    7.50
   8  -3  10   39.40    6.30
  -8   3 -10   16.00    6.70
   8   3  10   32.20    6.70
   9  -3  10   87.39    8.30
  -9   3 -10   61.79    9.30
  -7  -4  10   36.10    5.30
  -7  -4  10   33.00    7.40
  -7   4  10   62.29    8.80
  -7   4  10   60.69    9.10
   7   4 -10   54.19    9.90
  -6  -4  10   23.20    8.00
   6   4 -10   29.60    5.80
  -6   4  10   19.10    4.70
   6   4 -10   23.90    8.30
  -5  -4  10   13.80    3.70
  -5  -4  10    6.40    7.60
  -5   4  10   44.00    7.60
  -5   4  10   34.50    7.30
   5   4 -10   35.30    6.50
  -4  -4  10   75.29   14.50
  -4  -4  10   80.09    8.30
   4  -4 -10   61.39   11.50
  -4   4  10   89.19    9.50
  -4   4  10   83.09   12.10
   4   4 -10  121.59   12.20
  -3  -4  10   74.19    8.10
  -3  -4  10   48.70   10.60
   3  -4 -10   62.89   10.30
   3   4 -10   81.19   11.40
  -3   4  10   86.29    9.90
  -3   4  10   75.79   13.00
  -2  -4  10   52.39    8.00
   2  -4 -10   53.79    8.40
  -2  -4  10   41.10   11.90
   2   4 -10   43.90    7.70
  -2   4  10   44.70    7.90
   1  -4 -10  515.05   31.90
  -1  -4  10  468.95   31.70
  -1   4  10  584.24   37.90
   1   4 -10  589.14   38.20
  -1   4  10  622.64   40.00
   0  -4 -10  258.67   18.20
   0  -4  10  219.48   17.20
   0   4 -10  310.37   20.60
   0   4  10  312.07   21.50
   0   4 -10  254.37   23.20
   0   4  10  289.67   22.50
  -1  -4 -10  271.27   18.80
   1  -4  10  227.08   17.80
  -1   4 -10  304.17   20.70
  -1   4 -10  256.27   23.40
   1   4  10  360.76   29.50
   1   4  10  324.07   23.00
  -2  -4 -10  296.77   20.80
   2  -4  10  279.57   20.10
   2   4  10  362.36   24.20
  -2   4 -10  329.47   21.40
  -2   4 -10  311.17   25.10
   3  -4  10   31.20    6.10
  -3   4 -10   27.80   10.80
   3   4  10   30.60    6.70
   4  -4  10   40.20    7.40
   4   4  10   34.80    6.80
   5  -4  10   50.79    8.20
   5   4  10   70.29    9.10
   6  -4  10    9.30    5.40
   6   4  10   54.79    8.10
 -10   0  11   66.79   10.50
  -9   0  11    3.10   12.60
  -9   0  11   11.10    6.70
  -9   0  11   -0.90   10.70
  -8   0  11    4.00    6.30
  -8   0  11   12.50   11.60
  -8   0  11   16.80    8.70
  -7   0  11   -1.70    6.10
   7   0 -11    7.20    3.70
  -7   0  11   10.90   10.20
  -7   0  11    6.00    8.20
  -6   0  11  202.48   20.80
  -6   0  11  207.28   17.70
   6   0 -11  208.28   13.60
  -6   0  11  182.68   16.70
  -5   0  11  200.98   20.70
  -5   0  11  240.38   17.90
   5   0 -11  235.68   15.10
  -5   0  11  223.38   18.70
   4   0 -11   49.50    6.70
  -4   0  11   49.70    8.00
  -4   0  11   42.60   10.20
  -4   0  11   48.20    9.40
  -3   0  11 1250.77   81.09
   3   0 -11 1352.86   78.09
  -3   0  11 1345.97   80.69
  -3   0  11 1250.07   79.59
  -2   0  11   47.00   10.00
  -2   0  11   35.40    7.50
   2   0 -11   41.70    5.70
   1   0 -11   81.39    7.50
  -1   0  11   74.79   10.90
  -1   0  11   81.19   13.40
   0   0 -11  749.33   46.00
   0   0  11  750.52   47.60
   1   0  11   36.80    8.30
  -1   0 -11   33.20    5.70
  -2   0 -11   51.39    7.60
  -2   0 -11   58.49   11.10
   2   0  11   43.30    9.80
   2   0  11   61.39   12.80
  -3   0 -11  186.18   18.20
   3   0  11  190.98   18.90
   4   0  11  113.39   16.70
  -4   0 -11   85.89   14.30
   4   0  11   83.89   15.70
   5   0  11  218.68   22.20
  -5   0 -11  225.68   19.20
  -5   0 -11  190.78   19.80
   5   0  11  179.58   19.10
   6   0  11  550.54   38.60
  -6   0 -11  599.34   39.00
  -6   0 -11  586.04   44.30
   7   0  11  150.08   16.50
  -7   0 -11  177.78   17.60
  -7   0 -11  180.18   15.90
  -8   0 -11  161.48   15.10
   8   0  11  142.59   20.20
  -8   0 -11  169.58   16.70
   9   0  11   26.20    7.00
  -9   0 -11   29.20    7.10
  -9   0 -11   14.30    7.90
 -10   0 -11   61.19   10.30
 -10   0 -11   52.19    8.50
 -11   0 -11    9.80    7.10
 -11   0 -11    6.10    5.60
  11   0  11   -1.10    4.20
 -11   1  11   87.59   15.40
 -11   1  11   70.09    8.90
 -10  -1  11   36.70   11.30
 -10   1  11   50.79   10.20
 -10   1  11   52.69   13.10
 -10   1  11   51.79    8.90
  -9  -1  11   21.80    8.00
  -9  -1  11   15.80    9.60
  -9   1  11   11.30    6.60
  -9   1  11    1.90    8.60
  -9   1  11   22.70   10.20
  -8  -1  11   45.80   10.90
  -8  -1  11   44.30    8.20
  -8   1  11   63.59   10.50
  -8   1  11   63.49    9.70
  -8   1  11   75.09   12.80
  -7  -1  11    1.00    7.50
  -7  -1  11   -8.70    8.90
   7  -1 -11   17.00    5.40
  -7   1  11    4.90    6.80
  -7   1  11    1.40    6.30
  -7   1  11   16.80   12.60
  -7   1  11   14.90   12.80
   7   1 -11   11.60    3.90
  -6  -1  11    3.30    6.30
   6  -1 -11   10.00    4.80
  -6  -1  11    8.30    8.90
  -6   1  11   17.60   11.60
  -6   1  11    8.50    6.20
  -6   1  11    3.20    9.20
   6   1 -11   10.80    3.60
  -6   1  11    6.00    7.30
  -5  -1  11   11.30    9.60
  -5  -1  11   28.00    7.30
  -5   1  11   24.60   10.40
   5   1 -11   21.30    4.10
  -5   1  11   22.00    7.50
  -5   1  11   29.40   10.30
  -5   1  11   27.10    6.80
  -4  -1  11  339.67   23.30
  -4  -1  11  292.97   25.60
  -4   1  11  430.96   29.10
   4   1 -11  403.46   25.50
  -4   1  11  409.46   30.30
  -4   1  11  410.96   27.80
  -4   1  11  383.66   30.40
  -3  -1  11  260.97   19.50
  -3  -1  11  242.28   22.60
  -3   1  11  297.67   22.60
  -3   1  11  300.77   23.60
  -3   1  11  289.27   20.90
  -2  -1  11 1084.69   70.39
  -2  -1  11 1162.58   70.09
  -2  -1  11 1133.39   71.59
  -2   1  11 1323.27   83.89
  -2   1  11 1336.67   83.39
  -2   1  11 1352.36   82.39
   2   1 -11 1391.96   81.19
  -1  -1  11   97.59   12.40
  -1  -1  11   95.19   16.40
  -1  -1  11  103.89   13.60
   1   1 -11  143.29   23.20
   1   1 -11  104.89    9.30
  -1   1  11  110.59   14.30
  -1   1  11  110.29   12.20
   0  -1  11  116.69   14.10
   0  -1  11  119.89   16.00
   0  -1  11  153.48   18.50
   0   1 -11  163.18   12.50
   0   1  11  170.48   21.70
   0   1  11  165.68   16.40
   0   1 -11  163.28   22.90
   0   1  11  165.88   15.20
   1  -1  11  125.49   15.70
   1  -1  11  209.38   22.90
  -1  -1 -11  170.78   14.40
   1  -1  11  156.58   18.70
  -1   1 -11  169.28   21.60
   1   1  11  166.38   16.50
  -1   1 -11  158.38   13.30
   1   1  11  172.38   15.90
   1   1  11  158.18   15.60
   2  -1  11  197.18   18.50
  -2  -1 -11  209.48   18.40
   2  -1  11  195.88   22.10
   2  -1  11  168.58   18.20
  -2   1 -11  236.38   18.30
   2   1  11  237.58   20.30
  -2   1 -11  223.58   23.50
   2   1  11  258.37   20.80
   3  -1  11   69.19   10.40
  -3  -1 -11   73.09   12.30
   3  -1  11   41.50   13.60
  -3   1 -11   38.60   12.30
  -3   1 -11   52.49   12.30
   3   1  11   67.79   12.40
   4  -1  11   12.90    7.70
  -4  -1 -11   13.30    9.30
  -4   1 -11   12.60   11.90
  -4   1 -11    8.30    9.90
   4   1  11   25.00    8.70
   5  -1  11  722.53   47.20
  -5  -1 -11  746.23   48.20
   5   1  11  913.11   55.79
  -5   1 -11  827.62   56.49
  -5   1 -11  840.62   55.39
   6  -1  11  306.37   23.10
  -6  -1 -11  302.77   23.80
  -6  -1 -11  320.67   23.10
  -6   1 -11  364.06   27.90
   6   1  11  352.06   27.50
  -6   1 -11  327.37   26.10
  -7  -1 -11   -5.50    7.60
   7  -1  11   -3.40    6.80
  -7  -1 -11    8.40    8.40
  -7   1 -11   -0.50    7.80
  -7   1 -11    4.60    9.60
   7   1  11    4.10   14.90
  -8  -1 -11  138.89   13.50
   8  -1  11  135.19   16.70
  -8  -1 -11  114.09   13.80
  -8   1 -11  102.79   17.70
   8   1  11  123.19   15.10
  -8   1 -11  103.49   14.70
  -9  -1 -11   17.80    7.00
   9  -1  11    6.90    4.80
  -9  -1 -11   19.60    8.50
  -9   1 -11    5.50    8.30
   9   1  11    9.20    7.90
  -9   1 -11    8.20    5.80
 -10  -1 -11    6.60    6.70
  10  -1  11    1.10    3.80
 -10  -1 -11   -9.30    7.90
  10   1  11   -2.10    6.90
 -10   1 -11   -4.00    4.50
 -10   1 -11   23.50    9.60
 -11  -2  11   -0.60   10.90
 -11   2  11    8.50    4.20
 -11   2  11   19.20    9.90
 -10  -2  11    1.20    8.10
 -10   2  11   23.70    8.30
 -10   2  11   15.80   10.50
  -9  -2  11   34.30    8.90
  -9   2  11   53.19    8.00
  -9   2  11   44.50   10.30
  -9   2  11   46.30    7.40
  -8  -2  11   20.10    6.40
  -8  -2  11   22.30    8.20
  -8  -2  11   22.60    7.10
  -8   2  11   49.80    7.60
  -8   2  11   46.10   10.40
  -8   2  11   54.89   10.00
  -7  -2  11    6.80    7.30
  -7  -2  11    5.10    6.30
  -7  -2  11   20.00    9.00
  -7   2  11    6.90    6.30
  -7   2  11    1.80    5.50
  -7   2  11   11.80    8.70
  -6  -2  11    3.10    6.60
  -6  -2  11   -4.70    6.70
  -6  -2  11  -13.10    7.80
   6  -2 -11    3.80   10.20
  -6   2  11    3.90    8.60
  -6   2  11    4.80    6.80
  -6   2  11   -1.00    5.30
  -5  -2  11   12.20    8.90
  -5  -2  11   19.30    7.50
   5  -2 -11   16.20    6.50
   5   2 -11   12.90    5.10
  -5   2  11   24.30    8.10
  -5   2  11   14.50   12.50
  -5   2  11    2.50    7.10
   4  -2 -11  100.89   11.00
  -4  -2  11   79.99   12.60
  -4  -2  11   94.89   16.70
  -4  -2  11   86.89   13.50
  -4   2  11   98.09   17.80
  -4   2  11  120.19   16.50
  -4   2  11  123.89   13.50
  -4   2  11  135.09   13.10
   4   2 -11  123.19   10.50
   3  -2 -11  383.36   26.00
  -3  -2  11  375.76   27.90
  -3  -2  11  400.26   27.50
  -3  -2  11  384.76   29.90
   3   2 -11  500.75   31.10
  -3   2  11  504.95   33.80
  -3   2  11  447.26   34.80
  -3   2  11  510.65   32.40
  -2  -2  11   38.50    8.50
  -2  -2  11   28.90    8.30
   2  -2 -11   33.90    7.90
  -2  -2  11   40.90   11.10
  -2   2  11   51.79    9.50
  -2   2  11   43.70    7.90
   2   2 -11   54.99    7.90
  -2   2  11   28.20    9.10
   1  -2 -11  220.18   18.00
  -1  -2  11  215.98   22.40
  -1  -2  11  198.48   18.70
  -1  -2  11  211.28   18.10
  -1   2  11  266.87   20.20
   1   2 -11  269.07   19.00
  -1   2  11  279.47   21.40
  -1   2  11  259.57   22.00
   0  -2  11  533.25   38.20
   0  -2  11  604.74   38.30
   0  -2  11  596.64   41.80
   0   2  11  765.62   46.10
   0   2  11  722.93   47.40
   0   2  11  723.33   47.50
   0   2 -11  688.23   45.10
   1  -2  11   39.70    9.70
   1  -2  11   52.29   13.70
   1  -2  11   67.99   11.40
  -1   2 -11   44.20    9.20
   1   2  11   48.60    9.60
   1   2  11   41.80    9.00
  -1   2 -11   49.20   18.20
   1   2  11   53.59    9.40
   2  -2  11  496.35   39.10
   2  -2  11  477.65   32.90
   2   2  11  626.04   41.40
  -2   2 -11  617.04   44.40
   3  -2  11  278.57   23.10
  -3  -2 -11  346.87   25.50
   3   2  11  377.56   28.20
  -3   2 -11  384.76   30.20
  -4  -2 -11   20.30   11.60
   4  -2  11   12.90    6.60
  -4   2 -11   43.90   17.90
   4   2  11   31.20    8.80
   5  -2  11   56.99   10.40
   5   2  11   90.09   13.50
  -5   2 -11   66.39    9.10
  -5   2 -11   65.49   17.10
  -5   2 -11   85.49   14.70
  -6  -2 -11   56.69   12.80
  -6  -2 -11   63.59   12.60
   6  -2  11   54.69    8.50
  -6   2 -11  110.69   21.10
  -6   2 -11   84.59   14.30
   6   2  11  101.19   16.80
  -7  -2 -11   25.70    9.80
   7  -2  11   15.40    6.40
  -7  -2 -11   26.80    8.30
   7   2  11   35.80    8.30
  -7   2 -11   20.60    7.70
  -7   2 -11   33.60   14.10
   8  -2  11   26.40    5.80
  -8   2 -11   50.99    9.50
  -8   2 -11   72.69   19.50
   8   2  11   41.40    9.10
   9  -2  11   47.60    7.20
  -9  -2 -11   55.89   12.20
  -9   2 -11   64.79   13.20
  -9   2 -11   49.80    8.60
  -9  -3  11    8.00    6.30
  -9  -3  11   21.70    3.70
  -9   3  11   26.10    6.50
  -9   3  11   13.70    3.80
  -9   3  11   22.50    7.70
  -8  -3  11    2.10    3.30
  -8  -3  11    1.50    5.90
  -8   3  11    3.60    5.70
  -8   3  11    8.50    4.70
  -8   3  11   11.90   15.30
  -7  -3  11    4.80    7.10
  -7  -3  11    3.30    3.80
  -7   3  11   31.70    9.80
  -7   3  11   16.90    5.50
  -7   3  11   23.20    5.80
  -6  -3  11    8.30    5.30
  -6  -3  11   -1.10    7.40
  -6   3  11   12.70    5.80
  -6   3  11   12.00    5.40
  -6   3  11   15.30    9.40
  -5  -3  11   -0.20    7.30
  -5  -3  11    2.50    6.60
  -5   3  11    6.60    7.50
  -5   3  11    4.50    5.20
  -4  -3  11   39.10    7.10
  -4   3  11   42.90    8.60
  -4   3  11   59.39   21.00
  -4   3  11   43.20    8.10
  -3  -3  11    7.20    5.90
  -3  -3  11   14.20   10.00
  -3   3  11   10.90    5.80
  -3   3  11    8.30    7.30
  -2  -3  11  304.07   21.60
  -2  -3  11  293.17   27.40
  -2   3  11  388.66   28.80
  -2   3  11  382.96   27.50
  -2   3  11  374.56   25.90
  -1  -3  11   15.30    6.50
  -1  -3  11   31.00   12.30
  -1   3  11   18.50    7.30
  -1   3  11   12.10    8.10
  -1   3  11   25.70    9.90
   0  -3  11    6.60    5.90
   0   3  11   15.20    7.90
   0   3  11   11.80    6.60
   1  -3  11   28.70    6.90
   1   3  11   39.10    8.50
   1   3  11   42.10    8.50
  -1   3 -11   24.10    7.80
   2  -3  11   66.39   10.20
  -2  -3 -11   64.49   11.40
   2   3  11   91.49   12.90
  -2   3 -11   83.89   11.40
   3  -3  11   44.10    7.70
  -3  -3 -11   67.69   11.90
  -3   3 -11   58.69    9.30
  -4  -3 -11   18.30    9.10
   4  -3  11   15.00    9.00
  -4   3 -11    9.90    4.20
   4   3  11   10.60    6.20
   5  -3  11  163.88   13.50
  -5  -3 -11  146.19   19.70
   5   3  11  214.38   17.90
   6  -3  11    4.60    4.60
   6   3  11   11.80    6.20
  -6   3 -11    0.30   15.80
   7  -3  11   34.30    5.70
  -7   3 -11   27.30    9.60
   7   3  11   20.40    5.60
   8  -3  11   38.30    6.40
   8   3  11   49.60    7.50
  -8   3 -11   25.50    8.60
  -5  -4  11    7.80    3.50
  -5  -4  11   19.10    8.50
   5   4 -11   12.70    7.30
  -5   4  11    8.90    6.40
   5   4 -11   15.50    4.60
  -4  -4  11    3.10    9.40
  -4  -4  11    1.20    3.40
  -4   4  11    1.90    4.90
   4   4 -11    7.50    4.60
  -4   4  11   -5.10    6.90
  -3  -4  11   51.59   10.60
   3   4 -11   58.19    9.40
  -3   4  11   46.00    8.90
  -2  -4  11   16.40   13.60
   2   4 -11    8.80    5.00
  -2   4  11   -4.40    6.40
  -1  -4  11   42.50    6.70
   1  -4 -11   22.60   12.40
  -1   4  11   83.79   13.40
  -1   4  11   93.09   15.30
   1   4 -11   73.49   11.30
   1   4 -11   58.19    9.30
   0   4 -11  236.78   22.20
   0   4  11  215.08   18.50
   0   4 -11  206.18   15.40
   0   4  11  214.18   17.60
   1  -4  11  108.69    9.60
  -1   4 -11  150.18   10.70
   1   4  11  125.59   13.90
  -1   4 -11  107.19   18.00
   2  -4  11    8.00    4.00
   2   4  11   14.20    6.20
  -2   4 -11   13.30    8.80
   3  -4  11   56.29    7.40
   3   4  11   69.69   10.20
   4  -4  11   -1.80    3.80
   4   4  11   -0.70    5.00
 -10   0  12   37.50    9.50
  -9   0  12    4.80    6.40
  -9   0  12   -0.10   11.70
  -8   0  12    9.80    6.20
  -8   0  12   -3.00    7.80
  -8   0  12    9.90    9.70
  -7   0  12    9.90    6.40
  -7   0  12   -2.20    9.70
  -7   0  12   10.80    8.70
  -6   0  12  216.88   17.70
   6   0 -12  179.08   13.50
  -6   0  12  168.98   19.20
  -6   0  12  189.98   18.00
  -5   0  12 2050.19  124.49
   5   0 -12 2154.58  122.79
  -5   0  12 1983.90  125.89
  -5   0  12 2041.00  124.29
  -4   0  12  645.54   42.30
  -4   0  12  638.54   44.40
  -4   0  12  653.33   42.70
   4   0 -12  684.13   40.40
  -3   0  12  538.15   36.40
  -3   0  12  553.94   37.20
   3   0 -12  581.04   34.60
  -3   0  12  538.45   38.50
  -2   0  12  117.29   15.70
  -2   0  12  105.59   12.80
   2   0 -12  112.99   10.20
  -2   0  12  145.09   14.10
  -1   0  12   23.00    7.70
   1   0 -12   21.60    5.40
  -1   0  12   23.70    8.50
   0   0  12   61.29   10.70
   0   0 -12   71.29    9.50
   0   0  12   70.79   12.10
   0   0 -12   98.59   16.40
  -1   0 -12  606.34   39.60
  -1   0 -12  704.73   43.50
   1   0  12  601.14   41.50
   1   0  12  578.54   40.80
  -2   0 -12  829.02   52.49
   2   0  12  884.61   52.39
   2   0  12  673.53   50.59
  -3   0 -12    5.40   10.40
   3   0  12    8.50    9.30
   4   0  12  458.25   36.50
  -4   0 -12  577.34   38.20
   4   0  12  565.44   37.50
  -5   0 -12   58.89   11.90
  -5   0 -12   35.90    9.70
   5   0  12   43.60   11.80
   5   0  12   49.70   11.00
  -6   0 -12   86.09   12.00
   6   0  12   85.59   13.80
  -6   0 -12   78.19   13.00
   7   0  12   63.59   11.20
  -7   0 -12   64.19   11.70
  -7   0 -12   58.39   10.00
  -8   0 -12    1.20    6.20
  -8   0 -12    0.90    7.90
   8   0  12    0.00    6.60
  -9   0 -12   -0.80    7.70
  -9   0 -12    4.80    5.00
   9   0  12   -2.50    5.30
  10   0  12    8.30    4.60
 -10   0 -12   10.50    6.90
 -10   0 -12   17.10    5.20
 -11   1  12    3.20    5.90
 -10  -1  12   19.80   12.90
 -10  -1  12   12.10   17.60
 -10   1  12   14.60    5.40
 -10   1  12   19.20    8.40
  -9  -1  12   29.10    9.70
  -9  -1  12    3.30    7.20
  -9   1  12   29.90    6.20
  -9   1  12    5.10    6.30
  -8  -1  12  205.98   17.80
  -8  -1  12  255.37   21.00
  -8   1  12  282.07   20.30
  -8   1  12  253.97   19.50
  -8   1  12  260.87   22.50
  -7  -1  12  215.28   21.10
  -7  -1  12  214.28   17.50
  -7   1  12  269.57   20.20
  -7   1  12  279.77   22.60
  -7   1  12  240.88   19.20
  -6  -1  12  103.29   15.90
   6  -1 -12  119.59   11.10
  -6  -1  12  100.69   11.60
  -6   1  12  134.99   13.70
  -6   1  12  118.39   18.90
  -6   1  12  127.09   12.30
   6   1 -12  139.69   11.20
   5  -1 -12   34.40    6.60
  -5  -1  12   50.99   10.50
  -5  -1  12   59.89   14.50
  -5   1  12   59.89   11.20
   5   1 -12   46.20    6.20
  -5   1  12   53.19   11.90
  -4  -1  12  277.17   21.70
  -4  -1  12  255.57   24.00
   4  -1 -12  316.07   19.90
  -4   1  12  339.47   22.80
   4   1 -12  311.77   21.00
  -4   1  12  332.17   24.20
  -4   1  12  300.67   26.10
  -3  -1  12  401.76   28.20
  -3  -1  12  394.06   30.30
  -3   1  12  450.15   32.10
  -3   1  12  468.35   34.10
   3   1 -12  526.95   30.60
  -3   1  12  486.05   32.90
  -2  -1  12   94.29   13.10
  -2  -1  12   87.49   12.10
  -2  -1  12   82.89   14.60
  -2   1  12   97.19   13.10
  -2   1  12  103.59   11.70
  -2   1  12   94.19   14.00
   2   1 -12   90.49    9.50
  -1  -1  12  639.64   42.30
  -1  -1  12  606.64   41.10
  -1  -1  12  601.84   40.30
  -1   1  12  801.12   49.99
  -1   1  12  718.73   49.99
  -1   1  12  776.42   48.90
   1   1 -12  785.42   47.60
   1   1 -12  770.42   53.89
   0  -1 -12  489.45   31.50
   0  -1  12  453.35   32.90
   0  -1  12  449.46   32.20
   0  -1  12  490.25   34.20
   0   1  12  563.34   37.70
   0   1 -12  533.95   35.10
   0   1 -12  566.84   42.10
   0   1  12  556.84   37.10
   0   1  12  536.95   36.40
   1  -1  12   56.69    9.90
   1  -1  12   51.19   11.80
   1  -1  12   29.60    8.80
  -1  -1 -12   39.50   10.60
  -1   1 -12   83.19   16.40
   1   1  12   41.20    9.40
  -1   1 -12   41.80    8.50
   1   1  12   51.29    9.80
  -2  -1 -12   65.89   12.50
   2  -1  12   65.79   13.20
   2  -1  12   70.89   10.90
  -2   1 -12   63.99   16.60
   2   1  12   76.39   13.00
   3  -1  12  192.88   23.30
  -3  -1 -12  211.48   19.70
   3  -1  12  184.88   17.50
  -3   1 -12  241.98   24.70
  -3   1 -12  230.98   21.60
   3   1  12  224.98   20.70
   4  -1  12   39.90    9.00
   4  -1  12   35.20   20.90
   4   1  12   46.20    9.70
  -4   1 -12   44.00   14.10
  -4   1 -12   52.79   10.90
   5  -1  12   71.79   12.20
  -5  -1 -12   77.29   11.80
  -5  -1 -12   89.59   13.80
   5   1  12  121.29   16.10
  -5   1 -12   74.49   14.00
  -5   1 -12   95.19   13.90
  -6  -1 -12    0.90    8.00
   6  -1  12   11.70    6.60
  -6  -1 -12   -0.20    7.50
  -6   1 -12   -8.60    7.00
  -6   1 -12    2.00   10.00
   6   1  12   -2.30   11.00
  -7  -1 -12   12.00    7.80
  -7  -1 -12   15.90    6.40
   7  -1  12   11.60    6.10
   7   1  12   -1.80    9.30
  -7   1 -12   13.50    7.30
  -7   1 -12   11.40   10.60
  -8  -1 -12   51.69    8.80
  -8  -1 -12   66.89   12.30
   8  -1  12   59.09    8.60
  -8   1 -12   57.69    9.40
  -8   1 -12   69.99   12.30
  -9  -1 -12   31.50    7.30
   9  -1  12   29.20    5.50
  -9  -1 -12   18.40    7.70
  -9   1 -12   22.50    9.70
  -9   1 -12   12.10    4.70
 -10  -2  12   89.89   13.20
 -10   2  12   50.69    6.30
  -9  -2  12   36.70    8.40
  -9   2  12   55.69    7.00
  -9   2  12   35.30    6.80
  -8  -2  12   26.40    6.30
  -8  -2  12   14.10    6.90
  -8   2  12   13.60    4.80
  -8   2  12   19.10    9.30
  -8   2  12   18.00    5.70
  -7  -2  12   -7.40    6.30
  -7  -2  12   -7.00    5.80
  -7  -2  12   -2.20    7.00
  -7   2  12   -3.10    5.00
  -7   2  12   -3.60    4.80
  -7   2  12   -0.70    8.70
  -6  -2  12    0.30    5.80
  -6  -2  12   21.20    6.50
  -6   2  12   20.90    6.80
  -6   2  12    5.30    8.80
  -6   2  12   17.60    5.90
  -5  -2  12   -0.30    6.70
  -5  -2  12   -2.30    5.90
  -5  -2  12    8.20    7.90
  -5   2  12   -3.50    5.20
  -5   2  12   -1.60    6.40
  -4  -2  12   69.19   10.10
  -4  -2  12   82.39   15.40
  -4  -2  12   74.09   11.60
  -4   2  12   83.99   10.80
  -4   2  12   79.69   11.10
  -4   2  12   88.19   16.00
   3  -2 -12   -0.60    8.70
  -3  -2  12   11.50    6.80
  -3  -2  12    9.50    7.00
  -3  -2  12   17.30    9.00
  -3   2  12    9.90    5.50
  -3   2  12    7.10    7.20
  -3   2  12   19.30    8.80
   2  -2 -12  155.58   16.50
  -2  -2  12  157.78   14.70
  -2  -2  12  116.99   14.10
  -2  -2  12  173.68   18.60
  -2   2  12  194.68   16.90
  -2   2  12  232.88   18.60
   2   2 -12  226.88   17.00
  -2   2  12  230.38   20.30
  -1  -2  12   42.20   12.70
   1  -2 -12   14.20   10.50
  -1  -2  12   21.80   10.50
  -1  -2  12   16.20    7.60
  -1   2  12   34.80   12.00
  -1   2  12   29.80    8.50
   1   2 -12   25.40    8.30
  -1   2  12   32.70    8.80
   0  -2  12  185.28   15.90
   0  -2  12  193.28   20.60
   0  -2  12  139.39   19.00
   0   2  12  229.28   18.90
   0   2 -12  219.78   18.70
   0   2  12  168.98   18.80
   0   2  12  218.18   18.70
   1  -2  12   40.20    8.00
   1  -2  12   23.50   11.70
   1   2  12   60.69   12.10
  -1   2 -12   65.79   18.70
  -2  -2 -12   47.80   10.90
   2  -2  12   21.00   14.20
   2  -2  12   33.40    7.90
   2   2  12   49.90    9.10
  -2   2 -12   33.20   13.00
  -3  -2 -12  166.58   17.40
   3  -2  12  164.08   14.70
   3   2  12  220.08   19.80
  -3   2 -12  228.98   23.00
   4  -2  12   67.99   10.80
  -4  -2 -12   81.49   13.50
  -4   2 -12   87.89   16.00
   4   2  12   86.89   13.40
  -4   2 -12   78.89    9.70
   5  -2  12   87.29   12.80
  -5  -2 -12  106.89   14.10
  -5  -2 -12   95.89   12.20
   5   2  12  130.29   14.00
  -5   2 -12   90.59   14.10
  -6  -2 -12    8.90    7.10
  -6  -2 -12    6.60    8.00
   6  -2  12    3.20    5.10
  -6   2 -12   24.90   22.10
  -6   2 -12    1.30    7.50
   6   2  12    9.50    6.90
  -7  -2 -12   28.80   10.30
   7  -2  12   45.70    7.40
   7   2  12   58.69   11.50
  -7   2 -12   37.00    7.10
  -7   2 -12   33.70   16.10
   8  -2  12    9.70    4.10
  -8  -2 -12   23.80   10.70
   8   2  12   13.00    9.80
  -8   2 -12    3.20    4.90
  -8   2 -12   31.60   16.10
  -8  -3  12    6.70    3.50
  -8  -3  12   10.90    7.00
  -8   3  12   10.60    4.90
  -8   3  12   11.50    3.80
  -7  -3  12   25.80    7.00
  -7  -3  12   30.20    4.60
  -7   3  12   20.00    4.50
  -6  -3  12   36.50    5.50
  -6  -3  12   36.50    7.90
  -6   3  12   19.60    4.90
  -5  -3  12    8.80    7.00
  -5  -3  12    6.00    4.50
  -5   3  12   18.20    5.60
  -5   3  12    8.80    5.00
   5   3 -12   10.20    8.90
  -4  -3  12   25.40    8.60
  -4  -3  12   24.50    5.50
  -4   3  12   62.79    9.70
  -4   3  12   60.49    9.10
  -3  -3  12  109.89   16.50
  -3  -3  12  118.09   10.90
  -3   3  12  169.78   13.90
  -3   3  12  154.38   14.20
  -3   3  12  149.88   17.60
  -2  -3  12  -11.30    9.90
  -2  -3  12    9.10    5.20
  -2   3  12    0.50    8.20
  -2   3  12    1.00    6.00
  -2   3  12    2.60    6.40
  -1  -3  12   24.90    7.10
  -1  -3  12   18.20   10.10
  -1   3  12   21.00    6.70
  -1   3  12   27.80    7.50
   0  -3  12   -0.10    6.80
   0  -3  12   -7.20   11.30
   0   3  12    5.00    6.60
   0   3  12    6.00    7.70
   1  -3  12    4.80    5.00
  -1  -3 -12   17.60    9.80
   1   3  12   16.00    6.30
   1   3  12   -8.10    9.70
  -1   3 -12   21.90    8.60
  -2  -3 -12   15.50    9.70
  -2   3 -12   12.80    5.20
   2   3  12   11.30    6.20
   3  -3  12  133.79   12.40
  -3  -3 -12  180.38   17.40
   3   3  12  166.48   14.90
  -3   3 -12  144.99   11.80
  -4  -3 -12    5.30    9.90
   4  -3  12   27.10    5.20
   4   3  12   28.60    6.80
  -5  -3 -12   15.60   11.70
   5  -3  12   -0.70    3.40
   5   3  12    4.10    5.40
   6  -3  12   10.40    3.40
   6   3  12   74.89   10.40
  -3  -4  12    5.30    9.40
  -3  -4  12    4.10    2.90
   3   4 -12   -3.60    5.70
   3   4 -12    3.60    3.60
  -3   4  12    0.40    5.10
  -2  -4  12   31.80    5.40
   2   4 -12   27.80    4.50
  -2   4  12   33.30    6.40
   2   4 -12   48.30    7.90
  -1  -4  12   12.40    3.40
   1   4 -12   15.00    7.00
  -1   4  12   26.00    9.90
  -1   4  12    7.00    8.10
   1   4 -12   17.40    3.80
   0  -4  12    0.70    2.80
   0   4 -12    2.50    3.40
   0   4  12   -4.40    7.40
   0   4 -12    2.80    8.60
   1  -4  12   19.40    4.30
   1   4  12   39.70    9.00
  -1   4 -12   15.00   12.70
   2  -4  12   29.10    4.70
   2   4  12   24.00    7.40
 -10   0  13   20.80   12.40
  -9   0  13   27.90    7.50
  -8   0  13  -15.40    9.10
  -8   0  13   27.40    8.40
  -8   0  13    4.60    5.90
  -7   0  13   14.60    7.90
  -7   0  13   17.40    9.00
  -7   0  13   12.30    5.60
  -6   0  13   87.39   12.70
  -6   0  13  102.89   16.80
  -6   0  13   86.09   11.00
  -5   0  13  232.18   18.40
  -5   0  13  238.88   19.50
  -5   0  13  235.88   22.00
  -4   0  13   74.99   14.30
   4   0 -13   74.29    8.80
  -4   0  13   66.69   11.30
  -4   0  13   59.09    9.40
  -3   0  13  388.36   29.40
   3   0 -13  403.46   25.90
  -2   0  13   -4.70    8.60
  -2   0  13    4.60    8.20
   2   0 -13   -3.50    5.70
   1   0 -13  218.28   23.70
  -1   0  13  184.78   18.80
  -1   0  13  185.88   16.90
   1   0 -13  196.48   15.70
   0   0 -13   -3.50   13.60
   0   0 -13    2.30    8.20
   0   0  13   -2.10    7.80
   0   0  13    4.90   10.40
   1   0  13   27.30    9.20
  -1   0 -13   48.90   22.50
  -2   0 -13   14.40   10.70
   2   0  13   -0.30    8.30
  -3   0 -13  327.37   25.50
   3   0  13  285.37   25.00
  -4   0 -13  209.08   18.60
   4   0  13  199.78   20.60
  -4   0 -13  193.98   18.70
   5   0  13    7.20    9.40
  -5   0 -13    1.70    8.60
   5   0  13    1.00    9.70
  -5   0 -13   16.50    8.10
  -6   0 -13    5.60    6.40
   6   0  13   14.00    8.10
  -6   0 -13   -2.30    8.80
  -7   0 -13   71.19    9.90
   7   0  13   76.59   11.90
  -7   0 -13   68.99   11.70
   8   0  13   54.99    8.20
  -8   0 -13   51.39    7.60
  -9   0 -13   25.90    5.20
   9   0  13   26.90    6.20
  -9   0 -13   46.40    8.50
 -10   1  13   16.70    5.90
  -9  -1  13   17.50    6.90
  -9  -1  13    7.30    8.10
  -9   1  13   27.10    6.30
  -9   1  13   40.30    7.70
  -8  -1  13   36.80    8.30
  -8  -1  13   56.49    9.30
  -8   1  13   63.29    9.60
  -8   1  13   68.69    8.90
  -7  -1  13   91.79   13.90
  -7  -1  13   80.29   10.70
  -7   1  13   81.59    9.60
  -7   1  13   91.89   10.20
  -6  -1  13  102.19   11.50
  -6   1  13   79.19   16.00
  -6   1  13  119.09   11.40
  -6   1  13  118.29   11.50
  -5  -1  13  436.26   30.60
  -5  -1  13  390.86   27.80
  -5   1  13  514.45   32.20
  -5   1  13  428.96   34.10
  -5   1  13  475.75   31.20
  -4  -1  13  147.09   17.60
  -4  -1  13  160.68   14.80
  -4   1  13  190.88   16.50
  -4   1  13  195.28   15.30
  -4   1  13  155.88   19.30
  -3  -1  13  249.97   19.10
  -3  -1  13  228.58   21.00
   3  -1 -13  246.08   19.00
   3   1 -13  278.57   19.00
  -3   1  13  262.97   19.80
  -3   1  13  274.67   20.60
  -3   1  13  244.08   22.40
  -2  -1  13   40.80   10.10
  -2  -1  13   32.20    7.30
   2  -1 -13   33.90    8.60
   2   1 -13   75.69   10.10
  -2   1  13   65.89   13.30
  -2   1  13   57.09    9.40
  -2   1  13   45.30    8.60
  -1  -1  13   82.99   15.00
  -1  -1  13   50.69   12.80
  -1  -1  13   52.69   11.00
  -1   1  13   90.59   14.10
  -1   1  13   80.69   12.00
   1   1 -13   83.29   11.70
   0  -1  13    2.00    7.50
   0  -1  13    2.60    8.70
   0  -1 -13    0.10   10.90
   0  -1  13   14.20    9.50
   0   1 -13   -6.60    8.30
   0   1  13   17.30    7.70
   0   1  13    8.80    7.80
   0   1 -13    2.80   15.80
   1  -1  13  337.07   27.60
   1  -1  13  352.36   27.60
   1  -1  13  408.16   30.50
  -1  -1 -13  455.15   30.10
  -1   1 -13  503.95   35.80
   1   1  13  392.96   30.70
   1   1  13  460.35   32.20
   2  -1  13  186.48   22.40
  -2  -1 -13  204.38   18.50
   2  -1  13  198.78   22.40
   2  -1  13  202.88   18.20
   2   1  13  237.88   20.30
  -2   1 -13  250.17   21.20
  -2   1 -13  223.48   25.50
  -3  -1 -13  247.98   20.90
   3  -1  13  214.38   19.20
   3  -1  13  209.28   24.30
  -3   1 -13  247.78   21.40
   3   1  13  252.27   21.60
  -3   1 -13  260.37   25.20
  -4  -1 -13    8.60    8.30
   4  -1  13   21.00    8.30
  -4   1 -13   22.40    9.10
   4   1  13    9.70   10.00
  -4   1 -13    9.00   11.80
   5  -1  13   12.10    6.00
  -5  -1 -13   26.00    8.50
   5   1  13   20.80    8.00
  -5   1 -13   39.30   11.40
  -5   1 -13   29.20   11.30
  -6  -1 -13  156.48   15.40
   6  -1  13  132.59   13.20
  -6  -1 -13  139.69   13.20
  -6   1 -13  175.68   16.20
  -6   1 -13  211.58   20.30
   6   1  13  197.38   18.40
  -7  -1 -13   92.59   10.60
  -7  -1 -13   98.79   13.40
   7  -1  13   86.59   10.00
  -7   1 -13   94.49   16.70
  -7   1 -13  115.29   11.50
  -8  -1 -13   -1.90    5.50
   8  -1  13   -5.20    4.30
  -8  -1 -13   -9.90    6.90
  -8   1 -13    2.50    9.70
  -8   1 -13   -4.30    4.40
  -9   2  13   91.49   13.20
  -8  -2  13   54.79   10.90
  -8   2  13   62.79    7.40
  -8   2  13   87.59    9.70
  -7  -2  13   11.70    6.70
  -7  -2  13   -0.40    5.50
  -7   2  13    6.50    4.50
  -7   2  13   10.80    4.70
  -6  -2  13   27.20    6.70
  -6  -2  13   32.10    7.10
  -6  -2  13   40.10    7.30
  -6   2  13   50.09    8.50
  -6   2  13   50.09    8.40
  -5  -2  13   -4.00    5.80
  -5  -2  13   -8.50    6.40
  -5  -2  13   -4.80    6.10
  -5   2  13   -2.40    5.10
  -5   2  13    3.60    9.50
  -5   2  13    3.40    5.10
  -4  -2  13   43.40   12.10
  -4  -2  13   55.39    9.90
  -4   2  13   54.89   10.30
  -4   2  13   57.69   11.00
  -4   2  13   55.99    8.10
  -3  -2  13   97.09   12.00
  -3  -2  13   98.69   14.00
  -3   2  13  122.29   13.20
  -3   2  13  113.89   11.90
  -2  -2  13  139.39   14.30
  -2  -2  13  148.59   19.60
  -2  -2  13  130.89   16.00
  -2   2  13  167.18   15.40
  -2   2  13  170.48   15.40
  -2   2  13  211.28   22.30
  -1  -2  13  169.48   15.90
  -1  -2  13  140.69   21.60
  -1  -2  13  169.08   15.00
  -1   2  13  251.57   20.00
  -1   2  13  209.08   17.90
  -1   2  13  205.98   17.40
   0  -2  13   43.90   16.80
   0  -2  13   38.80    7.90
   0   2  13   44.60    8.10
   0   2  13   28.10    8.00
   1  -2  13   14.10    6.60
   1  -2  13   17.20   11.50
  -1  -2 -13   20.90    9.30
   1   2  13   25.70    7.70
   1   2  13   32.60    9.60
  -2  -2 -13   -3.20    8.30
   2  -2  13   14.40   13.10
   2  -2  13   -9.60    9.20
  -2   2 -13   -0.30   10.90
  -3  -2 -13   25.00    9.30
   3  -2  13   18.50    6.00
   3   2  13   12.60    6.50
  -3   2 -13   25.30   10.20
  -4  -2 -13  211.18   18.60
   4  -2  13  200.78   15.90
  -4   2 -13  244.28   20.00
   4   2  13  260.87   19.50
  -4   2 -13  221.78   16.10
   5  -2  13   98.79   10.70
  -5  -2 -13  129.49   12.20
  -5  -2 -13  146.79   14.70
  -5   2 -13  152.68   15.00
   5   2  13  162.78   14.50
  -6  -2 -13   17.80    6.80
  -6  -2 -13   10.20    8.90
   6  -2  13   11.90    4.60
  -6   2 -13    4.50    6.40
   6   2  13   24.50    6.90
   7  -2  13    2.40    3.50
  -7  -2 -13   20.70    8.40
  -7  -2 -13    7.20    8.10
   7   2  13   15.20    7.50
  -7   2 -13   10.10    5.60
  -6  -3  13    1.80    5.90
  -6  -3  13    9.90    3.70
   6   3 -13   11.40    6.80
  -6   3  13    4.30    4.00
  -6   3  13    6.90    4.00
  -5  -3  13   22.40    6.90
  -5  -3  13   11.10    4.00
  -5   3  13   15.60    5.90
   5   3 -13   -0.90   10.20
  -5   3  13   20.80    4.80
  -4  -3  13   36.60    5.50
  -4   3  13   44.80    7.20
  -4   3  13   55.79   10.50
  -3  -3  13   28.20    5.10
  -3  -3  13   31.90    8.60
  -3   3  13   31.00    6.50
   3   3 -13   31.00    6.90
  -3   3  13   51.09   10.00
  -3   3  13   31.90    6.70
  -2  -3  13   17.10    4.30
  -2  -3  13    2.20    7.90
  -2   3  13   43.50    9.30
  -2   3  13   43.60    7.40
   2   3 -13   66.99   10.50
  -1  -3  13   40.20    6.10
  -1  -3  13   28.70   10.10
  -1   3  13   40.50    9.10
  -1   3  13   30.50    7.30
   1   3 -13   31.60    6.60
   0  -3 -13   18.60    8.90
   0  -3  13   11.20    4.60
   0   3  13    6.60    8.90
   0   3  13   12.70    6.50
   0   3 -13   13.50    5.10
   1  -3  13    7.30    4.00
  -1  -3 -13    2.60    8.20
  -1   3 -13    1.70    4.60
   1   3  13   10.00    5.90
  -2  -3 -13   -3.10   13.50
   2   3  13   28.70    6.50
  -2   3 -13    6.90    4.10
  -3  -3 -13   29.50   11.20
  -3  -3 -13   28.40    8.30
   3  -3  13   18.10    4.10
   3   3  13   57.49    9.60
   4  -3  13   37.80    6.10
  -4  -3 -13   14.80   10.60
   4   3  13   50.59    9.30
   5  -3  13    5.60    3.10
   5   3  13   15.20    6.50
  -9   0  14    1.60    6.20
  -8   0  14   -0.10   10.20
  -8   0  14    0.50    6.20
  -7   0  14    1.10    7.00
  -7   0  14    1.30    5.00
  -6   0  14   48.30    9.50
  -6   0  14   70.29   10.20
  -5   0  14  101.49   10.60
  -5   0  14   98.29   13.90
  -4   0  14   84.69   11.10
  -4   0  14  119.29   23.10
   3   0 -14  174.98   20.70
  -3   0  14  136.09   16.40
  -3   0  14  139.79   13.80
  -2   0  14  113.99   13.00
  -2   0  14  128.19   15.50
   2   0 -14  141.59   18.70
  -1   0  14   25.70    8.70
   1   0 -14   46.90   13.20
  -1   0  14   14.80    7.70
   0   0 -14   31.50   12.80
   0   0  14   13.20    7.60
   0   0  14   21.20    8.70
  -1   0 -14   81.49   16.20
   1   0  14   81.69   13.40
   1   0  14   87.99   12.40
  -2   0 -14   -4.20   10.70
  -3   0 -14  199.48   20.20
  -3   0 -14  235.98   20.70
   3   0  14  217.98   19.60
   4   0  14   -6.60    8.20
  -4   0 -14   15.60    7.20
  -4   0 -14    2.80    8.70
   5   0  14   14.10   10.60
  -5   0 -14   26.60    9.00
  -6   0 -14   36.40    6.80
  -6   0 -14   30.20    9.50
  -7   0 -14    9.80    7.60
  -7   0 -14    5.50    4.90
  -9   1  14   -3.30   10.40
  -8  -1  14   15.00    6.80
  -8  -1  14   22.60    6.70
  -8   1  14   16.50    5.60
  -7  -1  14  155.48   14.20
  -7  -1  14  189.28   16.60
  -7   1  14  182.18   15.00
  -7   1  14  181.58   14.20
  -7   1  14  209.58   19.90
  -6  -1  14   27.70    7.50
  -6  -1  14   16.20    5.40
  -6   1  14   34.20    6.10
  -6   1  14   35.90    6.70
  -6   1  14   36.60    9.40
  -5  -1  14    3.40    6.80
  -5  -1  14    6.80    5.30
  -5   1  14    9.40    5.60
  -5   1  14    4.80    5.20
  -5   1  14    7.90    7.70
  -4  -1  14   19.60    6.30
  -4  -1  14   32.80    8.20
  -4   1  14   49.60   10.90
  -4   1  14   23.90    7.80
  -4   1  14   25.20    6.20
  -3  -1  14   32.10    7.20
  -3   1  14   45.00    7.80
  -3   1  14   35.00    7.70
  -2  -1  14   14.80   11.10
  -2  -1  14   19.80    7.00
  -2   1  14    4.50    6.30
  -2   1  14   -4.30    7.70
   1  -1 -14   24.50   10.30
  -1  -1  14   27.10    9.80
  -1  -1  14   30.70    7.70
  -1   1  14   34.40    7.90
  -1   1  14   27.10    8.60
   0  -1  14   36.00    8.60
   0  -1  14   36.20   14.60
   0   1  14   44.80    9.70
   0   1  14   65.79   12.10
   1  -1  14   22.40    9.00
   1  -1  14    9.20   10.10
   1  -1  14   16.30    8.80
  -1  -1 -14   21.80    9.30
  -1   1 -14   38.40   15.10
   1   1  14   25.50   13.60
  -1   1 -14   27.20   16.60
  -2  -1 -14   40.10   10.00
   2  -1  14   21.40    9.70
   2  -1  14   28.30    8.70
   2   1  14   19.10    7.60
  -2   1 -14   17.50   11.40
  -2   1 -14   11.00   13.30
   3  -1  14   -1.90    6.90
   3  -1  14  -10.20    9.90
  -3  -1 -14    0.80    7.90
  -3   1 -14  -11.70   12.50
   3   1  14   -4.20    6.30
  -3   1 -14   -0.10    7.30
  -4  -1 -14    6.00    8.60
   4  -1  14   21.30    6.30
  -4  -1 -14   11.40    6.60
  -4   1 -14    5.40    7.40
   4   1  14   14.30    7.20
  -4   1 -14   16.50   12.40
   5  -1  14   55.99    9.30
  -5  -1 -14   47.20    8.30
  -5  -1 -14   75.39   12.40
   5   1  14   46.90    8.90
  -5   1 -14   66.99    9.90
  -5   1 -14   24.80   21.70
  -6  -1 -14   53.89    8.70
  -6  -1 -14   86.99   16.30
  -6   1 -14   50.99    8.70
  -6   1 -14   36.40   11.20
   6   1  14   23.80    9.40
  -7  -1 -14   11.40    6.30
   7  -1  14   18.10    5.90
  -7   1 -14   35.80   10.60
  -7   1 -14   20.50    5.50
  -7  -2  14   65.79   10.70
  -7   2  14   67.39    9.20
  -7   2  14   82.69    8.10
  -6  -2  14   12.50    6.00
  -6   2  14   37.90    6.80
  -5  -2  14    7.90    5.40
  -5  -2  14    4.60    5.80
  -5   2  14   10.20    4.70
  -5   2  14   10.10    9.50
  -5   2  14   10.60    5.50
  -4  -2  14   65.09    9.40
  -4  -2  14   67.59   10.30
  -4   2  14   70.99   10.40
  -4   2  14   62.09    8.70
  -4   2  14   56.89    8.90
  -3  -2  14   39.30    6.80
  -3  -2  14   31.00    6.70
  -3   2  14   98.49   10.30
  -3   2  14   63.09   12.70
  -3   2  14   80.59   10.70
  -2  -2  14   93.69   13.40
  -2  -2  14   88.99   11.10
  -2  -2  14   89.49   12.20
  -2   2  14  128.59   14.10
  -2   2  14  125.99   12.00
  -1  -2  14  103.69   11.20
  -1  -2  14   92.99   15.40
  -1   2  14  149.99   14.90
  -1   2  14  129.09   14.10
   0  -2 -14   74.49   12.90
   0  -2  14   52.89    7.70
   0   2  14   60.99    9.90
   0   2  14   49.70   10.50
   1  -2  14   68.59    9.50
  -1  -2 -14   80.09   12.70
   1  -2  14   79.39   11.70
   1   2  14   93.09   11.70
  -2  -2 -14    2.10    7.70
   2  -2  14   11.20    5.40
   2   2  14   26.00    6.70
  -2   2 -14   -5.10   10.30
  -3  -2 -14   14.80    7.50
   3  -2  14   11.60    4.80
  -3   2 -14   18.30    9.30
  -3   2 -14   13.10    3.90
   3   2  14   21.80    6.50
   4  -2  14   27.40    5.10
  -4  -2 -14   38.70    7.00
  -4   2 -14   19.60    7.30
   4   2  14   21.40    5.70
  -5  -2 -14    6.20    7.50
  -5  -2 -14    1.70    5.70
   5  -2  14   -3.60    3.90
  -5   2 -14    9.30    6.60
   5   2  14    2.00    5.20
   6  -2  14    5.00    4.00
  -6  -2 -14   15.00    7.60
   6   2  14   63.79   11.70
  -4  -3  14   17.30    3.90
   4   3 -14   20.80    5.00
  -4   3  14   10.50    4.60
  -3  -3  14   25.90   10.30
  -3   3  14   23.00    9.90
  -3   3  14   23.60    6.10
   3   3 -14   30.70    5.00
  -2  -3  14    9.70    3.40
   2  -3 -14   -0.90    6.10
  -2  -3  14    4.80    8.90
   2   3 -14   11.60    4.50
  -2   3  14   29.70   10.40
  -2   3  14    3.80    6.40
   1  -3 -14   50.59    9.50
  -1  -3  14   10.50   10.70
  -1  -3  14   32.50    6.00
  -1   3  14   32.20    9.70
  -1   3  14   25.60    6.40
   0  -3 -14   23.80    8.40
   0  -3  14   36.60    6.00
   0   3 -14   41.10    7.10
   0   3  14   34.70    6.70
  -1  -3 -14   27.00    7.90
   1  -3  14    9.80    3.20
   1   3  14   22.40    5.20
  -2  -3 -14    9.00    6.50
   2  -3  14    3.60    3.60
  -2  -3 -14    7.30    7.30
   2   3  14   11.20    5.50
  -7   0  15    7.50   13.90
  -7   0  15    0.00    4.40
  -6   0  15  143.29   13.30
  -6   0  15  116.59   14.30
  -5   0  15   96.29   11.60
  -5   0  15   89.49   10.80
  -4   0  15   73.59   10.00
  -4   0  15   70.99   11.80
  -3   0  15    3.00    6.70
  -3   0  15   16.20    6.60
   3   0 -15   19.20   18.60
   2   0 -15    9.70   14.10
  -2   0  15    3.00    6.10
  -2   0  15   13.00    6.60
  -1   0  15    2.00    6.00
   1   0 -15   15.40   12.10
  -1   0  15   -1.00    7.20
   0   0  15    8.30    8.40
   0   0 -15   38.10   13.20
   0   0  15    6.50    6.60
  -1   0 -15   16.80   11.90
   1   0  15    5.90    5.90
  -2   0 -15  -12.40    9.60
  -2   0 -15    7.30    7.40
   2   0  15   -7.40    6.10
  -3   0 -15    2.70   10.60
   3   0  15    1.70    7.60
  -3   0 -15   -3.90    6.10
  -4   0 -15   -5.00    9.60
  -4   0 -15   -8.10    5.50
   4   0  15    8.20    8.60
  -5   0 -15   11.90    5.00
  -5   0 -15   21.20    8.90
  -6   0 -15   -3.80    4.30
  -6   0 -15    8.00    8.80
  -7  -1  15    0.80    5.00
  -7  -1  15    4.70    6.70
  -7   1  15    6.40    4.20
  -6  -1  15   84.39   10.90
  -6  -1  15   97.49   10.40
  -6   1  15  129.39   20.10
  -6   1  15  113.29   11.10
  -5  -1  15   20.10    6.40
  -5  -1  15   11.30    6.10
  -5   1  15   19.40    6.50
  -5   1  15   25.20    7.80
  -4  -1  15   11.50    6.00
  -4  -1  15    5.70    6.00
  -4   1  15    0.90    5.20
  -4   1  15   10.90    6.60
   3  -1 -15   42.20   11.40
  -3  -1  15   28.70    7.00
  -3   1  15   25.50    7.10
  -3   1  15   15.20    6.20
   2  -1 -15   41.50   11.20
  -2  -1  15   23.80    6.80
  -2  -1  15   17.40    6.50
   2   1 -15   12.40    9.90
  -2   1  15   24.00    6.60
  -1  -1  15    0.40    6.10
  -1  -1  15   -1.20    7.00
   1  -1 -15   20.20    9.70
  -1   1  15   10.90    8.20
   1   1 -15   18.00    8.50
  -1   1  15    1.20    5.80
   0  -1 -15   12.80    8.80
   0  -1  15   23.00    7.60
   0  -1  15   20.40    8.30
   0   1 -15   22.40    8.40
   0   1  15   21.10   13.30
   0   1  15   14.90    6.30
  -1  -1 -15   23.80    8.80
   1  -1  15   25.30    8.00
  -1   1 -15   58.39   10.60
   1   1  15   30.20    7.30
  -2  -1 -15   15.00    8.30
   2  -1  15   24.00    9.30
  -2   1 -15   24.60    7.30
   2   1  15   16.00    6.70
  -3  -1 -15   76.99   11.30
  -3  -1 -15   67.89    9.80
  -3   1 -15   31.00    7.00
  -4  -1 -15    1.20   10.90
  -4  -1 -15   -0.60    5.30
  -4   1 -15   -1.70    5.10
  -4   1 -15    7.90   17.60
   4   1  15    9.10    6.70
  -5  -1 -15   -2.30    4.40
  -5  -1 -15   -2.90    6.60
   5   1  15   -4.30    7.70
  -5   1 -15   -1.30    5.20
  -5  -2  15   62.39   10.10
  -5   2  15   40.80   17.10
  -5   2  15   75.69    9.40
  -4  -2  15   24.10    6.70
  -4   2  15   -2.80    5.10
  -4   2  15   20.50    9.60
   3  -2 -15    6.30    7.10
  -3  -2  15    9.50    6.00
  -3   2  15    3.30    6.30
  -3   2  15   -1.10    5.80
  -2  -2  15    7.60    6.00
  -2   2  15    4.80    7.00
  -2   2  15   11.80    6.40
   1  -2 -15    6.10    7.80
  -1  -2  15   13.90    7.80
  -1  -2  15    9.90    7.50
  -1   2  15   17.90    5.60
  -1   2  15   13.40    8.90
   0  -2 -15   13.40    9.20
   0  -2  15   16.40    7.10
   0  -2  15   12.60    8.80
   0   2  15   22.20    6.60
  -1  -2 -15   15.50   11.20
   1  -2  15    4.00    6.10
   1   2  15   16.60    5.40
  -2  -2 -15   23.50    7.50
   2   2  15   30.30    6.30
  -2   2 -15   27.20    4.10
  -3  -2 -15    9.80    6.50
   3  -2  15   10.30    4.30
  -3  -2 -15   17.60    5.20
   3   2  15   16.20    6.00
  -4  -2 -15   10.80    8.90
  -5   0  16   17.00    4.90
  -5   0  16   12.70    5.40
  -4   0  16   27.30    6.00
  -4   0  16   33.20    6.90
  -3   0  16   20.60    6.00
  -3   0  16   16.20    5.40
  -2   0  16   -3.10    4.80
  -2   0  16    1.00    7.30
  -1   0  16   -3.20    5.20
  -1   0  16    7.40    8.10
   1   0 -16   17.70   13.50
   0   0 -16    9.90   13.60
   0   0  16    7.20    6.10
   0   0 -16    8.40    5.80
  -1   0 -16   11.10   10.60
   1   0  16    5.30    6.00
  -1   0 -16   10.50    6.00
  -2   0 -16    8.00    5.50
  -2   0 -16    4.20   11.20
   2   0  16    2.00    6.50
  -3   0 -16    8.60   10.60
   3   0  16    1.20    7.60
  -3   0 -16    2.80    4.60
  -4   0 -16   53.29   17.00
  -5  -1  16    5.90    6.70
  -5   1  16   31.00    7.00
  -4  -1  16   35.40    6.50
   4  -1 -16   53.19   10.90
  -4  -1  16   51.19    9.10
  -4   1  16   10.70    5.30
  -4   1  16   28.50    8.50
  -3  -1  16   22.20    6.50
   3  -1 -16   25.00   10.70
  -3   1  16   12.60    6.00
  -3   1  16    9.80    5.90
   2  -1 -16   17.10    9.50
  -2  -1  16   18.40    6.10
  -2  -1  16   14.60    6.90
  -2   1  16   16.50    7.30
  -2   1  16    6.10    4.90
  -1  -1  16   14.40    8.70
  -1  -1  16   10.60    5.50
   1  -1 -16   11.20    8.10
  -1   1  16   28.30    9.70
  -1   1  16   21.00    6.10
   1   1 -16   38.10   12.20
   0  -1 -16   10.20    8.20
   0  -1  16   -2.30    5.80
   0   1  16    9.10    5.40
   0   1 -16   -7.10    9.10
   1  -1  16   34.90   11.60
  -1   1 -16   36.80    6.70
  -2  -1 -16   55.29   11.40
  -2  -1 -16   44.20    7.00
   2  -1  16   26.80   10.10
   2   1  16   36.80    6.80
  -3  -1 -16   16.70    6.80
  -3   1 -16   10.90    5.00
   3   1  16    2.20    5.70
   0   0   0    0.00    0.00

_computing_structure_solution     'SHELXT 2014/5 (Sheldrick, 2014)'
;
_shelx_hkl_checksum              19508
_olex2_submission_special_instructions 'No special instructions were received'
loop_
_space_group_symop_operation_xyz
'x, y, z'
'-x, y+1/2, -z'
loop_
_atom_site_label
_atom_site_type_symbol
_atom_site_fract_x
_atom_site_fract_y
_atom_site_fract_z
_atom_site_U_iso_or_equiv
_atom_site_adp_type
_atom_site_occupancy
_atom_site_site_symmetry_order
_atom_site_calc_flag
_atom_site_refinement_flags_posn
_atom_site_refinement_flags_occupancy
_atom_site_disorder_assembly
_atom_site_disorder_group
O1 O 0.1413(3) 0.4498(8) 0.3613(2) 0.0418(9) Uani 1 1 d . . . .
O2 O 0.6860(3) 0.2228(14) 0.8944(3) 0.0739(17) Uani 1 1 d . . . .
O3 O 0.2885(3) 0.7847(7) 0.4135(2) 0.0380(9) Uani 1 1 d . . . .
O4 O 0.1289(3) 0.1431(8) 0.6909(2) 0.0432(10) Uani 1 1 d . . . .
C1 C 0.0755(4) 0.2326(11) 0.3257(4) 0.0446(13) Uani 1 1 d . . . .
H1A H 0.1087 0.0570 0.3416 0.067 Uiso 1 1 calc GR . . .
H1B H 0.0643 0.2490 0.2557 0.067 Uiso 1 1 calc GR . . .
H1C H 0.0084 0.2431 0.3553 0.067 Uiso 1 1 calc GR . . .
C2 C 0.1702(3) 0.4480(10) 0.4576(3) 0.0320(10) Uani 1 1 d . . . .
C3 C 0.1263(3) 0.2792(11) 0.5235(4) 0.0363(11) Uani 1 1 d . . . .
H3 H 0.0711 0.1578 0.5050 0.044 Uiso 1 1 calc R . . .
C4 C 0.1667(4) 0.2955(10) 0.6183(3) 0.0336(11) Uani 1 1 d . . . .
C5 C 0.2463(3) 0.4643(9) 0.6473(3) 0.0315(10) Uani 1 1 d . . . .
C6 C 0.2696(4) 0.4304(9) 0.7544(3) 0.0320(10) Uani 1 1 d . . . .
H6A H 0.2398 0.5864 0.7899 0.038 Uiso 0.711(4) 1 calc R P A 1
H6B H 0.2470 0.6031 0.7852 0.038 Uiso 0.289(4) 1 calc R P A 2
C7 C 0.3831(4) 0.3869(10) 0.7879(3) 0.0342(11) Uani 1 1 d . . . .
C8 C 0.4480(4) 0.2273(13) 0.7366(4) 0.0503(14) Uani 1 1 d . . . .
H8 H 0.4225 0.1568 0.6761 0.060 Uiso 1 1 calc R . . .
C9 C 0.5494(4) 0.1646(16) 0.7695(4) 0.0560(16) Uani 1 1 d . . . .
H9 H 0.5914 0.0504 0.7326 0.067 Uiso 1 1 calc R . . .
C10 C 0.5878(4) 0.2680(15) 0.8548(4) 0.0491(15) Uani 1 1 d . . . .
C11 C 0.7505(5) 0.043(3) 0.8442(6) 0.097(3) Uani 1 1 d . . . .
H11A H 0.7120 -0.1245 0.8276 0.146 Uiso 1 1 calc GR . . .
H11B H 0.8126 -0.0018 0.8852 0.146 Uiso 1 1 calc GR . . .
H11C H 0.7714 0.1319 0.7853 0.146 Uiso 1 1 calc GR . . .
C12 C 0.2515(3) 0.6304(9) 0.4855(3) 0.0311(10) Uani 1 1 d . . . .
C13 C 0.3701(4) 0.9721(11) 0.4402(4) 0.0394(11) Uani 1 1 d . . . .
H13A H 0.3476 1.0934 0.4909 0.059 Uiso 1 1 calc GR . . .
H13B H 0.3867 1.0807 0.3840 0.059 Uiso 1 1 calc GR . . .
H13C H 0.4320 0.8707 0.4639 0.059 Uiso 1 1 calc GR . . .
C14 C 0.2894(4) 0.6360(9) 0.5811(3) 0.0334(10) Uani 1 1 d . . . .
H14 H 0.3444 0.7564 0.6009 0.040 Uiso 1 1 calc R . . .
C20 C 0.5241(5) 0.4345(19) 0.9071(4) 0.065(2) Uani 1 1 d . . . .
H20 H 0.5501 0.5105 0.9665 0.078 Uiso 1 1 calc R . . .
C21 C 0.4228(4) 0.4903(16) 0.8732(4) 0.0530(15) Uani 1 1 d . . . .
H21 H 0.3803 0.6028 0.9102 0.064 Uiso 1 1 calc R . . .
O19 O 0.0225(4) 0.3761(10) 0.9605(3) 0.0368(11) Uani 0.711(4) 1 d . P A 1
H19 H -0.0032 0.2276 0.9777 0.055 Uiso 0.711(4) 1 calc GR P A 1
C15 C 0.2051(12) 0.171(3) 0.7680(7) 0.028(2) Uani 0.711(4) 1 d . P A 1
H15 H 0.2529 0.0103 0.7672 0.034 Uiso 0.711(4) 1 calc R P A 1
C16 C 0.1545(6) 0.1730(15) 0.8623(5) 0.0266(13) Uani 0.711(4) 1 d . P A 1
C17 C 0.1967(5) 0.0379(15) 0.9372(5) 0.0375(15) Uani 0.711(4) 1 d . P A 1
H17A H 0.2595 -0.0610 0.9314 0.045 Uiso 0.711(4) 1 calc R P A 1
H17B H 0.1642 0.0399 0.9967 0.045 Uiso 0.711(4) 1 calc R P A 1
C18 C 0.0590(7) 0.3474(16) 0.8660(5) 0.0311(13) Uani 0.711(4) 1 d . P A 1
H18A H 0.0744 0.5308 0.8407 0.037 Uiso 0.711(4) 1 calc R P A 1
H18B H 0.0028 0.2666 0.8235 0.037 Uiso 0.711(4) 1 calc R P A 1
O19A O 0.0748(9) 0.355(2) 1.0265(9) 0.0368(11) Uani 0.289(4) 1 d . P A 2
H19A H 0.0582 0.5212 1.0240 0.055 Uiso 0.289(4) 1 calc GR P A 2
C15A C 0.193(4) 0.183(10) 0.792(3) 0.028(2) Uani 0.289(4) 1 d . P A 2
H15A H 0.2323 0.0158 0.8131 0.034 Uiso 0.289(4) 1 calc R P A 2
C16A C 0.1100(19) 0.257(4) 0.8598(13) 0.0266(13) Uani 0.289(4) 1 d . P A 2
C17A C 0.0095(15) 0.269(4) 0.8364(13) 0.0375(15) Uani 0.289(4) 1 d . P A 2
H17C H -0.0381 0.3080 0.8841 0.045 Uiso 0.289(4) 1 calc R P A 2
H17D H -0.0154 0.2388 0.7717 0.045 Uiso 0.289(4) 1 calc R P A 2
C18A C 0.1530(11) 0.301(3) 0.9576(10) 0.0311(13) Uani 0.289(4) 1 d . P A 2
H18C H 0.2018 0.4572 0.9576 0.037 Uiso 0.289(4) 1 calc R P A 2
H18D H 0.1933 0.1376 0.9788 0.037 Uiso 0.289(4) 1 calc R P A 2
loop_
_atom_site_aniso_label
_atom_site_aniso_U_11
_atom_site_aniso_U_22
_atom_site_aniso_U_33
_atom_site_aniso_U_23
_atom_site_aniso_U_13
_atom_site_aniso_U_12
O1 0.0456(19) 0.043(2) 0.0349(18) -0.0091(16) -0.0121(14) -0.0059(16)
O2 0.0359(19) 0.133(5) 0.051(2) 0.000(3) -0.0074(17) 0.005(3)
O3 0.0486(19) 0.0274(17) 0.0366(17) 0.0048(14) -0.0087(14) -0.0050(15)
O4 0.0462(18) 0.049(2) 0.0352(18) -0.0112(17) 0.0080(15) -0.0251(18)
C1 0.045(3) 0.037(3) 0.049(3) -0.012(2) -0.015(2) -0.002(2)
C2 0.035(2) 0.028(2) 0.033(2) -0.0092(19) -0.0047(18) 0.0038(19)
C3 0.031(2) 0.036(3) 0.042(3) -0.016(2) 0.0004(19) -0.010(2)
C4 0.033(2) 0.032(2) 0.036(2) -0.009(2) 0.0026(19) -0.0028(19)
C5 0.034(2) 0.023(2) 0.036(2) -0.006(2) -0.0050(19) -0.0023(19)
C6 0.035(2) 0.023(2) 0.037(2) -0.0001(19) -0.0033(19) -0.0058(18)
C7 0.035(2) 0.033(2) 0.034(2) 0.0052(19) -0.0061(19) -0.0110(19)
C8 0.043(3) 0.051(4) 0.055(3) -0.016(3) -0.010(2) 0.001(2)
C9 0.038(3) 0.073(4) 0.056(3) -0.008(3) -0.001(2) 0.000(3)
C10 0.032(2) 0.079(4) 0.037(3) 0.007(3) -0.001(2) -0.003(3)
C11 0.032(3) 0.176(11) 0.083(5) -0.027(6) 0.001(3) 0.017(5)
C12 0.036(2) 0.021(2) 0.035(2) -0.0036(19) -0.0039(18) 0.0008(19)
C13 0.046(3) 0.027(2) 0.044(3) 0.004(2) -0.005(2) -0.005(2)
C14 0.040(2) 0.020(2) 0.039(2) -0.0001(19) -0.0081(19) -0.0035(19)
C20 0.045(3) 0.110(6) 0.039(3) -0.014(4) -0.015(2) 0.004(4)
C21 0.044(3) 0.082(4) 0.032(3) -0.011(3) -0.003(2) 0.002(3)
O19 0.043(2) 0.031(2) 0.038(2) 0.005(2) 0.0154(18) 0.0047(19)
C15 0.031(5) 0.027(3) 0.027(7) -0.001(5) 0.001(5) -0.003(3)
C16 0.026(3) 0.022(3) 0.032(3) 0.003(3) 0.003(3) -0.002(3)
C17 0.039(3) 0.042(4) 0.031(3) 0.006(3) 0.001(3) 0.013(3)
C18 0.029(3) 0.032(3) 0.032(3) 0.007(3) 0.004(3) 0.003(3)
O19A 0.043(2) 0.031(2) 0.038(2) 0.005(2) 0.0154(18) 0.0047(19)
C15A 0.031(5) 0.027(3) 0.027(7) -0.001(5) 0.001(5) -0.003(3)
C16A 0.026(3) 0.022(3) 0.032(3) 0.003(3) 0.003(3) -0.002(3)
C17A 0.039(3) 0.042(4) 0.031(3) 0.006(3) 0.001(3) 0.013(3)
C18A 0.029(3) 0.032(3) 0.032(3) 0.007(3) 0.004(3) 0.003(3)
loop_
_atom_type_symbol
_atom_type_description
_atom_type_scat_dispersion_real
_atom_type_scat_dispersion_imag
_atom_type_scat_source
C C 0.0181 0.0091 'International Tables Vol C Tables 4.2.6.8 and 6.1.1.4'
H H 0.0000 0.0000 'International Tables Vol C Tables 4.2.6.8 and 6.1.1.4'
O O 0.0492 0.0322 'International Tables Vol C Tables 4.2.6.8 and 6.1.1.4'
loop_
_geom_angle_atom_site_label_1
_geom_angle_atom_site_label_2
_geom_angle_atom_site_label_3
_geom_angle
C2 O1 C1 117.1(4)
C10 O2 C11 117.1(5)
C12 O3 C13 116.6(4)
C4 O4 C15 104.3(6)
C4 O4 C15A 113.5(17)
O1 C1 H1A 109.5
O1 C1 H1B 109.5
O1 C1 H1C 109.5
H1A C1 H1B 109.5
H1A C1 H1C 109.5
H1B C1 H1C 109.5
O1 C2 C3 123.8(4)
O1 C2 C12 114.8(4)
C3 C2 C12 121.4(4)
C2 C3 H3 121.6
C2 C3 C4 116.8(4)
C4 C3 H3 121.6
O4 C4 C3 122.6(4)
C5 C4 O4 114.0(4)
C5 C4 C3 123.3(5)
C4 C5 C6 109.1(4)
C4 C5 C14 119.7(4)
C14 C5 C6 131.1(4)
C5 C6 H6A 110.2
C5 C6 H6B 106.5
C5 C6 C7 116.7(4)
C5 C6 C15 97.8(5)
C5 C6 C15A 107.7(15)
C7 C6 H6A 110.2
C7 C6 H6B 106.5
C7 C6 C15 111.3(7)
C7 C6 C15A 112.3(17)
C15 C6 H6A 110.2
C15A C6 H6B 106.5
C8 C7 C6 121.4(4)
C21 C7 C6 121.3(5)
C21 C7 C8 117.2(5)
C7 C8 H8 118.6
C7 C8 C9 122.7(5)
C9 C8 H8 118.6
C8 C9 H9 120.3
C10 C9 C8 119.4(6)
C10 C9 H9 120.3
O2 C10 C20 116.3(5)
C9 C10 O2 124.9(6)
C9 C10 C20 118.8(5)
O2 C11 H11A 109.5
O2 C11 H11B 109.5
O2 C11 H11C 109.5
H11A C11 H11B 109.5
H11A C11 H11C 109.5
H11B C11 H11C 109.5
O3 C12 C2 115.6(4)
O3 C12 C14 125.1(4)
C14 C12 C2 119.2(4)
O3 C13 H13A 109.5
O3 C13 H13B 109.5
O3 C13 H13C 109.5
H13A C13 H13B 109.5
H13A C13 H13C 109.5
H13B C13 H13C 109.5
C5 C14 C12 119.5(4)
C5 C14 H14 120.3
C12 C14 H14 120.3
C10 C20 H20 119.8
C21 C20 C10 120.5(5)
C21 C20 H20 119.8
C7 C21 C20 121.4(6)
C7 C21 H21 119.3
C20 C21 H21 119.3
C18 O19 H19 109.5
O4 C15 C6 110.0(9)
O4 C15 H15 108.3
O4 C15 C16 110.3(10)
C6 C15 H15 108.3
C16 C15 C6 111.7(9)
C16 C15 H15 108.3
C15 C16 C18 115.6(8)
C17 C16 C15 120.5(9)
C17 C16 C18 123.8(6)
C16 C17 H17A 120.0
C16 C17 H17B 120.0
H17A C17 H17B 120.0
O19 C18 C16 113.7(6)
O19 C18 H18A 108.8
O19 C18 H18B 108.8
C16 C18 H18A 108.8
C16 C18 H18B 108.8
H18A C18 H18B 107.7
C18A O19A H19A 109.5
O4 C15A C6 95(2)
O4 C15A H15A 112.5
C6 C15A H15A 112.5
C16A C15A O4 104(3)
C16A C15A C6 119(3)
C16A C15A H15A 112.5
C17A C16A C15A 125(2)
C17A C16A C18A 123(2)
C18A C16A C15A 112(3)
C16A C17A H17C 120.0
C16A C17A H17D 120.0
H17C C17A H17D 120.0
O19A C18A H18C 108.8
O19A C18A H18D 108.8
C16A C18A O19A 113.9(15)
C16A C18A H18C 108.8
C16A C18A H18D 108.8
H18C C18A H18D 107.7
loop_
_geom_bond_atom_site_label_1
_geom_bond_atom_site_label_2
_geom_bond_distance
O1 C1 1.431(6)
O1 C2 1.371(5)
O2 C10 1.368(6)
O2 C11 1.422(10)
O3 C12 1.364(6)
O3 C13 1.428(6)
O4 C4 1.368(6)
O4 C15 1.419(16)
O4 C15A 1.60(4)
C1 H1A 0.9800
C1 H1B 0.9800
C1 H1C 0.9800
C2 C3 1.381(7)
C2 C12 1.414(6)
C3 H3 0.9500
C3 C4 1.394(7)
C4 C5 1.360(6)
C5 C6 1.514(6)
C5 C14 1.387(7)
C6 H6A 1.0000
C6 H6B 1.0000
C6 C7 1.523(6)
C6 C15 1.535(17)
C6 C15A 1.67(5)
C7 C8 1.374(8)
C7 C21 1.363(7)
C8 H8 0.9500
C8 C9 1.393(8)
C9 H9 0.9500
C9 C10 1.358(8)
C10 C20 1.393(9)
C11 H11A 0.9800
C11 H11B 0.9800
C11 H11C 0.9800
C12 C14 1.391(6)
C13 H13A 0.9800
C13 H13B 0.9800
C13 H13C 0.9800
C14 H14 0.9500
C20 H20 0.9500
C20 C21 1.388(8)
C21 H21 0.9500
O19 H19 0.8400
O19 C18 1.430(8)
C15 H15 1.0000
C15 C16 1.500(10)
C16 C17 1.325(10)
C16 C18 1.501(9)
C17 H17A 0.9500
C17 H17B 0.9500
C18 H18A 0.9900
C18 H18B 0.9900
O19A H19A 0.8400
O19A C18A 1.456(18)
C15A H15A 1.0000
C15A C16A 1.50(4)
C16A C17A 1.32(3)
C16A C18A 1.46(2)
C17A H17C 0.9500
C17A H17D 0.9500
C18A H18C 0.9900
C18A H18D 0.9900
loop_
_geom_torsion_atom_site_label_1
_geom_torsion_atom_site_label_2
_geom_torsion_atom_site_label_3
_geom_torsion_atom_site_label_4
_geom_torsion
O1 C2 C3 C4 177.9(4)
O1 C2 C12 O3 1.0(6)
O1 C2 C12 C14 -177.4(4)
O2 C10 C20 C21 -179.5(7)
O3 C12 C14 C5 -178.7(4)
O4 C4 C5 C6 0.1(5)
O4 C4 C5 C14 -178.0(4)
O4 C15 C16 C17 138.5(9)
O4 C15 C16 C18 -44.8(13)
O4 C15A C16A C17A 3(4)
O4 C15A C16A C18A 179.8(19)
C1 O1 C2 C3 -11.3(7)
C1 O1 C2 C12 167.3(4)
C2 C3 C4 O4 178.8(4)
C2 C3 C4 C5 -0.8(7)
C2 C12 C14 C5 -0.5(7)
C3 C2 C12 O3 179.7(4)
C3 C2 C12 C14 1.3(7)
C3 C4 C5 C6 179.7(5)
C3 C4 C5 C14 1.6(7)
C4 O4 C15 C6 21.9(8)
C4 O4 C15 C16 145.5(9)
C4 O4 C15A C6 5(2)
C4 O4 C15A C16A 127(2)
C4 C5 C6 C7 130.8(4)
C4 C5 C6 C15 12.2(7)
C4 C5 C6 C15A 3.6(16)
C4 C5 C14 C12 -0.9(7)
C5 C6 C7 C8 -39.0(7)
C5 C6 C7 C21 145.3(5)
C5 C6 C15 O4 -20.8(8)
C5 C6 C15 C16 -143.6(9)
C5 C6 C15A O4 -5(2)
C5 C6 C15A C16A -114(3)
C6 C5 C14 C12 -178.6(5)
C6 C7 C8 C9 -174.3(6)
C6 C7 C21 C20 175.3(6)
C6 C15 C16 C17 -98.9(11)
C6 C15 C16 C18 77.8(12)
C6 C15A C16A C17A 107(3)
C6 C15A C16A C18A -76(4)
C7 C6 C15 O4 -143.4(7)
C7 C6 C15 C16 93.8(10)
C7 C6 C15A O4 -134.8(15)
C7 C6 C15A C16A 116(3)
C7 C8 C9 C10 -1.3(10)
C8 C7 C21 C20 -0.6(10)
C8 C9 C10 O2 -179.6(6)
C8 C9 C10 C20 0.0(11)
C9 C10 C20 C21 0.9(11)
C10 C20 C21 C7 -0.6(12)
C11 O2 C10 C9 -3.2(11)
C11 O2 C10 C20 177.2(8)
C12 C2 C3 C4 -0.7(7)
C13 O3 C12 C2 179.5(4)
C13 O3 C12 C14 -2.2(6)
C14 C5 C6 C7 -51.3(7)
C14 C5 C6 C15 -169.9(7)
C14 C5 C6 C15A -178.6(16)
C21 C7 C8 C9 1.5(9)
C15 O4 C4 C3 166.7(7)
C15 O4 C4 C5 -13.7(8)
C15 C6 C7 C8 72.0(6)
C15 C6 C7 C21 -103.7(6)
C15 C16 C18 O19 -171.0(9)
C17 C16 C18 O19 5.5(10)
C15A O4 C4 C3 176.3(17)
C15A O4 C4 C5 -4.0(18)
C15A C6 C7 C8 85.9(14)
C15A C6 C7 C21 -89.8(14)
C15A C16A C18A O19A -176(2)
C17A C16A C18A O19A 1(3)
loop_
_cod_related_entry_id
_cod_related_entry_database
_cod_related_entry_code
1 PubChem 168304397
