#------------------------------------------------------------------------------
#$Date: 2021-09-06 15:51:34 +0300 (Mon, 06 Sep 2021) $
#$Revision: 268973 $
#$URL: file:///home/coder/svn-repositories/cod/cif/1/56/45/1564544.cif $
#------------------------------------------------------------------------------
#
# This file is available in the Crystallography Open Database (COD),
# http://www.crystallography.net/
#
# All data on this site have been placed in the public domain by the
# contributors.
#
data_1564544
loop_
_publ_author_name
'TOMBUL, Mustafa'
'T\"URKMENOGLU, Elmas'
'SAHIN, Onur'
_publ_section_title
;
 Unprecedented Formation of Potassium Borate Based Carbonate from Chloral
 Hydrate, Potassium Carbonate and Boric Acid
;
_journal_issue                   0
_journal_name_full               'X-ray Structure Analysis Online'
_journal_page_first              45
_journal_page_last               47
_journal_paper_doi               10.2116/xraystruct.37.45
_journal_volume                  37
_journal_year                    2021
_chemical_formula_moiety         'C4 H4 B K O12'
_chemical_formula_sum            'C4 H4 B K O12'
_chemical_formula_weight         293.98
_space_group_crystal_system      orthorhombic
_space_group_IT_number           41
_space_group_name_Hall           'A 2 -2ab'
_space_group_name_H-M_alt        'A e a 2'
_atom_sites_solution_hydrogens   difmap
_audit_creation_method           SHELXL-2013
_audit_update_record
;
2021-03-24 deposited with the CCDC.	2021-05-01 downloaded from the CCDC.
;
_cell_angle_alpha                90
_cell_angle_beta                 90
_cell_angle_gamma                90
_cell_formula_units_Z            4
_cell_length_a                   11.0579(10)
_cell_length_b                   11.1695(10)
_cell_length_c                   9.0504(9)
_cell_measurement_reflns_used    9983
_cell_measurement_temperature    296
_cell_measurement_theta_max      28.26
_cell_measurement_theta_min      3.43
_cell_volume                     1117.83(18)
_computing_cell_refinement       'SAINT(Bruker, 2013)'
_computing_data_collection       'APEX3 (Bruker, 2013)'
_computing_data_reduction        'Bruker SAINT'
_computing_molecular_graphics    'Mercury (Macrae, 2008)'
_computing_publication_material  'WinGX (Farrugia, 2012)'
_computing_structure_refinement  'SHELXL-2013 (Sheldrick, 2015)'
_computing_structure_solution    'SHELXS-2013 (Sheldrick, 2008)'
_diffrn_ambient_temperature      296
_diffrn_measured_fraction_theta_full 1.000
_diffrn_measured_fraction_theta_max 0.999
_diffrn_measurement_device_type  'Bruker APEX-3 CCD'
_diffrn_measurement_method       '\f and \w scans'
_diffrn_radiation_type           MoK\a
_diffrn_radiation_wavelength     0.71073
_diffrn_reflns_av_R_equivalents  0.0413
_diffrn_reflns_av_unetI/netI     0.0215
_diffrn_reflns_Laue_measured_fraction_full 1.000
_diffrn_reflns_Laue_measured_fraction_max 0.999
_diffrn_reflns_limit_h_max       14
_diffrn_reflns_limit_h_min       -14
_diffrn_reflns_limit_k_max       14
_diffrn_reflns_limit_k_min       -14
_diffrn_reflns_limit_l_max       12
_diffrn_reflns_limit_l_min       -12
_diffrn_reflns_number            18910
_diffrn_reflns_point_group_measured_fraction_full 1.000
_diffrn_reflns_point_group_measured_fraction_max 0.999
_diffrn_reflns_theta_full        25.242
_diffrn_reflns_theta_max         28.363
_diffrn_reflns_theta_min         3.433
_diffrn_standards_number         0
_exptl_absorpt_coefficient_mu    0.535
_exptl_absorpt_correction_T_max  0.7457
_exptl_absorpt_correction_T_min  0.6904
_exptl_absorpt_correction_type   multi-scan
_exptl_absorpt_process_details   Bruker
_exptl_crystal_colour            colourless
_exptl_crystal_density_diffrn    1.747
_exptl_crystal_description       block
_exptl_crystal_F_000             592
_exptl_crystal_size_max          0.05
_exptl_crystal_size_mid          0.04
_exptl_crystal_size_min          0.03
_refine_diff_density_max         0.637
_refine_diff_density_min         -0.591
_refine_diff_density_rms         0.117
_refine_ls_abs_structure_details
;
 Refined as an inversion twin.
;
_refine_ls_abs_structure_Flack   0.47(16)
_refine_ls_extinction_method     none
_refine_ls_goodness_of_fit_ref   1.062
_refine_ls_hydrogen_treatment    refxyz
_refine_ls_matrix_type           full
_refine_ls_number_parameters     91
_refine_ls_number_reflns         1402
_refine_ls_number_restraints     5
_refine_ls_restrained_S_all      1.060
_refine_ls_R_factor_all          0.0598
_refine_ls_R_factor_gt           0.0577
_refine_ls_shift/su_max          0.000
_refine_ls_shift/su_mean         0.000
_refine_ls_structure_factor_coef Fsqd
_refine_ls_weighting_details
'w=1/[\s^2^(Fo^2^)+(0.0917P)^2^+6.1216P] where P=(Fo^2^+2Fc^2^)/3'
_refine_ls_weighting_scheme      calc
_refine_ls_wR_factor_gt          0.1672
_refine_ls_wR_factor_ref         0.1686
_reflns_Friedel_coverage         0.880
_reflns_Friedel_fraction_full    1.000
_reflns_Friedel_fraction_max     0.998
_reflns_number_gt                1356
_reflns_number_total             1402
_reflns_threshold_expression     'I > 2\s(I)'
_cod_data_source_file            37_45_1.txt
_cod_data_source_block           shelx
_cod_original_sg_symbol_Hall     'A 2 -2ac'
_cod_original_sg_symbol_H-M      'A b a 2'
_cod_database_code               1564544
_shelx_space_group_comment
;
The symmetry employed for this shelxl refinement is uniquely defined
by the following loop, which should always be used as a source of
symmetry information in preference to the above space-group names.
They are only intended as comments.
;
_shelxl_version_number           2013-4
_shelx_res_file
;
TITL tombul5_0m_a.res in Aba2
CELL  0.71073  11.0579  11.1695   9.0504   90.000   90.000   90.000
ZERR     4.00   0.0010   0.0010   0.0009    0.000    0.000    0.000
LATT  -5
SYMM  - X, - Y,   Z
SYMM  1/2 + X, 1/2 - Y,   Z
SYMM  1/2 - X, 1/2 + Y,   Z
SFAC  C    H    B    K    O
UNIT  16 16 4 4 48
MERG   2
OMIT    -4.00 180.00
TWIN
DFIX  1.300 0.020 H6A H6B
DFIX  0.830 0.020 H6B O6
DFIX  0.830 0.020 O6 H6A
DFIX  3.400 0.020 H6B K1
EQIV $1 x+1/2, -y+1/2, z
HTAB O6 O2_$1
HTAB O6 O4
FMAP   2
PLAN    5
ACTA
BOND
BOND   $H
CONF
L.S.  20
WGHT    0.091700    6.121600
BASF   0.47167
FVAR       0.43665
C1    1    0.688742    0.405602    0.410113    11.00000    0.01923    0.02559 =
         0.03331   -0.00347    0.00178    0.00077
C2    1    0.704495    0.556953    0.594979    11.00000    0.02204    0.03193 =
         0.03319   -0.00677   -0.00133    0.00231
B1    3    0.500000    0.500000    0.500884    10.50000    0.01002    0.02073 =
         0.02505    0.00000    0.00000    0.00490
K1    4    1.000000    0.500000    0.598442    10.50000    0.01395    0.04415 =
         0.02902    0.00000    0.00000    0.00446
O1    5    0.758828    0.474261    0.502157    11.00000    0.00970    0.03174 =
         0.03270   -0.01830   -0.00091    0.00282
O2    5    0.567340    0.416234    0.406642    11.00000    0.01127    0.02386 =
         0.02495   -0.00834   -0.00076   -0.00028
O3    5    0.582267    0.569365    0.596927    11.00000    0.01116    0.02755 =
         0.02561   -0.01182   -0.00208    0.00354
O4    5    0.744537    0.325371    0.321990    11.00000    0.01912    0.03701 =
         0.04432   -0.02594   -0.00035    0.00036
MOLE    5
O5    5    0.781509    0.620376    0.677960    11.00000    0.01993    0.04357 =
         0.04864   -0.03405   -0.00906    0.00516
MOLE    6
O6    5    0.984790    0.329019    0.357564    11.00000    0.01807    0.03024 =
         0.03766    0.00116    0.00776    0.00404
H6A   2    0.997107    0.257768    0.376379    11.00000   -1.20000
H6B   2    0.922215    0.327045    0.306285    11.00000    0.16147
HKLF    4

REM  tombul5_0m_a.res in Aba2
REM R1 =  0.0577 for    1356 Fo > 4sig(Fo)  and  0.0598 for all    1402 data
REM     91 parameters refined using      5 restraints

END

WGHT      0.0890      3.3642

REM Highest difference peak  0.637,  deepest hole -0.591,  1-sigma level  0.117
Q1    1   0.7484  0.6763  0.7157  11.00000  0.05    0.64
Q2    1   1.0845  0.3166  0.2210  11.00000  0.05    0.43
Q3    1   0.7295  0.7241  0.6183  11.00000  0.05    0.41
Q4    1   0.7655  0.6392  0.6031  11.00000  0.05    0.39
Q5    1   1.0308  0.3618  0.2881  11.00000  0.05    0.37
;
_shelx_res_checksum              95837
_shelx_hkl_file
;
   0   0  -2  826.82   39.60
   0   0   2  823.92   39.60
   0   0   2  793.42   39.60
   0   0   2  812.72   39.60
   0   0   2  819.32   39.50
   0   0   2  784.42   39.50
   0   0  -2  839.52   39.60
   0   0  -2  802.62   39.50
   0   0  -2  816.22   39.60
   0   0  -2  831.12   39.60
   0   0   4 3165.28  149.69
   0   0  -4 2996.70  148.89
   0   0   4 3129.69  148.79
   0   0   4 3218.58  149.59
   0   0  -4 3062.49  148.69
   0   0  -4 3156.38  149.49
   0   0  -4 3079.19  148.79
   0   0   4 2982.10  148.79
   0   0  -4 2905.11  149.19
   0   0   4 3034.80  149.79
   0   0   6   62.49    4.60
   0   0  -6   54.39    4.60
   0   0  -6   61.09    5.40
   0   0   6   58.79    5.20
   0   0  -6   63.39    5.10
   0   0   6   71.09    4.40
   0   0   6   60.69    4.80
   0   0  -6   62.49    4.00
   0   0  -6   62.89    4.50
   0   0   6   59.69    4.60
   0   0   8  185.18   11.20
   0   0   8  193.38   11.30
   0   0   8  169.88   11.00
   0   0   8  210.38   11.90
   0   0  -8  185.88   11.20
   0   0  -8  199.48   11.70
   0   0  -8  198.38   11.40
   0   0   8  201.28   11.50
   0   0  10  466.05   25.60
   0   0  10  501.15   24.80
   0   0  10  463.35   24.80
   0   0 -10  472.15   24.80
   0   0 -10  449.06   25.80
   0   0 -10  463.05   23.50
   0   0 -10  464.45   25.20
   0   0  10  458.15   24.80
   0   0  10  457.55   25.00
   0   0  12  164.78   14.80
   0   0  12  130.89   15.80
   0   0 -12  162.98   16.90
   0  -1   1    3.30    1.00
   0   1   1    2.70    1.00
   0   1   1    1.00    0.80
   0  -1   1    2.60    0.80
   0   1  -1    1.80    0.70
   0   1   3    0.10    0.80
   0   1   3    0.90    0.90
   0  -1  -3   -1.30    0.60
   0   1   3    0.10    1.20
   0  -1  -3    0.50    0.90
   0   1  -3   -0.10    0.80
   0   1   3    0.30    0.70
   0   1  -3    0.00    1.30
   0  -1   3    0.60    0.90
   0  -1  -3    0.40    1.30
   0  -1   3    0.30    1.20
   0  -1  -3    0.40    1.50
   0  -1  -3    0.50    0.70
   0   1   3    0.50    0.60
   0  -1   3   -0.30    0.80
   0  -1   3   -0.70    0.80
   0   1  -3    0.30    0.80
   0   1  -3    0.70    1.00
   0   1  -3    1.40    1.20
   0  -1   5    5.30    1.80
   0  -1   5   -0.40    1.70
   0  -1  -5    0.20    1.80
   0   1   5   -1.50    2.30
   0   1   5   -0.10    1.60
   0  -1   5    0.50    1.80
   0   1  -5    2.10    1.90
   0   1   5   -0.10    1.60
   0   1  -5    1.10    1.20
   0   1  -5    0.70    2.00
   0  -1  -5    0.20    2.10
   0  -1  -5    0.40    1.10
   0   1   5   -1.10    1.10
   0  -1  -5    1.20    1.80
   0   1   5    0.40    1.80
   0   1  -5   -1.00    1.70
   0  -1   5    0.20    1.70
   0   1  -5    0.40    1.40
   0  -1   5    0.20    2.30
   0   1  -7   -0.10    2.70
   0   1   7    6.60    2.50
   0   1   7    0.00    1.90
   0  -1  -7   -0.20    3.10
   0   1   7    0.10    3.10
   0   1  -7   -1.70    2.70
   0   1  -7   -0.10    2.40
   0   1   7   -0.80    2.60
   0   1  -7   -1.10    2.60
   0  -1   7    2.00    3.60
   0  -1   7   -0.60    2.50
   0   1   7    3.40    3.10
   0  -1   7   -0.40    3.20
   0  -1   9    7.70    4.50
   0  -1   9    6.60    4.40
   0  -1   9   -1.80    4.20
   0  -1  -9    1.10    3.70
   0  -1   9   -1.80    3.20
   0   1  -9   -2.00    3.90
   0   1  -9   -0.40    2.20
   0   1   9   -0.10    3.80
   0   1  -9    3.80    4.20
   0  -1  -9   -0.50    3.30
   0  -1  -9    3.90    4.30
   0   1   9    2.70    4.30
   0   1   9    3.90    4.10
   0   1  -9   -2.60    4.10
   0  -1  -9   -0.70    3.60
   0   1   9    0.30    3.80
   0   1 -11    2.20    2.70
   0  -1  11   17.90    7.50
   0  -1  11   -1.20    6.50
   0   1  11    7.00    6.70
   0  -1 -11   10.60    6.90
   0   1  11   -1.60    5.20
   0   1 -11   -4.90    7.20
   0  -1 -11   -0.40    4.80
   0   1  11    0.10    5.10
   0  -2   0 4444.96  207.78
   0  -2   0 4393.06  207.98
   0   2   0 4079.19  207.98
   0   2   0 4312.17  207.98
   0  -2   0 4412.56  208.28
   0  -2   0 4196.88  207.78
   0  -2   0 4149.98  207.48
   0   2   2 6271.77  316.57
   0  -2  -2 6451.35  316.47
   0  -2  -2 6442.85  316.87
   0   2  -2 6657.53  316.37
   0  -2   2 6409.26  316.47
   0   2   2 6568.54  316.47
   0   2  -2 6141.29  315.57
   0   2  -2 6685.93  316.97
   0   2  -2 6647.44  317.37
   0   2  -2 6611.14  317.37
   0   2  -2 6869.61  317.57
   0  -2  -2 6284.97  316.77
   0   2   2 6352.66  317.27
   0   2   2 6695.63  316.77
   0  -2   2 6616.34  317.07
   0  -2   2 6651.63  317.37
   0   2  -2 6796.62  316.67
   0  -2   2 6420.06  316.47
   0  -2   2 6601.74  317.17
   0   2   2 6628.84  316.47
   0  -2  -2 6554.64  317.57
   0   2  -2 6322.77  316.47
   0  -2   4   18.60    2.30
   0  -2   4   15.30    2.20
   0   2  -4   24.30    2.30
   0  -2  -4   17.70    2.30
   0   2   4   19.00    1.70
   0   2  -4   19.40    2.20
   0   2  -4   18.40    2.00
   0   2   4   17.90    2.20
   0   2  -4   17.50    1.90
   0  -2  -4   17.50    2.40
   0  -2  -4   19.00    1.60
   0   2   4   24.80    2.40
   0  -2  -4   19.70    2.00
   0   2  -4   18.40    2.20
   0   2   4   15.50    2.10
   0   2   4   24.50    2.40
   0  -2  -6  630.44   32.10
   0  -2   6  648.04   32.20
   0  -2  -6  608.94   31.40
   0  -2  -6  634.54   31.80
   0  -2   6  629.04   32.00
   0  -2   6  649.74   32.00
   0   2   6  616.14   31.70
   0  -2  -6  662.13   32.30
   0   2  -6  640.14   32.00
   0   2  -6  640.64   32.00
   0  -2   6  639.74   32.20
   0  -2   6  673.23   32.20
   0  -2  -6  663.93   32.20
   0   2   6  633.14   32.20
   0   2  -6  647.24   32.30
   0   2   6  660.63   32.20
   0   2   6  643.14   32.10
   0   2  -6  651.93   32.10
   0   2   6  669.93   32.00
   0   2   8  154.68    9.00
   0  -2   8  157.28    9.60
   0  -2  -8  154.48    9.80
   0   2  -8  145.39    9.50
   0  -2   8  145.09   10.20
   0   2   8  141.09    9.60
   0   2   8  161.98    9.90
   0  -2  -8  123.39    9.70
   0   2   8  171.58   10.60
   0   2  -8  154.38    9.80
   0  -2  -8  160.58    9.80
   0  -2   8  176.48   10.00
   0  -2   8  175.38   10.80
   0   2   8  154.68   10.30
   0  -2  -8  154.28    9.30
   0  -2  10  318.27   20.50
   0   2  10  360.86   20.50
   0   2 -10  366.46   20.70
   0  -2 -10  367.66   19.50
   0   2 -10  377.66   20.20
   0  -2  10  388.86   20.80
   0  -2 -10  362.26   20.90
   0   2  10  371.06   20.20
   0   2 -10  413.96   21.30
   0   2 -10  355.76   18.50
   0   2  10  365.36   21.60
   0  -2  10  386.86   21.50
   0   2  10  394.36   20.40
   0  -2 -10  364.06   21.30
   0  -2  10  402.66   21.10
   0  -2 -10  365.76   20.50
   0   2  10  417.56   21.70
   0  -2  10  350.26   20.50
   0  -3   1    0.30    0.70
   0  -3  -1    0.10    0.50
   0   3  -1   -0.50    0.60
   0  -3   1    0.90    0.30
   0  -3   1   -0.10    0.70
   0  -3   1    1.30    0.90
   0  -3  -1    0.20    0.90
   0  -3  -1    0.70    0.70
   0  -3  -1    0.20    0.50
   0   3   1    0.60    0.60
   0  -3  -1   -0.50    0.60
   0   3  -1   -1.10    0.90
   0  -3   1    1.60    1.00
   0   3  -1   -0.30    0.80
   0  -3  -1    0.20    0.60
   0   3  -1    1.10    0.80
   0   3   1    0.10    0.80
   0  -3   3    0.40    1.50
   0   3   3    0.70    0.90
   0   3  -3    1.10    0.90
   0   3   3    0.40    1.10
   0   3  -3    1.90    1.60
   0  -3   3    5.10    1.70
   0   3  -3    0.70    1.10
   0  -3   3    3.70    1.30
   0   3   3   -0.20    0.80
   0   3   3    0.20    1.00
   0   3   3   -1.50    1.10
   0   3  -3    1.20    0.80
   0   3   3    0.10    0.80
   0  -3  -3    1.50    0.40
   0  -3  -3    0.40    1.60
   0   3  -3    0.80    1.10
   0   3  -3    2.50    1.20
   0   3  -3    1.20    0.70
   0   3  -5   -0.80    1.90
   0  -3  -5    0.10    1.10
   0   3   5    0.80    1.50
   0   3   5   -0.60    1.70
   0  -3  -5    0.00    1.10
   0   3  -5   -0.60    2.00
   0  -3   5    0.10    1.90
   0  -3   5   -0.50    2.30
   0   3  -5   -0.60    0.90
   0   3   5    1.70    1.10
   0   3  -5   -1.30    1.60
   0  -3  -5   -0.10    1.50
   0  -3  -5    0.80    2.20
   0   3  -5   -0.20    1.90
   0  -3   5    0.20    1.60
   0  -3   5   -0.20    2.10
   0  -3  -5   -0.40    2.20
   0   3  -5    0.60    2.30
   0   3   5   -0.30    1.40
   0   3   5   -0.90    1.80
   0  -3  -7    1.60    3.10
   0   3   7    0.40    3.00
   0  -3   7    5.30    3.80
   0  -3  -7    0.50    2.90
   0   3  -7   -6.40    3.40
   0   3   7    0.10    3.30
   0  -3  -7    0.60    3.60
   0   3  -7    0.10    3.80
   0   3   7    1.70    3.90
   0  -3   7    1.00    3.10
   0  -3  -7    1.00    3.20
   0   3  -7    2.40    3.20
   0   3   7    1.20    2.90
   0   3  -7    0.40    2.90
   0  -3   7    0.40    3.40
   0  -3   7    2.70    3.60
   0   3   9   -1.60    3.50
   0   3  -9    9.60    4.90
   0   3   9   -0.10    3.80
   0   3  -9   -0.30    1.60
   0   3   9   -1.10    5.30
   0  -3   9   -0.90    3.60
   0   3   9    5.60    4.60
   0   3   9   -1.70    3.80
   0   3  -9   -3.10    3.20
   0  -3  -9   -5.40    2.40
   0   3  -9    0.80    4.20
   0  -3   9   -3.20    3.60
   0  -3  -9    5.00    3.90
   0   3  -9   -0.80    2.80
   0  -3   9    2.60    4.60
   0   3  -9    0.40    1.00
   0   3  -9   -1.30    3.70
   0  -3  -9   -0.10    4.60
   0  -3  -9   -0.90    3.70
   0   3  11   17.00    8.70
   0   3  11    1.40    7.10
   0  -3  11   21.40    7.70
   0  -4   0   98.09    5.20
   0  -4   0  103.29    5.50
   0   4   0   94.99    5.40
   0   4   0  102.69    5.50
   0  -4   0   99.69    5.30
   0  -4   0   98.19    5.20
   0  -4   0  102.09    5.40
   0  -4   0   98.99    5.30
   0   4  -2 1854.91   91.69
   0   4  -2 1882.71   91.59
   0  -4   2 1868.01   91.59
   0   4   2 1900.11   91.59
   0   4   2 1901.91   91.69
   0  -4  -2 1937.71   92.09
   0  -4  -2 1890.51   91.59
   0   4  -2 1832.92   91.59
   0   4   2 1880.51   91.79
   0  -4   2 1924.21   92.09
   0  -4  -2 1962.10   92.19
   0  -4   2 1879.61   91.79
   0  -4   2 1834.72   91.69
   0  -4  -2 1920.91   91.79
   0  -4  -2 1888.81   91.79
   0   4   2 1902.11   91.79
   0   4  -2 1864.01   91.59
   0  -4   2 1955.10   91.79
   0  -4  -2 1792.82   91.39
   0  -4   2 1840.92   91.59
   0   4  -2 1878.91   91.69
   0  -4  -2 1923.81   91.69
   0   4   2 1999.50   91.69
   0  -4   2 1822.12   91.69
   0   4  -4  672.93   34.20
   0   4   4  708.03   34.60
   0  -4   4  722.33   34.60
   0  -4  -4  674.23   34.20
   0   4   4  716.43   34.60
   0   4  -4  714.43   34.50
   0   4  -4  714.83   34.80
   0   4   4  692.03   34.90
   0   4   4  711.23   34.80
   0  -4   4  701.13   34.90
   0   4   4  719.23   34.50
   0  -4   4  670.23   34.60
   0  -4  -4  714.33   34.70
   0   4  -4  732.83   35.00
   0  -4   4  736.63   35.00
   0   4  -4  712.93   34.90
   0   4  -4  681.83   34.40
   0  -4  -4  722.33   35.00
   0  -4   4  681.93   34.80
   0  -4  -6  122.19    8.30
   0  -4   6  148.09    8.30
   0  -4  -6  139.79    8.20
   0   4  -6  133.59    8.00
   0  -4  -6  139.59    8.40
   0   4  -6  136.69    8.40
   0   4  -6  117.59    6.70
   0  -4   6  148.39    8.70
   0   4   6  141.49    8.40
   0   4  -6  128.69    7.70
   0   4   6  135.29    7.90
   0  -4  -6  118.29    7.90
   0   4   6  134.69    8.50
   0   4   6  137.19    7.80
   0  -4   6  140.99    7.70
   0   4  -6  126.89    8.40
   0  -4   6  118.59    8.00
   0   4   6  135.69    7.10
   0  -4  -6  135.49    7.10
   0   4  -6  125.99    7.60
   0  -4   6  135.09    8.60
   0   4  -8  382.26   20.00
   0   4   8  394.66   19.60
   0  -4   8  382.06   20.00
   0  -4   8  387.26   19.90
   0   4   8  329.97   20.00
   0   4  -8  373.86   20.00
   0  -4  -8  379.16   20.10
   0   4   8  410.86   20.40
   0  -4  -8  343.47   19.30
   0  -4   8  357.36   20.00
   0  -4   8  376.66   20.20
   0  -4  -8  395.36   20.00
   0  -4   8  372.36   20.00
   0   4  -8  352.36   19.40
   0   4  -8  379.36   19.30
   0  -4  -8  362.26   19.90
   0   4   8  369.16   19.20
   0   4  -8  358.56   19.70
   0   4   8  372.96   19.70
   0   4  10   38.50    6.80
   0   4  10   41.30    5.80
   0   4  10   39.60    7.70
   0   4  10   24.60    6.10
   0  -4  10   45.90    6.50
   0   4 -10   45.20    4.90
   0   4 -10   41.60    6.90
   0  -4 -10   26.10    5.60
   0  -4  10   36.50    6.60
   0   4  10   43.00   10.40
   0  -4  10   48.70    8.10
   0  -4  10   37.10    7.10
   0   4 -10   41.10    6.50
   0  -5   1    1.30    1.00
   0  -5   1    3.60    1.60
   0  -5   1    0.40    1.50
   0   5   1    0.60    1.10
   0  -5  -1   -0.10    1.40
   0  -5  -1    1.70    1.40
   0  -5  -1    1.80    1.10
   0   5  -1    0.80    1.00
   0  -5   1    3.20    1.70
   0  -5   1    0.00    1.00
   0  -5  -1   -0.10    0.50
   0  -5  -1    0.30    0.50
   0  -5   1    0.40    1.60
   0  -5  -1   -1.20    0.70
   0  -5   3    2.40    1.30
   0  -5  -3    4.00    1.60
   0  -5  -3    0.20    1.00
   0  -5   3    0.20    0.90
   0  -5   3    0.80    2.10
   0   5  -3   -0.40    2.00
   0   5   3   -0.50    1.70
   0  -5   3   -1.30    1.90
   0  -5  -3   -0.20    0.60
   0   5   3   -0.40    0.70
   0  -5   3    0.70    1.70
   0  -5  -3   -0.30    2.10
   0  -5   3    0.10    1.70
   0   5  -3    0.10    1.40
   0  -5  -3   -1.10    1.70
   0   5  -3   -0.70    2.20
   0  -5   3    0.20    1.10
   0  -5  -3   -0.10    1.00
   0   5   3   -0.40    1.00
   0   5   3    0.10    0.90
   0   5   3    0.20    2.00
   0  -5  -3   -1.10    1.40
   0  -5  -5   -0.60    2.70
   0  -5  -5    0.10    3.30
   0  -5  -5    0.00    0.90
   0   5   5   -0.50    1.80
   0  -5   5    2.60    2.50
   0   5  -5    2.10    1.80
   0   5  -5   -2.60    1.50
   0   5   5    0.60    2.30
   0  -5  -5   -0.80    2.80
   0  -5  -5   -0.50    1.90
   0   5  -5    0.70    0.90
   0  -5   5    8.40    3.20
   0   5   5    0.80    1.40
   0  -5   5   -1.60    1.90
   0   5  -5    0.40    2.90
   0   5  -5    0.90    3.30
   0   5  -5    0.20    1.90
   0   5   7   -0.40    2.80
   0  -5   7    0.90    4.10
   0  -5  -7    0.80    3.40
   0   5  -7    0.70    3.30
   0   5   7    0.00    3.80
   0  -5   7   -1.50    3.40
   0   5  -7    0.50    3.50
   0  -5  -7   -1.40    3.60
   0  -5   7    5.50    4.30
   0  -5  -7   -2.40    5.10
   0   5  -7    0.70    2.30
   0  -5   7   -4.70    3.30
   0   5  -7    0.20    2.50
   0  -5  -7   -1.60    3.50
   0   5   7    0.60    3.40
   0   5   7    0.40    1.40
   0  -5   7   -2.60    3.20
   0   5   9    7.10    3.40
   0  -5   9   -2.70    4.30
   0  -5   9    2.80    4.80
   0   5  -9   -4.70    2.80
   0   5  -9    3.50    3.90
   0  -5   9   -0.40    5.50
   0   5  -9   10.10    6.30
   0  -5  -9    2.60    5.10
   0   5   9    5.00    6.30
   0   5   9    9.40    4.50
   0   5  -9   14.20    4.70
   0  -5  -9   -0.30    4.20
   0  -5   9   19.30    6.70
   0  -5  -9   12.50    5.70
   0   5   9    2.70    4.70
   0  -5   9    1.20    4.90
   0   5   9    5.40    4.20
   0  -5  11  -18.80    9.30
   0   5 -11   33.20   10.50
   0   5  11    3.30    9.40
   0  -5  11   -3.10    6.70
   0  -5 -11   12.50    9.50
   0   5 -11    2.00    5.10
   0   5 -11    0.50    7.90
   0   5  11    2.70    5.60
   0  -5 -11    2.80    5.40
   0   5  11   -2.10    5.30
   0  -5  11   -8.70    8.00
   0  -5  11   12.60   10.10
   0   6   0  269.97   13.90
   0  -6   0  265.37   13.60
   0  -6   0  252.37   13.40
   0  -6   0  258.57   13.40
   0  -6   0  254.77   13.50
   0  -6   0  275.17   13.60
   0  -6   0  271.07   13.50
   0  -6   0  281.27   13.80
   0  -6  -2   42.00    3.70
   0  -6  -2   46.30    3.90
   0  -6   2   44.00    4.00
   0   6   2   47.60    3.20
   0  -6  -2   43.80    3.00
   0  -6  -2   41.70    2.90
   0   6  -2   42.00    4.10
   0  -6   2   49.30    2.70
   0  -6   2   45.90    3.40
   0   6   2   44.10    3.70
   0   6   2   41.60    3.90
   0  -6   2   40.30    3.30
   0  -6   2   47.30    3.90
   0  -6   2   47.20    3.60
   0  -6   2   50.39    2.70
   0   6  -2   45.60    4.00
   0   6  -2   47.70    3.50
   0  -6  -2   46.10    3.50
   0  -6  -2   44.00    2.80
   0  -6  -2   43.00    2.80
   0  -6  -4  684.53   32.20
   0  -6  -4  629.04   31.80
   0  -6   4  631.14   32.20
   0   6   4  622.94   31.60
   0  -6  -4  701.53   32.70
   0   6  -4  649.34   32.20
   0  -6  -4  662.93   32.00
   0  -6   4  675.23   32.60
   0   6   4  642.64   31.60
   0  -6   4  643.74   32.40
   0  -6   4  645.04   31.90
   0   6  -4  621.74   32.10
   0  -6  -4  627.04   31.50
   0   6   4  648.74   32.50
   0   6  -4  642.54   32.40
   0   6   4  631.84   32.20
   0  -6   4  632.84   31.90
   0   6  -4  633.94   32.30
   0   6   4  676.83   31.80
   0  -6   6  639.34   31.60
   0   6  -6  624.54   32.00
   0  -6   6  618.34   32.00
   0   6  -6  632.94   31.10
   0  -6  -6  629.44   31.70
   0  -6  -6  638.84   32.10
   0  -6  -6  626.34   31.80
   0  -6  -6  626.24   31.70
   0   6   6  637.34   31.40
   0  -6   6  662.93   32.20
   0   6  -6  656.33   32.00
   0  -6   6  631.94   32.40
   0   6   6  631.84   31.40
   0   6  -6  656.13   31.10
   0   6   6  610.84   31.30
   0   6  -6  619.14   31.50
   0  -6   6  646.54   31.80
   0   6   6  583.54   32.40
   0   6   8  204.28   12.60
   0   6  -8  184.88   10.30
   0  -6  -8  187.48   12.00
   0   6  -8  216.38   12.80
   0  -6   8  175.38   11.90
   0   6  -8  178.58   11.30
   0  -6   8  186.88   12.20
   0   6   8  178.48   11.60
   0  -6   8  178.48   11.70
   0   6   8  190.48   11.30
   0   6   8  174.38   11.40
   0  -6  -8  173.88   11.70
   0   6  -8  189.88   12.30
   0   6  -8  160.38   11.30
   0  -6   8  183.78   12.40
   0  -6  -8  196.98   11.00
   0  -6  -8  189.38   11.80
   0  -6   8  184.08   11.80
   0  -6  10   23.80    8.00
   0  -6  10    5.80    6.00
   0   6 -10    6.50    4.70
   0   6  10    2.40    8.40
   0  -6 -10   15.80    7.20
   0   6  10   12.20    6.40
   0   6 -10    9.10    4.80
   0   6 -10   13.70    8.00
   0   6 -10   11.40    4.50
   0  -6 -10   12.10    5.20
   0   6  10   24.10    5.70
   0   6  10   12.50    5.80
   0  -6  10   12.10    7.10
   0  -7  -1   -0.40    2.10
   0  -7  -1   -0.20    2.10
   0  -7   1   -0.80    2.50
   0   7   1    1.40    2.20
   0  -7  -1   -1.30    1.00
   0  -7   1    0.70    1.80
   0  -7   1   -0.90    1.90
   0  -7   1   -0.50    2.10
   0  -7  -1   -0.10    2.60
   0  -7  -1   -0.50    2.40
   0  -7   1   -0.70    1.90
   0   7   1   -1.50    1.80
   0  -7  -1   -0.20    0.50
   0  -7  -1   -2.60    1.20
   0  -7   1   -1.60    2.60
   0  -7  -1    0.20    1.00
   0  -7  -3    1.70    1.10
   0  -7  -3    0.60    1.30
   0  -7  -3    0.20    3.50
   0  -7   3   -0.20    1.70
   0  -7   3    0.20    2.20
   0  -7   3   -0.60    3.40
   0  -7   3    0.60    3.40
   0  -7   3   -0.40    1.60
   0  -7  -3    0.50    2.10
   0   7   3    2.90    2.40
   0  -7  -3    0.40    1.00
   0  -7  -3    0.50    1.70
   0   7  -3    4.00    2.80
   0  -7  -3    3.10    2.90
   0  -7  -3   -1.50    1.70
   0  -7   5   -2.70    2.90
   0   7  -5    0.20    2.80
   0   7   5    0.10    2.50
   0  -7   5   -2.10    3.70
   0  -7  -5    1.50    3.10
   0  -7  -5   -1.90    2.80
   0  -7  -5    0.30    0.90
   0  -7  -5    0.60    2.40
   0   7   5   -0.60    1.80
   0  -7   5    0.50    1.90
   0  -7  -5   -2.10    2.70
   0   7   5    1.40    1.90
   0  -7  -5   -1.80    3.50
   0   7  -5    0.40    3.70
   0   7   7    0.90    3.90
   0   7  -7    0.20    1.90
   0  -7  -7    9.90    4.80
   0   7   7    1.90    4.00
   0  -7   7    2.60    3.60
   0  -7  -7   -0.40    4.00
   0  -7   7    7.80    4.80
   0  -7  -7    8.80    4.00
   0   7  -7    5.60    4.90
   0   7  -7    2.90    2.90
   0  -7   7    0.70    5.00
   0   7  -7    0.10    4.10
   0   7   7   -0.40    3.40
   0   7   7    3.40    4.90
   0  -7  -7    1.80    4.00
   0  -7  -9   -0.30    6.00
   0  -7  -9    4.40    4.60
   0  -7   9   -2.90    6.40
   0  -7   9   -1.50    9.10
   0   7   9    0.80    4.50
   0  -7   9   -2.50    5.00
   0   7  -9    0.30    5.20
   0  -7  -9   -0.90    5.20
   0   7   9    3.20    4.90
   0   7  -9    2.80    5.10
   0   7  -9    4.20    4.20
   0   7   9   -1.00    4.70
   0  -7   9    1.20    6.90
   0  -8   0   41.40    4.60
   0  -8   0   39.20    4.50
   0  -8   0   44.20    4.80
   0  -8   0   44.60    5.10
   0  -8   0   45.60    4.50
   0  -8   0   43.70    4.20
   0  -8   0   50.39    4.10
   0   8   0   42.90    4.10
   0   8  -2  312.97   16.20
   0   8   2  305.77   16.40
   0  -8   2  309.47   15.10
   0  -8  -2  312.97   15.50
   0   8  -2  320.77   16.00
   0  -8   2  296.07   15.10
   0  -8   2  322.87   16.30
   0  -8   2  260.27   16.20
   0  -8  -2  324.87   16.10
   0  -8   2  305.17   15.70
   0  -8  -2  314.17   15.30
   0  -8   2  321.97   16.30
   0  -8  -2  306.47   15.80
   0  -8  -2  298.37   15.30
   0  -8  -2  300.47   15.30
   0  -8   2  305.07   16.30
   0   8   2  306.07   16.30
   0  -8   2  313.17   15.90
   0   8  -4  285.37   15.60
   0  -8  -4  297.07   15.90
   0   8   4  274.37   15.90
   0  -8   4  283.57   15.10
   0  -8  -4  296.77   14.60
   0  -8  -4  291.87   15.30
   0  -8  -4  283.37   14.60
   0   8  -4  285.37   15.50
   0  -8   4  286.07   14.60
   0   8   4  257.47   16.30
   0  -8   4  287.37   14.50
   0  -8  -4  279.87   14.80
   0  -8   4  291.57   15.70
   0   8   4  294.47   14.60
   0  -8   4  292.27   14.60
   0  -8   4  274.17   15.40
   0  -8   4  275.77   15.70
   0   8  -4  289.57   15.20
   0  -8  -6   45.70    6.00
   0   8  -6   35.10    6.10
   0  -8  -6   34.10    5.70
   0   8   6   38.20    5.90
   0  -8   6   34.00    5.60
   0  -8  -6   34.10    5.60
   0  -8  -6   39.70    5.40
   0   8   6   33.80    3.80
   0   8   6   34.60    4.70
   0  -8   6   37.30    5.90
   0  -8   6   27.90    5.40
   0   8  -6   43.90    5.60
   0  -8   6   45.30    6.20
   0   8   6   34.90    4.30
   0  -8   6   37.20    4.30
   0   8  -6   36.40    6.10
   0   8  -8    8.30    1.90
   0   8   8   12.60    5.20
   0  -8   8   15.80    7.50
   0   8   8   10.70    3.30
   0  -8   8    8.90    5.70
   0   8   8   10.10    4.50
   0   8  -8    5.90    8.30
   0   8  -8    8.10    5.10
   0  -8  -8    7.60    4.80
   0  -8   8   10.20    4.40
   0   8   8    5.10    6.70
   0  -8   8    6.10    4.70
   0  -8  -8    7.10    5.10
   0  -8  -8   10.20    4.50
   0  -8  -8    5.60    5.80
   0   8  -8    8.30    2.00
   0   8  -8   11.60    5.60
   0  -8  10   60.79   10.70
   0   8  10   83.59    9.70
   0   8 -10   52.99   12.10
   0   8  10   82.89   11.40
   0  -8  10   78.39   12.90
   0  -9  -1    1.30    2.80
   0  -9  -1    2.90    2.10
   0   9  -1    0.90    3.30
   0  -9  -1    0.00    1.10
   0  -9   1    1.40    3.90
   0  -9  -1    1.30    3.40
   0  -9   1   -0.90    1.90
   0  -9   1    0.70    3.30
   0  -9   1    0.10    3.40
   0   9   1    0.80    3.00
   0  -9   1    0.10    2.50
   0  -9  -1    0.60    1.30
   0  -9  -1   -0.80    3.30
   0  -9  -1    1.00    3.50
   0  -9  -1   -0.30    2.50
   0  -9   1    1.50    2.10
   0  -9   3   -0.50    3.70
   0  -9   3   -2.20    3.50
   0  -9  -3    1.60    2.60
   0  -9  -3    0.50    1.20
   0   9   3   -1.90    2.70
   0  -9   3   -0.50    2.80
   0  -9   3   -0.30    1.30
   0   9  -3    0.40    3.30
   0  -9   3   -6.60    4.10
   0  -9   3   -0.80    3.10
   0   9   3    9.40    4.80
   0  -9  -3    4.00    1.90
   0   9  -3   -0.10    3.70
   0  -9  -3   -0.20    1.70
   0  -9  -3   -1.40    3.60
   0  -9  -3    6.80    3.20
   0  -9   3    1.20    2.20
   0  -9  -5   -3.00    3.90
   0   9   5    2.80    3.40
   0   9  -5   -0.10    4.20
   0  -9  -5    0.90    2.10
   0  -9  -5    0.70    3.30
   0  -9   5    1.40    4.10
   0   9  -5    3.90    4.10
   0  -9   5    1.60    4.40
   0  -9  -5   -1.00    4.80
   0  -9   5   -1.60    4.60
   0   9   5    5.70    4.70
   0  -9  -5    0.90    3.50
   0   9   5    3.40    2.30
   0  -9   5    0.80    2.50
   0  -9  -7    2.70    5.70
   0   9   7    0.00    1.80
   0   9  -7   -0.90    3.00
   0  -9  -7   -1.40    4.60
   0  -9  -7   -1.00    4.30
   0   9   7    1.90    4.70
   0   9   7    6.20    6.80
   0  -9   7    5.20    6.20
   0   9   7   -0.30    2.00
   0  -9   7    1.90    4.10
   0  -9  -7   -1.70    5.50
   0   9  -7    3.30    5.70
   0  -9   7   -1.70    5.20
   0  -9   7   -1.30    5.30
   0   9  -9   -4.40    8.00
   0  -9   9    1.10    6.00
   0   9   9    0.40    5.00
   0  -9   9   34.90   10.70
   0   9   9   14.70   11.40
   0  -9   9    5.60    7.50
   0  -9  -9    0.20    7.30
   0 -10   0  130.49    8.40
   0  10   0  124.59    8.40
   0 -10   0  132.39    7.80
   0 -10   0  127.99    9.00
   0 -10   0  118.69    8.40
   0 -10   0  137.09    9.00
   0 -10   0  127.49    8.60
   0 -10   0  129.39    7.70
   0 -10  -2   43.00    3.60
   0  10   2   40.10    5.90
   0 -10   2   35.30    5.40
   0 -10  -2   42.90    6.40
   0 -10   2   42.20    5.30
   0 -10   2   43.00    2.90
   0 -10  -2   43.10    5.50
   0 -10  -2   43.40    5.20
   0 -10   2   36.40    6.10
   0 -10   2   38.30    6.10
   0 -10   2   49.99    4.20
   0 -10  -2   49.99    6.10
   0 -10  -2   42.30    4.70
   0  10  -2   43.70    4.70
   0 -10   2   38.70    2.90
   0 -10  -2   36.40    3.50
   0 -10   2   44.40    5.30
   0 -10  -2   31.90    3.00
   0 -10   2   35.50    5.30
   0 -10  -4   48.10    5.00
   0 -10   4   58.09    4.80
   0  10  -4   38.90    6.00
   0 -10   4   53.19    6.80
   0 -10  -4   53.89    5.60
   0  10   4   51.19    6.70
   0  10  -4   50.69    6.20
   0 -10  -4   52.89    6.40
   0  10   4   51.49    5.80
   0 -10  -4   47.20    5.90
   0 -10   4   55.89    6.10
   0 -10  -4   45.30    5.40
   0 -10   4   50.09    6.80
   0 -10   4   34.80    6.00
   0 -10  -4   46.00    4.60
   0 -10   4   45.30    6.10
   0 -10   4   51.59    6.40
   0 -10  -6   25.30    5.00
   0  10   6   20.30    4.10
   0  10   6   25.10    7.40
   0 -10   6   24.00    5.60
   0 -10   6   12.10    5.30
   0 -10  -6   28.80    5.00
   0 -10  -6   33.50    6.30
   0 -10   6   25.20    5.90
   0 -10   6   22.50    8.60
   0 -10   6   32.50    6.20
   0  10  -6   30.90    5.20
   0  10   6   27.90    4.40
   0 -10   6   25.70    5.00
   0  10  -6   30.40    6.50
   0  10  -6   16.50    3.80
   0  10  -8    4.40    4.40
   0 -10  -8    4.20    7.10
   0 -10   8    4.80    5.40
   0 -10   8   -7.10    8.20
   0  10  -8    5.50    6.30
   0 -10   8    3.10    5.80
   0  10   8   -0.40    5.20
   0  10   8    0.30    8.80
   0 -10  -8    5.50    5.90
   0  10  -8   10.50    7.60
   0 -10   8   -0.60    9.40
   0 -11   1    0.90    3.50
   0 -11  -1   -6.20    5.00
   0 -11   1    0.70    4.20
   0 -11  -1    0.70    2.70
   0 -11  -1   -0.30    4.00
   0  11  -1    1.50    2.80
   0 -11   1   -4.70    3.40
   0 -11  -1    0.50    1.40
   0 -11   1    0.90    4.00
   0 -11  -1   -0.20    2.70
   0  11   1    0.00    2.90
   0 -11  -1    1.40    4.20
   0 -11   1   -1.00    3.40
   0 -11  -1   11.30    4.30
   0 -11   1   -0.90    5.00
   0 -11  -1    1.10    4.00
   0 -11   1   -1.40    3.70
   0 -11  -1   -0.10    1.70
   0 -11  -3    7.60    2.60
   0 -11  -3   16.30    5.20
   0 -11  -3    6.40    4.80
   0 -11  -3    3.30    2.20
   0 -11   3    2.60    4.70
   0 -11   3    2.60    4.90
   0 -11  -3    5.30    1.80
   0 -11   3    2.80    4.50
   0 -11   3   -3.00    4.10
   0 -11  -3   14.90    4.40
   0  11   3    8.30    3.20
   0 -11  -3    5.30    2.70
   0 -11   3    8.20    4.80
   0  11  -3    6.80    2.90
   0 -11  -3    7.80    5.00
   0 -11  -5   -0.10    4.40
   0 -11   5    3.00    5.60
   0 -11  -5    0.70    2.90
   0  11   5    1.80    5.90
   0 -11   5    1.80    4.00
   0 -11  -5   -2.80    5.10
   0 -11  -5   -2.40    5.10
   0  11   5   -1.10    4.70
   0 -11   5    7.50    4.30
   0 -11   5    0.90    5.10
   0 -11   5   -0.40    6.40
   0 -11  -5    0.90    4.50
   0  11  -5    2.80    3.70
   0 -11  -5    2.30    3.30
   0 -11   5    0.40    5.40
   0  11  -5    2.90    5.70
   0 -11   7   10.90    6.40
   0  11  -7   -3.20    7.40
   0  11  -7    7.30    6.10
   0  11   7   -0.30    5.40
   0  11   7  -14.20    8.40
   0  11   7   -0.60    6.80
   0 -11  -7   -2.00    5.50
   0 -11  -7    9.90    7.50
   0 -11  -7   -2.50    5.60
   0 -11   7    9.10    7.80
   0  11  -7   -0.50    4.10
   0 -11   7   -1.90    5.20
   0 -11   7   -0.20    5.90
   0 -12   0  243.18   14.50
   0 -12   0  272.67   14.80
   0 -12   0  236.68   13.80
   0 -12   0  250.37   15.10
   0 -12   0  239.28   14.00
   0 -12   0  228.78   13.80
   0 -12   0  255.27   14.90
   0  12   0  238.38   14.60
   0  12   2  104.59   10.10
   0 -12  -2   95.29    6.50
   0 -12   2  119.19    9.00
   0  12  -2  123.09    9.00
   0 -12  -2  106.09    9.00
   0 -12  -2  110.69    8.90
   0 -12   2  121.09    9.90
   0 -12  -2  100.49    8.70
   0 -12  -2  112.69    7.70
   0 -12  -2   99.99    8.10
   0 -12   2  115.19    8.60
   0 -12  -2  108.49    9.20
   0 -12   2  109.29    9.10
   0 -12   2  102.99    5.90
   0 -12  -2  105.49    6.70
   0 -12   2  112.59    9.10
   0 -12   2  130.09    9.80
   0 -12  -4   80.79    8.90
   0 -12  -4   85.29    9.20
   0 -12  -4   89.29    8.40
   0 -12  -4   77.39    9.20
   0 -12   4   80.09    8.90
   0 -12   4  103.69    9.40
   0 -12  -4   90.79    6.30
   0 -12   4   77.69    6.60
   0 -12   4   95.39    9.30
   0 -12   4   85.69    8.30
   0 -12   4   74.29    8.40
   0  12   4   82.39   11.90
   0 -12  -4   79.79    6.60
   0  12  -4   87.69    9.20
   0 -12   4   76.09    7.20
   0 -12   4   85.09    9.00
   0 -12   6   58.29    9.30
   0 -12  -6   47.50    7.00
   0 -12   6   36.00    6.30
   0 -12  -6   53.49    8.50
   0 -12  -6   55.89    7.70
   0  12  -6   43.70    7.10
   0  12   6   54.79   10.20
   0 -12   6   45.10    8.00
   0 -12   6   57.69   10.30
   0  12   6   57.19    9.60
   0  12  -6   50.59    9.70
   0 -13   1    3.20    5.80
   0 -13  -1    0.80    6.80
   0 -13  -1   18.00    3.30
   0  13  -1    3.00    7.00
   0 -13  -1    3.80    5.50
   0  13   1    1.30    6.20
   0 -13   1   17.50    5.90
   0  13  -3   -0.90    7.10
   0 -13  -3   -1.70    6.00
   0 -13  -3   -0.10    3.00
   0 -13  -3   -2.60    5.70
   0 -13   3    1.70    6.30
   0 -13   3    3.80    5.80
   0 -13   3    4.40    6.50
   0 -13  -3   -0.80    2.20
   0 -13   3    1.50    6.10
   0  13   3   -0.40    3.80
   0 -13  -3    0.20    3.40
   0 -13   3    9.50    5.50
   0 -13  -3   -0.60    3.20
   0 -13  -3    0.70    4.40
   0 -13  -3    1.50    6.00
   0  13   5   30.80   11.50
   0 -13   5   14.20    8.30
   0 -13   5    2.10    7.50
   0 -13   5   23.70    7.80
   0 -13   5    3.20    8.20
   0 -13  -5    2.10    6.10
   0  13  -5    0.20    5.00
   0  14   0    0.50    5.30
   0 -14   0    2.90    6.00
   0 -14   0    2.60    7.20
   0 -14   0    1.30    6.10
   0 -14   0    7.50    9.90
   0 -14   2  102.09   11.20
   0 -14  -2   65.29    9.50
   0 -14   2   76.39    9.50
   0 -14  -2   78.79   10.50
   0 -14   2   71.59   10.10
   0  14  -2   71.39   11.20
   0  14   2   77.79   11.00
   0 -14   2   66.29   10.00
   0 -14   4   25.30    8.20
   0  14  -4   21.90    7.20
   0 -14  -4   26.60   11.60
   0 -14   4   32.60    9.40
   0  14   4   18.10    4.60
   0 -14   4   29.50    7.70
  -1   0   2    1.30    0.70
   1   0  -2    0.70    0.80
   1   0  -2    0.80    0.40
   1   0   2    0.90    0.80
   1   0  -2    0.90    0.80
   1   0   2    1.40    0.90
   1   0  -2    0.30    0.80
   1   0   2    0.70    0.60
  -1   0   2    1.40    0.60
  -1   0  -2    0.20    0.80
   1   0  -2    0.90    0.60
  -1   0  -2    1.10    0.70
  -1   0   2    0.90    0.40
  -1   0  -2    1.00    0.50
   1   0   2    1.20    0.70
  -1   0   2    1.10    0.80
  -1   0   2    0.50    0.60
  -1   0  -2    0.60    0.60
  -1   0  -2    1.00    0.90
  -1   0  -4    0.50    1.30
   1   0  -4    2.40    1.50
   1   0   4    2.10    1.30
  -1   0  -4    1.00    1.10
  -1   0   4   -0.40    1.10
   1   0  -6   -2.00    1.90
   1   0   6   -0.70    2.70
   1   0   6   -0.20    2.50
   1   0  -6   -0.30    3.00
  -1   0  -6   -0.80    2.60
  -1   0   6    0.20    2.80
   1   0   6   -0.10    1.50
  -1   0   6   -0.70    2.60
   1   0   6    1.50    2.80
  -1   0   6   -0.20    1.60
   1   0  -6    0.60    2.20
  -1   0  -6   -0.10    1.90
  -1   0   6   -0.20    1.90
  -1   0  -6    0.40    3.00
  -1   0  -6    0.80    1.40
   1   0  -6   -0.30    2.80
   1   0   6    1.70    1.70
  -1   0  -6   -3.80    1.80
  -1   0   8   -1.00    2.70
  -1   0  -8    1.00    2.00
   1   0   8    1.80    3.40
  -1   0   8    0.60    2.60
   1   0   8    4.50    4.30
   1   0   8    1.90    2.90
   1   0  -8    1.50    3.60
  -1   0  -8   -1.00    3.10
   1   0  -8    5.60    4.20
  -1   0  -8    0.50    2.50
  -1   0  -8    8.90    4.30
  -1   0  -8    0.40    3.10
   1   0   8    2.40    3.70
  -1   0   8    6.80    3.90
  -1   0   8   -0.90    3.20
   1   0  -8    1.50    3.30
   1   0  -8    0.30    3.50
  -1   0  10    7.70    4.70
   1   0  10    6.70    4.50
  -1   0  10    1.10    5.50
   1   0 -10   -4.60    7.10
   1   0 -10    5.50    4.00
  -1   0  10   10.10    5.00
  -1   0 -10   12.80    3.00
   1   0 -10    4.60    5.20
  -1   0 -10   13.40    5.20
  -1   0 -10    6.40    4.30
   1   0  10    3.90    6.40
   1   0  10    7.40    6.10
   1   0  10   11.70    4.80
  -1   0  10    4.00    4.60
   1   0  10    9.80    4.40
  -1   0 -10    6.50    7.20
  -1   0  10    4.70    6.30
   1   0  12    4.80   10.40
  -1   0  12    6.10    9.10
  -1   0 -12    2.70    9.50
   1   0  12    2.20   12.20
  -1   0  12    1.20   12.00
   1   0 -12   -1.00    9.60
  -1   1  -1  265.77   12.90
  -1  -1   1  274.67   12.80
   1  -1  -1  265.27   12.80
   1   1   1  220.78   12.80
  -1   1  -1  222.58   12.70
   1   1   1  263.27   12.80
  -1  -1   1  275.27   12.80
   1   1   1  272.07   12.80
   1   1   1  220.68   12.70
   1  -1  -1  261.17   12.80
  -1  -1   1  273.67   12.90
   1   1   1  274.97   12.80
   1  -1  -1  276.87   12.80
  -1  -1   1  265.67   12.80
  -1  -1   1  263.37   12.70
  -1   1  -1  269.97   12.90
   1  -1  -1  253.87   12.80
  -1   1  -1  264.37   12.80
   1   1  -1  267.87   12.70
   1  -1   1  264.87   12.80
  -1  -1  -1  260.77   12.80
   1   1  -1  257.27   12.70
   1   1  -1  281.67   12.90
   1   1  -1  259.17   12.80
  -1  -1  -1  267.47   12.80
  -1  -1  -1  260.67   12.80
   1  -1   1  261.07   12.80
  -1   1   1  284.37   12.80
  -1   1   1  271.57   12.80
   1  -1   1  275.27   12.90
   1   1  -1  229.28   12.70
  -1   1   1  239.98   12.80
  -1  -1  -1  260.07   12.80
  -1  -1  -1  255.37   12.80
  -1   1   1  267.07   12.80
  -1   1   1  226.08   12.80
   1   1  -1  267.07   12.70
   1  -1   1  276.57   12.80
  -1   1  -3  570.64   27.10
  -1   1  -3  540.25   27.00
   1   1   3  551.24   27.10
  -1  -1   3  549.05   27.00
  -1  -1   3  532.35   27.00
   1  -1  -3  569.34   27.20
   1  -1  -3  542.75   27.10
  -1   1  -3  562.64   27.20
   1  -1  -3  569.34   27.10
   1  -1  -3  545.55   27.00
   1   1   3  572.34   27.10
  -1  -1   3  541.95   27.10
   1   1   3  530.95   26.90
   1   1   3  571.44   27.10
  -1   1  -3  527.75   26.70
  -1   1  -3  538.25   27.00
  -1  -1   3  564.84   27.10
   1  -1   3  563.54   27.10
  -1   1   3  529.55   27.00
   1   1  -3  542.45   27.00
  -1   1   3  534.15   27.00
  -1   1   3  569.44   27.10
   1   1  -3  557.24   27.10
  -1  -1  -3  556.14   27.10
  -1  -1  -3  547.75   26.90
   1  -1   3  555.64   27.10
  -1  -1  -3  538.05   27.10
   1  -1   3  561.24   27.20
   1  -1   3  563.34   27.10
  -1  -1  -3  563.64   27.10
   1  -1   3  552.94   27.10
   1   1  -3  564.54   27.10
  -1   1   3  548.35   26.80
   1   1  -3  555.24   27.10
  -1  -1  -3  531.95   26.90
  -1   1   3  542.85   27.10
   1  -1  -5   64.29    4.30
   1   1   5   60.09    4.40
   1   1   5   63.29    4.30
  -1  -1   5   59.59    4.30
   1  -1  -5   58.19    4.20
  -1   1  -5   61.99    3.40
   1   1   5   53.09    4.10
   1   1   5   63.99    4.40
  -1   1  -5   65.59    4.30
  -1   1  -5   60.49    4.50
   1  -1  -5   74.99    4.50
  -1  -1   5   62.49    4.50
  -1   1  -5   61.59    4.50
   1  -1  -5   64.59    4.60
   1   1   5   67.69    4.40
  -1  -1   5   75.49    4.20
  -1  -1   5   58.29    4.70
  -1  -1   5   64.49    4.50
  -1   1  -5   55.29    4.00
   1  -1   5   64.09    4.50
  -1  -1  -5   60.49    3.70
   1  -1   5   60.39    4.80
  -1   1   5   56.39    3.90
  -1  -1  -5   61.59    4.40
  -1  -1  -5   62.09    4.50
  -1   1   5   63.79    4.50
   1  -1   5   71.89    4.40
  -1   1   5   57.79    4.30
  -1  -1  -5   68.39    3.90
   1   1  -5   66.29    4.60
   1   1  -5   65.79    4.30
  -1   1   5   73.09    4.30
   1   1  -5   61.39    4.40
   1   1  -5   60.69    4.30
   1  -1   5   58.09    4.40
   1  -1   5   62.19    4.20
  -1  -1  -5   62.19    4.30
  -1   1   5   62.19    3.80
   1  -1  -7  112.09    7.50
  -1   1  -7  107.29    7.10
   1  -1  -7   89.99    7.10
  -1   1  -7   92.69    7.10
  -1   1  -7  103.29    7.00
  -1  -1   7  114.99    7.60
  -1  -1   7   92.79    6.60
   1  -1  -7  113.59    7.20
  -1  -1   7  108.69    6.60
  -1  -1   7  111.59    6.50
   1   1   7   89.99    7.00
   1   1   7  101.79    6.90
   1   1   7  105.19    7.40
   1   1   7  103.29    6.40
   1   1   7   91.49    7.30
  -1   1  -7  106.89    5.60
  -1  -1   7   97.09    7.20
  -1   1  -7  104.09    6.50
   1  -1  -7   94.29    7.10
  -1  -1  -7  103.69    5.90
   1   1  -7  101.19    7.00
   1  -1   7  101.49    7.30
  -1   1   7  110.59    6.60
  -1  -1  -7  101.19    7.10
   1   1  -7  110.69    7.20
  -1  -1  -7   90.79    7.10
  -1  -1  -7   98.69    6.20
   1  -1   7  105.49    6.50
  -1   1   7  107.59    6.90
   1   1  -7  118.89    7.60
  -1  -1  -7   92.69    7.10
  -1   1   7  106.59    7.00
   1   1  -7  109.19    7.40
   1  -1   7  110.89    7.80
   1  -1   7  103.79    6.90
   1  -1   7  104.69    7.20
  -1   1   7  109.89    7.30
   1   1   9   85.09    7.20
   1   1   9   65.29    6.80
  -1  -1   9   66.59    7.50
  -1  -1   9   70.59    6.40
  -1   1  -9   69.89    7.00
   1   1   9   64.59    7.90
   1   1   9   61.09    6.70
   1  -1  -9   90.79    8.20
  -1   1  -9   63.29    6.80
  -1   1  -9   67.19    4.80
   1  -1  -9   67.89    6.60
   1  -1  -9   72.29    6.60
  -1  -1   9   87.89    7.70
  -1  -1   9   74.39    7.40
   1   1   9   73.89    7.60
  -1   1  -9   61.79    7.20
   1  -1   9   70.89    8.10
  -1  -1  -9   64.19    5.50
  -1  -1  -9   89.59    7.90
   1   1  -9   70.09    7.40
   1  -1   9   67.79    6.30
   1  -1   9   89.49    8.10
   1   1  -9   68.39    7.40
   1  -1   9   93.09    8.40
  -1   1   9   72.89    6.90
  -1  -1  -9   64.09    5.90
   1   1  -9   70.99    7.40
  -1   1   9   50.59    8.70
  -1   1   9   69.19    7.10
  -1  -1  -9   63.69    6.80
  -1   1   9   63.49    7.20
  -1   1   9   71.39    7.30
  -1  -1  -9   65.59    6.40
   1  -1 -11    8.70    5.20
   1   1  11   14.60    5.60
  -1   1 -11   15.80    2.80
   1   1  11   17.90    8.80
  -1   1 -11   16.20    7.20
  -1  -1  11   17.50    7.20
  -1  -1  11    7.30    9.30
   1   1  11   15.20    6.60
   1   1  11   24.50    7.50
   1   1 -11   13.80    4.20
  -1   1  11   24.80    6.60
   1  -1  11   38.50    9.30
   1   1 -11   13.60    7.00
  -1   1  11   20.00    6.10
  -1  -1 -11   20.50    5.30
  -1   1  11   23.00    7.20
  -1  -2   0   65.49    3.20
   1   2   0   63.19    3.40
   1   2   0   68.09    3.50
   1   2   0   65.49    3.40
   1  -2   0   63.59    3.40
  -1  -2   0   67.09    3.40
  -1   2   0   68.59    3.60
   1  -2   0   65.19    3.30
  -1  -2   0   67.29    3.30
   1  -2   0   66.69    3.30
  -1  -2   0   64.69    3.50
  -1  -2   0   66.09    3.40
  -1   2   0   64.59    3.50
   1  -2   0   65.09    3.30
   1   2   0   58.79    3.50
  -1  -2   0   68.69    3.50
   1   2   0   63.09    3.40
  -1  -2   0   64.39    3.40
   1  -2  -2 4139.29  196.88
  -1  -2   2 4269.57  197.48
  -1  -2   2 4047.29  196.38
  -1   2  -2 4117.99  196.68
   1   2   2 3847.82  195.48
  -1  -2   2 4113.39  196.88
   1   2   2 4252.47  196.88
   1   2   2 4042.80  196.68
  -1  -2   2 4049.99  197.18
   1  -2  -2 3963.20  196.78
  -1   2  -2 4239.38  197.28
   1   2   2 3893.11  196.68
  -1   2  -2 3967.50  196.48
   1   2   2 4055.39  196.58
   1   2   2 4024.00  197.28
  -1  -2   2 4055.39  196.78
   1  -2  -2 4038.10  196.48
   1  -2  -2 4158.08  197.48
  -1   2  -2 4026.30  196.78
  -1  -2   2 4066.99  196.78
   1  -2   2 4213.48  197.18
   1   2  -2 4098.29  196.48
   1   2  -2 4189.48  196.28
  -1   2   2 4095.69  196.58
  -1  -2  -2 4150.48  196.88
  -1  -2  -2 4053.49  196.58
   1   2  -2 3881.31  196.28
   1  -2   2 4077.39  197.08
  -1   2   2 3925.51  196.18
   1   2  -2 4235.18  197.28
  -1  -2  -2 3848.11  196.48
   1  -2   2 3983.90  195.28
   1  -2   2 3419.06  195.78
   1   2  -2 4214.48  196.88
  -1   2   2 3969.80  196.08
   1  -2   2 4152.78  196.78
   1   2  -2 3990.00  197.08
  -1  -2  -2 3961.20  196.78
  -1  -2  -2 4139.59  196.98
  -1   2   2 3904.61  196.78
  -1   2   2 4000.00  197.28
   1   2   4  135.49    7.30
   1  -2  -4  131.69    7.30
   1   2   4  131.19    7.10
   1   2   4  125.99    7.10
  -1  -2   4  137.79    7.10
  -1  -2   4  127.09    7.10
   1   2   4  121.79    6.70
  -1   2  -4  126.59    7.20
  -1  -2   4  136.99    7.10
  -1  -2   4  138.19    7.10
   1  -2  -4  128.39    6.80
   1  -2  -4  131.69    7.10
  -1   2  -4  116.29    7.00
   1   2   4  129.09    7.00
   1  -2  -4  136.39    7.20
  -1  -2   4  134.19    7.30
  -1   2  -4  122.79    6.90
   1   2  -4  132.99    7.10
   1   2  -4  127.59    7.10
  -1   2   4  122.89    7.10
  -1   2   4  131.49    7.10
   1  -2   4  133.49    7.10
  -1  -2  -4  147.49    7.00
  -1   2   4  128.19    7.00
   1  -2   4  133.69    7.10
   1   2  -4  122.59    6.90
  -1  -2  -4  139.49    7.20
   1   2  -4  128.39    7.30
  -1  -2  -4  129.19    7.20
   1  -2   4  134.19    7.20
  -1  -2  -4  124.09    6.70
   1   2  -4  127.29    7.20
  -1   2   4  131.39    7.10
  -1  -2  -4  130.89    7.10
   1  -2   4  137.49    7.30
  -1   2   4  124.39    6.80
   1   2  -4  129.59    6.80
   1  -2   4  125.39    7.30
   1   2   6    0.60    2.90
  -1  -2   6    2.80    2.60
  -1   2  -6    3.50    0.70
  -1   2  -6    9.70    3.00
   1  -2  -6    4.50    2.10
   1   2   6   -0.10    1.80
  -1   2  -6    0.90    2.00
  -1  -2   6    4.70    2.10
   1   2   6    4.30    1.30
   1   2   6    0.60    2.60
  -1  -2   6    3.60    2.70
   1  -2  -6    5.00    2.30
  -1   2  -6    1.40    2.80
   1  -2  -6    8.40    3.00
   1   2   6    5.40    3.10
  -1   2  -6    1.80    2.20
   1  -2  -6    8.80    2.70
  -1   2   6   -0.90    3.00
  -1  -2  -6    3.60    1.70
   1  -2   6    3.60    2.50
   1  -2   6    5.60    2.70
   1   2  -6    2.50    3.20
  -1  -2  -6    6.00    2.40
  -1  -2  -6    6.40    2.90
  -1   2   6    2.80    2.20
   1   2  -6    2.70    2.10
   1  -2   6    5.00    2.50
  -1   2   6   -1.20    1.90
  -1  -2  -6    4.10    1.40
  -1  -2  -6    7.40    2.60
   1   2  -6    3.30    2.70
   1   2  -6    1.90    3.10
   1   2   8   58.49    6.00
   1   2   8   57.99    6.00
   1   2   8   61.59    8.20
  -1   2  -8   36.20    6.40
  -1  -2   8   45.60    6.40
  -1   2  -8   52.09    5.50
   1  -2  -8   54.89    5.70
   1  -2  -8   53.79    6.20
  -1   2  -8   54.89    3.10
   1  -2  -8   59.19    6.00
   1  -2  -8   48.40    6.10
   1   2   8   71.39    6.70
   1   2   8   51.19    4.50
  -1   2  -8   57.89    6.30
  -1  -2   8   50.69    5.50
  -1  -2   8   70.59    6.40
  -1   2   8   53.89    6.40
  -1   2   8   52.99    5.70
   1  -2   8   51.29    6.20
  -1  -2  -8   49.20    6.10
   1   2  -8   60.49    5.80
   1   2  -8   52.49    4.10
  -1  -2  -8   56.89    5.80
  -1  -2  -8   56.09    5.00
   1  -2   8   56.79    5.60
   1  -2   8   48.30    6.20
   1   2  -8   52.99    6.30
   1   2  -8   51.89    5.50
   1   2  -8   35.80    6.40
  -1   2   8   49.50    5.50
  -1   2   8   54.79    5.80
   1  -2   8   44.20    6.20
  -1  -2  -8   62.39    6.40
  -1  -2  -8   46.10    4.10
  -1   2   8   71.49    7.00
  -1   2 -10   53.09    7.40
   1  -2 -10   53.39    6.70
  -1   2 -10   51.19    5.90
  -1  -2  10   46.90    7.30
   1   2  10   58.59    7.30
   1   2  10   46.80    7.60
  -1  -2  10   50.09    6.90
  -1  -2  10   59.19   10.40
   1  -2 -10   53.79    6.80
   1   2  10   56.29    7.40
  -1  -2  10   51.29    7.60
   1   2  10   47.90    8.70
   1   2  10   62.39    8.70
   1  -2 -10   47.00    6.50
  -1  -2  10   65.79    7.60
   1  -2 -10   52.09    7.30
   1   2 -10   47.50    8.30
   1  -2  10   56.59    9.60
  -1  -2 -10   47.60    8.00
  -1  -2 -10   45.00    6.90
   1   2 -10   50.99    6.80
  -1   2  10   64.19    8.90
  -1   2  10   47.70    8.60
  -1   2  10   48.30    7.80
   1  -2  10   55.89    8.50
  -1  -2 -10   51.79    7.40
  -1  -2 -10   49.60    7.00
   1  -2  10   46.60    7.30
   1   2 -10   50.19    7.10
   1  -2  10   53.99    7.50
  -1   2  10   53.99    8.20
  -1   2  10   46.10    7.10
  -1   3  -1  669.43   34.10
  -1  -3   1  694.03   33.90
   1   3   1  761.22   34.00
   1  -3  -1  722.73   33.90
   1  -3  -1  681.23   33.80
  -1  -3   1  678.13   33.90
  -1  -3   1  662.13   33.80
   1   3   1  671.83   34.10
   1   3   1  681.23   33.80
   1  -3  -1  724.13   34.20
  -1  -3   1  742.23   34.10
   1   3   1  696.43   34.00
  -1  -3   1  668.73   33.90
   1   3   1  676.43   34.10
   1  -3  -1  672.53   33.90
  -1  -3   1  716.73   34.00
  -1   3  -1  758.62   34.10
  -1   3  -1  680.83   34.00
  -1  -3   1  695.53   34.00
  -1   3  -1  681.63   34.10
   1  -3  -1  678.83   33.80
   1   3   1  662.43   33.80
  -1  -3  -1  723.13   34.00
   1   3  -1  724.53   34.00
  -1   3   1  708.73   34.10
   1   3  -1  691.83   33.90
   1   3  -1  699.13   34.10
  -1  -3  -1  686.23   33.80
  -1   3   1  769.62   33.90
  -1   3   1  702.23   33.80
   1  -3   1  677.43   34.10
   1   3  -1  675.93   34.10
  -1  -3  -1  670.13   33.80
   1  -3   1  712.83   34.10
   1  -3   1  678.43   33.80
   1  -3   1  706.13   33.80
  -1  -3  -1  759.52   33.90
  -1   3   1  696.23   33.80
  -1  -3  -1  700.63   34.10
   1  -3   1  708.23   34.00
  -1   3   1  678.33   34.10
  -1  -3  -1  682.53   34.00
   1   3  -1  684.33   33.90
   1   3   3  583.74   29.50
  -1  -3   3  597.94   29.30
  -1   3  -3  601.34   29.50
  -1  -3   3  605.94   29.20
  -1  -3   3  598.44   29.30
   1  -3  -3  606.44   29.30
  -1   3  -3  601.84   29.20
   1   3   3  576.64   29.20
   1   3   3  593.44   29.20
   1  -3  -3  573.04   29.30
   1   3   3  602.34   29.30
   1  -3  -3  570.74   29.10
   1  -3  -3  603.84   29.50
  -1  -3   3  601.64   29.50
  -1   3  -3  599.24   29.40
  -1   3  -3  577.84   29.10
  -1  -3   3  618.54   29.50
   1   3   3  594.64   28.90
  -1   3  -3  621.24   29.50
  -1   3   3  595.24   29.20
   1   3  -3  611.74   29.30
   1   3  -3  585.74   29.10
  -1   3   3  593.44   29.30
   1   3  -3  578.44   29.00
  -1  -3  -3  602.14   29.30
  -1   3   3  569.44   29.10
   1  -3   3  617.64   29.50
  -1  -3  -3  617.34   29.40
  -1   3   3  587.24   29.20
   1   3  -3  603.64   29.20
  -1  -3  -3  602.64   29.30
   1   3  -3  596.54   29.40
   1   3  -3  616.94   29.50
  -1  -3  -3  562.34   29.20
   1  -3   3  591.14   29.20
   1   3  -3  631.34   29.20
   1  -3   3  606.84   29.30
  -1   3   3  595.04   29.10
  -1  -3  -3  576.64   29.30
   1  -3   3  601.94   29.40
   1  -3   3  599.84   29.50
  -1   3   3  595.64   29.50
  -1  -3   5  248.28   12.80
  -1   3  -5  232.28   12.50
  -1   3  -5  238.78   12.80
   1   3   5  237.68   12.40
   1  -3  -5  227.98   12.50
   1  -3  -5  228.88   12.90
  -1  -3   5  240.08   12.60
   1   3   5  237.88   12.80
   1  -3  -5  244.48   12.70
  -1  -3   5  263.47   12.60
   1   3   5  234.68   12.50
  -1  -3   5  260.57   12.70
   1   3   5  229.68   12.40
  -1   3  -5  215.88   12.50
   1  -3  -5  227.78   12.20
  -1  -3   5  246.58   12.50
   1   3   5  225.18   11.90
  -1   3  -5  232.38   12.30
   1   3  -5  239.38   12.40
  -1   3   5  237.18   12.50
  -1  -3  -5  242.08   12.80
  -1   3   5  243.28   12.50
   1  -3   5  240.48   12.70
  -1  -3  -5  238.58   12.50
  -1  -3  -5  247.78   12.30
   1  -3   5  238.48   12.70
  -1   3   5  226.38   12.60
   1   3  -5  263.07   12.10
   1   3  -5  239.58   12.90
   1   3  -5  247.98   12.70
  -1   3   5  229.38   12.10
  -1  -3  -5  250.27   12.70
   1   3  -5  246.48   12.60
   1  -3   5  237.58   12.70
  -1   3   5  242.38   12.30
   1  -3   5  231.38   12.40
   1   3  -5  242.38   12.50
  -1  -3  -5  223.88   11.90
   1  -3   5  242.68   12.60
   1   3   7  247.18   13.50
   1   3   7  247.18   13.40
  -1   3  -7  248.28   13.80
   1   3   7  229.88   13.60
   1  -3  -7  248.78   12.80
  -1  -3   7  239.38   13.80
   1   3   7  226.78   12.50
   1  -3  -7  264.17   13.90
  -1   3  -7  211.98   13.00
  -1  -3   7  272.57   13.60
  -1   3  -7  201.38   13.20
  -1  -3   7  250.87   13.50
   1  -3  -7  242.38   13.50
   1   3   7  254.77   13.50
  -1  -3   7  244.18   13.90
   1  -3  -7  251.77   13.40
  -1   3  -7  240.38   13.40
  -1   3   7  242.58   13.20
   1   3  -7  245.88   13.40
   1  -3   7  247.58   13.90
   1   3  -7  231.68   13.60
  -1  -3  -7  260.97   13.50
   1  -3   7  242.28   13.60
   1   3  -7  231.08   13.40
  -1   3   7  238.68   13.50
   1   3  -7  238.98   12.50
  -1  -3  -7  243.28   12.30
   1   3  -7  209.98   13.00
  -1   3   7  253.67   13.50
  -1  -3  -7  247.68   13.60
   1  -3   7  256.57   13.50
  -1   3   7  244.28   13.70
  -1  -3  -7  251.97   13.10
  -1  -3  -7  248.48   13.60
   1  -3   7  241.88   13.60
   1  -3   7  251.77   13.70
  -1   3   7  251.87   13.40
   1   3  -7  230.08   13.80
   1   3   9   11.70    5.40
  -1  -3   9   16.40    4.40
  -1   3  -9   13.30    4.50
   1  -3  -9   13.70    4.60
   1   3   9    9.40    4.20
   1   3   9    9.30    4.60
   1  -3  -9   17.20    4.30
   1   3   9   12.30    4.20
   1  -3  -9   14.50    4.90
  -1  -3   9   13.60    4.70
   1   3   9   12.50    3.40
  -1   3  -9   10.30    4.30
  -1  -3   9   13.90    5.00
  -1   3  -9   16.10    3.80
  -1  -3  -9   16.10    4.40
   1  -3   9   20.80    5.10
   1   3  -9   10.40    4.40
   1   3  -9   11.20    5.00
  -1   3   9   12.90    3.90
  -1   3   9   17.60    4.50
  -1   3   9   10.30    4.50
   1  -3   9   16.10    4.30
   1  -3   9   21.20    5.60
   1  -3   9   13.90    4.40
  -1  -3  -9   12.70    4.80
  -1  -3  -9   11.80    4.20
  -1   3   9   13.20    5.10
   1   3  -9   13.00    4.70
   1   3  -9   11.50    3.70
  -1   3   9   14.80    4.80
   1   3  -9   12.60    2.50
  -1  -3  -9   10.90    3.90
  -1  -3  11   23.70    7.40
  -1   3 -11   44.50    9.10
  -1  -3  11   31.40    7.40
   1  -3 -11   32.10    5.60
  -1   3 -11   43.60    7.40
   1   3  11   22.90    9.20
   1   3  11   21.40    6.30
   1   3  11   26.80    7.30
  -1  -3  11    9.70    7.80
  -1  -3  11   19.10    8.50
  -1   3 -11   35.70    5.10
   1   3 -11   30.30    3.80
   1   3 -11   16.30    5.50
  -1   3  11   27.80    6.30
  -1  -3 -11   28.80    5.10
  -1   3  11   28.40    8.40
  -1   3  11   28.70    7.70
  -1   4   0  252.77   12.90
   1   4   0  242.78   12.80
  -1  -4   0  262.97   12.90
  -1   4   0  269.77   12.80
   1   4   0  261.17   12.90
   1  -4   0  255.77   12.80
  -1  -4   0  245.38   12.70
   1   4   0  261.87   12.70
  -1  -4   0  249.38   12.80
   1  -4   0  254.47   13.00
  -1  -4   0  258.27   12.80
   1  -4   0  259.57   12.80
   1   4   0  255.97   12.70
  -1  -4   0  245.28   12.70
   1   4   2  506.35   25.70
  -1   4  -2  534.25   26.20
   1   4   2  542.15   26.20
  -1   4  -2  576.54   26.20
  -1   4  -2  521.25   26.00
  -1   4  -2  447.06   26.10
   1   4   2  533.65   25.90
   1   4   2  510.05   25.70
  -1  -4   2  545.45   26.20
  -1  -4   2  546.35   26.20
   1  -4  -2  513.25   25.70
   1   4   2  521.85   26.20
   1  -4  -2  511.15   25.80
  -1  -4   2  513.75   25.80
   1  -4  -2  507.75   25.70
   1  -4  -2  515.35   25.90
  -1  -4   2  513.35   25.90
   1  -4  -2  541.55   26.20
  -1  -4   2  536.15   26.10
  -1  -4   2  535.65   25.80
  -1  -4   2  528.05   25.80
   1  -4  -2  531.25   25.80
  -1  -4  -2  523.65   25.90
  -1   4   2  533.55   25.70
   1   4  -2  513.15   25.80
  -1  -4  -2  535.85   25.90
  -1  -4  -2  556.84   26.10
   1   4  -2  554.34   26.20
  -1   4   2  523.65   25.70
   1  -4   2  534.95   26.00
  -1  -4  -2  549.54   26.20
   1  -4   2  504.55   25.80
   1   4  -2  544.85   26.00
   1  -4   2  539.45   26.20
  -1   4   2  530.65   26.20
   1  -4   2  525.55   26.10
   1  -4   2  534.05   26.10
   1   4  -2  545.95   26.20
  -1  -4  -2  539.15   25.90
   1   4  -2  534.95   25.90
   1  -4   2  529.65   25.80
  -1   4   2  526.45   25.70
   1  -4  -4  770.72   37.80
  -1   4  -4  758.92   37.50
  -1   4  -4  776.42   37.90
  -1  -4   4  766.72   37.80
  -1  -4   4  778.12   37.70
   1  -4  -4  801.02   38.10
  -1  -4   4  767.82   38.00
  -1   4  -4  742.93   37.80
  -1   4  -4  775.32   38.00
  -1  -4   4  775.92   38.00
   1   4   4  758.62   37.60
   1  -4  -4  735.43   37.80
   1   4   4  780.52   37.70
   1  -4  -4  729.73   37.40
   1   4   4  762.02   38.00
  -1   4  -4  758.52   37.50
  -1   4  -4  796.12   37.90
   1   4   4  749.92   37.60
  -1  -4   4  767.52   37.70
   1   4   4  765.42   37.90
   1   4  -4  744.93   37.50
   1   4  -4  803.92   37.80
  -1  -4  -4  745.23   37.70
   1  -4   4  770.22   38.00
   1   4  -4  773.12   37.90
   1  -4   4  772.02   38.00
   1   4  -4  775.72   38.00
  -1  -4  -4  774.32   37.70
  -1  -4  -4  776.22   37.90
   1  -4   4  798.02   38.00
  -1   4   4  756.32   37.80
   1   4  -4  730.13   37.40
  -1   4   4  780.82   37.70
  -1  -4  -4  765.52   37.80
  -1   4   4  755.12   38.00
   1   4  -4  769.82   37.50
  -1  -4  -4  779.32   37.80
   1  -4   4  770.72   37.70
  -1   4   4  755.12   37.60
  -1   4   4  774.22   37.50
   1  -4   4  791.02   37.70
   1   4  -4  799.22   37.60
  -1   4  -6   44.90    3.90
  -1  -4   6   46.20    3.90
  -1  -4   6   50.59    5.30
   1   4   6   43.70    5.10
  -1   4  -6   37.50    4.80
  -1   4  -6   44.70    4.70
  -1  -4   6   54.79    4.10
   1   4   6   46.70    4.80
  -1   4  -6   45.50    4.00
   1  -4  -6   38.10    4.70
  -1  -4   6   55.99    5.10
   1   4   6   46.20    4.40
   1   4   6   43.80    3.00
  -1   4  -6   31.60    4.70
   1  -4  -6   47.50    4.90
   1   4   6   48.90    5.50
  -1  -4  -6   45.00    4.90
  -1   4   6   45.20    3.90
  -1  -4  -6   40.60    2.90
   1   4  -6   55.79    5.20
   1  -4   6   39.40    4.50
  -1   4   6   37.80    3.70
  -1   4   6   45.40    5.10
   1   4  -6   39.00    2.80
  -1  -4  -6   36.80    4.90
   1  -4   6   47.40    5.30
   1  -4   6   51.99    3.90
   1   4  -6   45.60    3.70
   1   4  -6   47.40    4.00
   1   4  -6   50.59    5.30
  -1  -4  -6   42.70    5.10
   1  -4   6   58.09    5.10
   1   4  -6   45.80    4.00
   1  -4   6   47.70    5.00
  -1   4   6   45.80    4.50
   1   4  -6   49.00    5.10
  -1   4  -8  231.88   14.20
  -1  -4   8  241.78   14.00
  -1   4  -8  229.98   13.90
   1   4   8  232.08   14.40
  -1  -4   8  235.88   14.30
   1  -4  -8  253.17   14.40
  -1  -4   8  240.88   14.20
  -1  -4   8  248.68   13.90
  -1   4  -8  220.38   13.40
   1   4   8  272.67   14.50
   1  -4  -8  251.47   14.00
  -1   4  -8  259.37   14.00
  -1   4  -8  250.97   13.20
  -1  -4   8  249.48   14.10
   1   4   8  241.88   12.70
   1   4   8  244.08   13.70
   1  -4  -8  243.88   13.10
   1  -4  -8  239.18   14.10
   1   4   8  258.77   14.00
  -1   4  -8  208.08   15.30
  -1   4   8  284.67   14.60
  -1   4   8  247.18   14.30
  -1  -4  -8  266.47   14.40
  -1   4   8  237.28   13.10
  -1  -4  -8  222.38   12.20
  -1   4   8  259.97   13.90
   1   4  -8  232.08   13.80
   1  -4   8  250.07   14.20
   1  -4   8  238.08   14.10
   1  -4   8  252.87   13.90
  -1  -4  -8  255.57   14.10
   1   4  -8  270.67   13.10
   1   4  -8  252.27   14.20
   1  -4   8  245.98   14.10
  -1   4   8  251.57   13.90
   1   4  -8  231.28   14.10
   1  -4   8  236.88   14.10
   1   4  -8  221.58   13.40
   1   4  -8  221.38   12.10
  -1  -4  -8  223.58   13.10
  -1  -4  -8  234.28   14.00
   1   4  10    8.40    4.60
   1   4  10   -4.40    6.10
   1   4  10    3.60    3.90
  -1  -4  10    3.50    4.50
  -1   4 -10    9.00    3.70
  -1  -4  10    0.40    5.50
  -1   4 -10    4.70    3.70
  -1  -4  10    7.60    6.30
   1   4  10    5.30    4.40
   1  -4 -10   10.70    4.40
   1   4  10    2.50    8.10
  -1   4 -10    0.90    5.00
  -1  -4 -10    0.10    4.90
  -1  -4 -10    3.00    4.80
  -1   4  10   -4.20    4.20
  -1   4  10    6.30    8.20
  -1   4  10    1.70    4.70
  -1   4  10   16.20    5.50
   1  -4  10    4.90    4.50
  -1   4  10   -7.60    6.20
   1  -4  10    3.10    7.20
   1   4 -10    1.30    5.30
  -1   5  -1 1421.26   67.09
  -1  -5   1 1417.16   67.09
   1   5   1 1374.76   67.09
  -1  -5   1 1325.37   66.79
  -1  -5   1 1401.86   66.99
   1  -5  -1 1411.26   67.19
  -1  -5   1 1411.66   66.59
  -1  -5   1 1376.26   66.59
   1  -5  -1 1317.77   66.59
   1   5   1 1393.46   66.89
  -1  -5   1 1364.16   67.09
  -1   5  -1 1340.57   66.99
  -1   5  -1 1337.47   66.89
   1   5   1 1382.26   67.09
  -1  -5   1 1339.87   66.89
   1  -5  -1 1363.66   66.79
   1  -5  -1 1421.36   66.79
  -1  -5   1 1377.26   66.79
  -1  -5   1 1347.77   66.89
   1   5  -1 1368.56   66.99
  -1  -5  -1 1310.57   66.69
  -1   5   1 1375.96   67.09
   1  -5   1 1355.96   66.99
   1  -5   1 1381.96   66.59
  -1  -5  -1 1403.26   67.09
  -1  -5  -1 1354.26   66.79
   1  -5   1 1351.46   66.79
  -1  -5  -1 1359.86   66.89
   1   5  -1 1369.46   66.79
  -1  -5  -1 1399.66   66.89
   1  -5   1 1377.26   67.09
   1  -5   1 1419.06   66.89
   1  -5   1 1419.36   66.69
  -1   5   1 1411.56   67.09
   1   5  -1 1407.16   67.09
  -1  -5  -1 1374.96   66.79
   1   5   3  267.47   13.40
  -1   5  -3  270.07   14.00
   1  -5  -3  261.47   13.40
   1  -5  -3  275.77   13.50
   1   5   3  283.57   13.70
  -1  -5   3  268.87   13.60
   1  -5  -3  261.37   13.70
   1  -5  -3  275.77   13.70
  -1  -5   3  255.37   14.00
  -1  -5   3  272.77   14.20
  -1  -5   3  278.27   14.10
  -1   5  -3  272.87   14.10
   1  -5  -3  266.97   13.30
   1   5   3  271.07   14.10
   1  -5  -3  268.27   14.20
  -1   5  -3  269.97   14.10
   1   5   3  272.37   13.50
  -1  -5   3  271.37   13.80
   1   5   3  267.87   14.20
  -1  -5   3  276.67   13.70
  -1   5  -3  281.47   14.00
  -1  -5  -3  275.07   14.20
  -1  -5  -3  260.67   13.70
   1   5  -3  283.37   13.90
  -1   5   3  272.37   13.50
   1   5  -3  273.27   14.10
   1   5  -3  250.57   13.50
   1   5  -3  266.27   14.00
   1   5  -3  287.57   13.80
   1  -5   3  270.47   14.20
   1  -5   3  263.87   14.10
  -1  -5  -3  290.17   13.80
  -1  -5  -3  274.77   13.90
   1  -5   3  270.37   14.20
  -1   5   3  272.77   14.20
  -1   5   3  267.47   13.40
  -1  -5  -3  263.27   13.70
  -1   5   3  277.67   13.50
   1  -5   3  270.57   13.40
  -1   5   3  279.17   14.10
   1  -5   3  270.27   13.60
  -1  -5   5  993.00   50.39
  -1   5  -5 1045.20   50.09
   1  -5  -5  964.20   49.60
   1   5   5  992.30   49.90
   1  -5  -5 1059.39   50.49
  -1   5  -5  991.40   49.70
   1   5   5 1029.90   49.99
  -1   5  -5 1021.40   49.70
   1  -5  -5 1026.60   50.19
   1  -5  -5  997.20   50.09
  -1   5  -5 1063.89   50.39
   1   5   5 1005.60   49.90
   1   5   5 1004.60   50.49
  -1   5  -5 1027.90   50.29
  -1  -5   5 1051.79   50.09
  -1  -5   5  986.60   49.99
  -1   5  -5 1018.80   50.39
  -1  -5   5 1056.29   50.49
  -1  -5   5 1014.40   50.19
  -1  -5  -5 1055.29   50.09
   1  -5   5 1021.60   50.39
  -1   5   5 1052.99   49.80
  -1  -5  -5  966.40   49.99
   1   5  -5  973.40   49.50
  -1   5   5 1024.80   49.90
   1   5  -5 1023.40   50.39
   1   5  -5 1037.40   50.19
  -1  -5  -5 1004.80   50.09
   1  -5   5 1066.99   50.49
  -1   5   5  983.80   49.90
   1   5  -5 1025.70   49.70
  -1   5   5 1002.90   50.39
   1   5  -5  982.10   49.70
   1   5  -5 1033.90   49.99
  -1  -5  -5 1054.99   50.19
   1  -5   5 1013.70   49.99
   1  -5   5 1025.70   50.29
   1  -5   5 1039.40   50.09
   1   5  -5 1062.49   50.49
  -1   5   5 1000.50   50.09
  -1  -5  -5 1030.60   50.29
   1   5   7  106.09    5.90
   1  -5  -7  110.79    7.70
  -1   5  -7  112.69    7.60
   1   5   7  131.49    9.30
  -1  -5   7  109.59    7.90
  -1   5  -7  108.99    7.80
   1   5   7  105.29    7.40
  -1  -5   7  111.09    8.20
   1  -5  -7  107.69    7.90
   1  -5  -7  100.09    8.70
  -1   5  -7  121.89    7.00
   1  -5  -7  128.29    6.70
  -1  -5   7  114.19    8.40
  -1  -5   7  108.79    8.50
   1   5   7  119.19    7.90
   1   5   7  101.89    7.80
  -1   5  -7  103.99    7.30
  -1  -5  -7  103.09    7.60
  -1   5   7  110.79    7.60
   1  -5   7  102.89    7.80
  -1   5   7  111.69    7.50
  -1  -5  -7  107.29    8.90
   1   5  -7   99.59    5.80
  -1   5   7  102.19    6.30
  -1   5   7   97.29    7.80
   1   5  -7  114.09    8.50
  -1  -5  -7  100.69    5.70
   1  -5   7  110.29    9.80
   1  -5   7  108.69    8.30
  -1  -5  -7  108.19    8.00
   1   5  -7  128.59    8.80
   1  -5   7  122.99    8.80
   1  -5   7  108.19    7.90
   1   5  -7  108.29    7.10
  -1   5   7  135.09    9.10
  -1  -5   9   59.49    8.40
  -1   5  -9   53.89    7.20
   1  -5  -9   50.19    7.10
   1  -5  -9   46.90    7.20
  -1  -5   9   41.10    6.90
  -1   5  -9   49.00    6.50
   1  -5  -9   51.19    6.60
   1   5   9   41.90    4.30
  -1  -5   9   49.30    8.90
  -1  -5   9   64.09    8.50
   1   5   9   50.29    6.80
   1  -5  -9   67.09    9.50
   1   5   9   54.29    7.40
  -1   5  -9   56.69    6.60
  -1  -5  -9   54.19    6.20
  -1   5   9   50.29    7.40
   1  -5   9   59.39    8.30
   1   5  -9   60.19    8.70
   1   5  -9   60.59    6.90
  -1  -5  -9   64.49    9.10
   1   5  -9   36.40    6.50
  -1  -5  -9   53.09    7.90
  -1   5   9   52.79    7.20
  -1   5   9   57.09    7.00
   1  -5   9   52.89    6.70
   1   5  -9   45.10    7.00
   1  -5   9   42.80    6.90
  -1   5   9   50.49    5.40
   1  -5   9   73.99    8.60
  -1  -5  -9   42.40    6.90
  -1  -5  11   55.99   11.00
   1   5  11   18.50    7.80
  -1   5 -11   30.70    9.00
  -1   5 -11   55.59    7.90
  -1  -5  11   38.80    9.70
  -1  -5  11   43.20    7.90
   1  -5 -11   45.50   10.20
  -1  -5  11   38.60    8.40
   1   5  11   41.50    7.00
   1   5  11   37.20   11.60
   1  -5 -11   43.20    6.30
  -1   5 -11   45.80    8.00
  -1   5  11   33.80    5.90
  -1   5  11   24.30    8.20
   1   5 -11   52.39    8.00
   1  -5  11   51.19   12.00
  -1  -5 -11   40.30    6.10
   1   5 -11   62.09   11.90
   1   5 -11   27.90    8.00
  -1   5  11   51.99    8.50
   1  -5  11   32.10    9.20
   1   6   0  256.97   13.10
   1  -6   0  245.58   12.70
   1  -6   0  259.07   13.10
   1  -6   0  252.07   13.10
  -1  -6   0  265.97   13.10
  -1  -6   0  260.87   13.20
  -1  -6   0  241.98   12.80
  -1   6   0  258.87   13.40
  -1  -6   0  251.87   12.90
   1   6   0  244.18   13.10
   1  -6   0  260.57   13.30
  -1  -6   0  256.27   13.20
  -1  -6   0  263.57   13.00
   1  -6   0  261.87   13.00
  -1   6   0  258.37   13.10
  -1  -6   0  239.88   12.80
   1  -6   0  246.48   12.90
   1   6   0  258.67   13.30
  -1  -6   2    3.00    1.00
   1   6   2    2.40    2.20
  -1   6  -2    2.20    2.10
  -1  -6   2   -0.50    1.50
  -1  -6   2    0.80    2.00
   1  -6  -2    2.50    2.60
  -1  -6   2    2.10    1.00
  -1   6  -2    1.50    2.00
  -1  -6   2    0.90    2.40
  -1   6  -2    2.30    1.80
  -1  -6   2    1.80    1.50
  -1  -6   2    5.30    1.60
   1  -6  -2    2.80    0.90
   1  -6  -2    1.40    1.40
   1  -6  -2    4.70    2.20
  -1  -6   2    2.10    2.40
   1  -6  -2    2.20    1.00
  -1   6  -2    2.00    1.80
   1   6  -2    2.80    1.60
  -1   6   2    1.60    1.60
  -1  -6  -2    1.60    1.20
   1  -6   2    1.80    2.20
   1  -6   2    1.70    1.00
  -1  -6  -2    3.90    2.20
   1  -6   2    1.90    2.40
   1  -6   2    2.50    2.20
   1   6  -2    2.10    1.80
   1  -6   2    4.30    1.70
   1   6  -2    1.30    1.40
  -1  -6  -2    2.20    2.40
  -1   6   2    2.20    1.80
  -1  -6  -2    2.10    1.00
  -1  -6  -2    0.90    1.00
   1  -6   2    2.10    1.70
   1   6  -2    1.90    2.00
  -1  -6  -2    3.50    1.00
  -1   6  -4   93.29    6.60
   1  -6  -4  116.79    7.50
  -1  -6   4  115.39    7.40
  -1  -6   4  104.09    6.90
   1   6   4  108.09    5.90
  -1  -6   4  109.89    6.30
   1  -6  -4  109.29    5.90
   1  -6  -4  114.19    6.50
   1   6   4  106.79    5.90
  -1   6  -4   95.19    7.00
  -1   6  -4  112.09    7.20
   1   6   4  108.99    7.20
  -1  -6   4  117.49    7.50
   1   6   4  113.59    6.50
  -1  -6   4  124.39    7.10
  -1   6  -4  112.59    6.80
  -1  -6   4  118.79    6.30
   1  -6  -4  109.69    6.80
   1   6   4   97.39    7.00
   1  -6   4  119.59    7.60
   1   6  -4  125.39    6.90
   1   6  -4  113.29    6.60
   1   6  -4  115.99    6.90
  -1   6   4  114.19    6.00
   1   6  -4  103.79    6.10
   1  -6   4  108.39    6.90
  -1  -6  -4  117.89    7.50
   1  -6   4  111.89    6.00
   1  -6   4  100.39    6.90
  -1   6   4  109.69    5.90
  -1  -6  -4  113.79    6.60
   1  -6   4  109.69    6.40
  -1   6   4  117.99    6.70
  -1  -6  -4  122.29    6.90
  -1  -6  -4  111.69    7.10
  -1   6   4  111.69    6.00
  -1  -6  -4  113.09    6.50
  -1   6   4   96.99    7.00
   1  -6   4  112.09    6.30
  -1  -6   6  403.56   20.70
  -1  -6   6  372.66   19.80
  -1   6  -6  351.26   21.00
  -1   6  -6  397.36   20.20
   1  -6  -6  385.96   19.90
  -1   6  -6  399.56   20.10
   1   6   6  396.46   20.90
  -1  -6   6  360.66   20.00
   1  -6  -6  398.26   20.40
  -1   6  -6  385.66   20.20
   1  -6  -6  371.16   19.90
  -1  -6   6  400.16   20.10
   1  -6  -6  381.86   19.10
   1   6   6  401.96   19.90
   1   6   6  384.66   19.60
   1  -6  -6  362.86   20.00
  -1  -6   6  397.76   20.40
   1   6   6  380.16   19.50
  -1   6  -6  379.26   19.20
  -1   6  -6  398.06   19.30
   1  -6   6  376.76   19.80
   1   6  -6  367.86   18.90
   1  -6   6  392.06   20.50
   1  -6   6  401.96   20.40
  -1  -6  -6  396.86   20.10
   1  -6   6  391.16   20.10
  -1  -6  -6  349.67   18.80
  -1   6   6  385.16   19.50
   1   6  -6  387.66   19.20
   1   6  -6  406.46   19.30
  -1   6   6  385.16   19.60
   1   6  -6  406.26   20.20
  -1  -6  -6  376.46   20.20
  -1   6   6  395.36   19.40
   1   6  -6  347.27   20.50
  -1   6   6  348.97   20.70
   1   6  -6  394.06   19.80
  -1  -6  -6  378.56   20.00
   1  -6   6  395.96   20.70
  -1   6   6  390.16   20.00
  -1  -6   8   13.60    4.60
  -1  -6   8   10.30    4.30
   1   6   8   10.50    4.00
   1   6   8   12.30    4.60
  -1   6  -8   16.40    6.00
  -1   6  -8   15.60    3.20
   1   6   8    9.60    4.10
  -1  -6   8   15.50    5.00
   1   6   8   18.60    5.30
  -1   6  -8   24.80    4.20
  -1  -6   8   11.30    5.80
  -1   6  -8    9.90    4.30
   1  -6  -8   14.60    5.00
   1  -6  -8   20.50    4.20
   1  -6  -8   11.20    4.70
  -1  -6   8   13.80    4.90
  -1   6  -8   22.20    5.30
  -1   6  -8   16.00    5.20
   1  -6  -8   11.40    4.00
   1  -6   8   12.90    4.70
  -1  -6  -8    9.00    4.50
   1  -6   8   16.70    5.70
   1   6  -8   15.40    2.10
  -1   6   8    8.20    3.90
   1  -6   8   11.90    5.50
   1  -6   8   10.80    4.50
   1   6  -8   10.30    4.30
   1  -6   8   15.50    4.70
  -1  -6  -8   15.20    5.30
   1   6  -8   17.70    5.00
  -1  -6  -8   11.60    4.10
  -1   6   8   12.30    4.30
   1   6  -8   16.50    3.50
  -1   6 -10    4.80    4.90
  -1  -6  10   30.30    8.10
   1   6  10   15.70    6.30
  -1   6 -10    4.60    7.30
  -1  -6  10    4.80    7.30
   1   6  10   15.90    5.50
   1   6  10    4.50    4.80
   1  -6 -10   15.70    7.20
  -1  -6  10    1.90    6.10
  -1   6 -10    1.30    7.00
   1   6  10   10.90    8.90
  -1   6 -10    2.80    5.30
   1   6 -10    4.80    4.80
  -1  -6 -10    6.20    4.90
   1   6 -10    6.00    5.20
  -1   6  10    2.70    8.60
  -1  -6 -10   13.40    7.00
  -1   6  10   13.50    5.10
   1  -6  10   -1.20    7.90
  -1   6  10    7.90    5.10
   1   6 -10    4.00    5.30
   1  -6  10   18.00    7.70
   1   6 -10    7.40    4.80
  -1   6  10   17.20    6.60
   1  -6  10    0.80    7.10
   1  -7  -1  797.52   39.20
   1   7   1  808.02   39.50
   1   7   1  796.82   39.30
  -1   7  -1  794.92   39.30
   1  -7  -1  761.72   38.80
   1  -7  -1  791.92   39.10
  -1  -7   1  756.82   39.00
  -1  -7   1  778.92   39.20
  -1  -7   1  812.82   39.10
   1  -7  -1  790.32   39.10
  -1   7  -1  818.22   39.40
   1  -7  -1  835.62   39.60
  -1  -7   1  807.62   39.20
  -1  -7   1  766.92   39.20
  -1  -7   1  833.32   39.40
  -1  -7   1  791.32   39.40
   1  -7  -1  785.62   38.60
  -1  -7  -1  759.22   38.60
   1   7  -1  834.52   39.40
  -1  -7  -1  772.22   39.00
  -1   7   1  777.72   39.40
  -1  -7  -1  825.92   39.30
  -1  -7  -1  826.62   39.40
   1  -7   1  822.12   39.40
   1  -7   1  790.52   39.30
  -1  -7  -1  831.02   39.50
   1  -7   1  826.82   39.20
  -1  -7  -1  791.62   39.20
   1  -7   1  820.32   39.40
   1   7  -1  789.32   39.00
  -1  -7  -1  745.73   38.80
   1  -7   1  761.02   39.20
  -1  -7  -1  753.12   38.60
   1  -7   1  796.52   39.00
  -1  -7   3  345.37   17.30
  -1   7  -3  326.17   17.90
  -1   7  -3  331.37   17.70
   1  -7  -3  339.17   17.30
  -1  -7   3  333.57   17.60
   1  -7  -3  350.66   17.40
   1  -7  -3  377.76   18.30
   1  -7  -3  373.06   17.90
   1   7   3  318.87   18.00
  -1  -7   3  351.16   18.00
  -1  -7   3  327.97   17.10
   1   7   3  352.66   18.00
   1   7   3  366.06   17.50
  -1  -7   3  349.47   18.20
  -1  -7   3  322.07   17.80
   1  -7  -3  352.96   17.20
  -1  -7   3  339.17   17.40
   1  -7  -3  343.27   17.10
  -1   7  -3  343.37   17.90
  -1   7  -3  318.27   18.00
   1  -7  -3  347.87   17.20
  -1  -7   3  341.47   17.60
  -1  -7  -3  379.06   17.50
   1  -7   3  348.97   18.00
  -1   7   3  350.36   17.10
  -1  -7  -3  371.16   17.90
   1   7  -3  336.27   17.40
  -1  -7  -3  353.56   17.30
   1  -7   3  346.27   18.30
   1   7  -3  338.47   17.60
  -1  -7  -3  356.46   17.40
   1  -7   3  346.37   17.30
   1   7  -3  335.27   17.80
   1  -7   3  338.37   17.80
   1  -7   3  314.67   17.10
  -1  -7  -3  372.26   18.30
  -1   7   3  338.47   18.10
   1  -7   3  343.67   17.90
  -1   7   3  347.77   18.00
  -1  -7  -3  370.16   17.50
   1   7  -3  337.77   17.80
   1   7   5  571.94   30.20
  -1  -7   5  584.94   29.80
  -1  -7   5  593.84   29.40
   1   7   5  600.44   29.10
  -1   7  -5  621.74   30.10
   1  -7  -5  607.34   29.70
   1  -7  -5  595.94   29.60
   1  -7  -5  602.74   29.80
  -1   7  -5  542.65   30.40
  -1  -7   5  609.84   30.20
  -1   7  -5  614.64   29.90
   1   7   5  579.54   29.00
   1   7   5  614.44   29.50
  -1  -7   5  604.64   29.60
   1  -7  -5  633.54   30.40
   1  -7  -5  564.54   28.80
  -1  -7   5  545.95   30.30
   1   7   5  563.44   30.40
  -1   7  -5  606.14   30.00
  -1  -7  -5  585.64   29.00
  -1   7   5  586.34   30.00
   1  -7   5  599.54   30.10
  -1  -7  -5  602.34   29.80
   1   7  -5  568.24   29.00
  -1  -7  -5  584.74   30.00
   1  -7   5  601.64   29.60
  -1   7   5  633.94   29.20
   1   7  -5  614.14   30.00
  -1   7   5  570.94   30.60
   1  -7   5  597.94   30.20
   1   7  -5  608.84   29.60
  -1  -7  -5  569.74   29.40
  -1   7   5  581.54   29.00
  -1  -7  -5  593.44   29.70
  -1   7   5  591.64   29.10
   1  -7   5  589.64   29.40
   1  -7   5  565.34   30.50
  -1  -7  -5  580.24   29.60
   1   7  -5  594.34   30.10
  -1  -7   7  105.39    9.90
   1   7   7  114.79    9.00
  -1   7  -7   98.49    8.30
   1  -7  -7   84.89    8.00
  -1  -7   7  116.69    9.00
   1   7   7   89.69    7.90
  -1  -7   7   97.29    8.70
  -1   7  -7   89.39    5.90
  -1   7  -7  109.19    7.70
   1   7   7   96.09    7.90
  -1   7  -7  102.89    8.90
   1   7   7   89.59    7.20
   1  -7  -7   98.59    8.60
   1  -7  -7   99.29    7.80
  -1   7  -7  108.49    8.20
   1  -7  -7  100.69    7.60
  -1  -7  -7   96.49    8.10
  -1  -7  -7   99.39    7.90
  -1   7   7   89.89    8.30
   1   7  -7  105.49    8.00
   1  -7   7  119.99    9.10
   1   7  -7   92.39    7.10
   1   7  -7  114.89    6.30
   1  -7   7   96.99    7.80
   1  -7   7   99.39    9.10
   1   7  -7   94.09    5.90
  -1  -7  -7  112.79    7.40
  -1  -7  -7   81.19    7.80
  -1   7   7  101.89    6.90
  -1   7   7   87.09    7.30
   1   7  -7  103.09    8.00
  -1   7   7   96.99    7.90
   1  -7   7  100.79    8.60
   1   7   9   63.29    7.50
   1  -7  -9   56.99    8.40
  -1  -7   9   66.19    8.10
  -1   7  -9   54.19    8.20
   1   7   9   63.39    8.00
   1  -7  -9   64.09    7.10
  -1  -7   9   68.49    9.10
   1   7   9   64.29    8.00
   1  -7  -9   57.69    9.10
  -1   7  -9   55.39    5.80
  -1   7  -9   81.99    8.50
  -1  -7   9   55.49    9.80
  -1  -7   9   61.39    8.30
   1  -7  -9   62.59   10.20
  -1   7  -9   61.59    9.50
  -1  -7  -9   63.69    7.30
   1   7  -9   49.90    8.50
   1  -7   9   60.89   10.70
   1   7  -9   55.59    8.00
  -1  -7  -9   64.19    8.60
  -1   7   9   47.20    5.90
   1  -7   9   66.19    9.00
   1  -7   9   58.79    8.40
   1  -7   9   66.49    8.60
  -1  -7  -9   68.29    9.80
   1  -7   9   62.99   10.90
  -1   7   9   71.69    8.50
  -1  -7  -9   55.09    8.10
   1   7  -9   69.79    8.20
  -1   7   9   63.49    7.70
   1   7  -9   55.79    6.00
  -1  -8   0   57.19    5.60
  -1  -8   0   69.49    4.20
  -1  -8   0   55.69    5.10
   1  -8   0   55.09    5.10
   1   8   0   55.59    4.80
   1  -8   0   52.79    5.00
  -1   8   0   55.49    4.80
   1  -8   0   54.29    4.30
  -1  -8   0   59.29    4.40
   1  -8   0   51.39    3.80
   1  -8   0   68.09    5.60
  -1  -8   0   58.39    5.50
  -1  -8   0   60.79    4.20
  -1  -8   0   56.49    5.00
   1  -8   0   56.69    5.00
   1  -8   0   56.89    4.80
  -1  -8   2   23.20    2.00
  -1   8  -2   24.40    3.70
   1   8   2   24.80    3.20
   1   8   2   25.70    4.50
  -1  -8   2   24.10    2.20
  -1  -8   2   24.00    4.30
   1  -8  -2   25.40    2.60
   1  -8  -2   18.00    2.10
   1  -8  -2   25.70    3.50
  -1  -8   2   26.00    3.30
  -1  -8   2   28.70    3.60
  -1  -8   2   22.50    4.00
  -1  -8   2   26.40    3.80
   1  -8  -2   24.40    3.30
  -1  -8   2   24.60    3.60
   1  -8  -2   27.80    4.60
  -1  -8   2   26.10    4.50
   1  -8  -2   24.30    2.10
  -1   8  -2   24.80    3.90
   1  -8   2   25.90    4.10
   1  -8   2   19.70    3.60
   1  -8   2   21.50    3.20
  -1  -8  -2   23.80    2.50
   1  -8   2   26.90    4.20
  -1  -8  -2   26.60    4.20
  -1  -8  -2   32.90    4.60
  -1  -8  -2   22.10    2.00
   1   8  -2   26.60    3.70
   1  -8   2   24.70    3.60
  -1   8   2   25.70    4.10
  -1  -8  -2   23.90    2.30
  -1  -8  -2   25.70    3.80
   1  -8   2   21.20    2.00
   1  -8   2   25.90    3.90
  -1   8   2   25.50    4.30
  -1  -8  -2   26.90    3.40
  -1  -8   4  226.18   13.20
  -1  -8   4  236.48   13.00
  -1   8  -4  196.18   14.00
   1   8   4  241.68   13.20
   1   8   4  238.28   12.20
  -1  -8   4  230.38   12.00
  -1  -8   4  232.58   13.10
  -1  -8   4  240.08   12.00
   1  -8  -4  231.18   12.60
   1   8   4  195.78   13.50
  -1   8  -4  237.18   12.90
   1  -8  -4  231.58   11.70
  -1   8  -4  253.57   13.20
   1  -8  -4  223.78   12.10
  -1  -8   4  223.68   12.40
   1  -8  -4  230.38   13.10
  -1  -8   4  226.58   12.40
  -1   8  -4  231.98   13.00
   1  -8  -4  231.68   12.30
   1  -8  -4  230.28   11.60
   1  -8  -4  217.18   11.60
  -1  -8  -4  223.68   12.20
   1   8  -4  239.68   12.80
  -1  -8  -4  226.08   12.30
  -1  -8  -4  230.38   12.30
   1  -8   4  228.48   13.30
  -1   8   4  229.08   13.50
   1  -8   4  231.08   11.90
   1  -8   4  225.18   12.00
  -1   8   4  241.38   11.90
  -1  -8  -4  241.28   12.80
   1   8  -4  230.38   13.20
  -1   8   4  201.18   13.70
  -1  -8  -4  237.08   13.20
   1   8  -4  230.88   12.20
   1  -8   4  231.28   13.10
   1   8  -4  244.78   12.60
  -1  -8  -4  231.48   12.00
   1  -8   4  211.88   12.70
   1  -8   4  238.98   12.00
   1  -8  -6  131.59    9.50
   1   8   6  124.09    9.30
   1  -8  -6  116.99    8.70
   1   8   6  125.89    8.90
  -1  -8   6  119.99    9.10
  -1  -8   6  124.89    8.50
  -1   8  -6  133.09   10.10
  -1  -8   6  111.39    8.20
   1   8   6  125.69    9.20
   1   8   6  126.09    7.20
   1  -8  -6  136.59    9.00
  -1   8  -6  117.19    8.70
  -1  -8   6  128.59    8.90
  -1   8  -6  131.29    9.20
  -1  -8   6  120.39    9.50
   1  -8  -6  127.29    8.60
  -1  -8  -6  129.59    9.20
   1   8  -6  111.59    8.80
  -1   8   6  106.09    7.00
  -1   8   6  129.99    9.30
  -1   8   6  124.59    8.80
  -1   8   6  125.59    7.30
   1   8  -6  131.19    8.20
  -1  -8  -6  128.29    8.70
   1  -8   6  153.28   10.00
   1   8  -6  128.49    9.40
  -1   8   6  124.29    7.40
   1  -8   6  115.49    8.10
   1  -8   6  136.59   10.00
  -1  -8  -6  126.19    8.60
   1  -8   6  127.09    9.50
  -1  -8  -6  118.09    6.60
   1  -8   6  122.59    8.50
  -1  -8   8   21.70    5.90
  -1  -8   8   16.10    4.50
   1   8   8   19.70    4.70
  -1   8  -8   19.30    5.20
   1  -8  -8   18.90    4.70
  -1   8  -8   17.00    2.90
   1  -8  -8   17.80    6.00
   1   8   8   18.30    3.70
  -1   8  -8   16.30    2.70
  -1   8  -8   10.90    7.30
  -1  -8   8   16.20    5.30
   1   8   8   25.00    5.30
   1  -8  -8   16.00    5.40
  -1  -8   8   22.10    6.10
  -1   8  -8   17.10    3.90
  -1  -8  -8   25.40    6.30
   1  -8   8   20.80    5.90
   1   8  -8   24.20    6.00
  -1   8   8   18.70    3.80
   1  -8   8   18.90    5.30
   1   8  -8   21.10    6.60
  -1  -8  -8   17.70    5.20
   1   8  -8   16.40    2.70
   1   8  -8   24.20    4.50
   1  -8   8   21.90    4.90
  -1  -8  -8   20.10    5.50
  -1   8   8   26.70    5.20
  -1   8   8   24.50    6.80
  -1  -8  -8   19.30    4.90
  -1   8   8   22.90    5.30
   1   8  -8   17.80    2.60
   1  -8 -10   24.30   10.60
  -1   8 -10   31.00   11.60
  -1  -8  10    1.10    9.40
   1   8  10   17.90    5.50
  -1  -8  10   16.90    9.60
   1   8  10    9.40   11.00
   1   8  10    5.60    6.10
   1  -8  10   39.90    8.90
   1  -8  10    0.50    8.40
  -1  -8 -10   24.20   10.10
   1   8 -10    5.80   10.30
  -1   8  10   28.60   12.80
   1   8 -10    8.60    5.40
  -1   8  10    7.70    6.10
  -1  -9   1  244.58   13.30
   1  -9  -1  251.47   13.30
   1   9   1  251.37   13.90
   1  -9  -1  246.98   13.40
   1  -9  -1  240.08   12.40
  -1  -9   1  246.98   13.20
   1   9   1  260.97   14.00
  -1  -9   1  254.97   13.50
  -1  -9   1  253.67   13.90
   1  -9  -1  255.07   12.40
  -1  -9   1  257.07   13.70
   1  -9  -1  270.17   13.70
   1  -9  -1  238.68   12.70
   1  -9  -1  236.28   13.90
  -1  -9   1  246.18   13.80
   1  -9  -1  244.98   13.30
   1  -9  -1  250.27   13.70
  -1  -9   1  245.28   13.40
  -1   9  -1  243.88   14.00
   1  -9   1  259.27   13.90
   1  -9   1  238.88   13.50
   1   9  -1  251.27   14.40
  -1  -9  -1  246.38   12.40
   1  -9   1  234.18   12.20
  -1  -9  -1  267.17   14.00
   1  -9   1  246.68   13.60
   1  -9   1  250.07   13.80
   1  -9   1  266.67   13.70
   1  -9   1  240.28   13.00
  -1  -9  -1  243.88   13.10
  -1  -9  -1  236.18   13.20
  -1  -9  -1  262.17   13.90
  -1  -9  -1  236.88   13.50
  -1  -9  -1  252.77   12.40
  -1  -9  -1  253.67   13.60
  -1  -9  -1  238.88   12.70
   1  -9   1  264.67   13.50
  -1   9   1  251.47   13.80
  -1   9  -3  259.97   13.70
   1  -9  -3  251.97   13.30
   1  -9  -3  228.28   12.30
  -1  -9   3  244.08   13.70
  -1  -9   3  247.38   13.30
  -1  -9   3  240.88   12.30
  -1  -9   3  241.58   12.90
  -1  -9   3  257.27   13.70
   1   9   3  211.28   14.20
  -1  -9   3  233.28   13.40
   1  -9  -3  245.28   12.50
   1   9   3  229.38   13.50
  -1  -9   3  236.98   13.50
   1  -9  -3  221.28   12.20
  -1   9  -3  250.37   13.50
   1   9   3  250.07   12.90
   1  -9  -3  239.58   12.70
   1  -9  -3  255.57   13.90
  -1  -9   3  224.28   12.10
   1  -9  -3  241.98   12.50
  -1  -9   3  253.47   13.70
   1  -9  -3  247.88   12.40
  -1  -9  -3  240.28   12.50
  -1   9   3  239.08   13.60
   1  -9   3  219.68   12.10
   1   9  -3  215.98   13.50
   1  -9   3  238.18   12.70
  -1  -9  -3  235.88   12.70
  -1  -9  -3  252.87   12.50
   1  -9   3  247.58   12.40
  -1  -9  -3  234.88   12.80
   1   9  -3  244.28   14.10
   1  -9   3  231.58   13.80
   1  -9   3  255.07   13.50
  -1  -9  -3  248.38   13.20
   1  -9   3  246.58   13.80
   1  -9   3  221.48   13.20
  -1   9   3  257.57   14.30
  -1  -9  -3  251.57   13.80
   1  -9   3  238.48   13.60
  -1   9  -5  116.99    8.30
   1  -9  -5  107.09    8.70
   1   9   5  118.19    8.80
   1   9   5  108.19    7.80
  -1  -9   5  104.09    7.10
  -1  -9   5  106.09    8.10
  -1   9  -5  131.09    8.70
  -1  -9   5  111.19    8.50
  -1  -9   5  106.69    8.70
   1  -9  -5  113.39    7.90
   1  -9  -5   94.59    7.80
   1   9   5  118.59    8.30
  -1  -9   5  111.89    8.80
  -1  -9   5  108.09    8.10
   1   9  -5  124.49    9.70
  -1   9   5  124.39    6.70
  -1  -9  -5   98.69    8.10
   1  -9   5  110.49    8.20
  -1  -9  -5  106.59    7.40
   1  -9   5  100.99    8.50
   1  -9   5  117.99    9.20
   1  -9   5  100.59    7.00
  -1   9   5  112.59    8.90
  -1  -9  -5  114.09    8.60
   1   9  -5  112.89    8.80
  -1  -9  -5  110.99    8.20
  -1   9   5  118.79    9.20
   1   9  -5  120.79    8.40
  -1  -9   7   92.29    9.40
   1   9   7   87.19    5.60
  -1  -9   7   88.39   10.40
  -1   9  -7   97.09    9.20
   1   9   7   91.39    8.20
  -1  -9   7   94.79    8.70
   1  -9  -7   84.99    7.50
  -1   9  -7   99.29    8.50
   1  -9  -7   89.39    8.30
   1   9   7   83.69    5.30
   1  -9  -7   90.79    9.40
   1   9   7   90.99    9.90
   1  -9  -7   95.39    9.00
  -1   9   7   95.19    8.60
  -1  -9  -7   87.99    8.70
  -1   9   7   86.49    9.90
  -1   9   7   82.39    5.30
  -1  -9  -7   91.59    9.00
   1  -9   7   89.29    8.20
  -1  -9  -7   87.59    8.10
   1   9  -7  109.89    9.10
   1  -9   7   90.99    8.70
   1  -9   7   98.49   10.70
   1   9  -7  108.19    8.50
  -1   9   7   93.69    6.90
  -1  -9  -7   88.89    8.20
  -1   9   7   85.69    5.60
   1   9  -7   88.49   11.40
  -1  -9   9   45.60    9.10
   1  -9  -9   39.30    8.50
   1   9   9   23.10    4.40
  -1   9  -9   41.40    5.90
  -1  -9   9   58.39   11.00
  -1  -9   9   30.40    6.60
   1   9  -9   31.90    7.60
   1   9  -9   28.90    8.90
   1  -9   9   26.80    6.60
  -1   9   9   46.40   11.60
   1  -9   9   46.90    9.70
  -1   9   9   26.50    4.60
  -1  -9  -9   35.30    8.40
   1 -10   0   23.60    4.90
  -1 -10   0   20.60    3.90
  -1 -10   0   20.90    2.90
   1 -10   0   18.90    4.30
   1 -10   0   16.00    3.90
  -1  10   0   10.60    3.00
   1  10   0   13.30    2.90
  -1 -10   0   20.00    2.90
   1 -10   0   20.00    4.10
  -1 -10   0   21.00    4.50
   1 -10   0   17.40    1.60
   1 -10   0   20.70    3.60
   1 -10   0   20.20    3.90
   1 -10   0   17.10    1.90
   1 -10   0   18.90    2.80
  -1 -10   2  199.28   11.20
   1  10   2  176.98   11.30
  -1 -10   2  191.78   10.40
  -1 -10   2  188.78    9.50
  -1 -10   2  196.28   11.50
   1 -10  -2  189.08   10.80
   1 -10  -2  159.78   11.00
   1 -10  -2  191.78   11.40
  -1  10  -2  176.38   11.10
  -1 -10   2  190.38   10.70
  -1 -10   2  183.68    9.30
  -1 -10   2  190.28   11.10
   1 -10  -2  182.18    9.90
  -1 -10   2  192.08   11.30
   1 -10  -2  163.78    9.50
  -1 -10   2  154.48   11.40
   1 -10  -2  198.88    9.80
   1 -10  -2  205.38   10.10
   1 -10  -2  188.78   11.10
  -1 -10  -2  170.08    9.50
  -1 -10  -2  187.68   11.20
   1 -10   2  186.58   11.40
  -1 -10  -2  194.78   11.20
   1 -10   2  196.88   11.00
   1 -10   2  179.08    9.30
  -1 -10  -2  172.58    9.60
   1 -10   2  183.38   11.00
  -1 -10  -2  197.38    9.80
  -1 -10  -2  191.38   10.80
  -1 -10  -2  192.98   11.60
   1 -10   2  187.78   11.60
   1 -10   2  193.88   11.50
  -1  10   2  178.28   11.40
   1 -10   2  165.08   11.10
   1  10  -2  189.38   10.90
  -1 -10  -2  183.68   10.40
   1 -10   2  178.08    9.50
  -1 -10   4   61.19    5.00
   1 -10  -4   60.39    4.20
  -1 -10   4   62.29    6.40
  -1 -10   4   76.29    7.60
   1  10   4   63.89    6.90
   1 -10  -4   63.19    6.70
   1  10   4   70.29    6.40
  -1 -10   4   62.49    5.60
   1 -10  -4   61.19    5.00
  -1 -10   4   59.49    6.80
  -1  10  -4   58.89    7.00
   1  10   4   63.89    7.40
   1 -10  -4   59.49    5.30
  -1 -10   4   61.49    7.20
   1 -10  -4   64.29    5.60
  -1 -10   4   67.79    7.50
   1 -10  -4   57.49    4.40
   1 -10  -4   57.19    3.90
   1 -10  -4   64.29    6.30
  -1 -10  -4   62.99    7.70
   1 -10   4   57.49    5.60
  -1 -10  -4   63.19    6.70
   1 -10   4   65.19    6.00
   1 -10   4   60.79    5.10
   1 -10   4   57.59    6.80
   1  10  -4   67.19    5.80
   1  10  -4   68.49    7.50
  -1 -10  -4   62.49    5.40
   1 -10   4   68.59    6.40
  -1 -10  -4   64.89    5.60
   1 -10   4   61.19    6.50
  -1 -10  -4   59.79    5.70
  -1  10   4   55.69    6.10
   1 -10   4   66.89    6.90
  -1 -10  -4   63.19    5.90
   1 -10   4   45.90    6.30
  -1 -10   6   13.80    5.50
   1 -10  -6    6.90    5.30
   1 -10  -6   14.00    4.50
  -1 -10   6    7.70    8.40
  -1 -10   6   13.10    4.80
   1  10   6   13.70    5.20
   1  10   6   13.80    4.10
  -1  10  -6   20.80    6.40
  -1  10  -6    8.40    3.50
  -1 -10   6   12.10    5.20
   1  10   6   13.50    6.90
   1 -10  -6   12.40    4.40
   1 -10   6    9.70    7.10
   1  10  -6   19.30    5.10
  -1  10   6   14.20    2.80
  -1 -10  -6   13.60    4.50
  -1  10   6   11.90    6.60
  -1 -10  -6   16.20    6.50
  -1 -10  -6   10.90    4.40
  -1 -10  -6   12.60    2.80
   1 -10   6   16.50    5.20
   1  10  -6   22.40    7.00
   1 -10   6   13.70    4.80
   1 -10   6    9.00    5.20
   1 -10   6   17.10    5.40
  -1  10   6   12.60    4.20
   1  10  -6    4.60    3.80
  -1 -10   8   47.10    6.70
  -1  10  -8   39.50    8.70
  -1 -10   8   35.60    9.70
  -1 -10   8   47.70    7.50
   1 -10  -8   51.29    7.50
   1  10   8   50.89   10.40
  -1  10  -8   54.59    7.70
  -1 -10   8   47.30    7.40
   1 -10  -8   43.10    7.70
   1  10   8   47.50    6.20
  -1  10  -8   46.70    8.00
   1 -10   8   47.50    7.00
  -1 -10  -8   47.50    7.70
   1 -10   8   60.49    9.50
  -1  10   8   38.90    9.80
  -1 -10  -8   46.40    8.30
  -1  10   8   49.80    8.40
   1 -10   8   48.30    9.80
   1  10  -8   44.10    7.40
  -1 -10  -8   51.49    7.40
   1 -11  -1   22.40    4.40
  -1 -11   1   21.40    4.30
   1 -11  -1   23.30    5.10
  -1  11  -1   15.00    3.40
  -1 -11   1   24.30    4.50
  -1 -11   1   30.80    5.40
   1 -11  -1   20.00    3.40
   1  11   1   12.10    3.40
   1 -11  -1   17.20    2.20
  -1 -11   1   19.50    1.60
   1 -11  -1   31.20    4.80
  -1 -11   1   21.70    4.00
  -1 -11   1   29.30    5.10
  -1 -11   1   20.60    4.40
   1 -11  -1   20.60    3.00
  -1 -11   1   34.90    5.50
   1 -11  -1   21.60    5.00
   1 -11  -1   20.20    2.70
   1 -11   1   31.90    5.90
   1 -11   1   21.80    4.70
   1 -11   1   19.70    2.10
   1 -11   1   18.60    4.60
  -1 -11  -1   22.80    4.10
   1 -11   1   27.90    5.60
  -1 -11  -1   25.80    4.50
   1 -11   1   21.60    4.30
  -1  11   1   12.10    3.50
  -1 -11  -1   24.90    4.90
  -1 -11  -1   19.20    2.80
  -1 -11  -1   25.00    5.20
   1 -11   1   19.00    2.50
  -1 -11  -1   23.90    4.70
   1 -11   1   25.10    4.80
  -1 -11  -1   18.70    3.10
   1 -11   1   19.50    3.60
  -1 -11  -1   18.90    2.40
   1  11  -1   12.20    3.10
   1 -11  -3  112.39    6.30
   1 -11  -3   96.99    8.50
  -1 -11   3  106.19    7.90
   1 -11  -3  100.09    8.10
  -1 -11   3   97.39    8.20
  -1  11  -3   95.49    7.80
   1 -11  -3   93.79    7.30
  -1 -11   3   87.19    9.20
   1 -11  -3  106.19    8.10
  -1 -11   3  100.59    8.50
  -1 -11   3  101.09    8.40
   1  11   3  103.89    8.10
   1 -11  -3   97.99    6.50
   1 -11  -3   83.69    6.10
  -1 -11   3   83.39    5.90
  -1 -11   3   95.09    8.30
   1 -11  -3  104.49    8.80
   1 -11   3   84.29    6.00
  -1  11   3   96.19    7.90
  -1 -11  -3  105.09    9.10
  -1 -11  -3  110.99    7.70
   1  11  -3   97.39    7.80
   1 -11   3   95.79    9.50
  -1 -11  -3  105.89    8.50
  -1 -11  -3  112.09    6.80
   1 -11   3  102.99    7.80
   1 -11   3   98.49    8.20
   1 -11   3   99.69    8.40
  -1 -11  -3   97.19    6.60
   1 -11   3   98.49    8.60
   1 -11   3  100.59    8.80
  -1 -11  -3  117.89    8.50
  -1 -11  -3   97.99    7.50
  -1  11  -5   18.60    4.30
  -1 -11   5   19.10    7.10
   1 -11  -5   33.30    6.30
  -1 -11   5   29.90    4.70
  -1 -11   5   17.70    5.60
   1  11   5   18.50    5.80
  -1 -11   5   15.30    6.80
  -1 -11   5   13.70    3.90
   1 -11  -5   17.70    5.00
   1 -11  -5   20.00    4.80
   1  11   5   22.80    6.90
   1 -11  -5   18.90    4.70
  -1  11   5   27.00    7.70
   1 -11   5   13.60    3.70
   1 -11   5   33.90    5.90
  -1 -11  -5   20.50    4.90
  -1 -11  -5   20.40    4.00
   1  11  -5   20.30    4.10
   1  11  -5   19.40    7.40
   1 -11   5   11.20    8.10
  -1  11   5   21.70    5.60
   1 -11   5   18.90    5.80
  -1 -11  -5   22.60    4.90
   1 -11   5   17.10    6.30
  -1  11  -7   53.89    7.20
  -1  11  -7   62.49    9.20
  -1 -11   7   55.69    8.00
   1  11   7   55.89    7.30
  -1 -11   7   50.59    7.40
   1 -11  -7   72.39    9.50
   1  11   7   47.20   10.20
  -1 -11   7   51.99    7.00
   1 -11  -7   57.49    7.40
  -1 -11   7   73.69   12.50
  -1 -11  -7   71.89    9.20
   1 -11   7   64.99    7.90
   1 -11   7   53.29    7.40
   1 -11   7   54.59    6.90
   1  11  -7   46.30    8.40
   1  11  -7   44.30    8.00
   1 -11   7   31.00    9.20
   1 -11   7   64.79   10.60
  -1  11   7   51.29    9.70
  -1  11   7   50.79   10.00
  -1 -11  -7   52.19    8.30
  -1 -11  -7   52.29    7.00
  -1  12   0  110.69    9.20
   1 -12   0  111.99    9.20
   1  12   0  112.89    9.10
   1 -12   0  129.19    8.90
   1 -12   0  114.99    9.20
  -1 -12   0  118.59    9.90
   1 -12   0  106.99    6.10
  -1 -12   0  111.79    8.60
  -1 -12   0  105.89    6.20
  -1 -12   0  105.79    8.50
   1 -12   0  129.69    9.30
  -1 -12   0  113.09    8.50
   1 -12   0  119.49    7.30
   1 -12   0  112.19    6.10
  -1 -12   0  126.69    9.70
  -1 -12   0  106.89    6.00
   1 -12   0  115.99    9.20
  -1 -12   2   40.40    3.80
   1 -12  -2   44.80    6.20
  -1  12  -2   42.40    6.80
   1  12   2   46.20    6.40
  -1 -12   2   40.60    6.90
  -1 -12   2   45.10    7.70
  -1 -12   2   39.90    3.10
  -1 -12   2   50.69    7.20
  -1 -12   2   51.39    7.80
   1 -12  -2   40.70    4.10
   1 -12  -2   41.30    5.50
  -1 -12   2   35.10    6.20
  -1 -12   2   46.50    7.40
   1 -12  -2   45.40    7.20
  -1 -12   2   57.39    6.60
   1 -12  -2   40.10    6.30
   1 -12  -2   51.29    7.20
   1 -12  -2   38.90    7.30
   1 -12  -2   39.20    4.90
   1 -12   2   51.09    8.40
  -1 -12  -2   45.10    6.40
   1 -12   2   50.19    5.60
   1 -12   2   42.00    3.20
   1 -12   2   41.70    3.80
  -1  12   2   44.90    6.40
  -1 -12  -2   46.80    7.90
  -1 -12  -2   54.89    7.20
   1 -12   2   45.50    7.10
  -1 -12  -2   40.40    4.30
  -1 -12  -2   41.20    7.30
   1  12  -2   50.09    6.20
   1 -12   2   47.20    7.80
  -1 -12  -2   34.30    4.10
   1 -12   2   51.69    7.60
  -1 -12  -2   40.20    6.60
  -1 -12  -2   41.00    7.40
   1 -12  -4   20.40    4.10
  -1 -12   4   16.00    6.00
   1 -12  -4   21.40    6.40
   1  12   4   17.30    7.30
   1 -12  -4   12.50    5.00
  -1 -12   4   22.00    6.10
  -1 -12   4   22.60    4.40
  -1  12  -4   13.70    5.50
  -1 -12   4   16.10    5.40
   1 -12  -4   31.20    4.00
   1 -12  -4   20.40    5.30
  -1 -12   4   23.50    6.40
  -1 -12   4   22.70    3.90
   1 -12  -4   20.60    5.00
   1 -12   4   30.70    6.80
   1 -12   4   22.80    6.50
   1 -12   4   24.40    6.20
   1 -12   4   19.90    4.20
   1 -12   4   23.40    4.10
  -1 -12  -4   23.30    5.20
  -1  12   4   25.00    6.40
  -1 -12  -4   21.70    6.70
  -1 -12  -4   12.90    4.40
  -1 -12  -4   32.10    6.20
  -1 -12  -4   15.70    6.20
   1 -12   4   16.40    7.40
   1  12  -4   18.90    4.20
   1 -12   4   20.30    6.30
  -1 -12   6    8.80    6.50
  -1 -12   6    7.50    6.10
   1 -12  -6    9.20    5.90
   1  12   6    9.40    8.70
   1  12   6    9.10    6.10
  -1 -12   6    9.80    7.10
  -1  12  -6    7.80    7.10
  -1 -12   6    8.50    5.10
   1 -12  -6   10.30    6.30
  -1 -12  -6    7.40    5.90
   1 -12   6    1.70    8.90
  -1  12   6   16.80   10.10
   1  12  -6   21.80    8.50
  -1  12   6    7.00    4.90
   1 -12   6   12.20    5.40
   1 -12   6    8.80    7.60
   1  12  -6    8.20    6.80
  -1 -12  -6   10.60    5.70
  -1 -12  -6    8.60    6.30
  -1 -12  -6    9.50    7.30
   1 -13  -1    8.20    3.40
   1 -13  -1    8.80    5.20
  -1 -13   1    4.60    4.70
  -1 -13   1   11.20    5.70
  -1 -13   1    5.80    5.80
  -1 -13   1    8.50    5.60
  -1 -13   1    9.50    5.30
   1 -13  -1   12.60    6.40
   1 -13  -1   11.70    6.50
   1 -13  -1   12.20    5.20
  -1  13  -1    8.00    6.70
  -1 -13   1   12.10    6.00
   1 -13  -1    6.20    6.10
   1 -13  -1   10.60    2.90
   1 -13  -1   10.80    4.60
   1  13   1    7.00    6.20
  -1 -13  -1    8.40    5.60
  -1 -13  -1    9.10    4.20
   1 -13   1   14.80    6.50
   1 -13   1    8.00    2.00
  -1 -13  -1    2.70    6.70
   1 -13   1    9.00    5.30
   1 -13   1   15.20    5.50
   1 -13   1    6.30    5.40
   1 -13   1    9.40    5.20
   1  13  -1    7.40    6.40
   1 -13   1   14.70    6.40
  -1 -13  -1   10.10    5.80
  -1  13   1    4.80    5.30
  -1 -13  -1   11.10    6.10
   1 -13   1    1.80    4.50
  -1 -13  -1   11.40    6.00
   1 -13  -3   24.90    4.20
   1 -13  -3   17.20    4.70
  -1  13  -3   11.40    5.70
   1 -13  -3   18.30    3.50
   1 -13  -3   32.90    7.30
   1  13   3   12.10    4.80
   1 -13  -3   18.70    3.70
   1 -13  -3   16.70    7.10
  -1 -13   3   15.20    5.80
   1 -13  -3   20.10    5.20
  -1 -13   3   27.90    7.30
  -1 -13   3   12.60    6.40
  -1 -13   3   16.40    7.30
   1 -13  -3   14.70    5.90
  -1 -13  -3   16.80    5.80
  -1  13   3   12.70    4.20
   1 -13   3   16.90    7.20
  -1 -13  -3   18.60    5.60
   1 -13   3   19.40    3.30
   1 -13   3   22.00    6.50
  -1 -13  -3   16.50    6.10
   1 -13   3   21.90    7.90
  -1 -13  -3   15.70    6.40
  -1 -13  -3   16.90    5.10
   1  13  -3   16.90    7.40
   1 -13   3   12.80    2.70
   1 -13   3   13.00    6.20
   1 -13   3   16.30    5.70
  -1 -13   5    9.00    8.90
  -1 -13   5    5.60    7.80
   1  13   5   26.40   12.20
   1 -13  -5    6.00    8.70
  -1 -13   5    6.40    8.50
   1  13  -5    2.10    8.50
   1  14   0   85.89   10.70
  -1 -14   0   92.59   11.70
  -1 -14   0   86.19   10.50
  -1 -14   0   79.09   10.70
  -1 -14   0   68.09    7.90
   1 -14   0   78.19   10.30
  -1 -14   0   82.09    9.90
   1 -14   0   89.39    9.60
   1 -14   0   75.79    9.90
   1 -14   0   81.89    9.20
  -1  14   0   89.29   10.80
   1 -14   0   55.39    9.10
  -1 -14   2    6.10    6.40
   1 -14  -2   -1.40    6.50
  -1 -14   2    7.70    6.30
  -1  14  -2    4.00    6.10
   1 -14  -2    4.60    5.80
  -1 -14   2    3.50    7.00
   1 -14  -2    0.50    5.80
   1  14   2    3.90    5.90
   1 -14  -2   14.00    8.20
  -1  14   2    3.10    5.70
   1 -14   2   -4.20    6.50
   1  14  -2    0.80    5.80
  -1 -14  -2   -0.60    6.30
   1 -14   2    4.00    7.60
   1 -14   2    2.20    6.10
   1 -14   2    8.20    6.40
  -1 -14  -2    7.90    7.00
   1 -14   2    5.60    5.50
   1 -14   2   28.10    8.40
  -1 -14   4   14.10    9.30
  -1  14  -4    5.10    7.10
   1  14   4    2.70    4.80
  -1 -14   4   10.00    7.30
  -1  14   4    5.40    4.00
   1 -14   4    1.90   10.50
   1 -14   4   10.20   11.20
  -1 -14  -4    9.30    8.10
   1  14  -4    9.50    7.00
  -2   0   0   20.80    1.40
   2   0   0   21.60    1.50
  -2   0   0   22.80    1.40
   2   0   0   19.80    1.30
   2   0   0   21.00    1.40
  -2   0   0   21.20    1.40
  -2   0   0   20.20    1.20
   2   0   0   21.20    1.50
   2   0   0   18.70    1.40
  -2   0   2  283.37   14.10
  -2   0  -2  289.17   14.10
  -2   0  -2  283.67   13.90
   2   0   2  278.67   14.10
   2   0  -2  281.47   13.90
  -2   0   2  295.87   14.10
  -2   0  -2  283.87   14.10
  -2   0   2  280.97   14.00
  -2   0  -2  291.97   14.10
  -2   0   2  290.27   13.80
   2   0  -2  290.67   14.20
   2   0   2  273.67   14.10
   2   0  -2  295.97   14.10
   2   0  -2  278.87   14.10
   2   0   2  265.07   13.90
  -2   0   2  275.77   14.10
  -2   0  -2  286.07   14.10
   2   0   2  286.67   14.10
   2   0   2  287.57   14.10
  -2   0   4 1684.93   85.09
   2   0  -4 1802.32   85.39
   2   0   4 1772.02   85.39
  -2   0   4 1838.72   85.39
   2   0   4 1773.92   85.39
  -2   0  -4 1703.03   85.29
   2   0   4 1706.93   85.19
  -2   0  -4 1721.73   85.29
   2   0  -4 1721.73   85.39
  -2   0  -4 1822.62   85.39
  -2   0   4 1724.63   85.29
  -2   0  -4 1709.23   85.29
   2   0   4 1827.92   85.39
   2   0   4 1790.52   85.49
   2   0  -4 1806.02   85.39
  -2   0  -4 1693.83   84.89
  -2   0   4 1746.93   85.09
  -2   0   4 1737.73   85.39
   2   0  -4 1792.82   85.39
   2   0  -6  892.01   43.90
  -2   0   6  893.31   43.90
   2   0   6  854.51   43.80
   2   0   6  870.21   43.70
   2   0  -6  890.21   43.90
  -2   0  -6  840.82   43.70
   2   0  -6  886.61   43.80
  -2   0  -6  860.01   43.20
   2   0  -6  904.81   44.00
  -2   0   6  903.01   43.50
   2   0   6  920.71   44.00
  -2   0   6  920.81   44.00
   2   0   6  883.21   44.00
  -2   0  -6  920.11   44.10
   2   0   6  927.11   43.90
  -2   0  -6  909.11   43.90
  -2   0  -6  877.51   43.80
  -2   0   6  864.11   43.80
  -2   0   6  856.41   43.60
  -2   0   8  231.58   12.10
  -2   0  -8  220.98   12.20
  -2   0  -8  221.38   12.50
   2   0  -8  231.98   12.50
   2   0   8  200.28   12.20
  -2   0  -8  233.58   13.00
   2   0   8  236.08   12.70
   2   0  -8  219.48   12.70
  -2   0   8  187.78   12.60
  -2   0  -8  238.08   13.10
   2   0  -8  197.08   12.40
  -2   0   8  215.68   12.70
  -2   0   8  233.88   12.00
   2   0   8  224.18   12.60
   2   0  -8  226.08   12.80
  -2   0   8  233.08   12.80
   2   0   8  186.38   12.70
   2   0  10   13.20    4.60
  -2   0 -10    8.00    5.30
   2   0 -10   11.80    6.80
   2   0 -10   12.60    4.70
   2   0 -10   18.00    5.70
   2   0  10   13.50    4.90
   2   0  10   15.10    5.70
  -2   0  10   12.30    6.00
  -2   0 -10   16.10    2.70
  -2   0  10   10.70    4.40
  -2   0  10   12.80    4.50
  -2   0 -10   13.70    6.90
  -2   0 -10   18.40    6.10
   2   0  10   15.20    6.00
   2   0 -10   17.50    6.20
   2   0  10   12.00    4.80
  -2   0  10   14.50    4.90
  -2  -1   1   43.20    2.60
  -2  -1   1   46.60    2.60
  -2   1  -1   48.20    2.70
  -2  -1   1   47.40    2.60
   2  -1  -1   43.80    2.60
  -2  -1   1   45.30    2.60
   2  -1  -1   47.20    2.60
  -2   1  -1   45.10    2.60
   2   1   1   42.80    2.50
   2   1   1   45.30    2.50
   2  -1  -1   45.60    2.60
  -2   1  -1   46.00    2.60
  -2   1  -1   49.00    2.60
   2   1   1   45.80    2.60
  -2  -1   1   43.80    2.50
   2   1   1   45.00    2.60
   2   1   1   43.70    2.50
   2  -1  -1   45.40    2.50
   2  -1   1   47.30    2.60
  -2  -1  -1   44.20    2.60
   2   1  -1   42.50    2.50
  -2  -1  -1   42.50    2.50
  -2   1   1   44.00    2.40
  -2   1   1   44.20    2.60
   2   1  -1   44.80    2.50
   2  -1   1   42.30    2.50
   2  -1   1   47.40    2.60
   2   1  -1   44.90    2.60
   2  -1   1   44.60    2.60
   2   1  -1   46.80    2.70
  -2  -1  -1   45.50    2.50
  -2  -1  -1   45.60    2.50
  -2  -1  -1   44.40    2.60
  -2   1   1   45.50    2.60
  -2   1   1   43.90    2.60
   2   1   3  386.36   18.10
  -2   1  -3  364.56   18.10
  -2  -1   3  377.76   18.10
  -2  -1   3  341.27   18.10
   2   1   3  364.36   18.10
   2   1   3  364.56   18.10
  -2   1  -3  375.86   18.20
  -2  -1   3  348.67   17.80
   2  -1  -3  361.36   18.00
   2   1   3  343.77   17.80
   2  -1  -3  361.86   18.10
   2  -1  -3  354.56   18.10
   2   1   3  377.56   18.10
  -2  -1   3  346.07   18.10
   2  -1  -3  379.06   18.10
  -2   1  -3  368.76   18.10
  -2   1  -3  359.56   18.00
   2  -1   3  357.66   18.10
   2   1  -3  346.17   18.10
  -2  -1  -3  356.06   17.90
  -2   1   3  354.66   18.10
   2   1  -3  389.06   18.20
  -2   1   3  354.16   18.00
   2  -1   3  382.26   18.10
  -2  -1  -3  362.76   18.10
  -2  -1  -3  371.26   18.10
   2   1  -3  352.76   18.00
  -2  -1  -3  345.87   18.10
   2  -1   3  381.96   18.10
   2   1  -3  365.66   18.10
  -2  -1  -3  358.76   18.10
  -2   1   3  390.76   18.20
  -2   1   3  348.67   18.00
   2  -1   3  354.46   18.10
  -2   1   3  364.06   17.70
   2   1  -3  378.16   18.10
   2  -1  -5   65.29    4.20
  -2  -1   5   60.69    4.00
   2   1   5   54.39    4.30
   2   1   5   49.10    3.80
   2  -1  -5   55.39    4.10
  -2  -1   5   50.79    3.50
   2   1   5   51.09    3.90
  -2   1  -5   51.69    3.00
   2   1   5   57.19    4.30
   2  -1  -5   64.29    4.80
  -2  -1   5   58.29    4.60
  -2   1  -5   54.99    4.10
  -2   1  -5   54.59    4.30
   2   1   5   57.59    4.30
  -2  -1   5   54.89    4.10
   2  -1  -5   61.59    4.50
  -2   1  -5   55.89    4.70
  -2  -1   5   68.79    4.20
   2   1  -5   56.49    4.10
   2  -1   5   58.49    4.40
   2  -1   5   57.79    4.40
  -2   1   5   53.69    3.90
  -2   1   5   53.49    3.90
  -2   1   5   63.09    4.10
   2  -1   5   58.19    4.40
  -2  -1  -5   58.59    3.70
   2   1  -5   56.29    4.30
   2   1  -5   54.69    4.10
   2   1  -5   54.89    4.30
  -2   1   5   55.89    3.60
   2  -1   5   60.59    4.10
   2  -1   5   59.19    4.40
  -2   1   5   54.69    4.30
  -2  -1  -5   60.89    4.60
  -2  -1  -5   54.69    3.90
  -2  -1  -5   56.99    4.50
  -2  -1  -5   58.29    4.20
  -2   1  -7   64.39    6.20
  -2   1  -7   64.89    5.20
  -2   1  -7   69.79    6.10
   2   1   7   71.49    6.50
   2   1   7   73.49    5.90
  -2  -1   7   67.69    6.10
   2  -1  -7   71.79    5.90
  -2  -1   7   64.59    5.60
   2  -1  -7   70.59    6.50
   2  -1  -7   66.09    6.20
   2   1   7   57.59    5.70
  -2   1  -7   64.19    3.80
  -2  -1   7   68.19    5.00
   2  -1  -7   69.19    6.10
  -2  -1   7   58.49    5.80
   2   1   7   69.59    4.90
   2   1   7   66.19    6.10
   2   1  -7   68.99    6.30
  -2  -1  -7   65.29    5.80
  -2  -1  -7   64.79    6.10
   2  -1   7   74.89    5.00
  -2  -1  -7   62.79    5.60
   2  -1   7   68.89    5.90
  -2   1   7   71.09    5.40
   2  -1   7   69.69    6.20
   2   1  -7   64.09    5.50
  -2   1   7   68.19    5.50
  -2   1   7   67.39    5.90
   2  -1   7   67.39    6.20
  -2   1   7   68.99    4.90
   2   1  -7   63.19    5.40
   2  -1   7   64.09    6.10
  -2  -1  -7   66.79    4.20
  -2  -1  -7   57.29    6.00
   2   1  -7   58.99    6.20
  -2   1   7   57.79    6.10
   2  -1  -9   30.30    5.40
  -2  -1   9   31.70    5.60
  -2  -1   9   26.50    5.30
  -2   1  -9   30.30    5.20
  -2   1  -9   31.60    5.70
  -2   1  -9   30.00    5.30
   2  -1  -9   28.20    4.80
  -2   1  -9   25.30    4.90
  -2  -1   9   29.20    5.00
   2   1   9   38.90    5.60
   2   1   9   43.60    5.60
   2  -1  -9   32.10    4.50
  -2  -1   9   28.10    4.80
  -2   1  -9   20.50    3.10
   2   1   9   43.80    7.20
   2   1   9   37.40    6.30
  -2  -1  -9   32.50    5.90
   2  -1   9   28.50    4.70
  -2   1   9   35.00    6.30
   2   1  -9   34.40    5.60
  -2  -1  -9   37.80    5.00
  -2   1   9   27.70    4.70
  -2  -1  -9   41.20    5.60
   2   1  -9   32.90    5.40
   2   1  -9   27.70    5.10
   2  -1   9   51.79    7.60
  -2   1   9   24.60    4.10
  -2  -1  -9   40.30    4.10
   2   1  -9   27.10    5.10
   2  -1   9   30.60    4.80
  -2  -1  11   30.30    7.40
  -2  -1 -11   40.30    7.50
   2  -1  11   39.50    8.10
   2  -1  11   23.70    7.50
  -2   1  11   28.70    8.20
   2  -2   0  225.18   11.20
  -2   2   0  221.28   11.40
  -2  -2   0  225.68   11.40
  -2  -2   0  229.88   11.30
   2   2   0  230.08   11.30
   2   2   0  234.98   11.40
   2  -2   0  220.18   11.30
   2   2   0  225.18   11.30
   2   2   0  221.58   11.30
   2   2   0  228.68   11.30
  -2  -2   0  236.78   11.40
  -2   2   0  231.78   11.30
  -2   2   0  224.78   11.30
   2  -2   0  224.88   11.10
   2   2   0  237.28   11.40
  -2  -2   0  229.08   11.40
   2   2   0  239.78   11.40
  -2  -2   0  232.18   11.40
  -2  -2   0  235.58   11.30
   2  -2   0  226.18   11.30
   2   2   2  590.54   29.20
  -2  -2   2  622.44   29.30
   2  -2  -2  596.54   29.20
   2   2   2  573.64   29.10
  -2  -2   2  597.44   29.20
  -2  -2   2  592.04   29.30
   2  -2  -2  595.74   29.30
  -2  -2   2  594.74   29.20
   2   2   2  593.54   29.10
  -2  -2   2  579.54   29.10
  -2   2  -2  615.64   29.30
   2  -2  -2  588.54   29.20
   2   2   2  606.24   29.20
  -2   2  -2  599.04   29.10
   2   2   2  581.44   29.10
  -2   2  -2  585.64   29.10
   2  -2  -2  606.74   29.20
  -2   2  -2  620.14   29.30
   2  -2   2  586.74   29.20
   2   2  -2  605.14   29.30
  -2   2   2  601.34   29.20
   2   2  -2  592.94   29.10
  -2  -2  -2  600.14   29.10
   2   2  -2  596.74   29.00
   2  -2   2  614.54   29.30
   2   2  -2  565.04   29.10
   2  -2   2  622.94   29.20
   2   2  -2  596.04   29.10
  -2  -2  -2  597.24   29.20
  -2  -2  -2  595.34   29.20
  -2  -2  -2  575.04   29.10
   2   2  -2  597.84   29.30
  -2  -2  -2  591.94   29.20
  -2   2   2  582.34   29.20
  -2   2   2  574.94   29.10
  -2   2   2  624.44   29.10
  -2   2   2  604.74   29.30
   2  -2   2  615.84   29.30
  -2  -2   4  779.22   38.70
  -2  -2   4  784.72   38.70
  -2   2  -4  764.02   38.80
   2   2   4  809.42   38.70
   2  -2  -4  806.82   38.70
  -2   2  -4  789.42   38.80
  -2  -2   4  819.52   38.80
  -2  -2   4  809.82   38.70
   2  -2  -4  783.22   38.60
   2   2   4  795.32   38.70
   2   2   4  798.02   38.70
   2  -2  -4  821.02   38.80
  -2   2  -4  785.02   38.60
  -2  -2   4  768.12   38.90
   2   2   4  758.52   38.40
   2  -2  -4  774.12   38.80
  -2   2  -4  768.22   38.60
   2   2   4  795.52   38.80
   2   2  -4  799.22   38.60
  -2   2   4  794.92   38.70
  -2  -2  -4  809.02   38.70
   2   2  -4  798.92   38.20
   2  -2   4  794.92   38.70
  -2   2   4  750.62   38.70
   2   2  -4  816.42   38.70
   2   2  -4  762.22   38.80
   2  -2   4  776.32   38.90
   2  -2   4  762.12   38.80
  -2  -2  -4  792.52   38.50
   2  -2   4  822.32   38.80
  -2   2   4  813.32   38.70
  -2   2   4  789.62   38.60
  -2  -2  -4  817.72   38.80
  -2   2   4  753.92   38.20
   2   2  -4  788.22   38.80
  -2  -2  -4  763.02   38.70
  -2  -2  -4  769.62   38.80
   2   2  -4  754.92   38.60
   2  -2   4  809.72   38.80
  -2   2   4  796.52   38.40
   2  -2  -6  410.66   21.80
  -2   2  -6  411.86   21.80
  -2   2  -6  435.96   22.10
  -2  -2   6  428.76   21.80
  -2  -2   6  421.56   21.80
   2   2   6  452.45   22.00
   2  -2  -6  444.96   22.00
  -2   2  -6  436.66   21.90
   2  -2  -6  424.06   21.60
   2   2   6  459.15   22.10
  -2   2  -6  412.26   21.70
   2   2   6  406.56   21.30
  -2  -2   6  438.56   21.70
   2  -2  -6  439.16   22.10
   2   2   6  433.26   21.80
  -2  -2   6  452.05   22.10
  -2  -2   6  415.26   21.40
  -2  -2  -6  436.16   21.40
  -2  -2  -6  442.46   22.00
   2  -2   6  421.46   21.90
   2   2  -6  439.96   22.00
  -2   2   6  417.26   21.70
  -2  -2  -6  405.76   21.30
   2  -2   6  435.26   22.00
   2   2  -6  413.46   21.90
  -2  -2  -6  425.46   22.00
   2  -2   6  432.96   21.90
   2   2  -6  448.36   22.20
   2   2  -6  432.36   22.00
   2   2  -6  442.56   20.90
  -2   2   6  425.26   21.80
  -2  -2  -6  416.36   21.90
  -2   2   6  448.26   22.00
  -2   2   6  429.36   21.80
   2  -2   6  412.06   22.00
   2   2  -6  409.66   21.80
  -2  -2   8   58.89    5.10
  -2   2  -8   61.09    5.90
   2  -2  -8   54.09    6.50
  -2   2  -8   59.49    6.70
   2   2   8   56.09    6.20
  -2  -2   8   59.09    6.40
   2   2   8   57.69    6.80
  -2  -2   8   73.79    6.60
   2  -2  -8   68.09    5.90
  -2   2  -8   65.59    6.40
   2  -2  -8   64.79    6.50
   2   2   8   55.79    4.80
   2   2   8   55.79    6.20
  -2  -2  -8   56.39    6.20
   2   2  -8   60.39    6.00
   2  -2   8   71.79    6.40
   2  -2   8   62.89    7.10
   2  -2   8   71.19    6.20
  -2   2   8   60.09    6.20
  -2  -2  -8   62.19    6.60
   2   2  -8   61.39    6.30
  -2  -2  -8   56.29    5.90
  -2  -2  -8   60.39    5.20
  -2  -2  -8   73.09    5.90
   2  -2   8   62.59    6.70
  -2   2   8   52.09    5.30
   2   2  -8   54.29    6.50
   2   2  -8   60.19    6.50
  -2   2   8   57.89    6.60
  -2   2   8   61.79    6.90
  -2   2   8   60.39    6.10
  -2  -2  10   27.30    5.40
  -2   2 -10   34.60    6.40
  -2  -2  10   41.90    6.30
   2   2  10   35.50    5.90
   2   2  10   32.70    6.00
  -2  -2  10   48.70    7.40
   2   2  10   32.10    7.20
   2  -2 -10   35.50    6.10
   2  -2 -10   34.40    5.80
   2   2  10   39.20    5.80
   2   2  10   61.39   11.00
  -2  -2  10   38.80    5.90
   2  -2 -10   54.79    9.40
  -2   2 -10   44.70    6.40
   2  -2 -10   38.50    6.60
  -2   2 -10   40.60    6.90
  -2  -2 -10   33.80    5.40
   2  -2  10   43.50    7.60
   2  -2  10   32.40    5.80
  -2   2  10   39.00    7.30
  -2  -2 -10   44.80    7.10
  -2   2  10   42.20    6.60
  -2   2  10   32.60    5.60
  -2  -2 -10   37.20    5.80
   2  -2  10   43.20    7.80
  -2  -2 -10   45.20    6.90
  -2   2  10   40.70    7.70
   2   2 -10   36.90    6.30
   2   2 -10   40.80    7.60
   2   2 -10   35.80    5.30
   2  -2  10   42.30    6.10
  -2  -3   1  439.26   20.80
  -2   3  -1  433.96   20.80
  -2  -3   1  386.36   20.40
   2   3   1  416.76   20.70
  -2   3  -1  410.06   20.40
   2  -3  -1  411.96   20.50
  -2  -3   1  413.96   20.40
  -2   3  -1  418.46   20.40
   2   3   1  435.86   20.70
  -2   3  -1  423.26   20.70
   2   3   1  424.06   20.40
   2   3   1  427.66   20.40
  -2  -3   1  409.06   20.50
   2   3   1  443.46   20.60
  -2   3  -1  403.96   20.50
  -2   3  -1  437.66   20.80
  -2  -3   1  419.56   20.70
  -2  -3   1  434.56   20.60
  -2  -3   1  424.46   20.50
   2   3   1  417.66   20.70
  -2  -3   1  416.66   20.70
   2   3   1  416.46   20.40
   2  -3  -1  432.56   20.80
   2  -3  -1  422.06   20.50
   2   3  -1  412.56   20.40
   2  -3   1  412.56   20.50
  -2  -3  -1  406.46   20.40
  -2   3   1  411.96   20.50
   2   3  -1  438.26   20.70
  -2  -3  -1  424.76   20.60
  -2   3   1  400.96   20.40
  -2  -3  -1  412.96   20.60
  -2  -3  -1  411.06   20.50
   2  -3   1  412.36   20.70
   2  -3   1  409.36   20.50
  -2   3   1  434.16   20.40
   2   3  -1  403.16   20.40
   2   3  -1  439.96   20.60
   2   3  -1  402.76   20.60
   2  -3   1  422.26   20.80
   2   3  -1  402.56   20.40
  -2   3   1  445.56   20.70
  -2  -3  -1  409.66   20.50
  -2  -3  -1  413.26   20.40
   2  -3   1  421.56   20.50
   2   3  -1  423.56   20.70
   2   3  -1  413.06   20.40
   2  -3  -3 1367.66   67.79
   2  -3  -3 1388.06   67.99
  -2   3  -3 1389.56   67.69
   2   3   3 1403.66   68.09
  -2   3  -3 1440.56   67.99
   2   3   3 1338.27   67.79
  -2  -3   3 1401.96   67.99
  -2  -3   3 1437.86   67.89
  -2  -3   3 1446.06   67.99
   2   3   3 1378.16   67.79
   2   3   3 1396.16   67.89
  -2  -3   3 1372.16   67.79
  -2  -3   3 1424.86   67.99
   2  -3  -3 1412.46   67.89
   2   3   3 1385.66   67.79
  -2  -3   3 1384.36   67.79
  -2   3  -3 1364.86   67.69
   2  -3  -3 1319.87   67.79
  -2   3  -3 1390.16   67.89
  -2   3  -3 1440.76   68.09
   2   3  -3 1383.46   67.69
  -2   3   3 1401.06   67.99
   2   3  -3 1412.86   67.79
  -2   3   3 1344.37   67.79
   2  -3   3 1390.96   67.99
  -2  -3  -3 1392.26   67.89
   2  -3   3 1418.46   67.79
   2   3  -3 1367.06   67.69
  -2  -3  -3 1411.86   67.79
  -2  -3  -3 1363.26   67.89
  -2  -3  -3 1397.06   67.89
   2  -3   3 1411.36   67.49
  -2  -3  -3 1409.36   67.89
   2  -3   3 1433.26   68.09
   2   3  -3 1446.16   67.99
  -2   3   3 1355.36   67.79
   2   3  -3 1420.86   67.69
  -2   3   3 1378.36   67.49
   2   3  -3 1415.56   67.99
   2   3  -3 1422.16   67.59
  -2   3   3 1387.26   67.79
   2  -3  -5   46.90    3.80
   2  -3  -5   46.70    3.90
  -2  -3   5   51.79    4.00
  -2  -3   5   43.30    4.20
  -2  -3   5   47.50    4.10
   2  -3  -5   43.90    3.70
   2   3   5   46.00    3.80
   2  -3  -5   50.29    4.60
   2   3   5   42.80    3.70
  -2   3  -5   43.90    3.60
  -2  -3   5   40.90    3.90
  -2   3  -5   44.80    4.60
  -2  -3   5   52.29    3.70
  -2   3  -5   45.90    4.20
  -2   3  -5   43.10    3.80
   2   3   5   44.00    3.90
   2   3   5   41.60    2.80
   2   3   5   42.60    4.40
   2  -3   5   43.30    4.10
  -2  -3  -5   46.20    3.50
   2   3  -5   46.40    4.10
   2  -3   5   47.50    4.60
   2   3  -5   48.70    3.70
   2  -3   5   48.50    3.70
  -2  -3  -5   52.89    4.10
   2   3  -5   49.30    4.30
  -2   3   5   45.30    3.80
  -2   3   5   45.40    3.50
  -2   3   5   38.40    3.20
  -2  -3  -5   46.40    4.50
   2   3  -5   45.20    3.80
  -2  -3  -5   45.70    4.10
  -2   3   5   45.50    3.80
   2  -3   5   44.80    4.30
   2   3  -5   50.99    4.80
   2  -3   5   45.50    4.50
  -2   3   5   44.70    3.70
   2   3   7  232.38   12.20
   2  -3  -7  227.38   12.70
  -2  -3   7  226.48   12.50
   2   3   7  200.78   12.10
   2  -3  -7  216.58   11.90
   2  -3  -7  236.08   12.50
  -2  -3   7  230.68   12.50
   2   3   7  208.08   11.30
   2   3   7  214.68   12.90
  -2   3  -7  201.58   12.20
  -2   3  -7  204.98   12.00
  -2  -3   7  245.68   12.50
  -2   3  -7  212.58   12.30
  -2  -3   7  215.48   12.50
   2   3   7  219.88   12.50
  -2   3  -7  229.58   12.80
   2  -3   7  231.98   12.50
  -2   3   7  225.18   11.80
   2  -3   7  216.18   12.50
  -2  -3  -7  223.08   12.00
  -2   3   7  207.28   12.10
   2   3  -7  213.48   12.20
   2   3  -7  216.48   12.40
   2  -3   7  220.38   12.30
  -2  -3  -7  202.58   11.30
   2   3  -7  219.38   12.50
  -2  -3  -7  225.38   12.80
  -2   3   7  211.08   12.40
  -2  -3  -7  222.78   12.30
   2  -3   7  184.38   13.10
   2   3  -7  217.88   12.30
   2  -3   7  232.58   12.70
  -2   3   7  206.78   12.40
   2   3  -7  224.78   11.10
  -2   3   7  227.58   12.20
  -2   3  -9   61.49    7.40
  -2  -3   9   64.79    6.00
   2  -3  -9   67.49    8.10
   2  -3  -9   64.39    7.70
  -2  -3   9   75.39    7.20
  -2   3  -9   62.69    7.60
   2   3   9   69.49    7.90
   2   3   9   85.29    7.60
  -2  -3   9   69.89    7.50
   2   3   9   61.89    5.70
   2  -3  -9   64.79    7.00
   2  -3  -9   66.39    7.30
  -2   3  -9   91.49    8.80
  -2   3  -9   85.19    6.70
   2   3   9   66.79    7.30
  -2  -3   9   81.59    7.90
  -2  -3   9   61.09    7.40
   2   3  -9   69.29    7.70
   2   3  -9   60.09    7.40
  -2  -3  -9   67.89    6.50
  -2   3   9   62.99    7.20
  -2   3   9   66.29    7.30
   2  -3   9   65.59    8.40
   2   3  -9   81.19    6.80
   2   3  -9   62.19    7.10
   2  -3   9   66.49    7.90
  -2   3   9   73.49    8.00
  -2   3   9   59.19    7.80
   2  -3   9   58.09    7.20
  -2  -3  -9   68.59    6.80
  -2  -3  -9   75.99    8.00
  -2   3   9   61.09    7.00
  -2  -3  -9   78.79    8.20
  -2  -3  -9   83.49    6.00
   2   3  -9   59.99    7.50
   2  -3   9   66.19    6.90
   2  -3   9   74.49    7.30
  -2  -3  11    2.30    7.90
  -2  -3  11   10.50    7.20
  -2   3 -11    7.20    4.60
  -2  -3  11   -8.50    7.70
   2  -3 -11    1.80    4.40
   2   3  11    4.90    5.40
   2   3  11    4.80    9.30
   2   3  11   13.40    7.10
   2  -3 -11   -0.10    7.20
  -2   3 -11   10.50    7.70
   2  -3  11  -13.30    8.70
  -2   3  11    5.50    5.50
  -2   3  11    3.90    5.70
   2   3 -11   -2.20    7.70
   2   3 -11    5.10    4.90
  -2  -3 -11   -2.50    7.20
   2  -3  11  -12.80    7.50
  -2  -3 -11    0.50    4.60
  -2   3  11   10.40    9.60
  -2   3  11   14.30    7.70
   2  -4   0  471.25   23.10
  -2  -4   0  485.55   23.20
   2   4   0  464.05   23.20
  -2   4   0  494.55   23.40
   2   4   0  470.05   23.20
   2   4   0  499.05   23.30
   2  -4   0  449.46   23.00
   2  -4   0  468.55   23.00
  -2  -4   0  447.36   23.10
   2  -4   0  473.65   23.30
   2   4   0  489.75   23.10
   2  -4   0  469.25   23.40
  -2   4   0  479.75   23.30
  -2  -4   0  445.56   22.90
  -2  -4   0  460.95   22.90
  -2  -4   0  478.05   23.20
  -2  -4   0  482.55   23.40
  -2  -4   0  468.85   23.30
  -2  -4   0  448.56   23.00
   2   4   0  483.05   23.30
   2   4   2 1204.58   59.79
   2  -4  -2 1272.87   60.29
  -2  -4   2 1244.28   60.19
   2   4   2 1237.88   60.19
  -2   4  -2 1238.78   59.79
  -2  -4   2 1201.48   59.79
   2  -4  -2 1248.68   59.89
   2   4   2 1176.48   60.19
   2   4   2 1192.28   59.79
  -2   4  -2 1274.07   60.19
  -2   4  -2 1207.38   59.89
  -2   4  -2 1279.27   60.19
   2   4   2 1237.28   59.69
   2  -4  -2 1235.88   59.89
   2   4   2 1249.28   59.99
  -2  -4   2 1252.97   60.19
  -2  -4   2 1231.58   59.89
  -2  -4   2 1230.38   59.79
  -2  -4   2 1199.28   59.79
   2  -4  -2 1173.68   59.89
   2   4   2 1241.18   59.99
  -2   4  -2 1254.87   60.19
  -2   4  -2 1245.98   59.79
  -2  -4  -2 1188.28   59.89
  -2   4   2 1294.77   60.09
  -2   4   2 1183.38   59.79
   2  -4   2 1295.27   60.29
   2   4  -2 1215.98   60.19
   2   4  -2 1209.68   59.89
  -2   4   2 1187.58   59.79
   2   4  -2 1223.58   59.59
  -2  -4  -2 1247.28   59.89
  -2  -4  -2 1264.67   59.99
   2   4  -2 1233.78   59.79
   2   4  -2 1298.47   60.19
   2   4  -2 1241.68   59.79
   2  -4   2 1194.18   59.79
   2   4  -2 1253.27   59.99
  -2  -4  -2 1224.08   59.99
  -2  -4  -2 1231.08   59.89
  -2   4   2 1229.48   60.19
   2  -4   2 1257.17   59.89
  -2   4   2 1242.08   59.79
   2  -4   2 1245.08   60.19
  -2  -4   4  258.17   13.70
  -2   4  -4  258.47   13.10
   2   4   4  262.37   13.70
   2  -4  -4  258.77   13.40
  -2   4  -4  250.97   13.10
   2   4   4  257.17   13.20
  -2  -4   4  269.17   13.70
   2  -4  -4  259.37   13.70
   2  -4  -4  251.47   13.20
   2  -4  -4  247.58   13.50
  -2  -4   4  256.97   13.40
  -2   4  -4  262.37   13.70
  -2  -4   4  248.38   13.30
   2   4   4  264.37   13.40
   2   4   4  262.47   13.30
  -2   4  -4  257.37   13.60
  -2  -4   4  272.17   13.40
  -2   4  -4  256.87   13.60
  -2  -4  -4  259.27   13.50
   2   4  -4  252.27   13.00
   2  -4   4  277.27   13.90
   2   4  -4  253.27   13.10
   2   4  -4  255.67   13.60
  -2   4   4  263.47   13.00
  -2   4   4  268.57   13.50
   2  -4   4  263.57   13.40
  -2  -4  -4  252.17   13.50
  -2  -4  -4  253.27   13.30
  -2  -4  -4  257.17   13.60
  -2   4   4  268.37   13.30
  -2  -4  -4  255.67   13.40
   2   4  -4  261.07   13.70
   2   4  -4  270.17   13.30
  -2   4   4  258.37   13.60
   2  -4   4  260.07   13.70
   2  -4   4  263.67   13.40
   2   4  -4  261.17   13.10
  -2   4   4  253.67   13.20
   2   4  -4  267.37   13.10
   2  -4   4  263.77   13.60
   2   4   6  108.29    7.20
   2   4   6   98.29    5.30
  -2  -4   6  118.29    7.10
  -2   4  -6  101.99    6.40
   2   4   6  100.59    7.40
  -2  -4   6   95.69    7.30
  -2   4  -6  107.19    7.00
   2  -4  -6  102.29    5.90
   2  -4  -6   99.19    6.80
   2  -4  -6  107.69    6.90
   2  -4  -6   87.39    6.70
  -2   4  -6   94.49    7.00
   2   4   6  106.79    7.20
   2   4   6   97.59    6.40
  -2   4  -6   84.29    6.40
  -2  -4   6  110.29    7.30
  -2  -4   6   93.09    6.70
  -2   4  -6  103.09    6.10
  -2  -4   6   81.59    6.40
  -2  -4  -6  102.19    6.80
  -2  -4  -6  102.79    7.10
   2  -4   6   82.29    7.20
   2   4  -6   95.19    6.00
  -2   4   6   87.19    6.50
  -2  -4  -6   88.09    5.50
  -2   4   6  118.09    6.10
   2   4  -6   98.89    5.60
  -2   4   6  103.29    6.50
  -2  -4  -6  103.79    6.80
  -2   4   6  100.49    6.40
   2   4  -6   96.69    6.70
   2   4  -6   99.19    7.40
   2  -4   6  102.79    7.10
  -2   4   6  102.49    7.20
   2  -4   6   99.39    7.20
  -2   4   6  105.99    6.00
  -2  -4  -6  100.09    6.60
   2  -4   6   96.49    7.40
   2   4  -6   92.09    5.60
   2   4  -6  107.79    6.40
   2   4  -6  106.69    7.30
   2  -4   6   82.29    6.30
  -2   4  -8   44.50    6.30
   2   4   8   47.00    6.50
  -2   4  -8   57.39    7.00
   2  -4  -8   51.49    6.30
  -2  -4   8   43.10    6.30
   2   4   8   45.60    5.80
  -2   4  -8   35.40    6.10
   2   4   8   49.20    6.00
  -2  -4   8   46.90    6.40
   2  -4  -8   45.80    6.10
  -2   4  -8   50.59    6.70
   2  -4  -8   51.49    7.40
   2   4   8   47.90    3.60
  -2  -4   8   52.19    6.50
   2  -4  -8   45.20    6.50
   2   4  -8   48.60    5.90
   2  -4   8   42.30    6.00
   2   4  -8   44.20    3.60
  -2  -4  -8   57.79    6.30
  -2   4   8   48.90    4.90
   2  -4   8   49.60    6.40
   2   4  -8   45.60    6.20
   2  -4   8   45.60    7.20
  -2  -4  -8   35.00    4.10
  -2  -4  -8   43.80    5.90
  -2  -4  -8   44.30    6.50
  -2   4   8   46.30    5.80
  -2  -4  -8   43.10    5.00
   2   4  -8   60.89    6.90
   2  -4   8   56.29    6.20
   2   4  -8   48.80    6.20
   2   4  -8   33.20    6.10
   2  -4   8   49.40    6.00
   2   4  10   36.20    5.20
   2   4  10   41.30    9.20
   2  -4 -10   63.09   10.00
   2   4  10   57.69    7.40
  -2   4 -10   44.40    7.30
  -2   4 -10   40.60    6.20
  -2   4 -10   46.00    7.40
  -2  -4  10   40.80    7.20
   2   4  10   41.80    6.10
  -2  -4  10   44.80    6.60
  -2   4  10   44.10    6.40
  -2   4  10   41.20    7.40
   2   4 -10   37.10    6.30
   2   4 -10   35.70    8.10
  -2   4  10   46.00    7.70
  -2  -4 -10   42.00    6.80
   2  -4  10   37.80    7.40
  -2  -4 -10   45.90    7.80
   2   4 -10   51.39    7.30
   2   4 -10   40.90    3.60
  -2   4  10   39.10    9.10
  -2  -4 -10   40.20    5.30
   2   5   1  402.26   18.90
  -2  -5   1  372.46   19.00
  -2  -5   1  372.76   18.80
  -2   5  -1  373.76   18.70
   2   5   1  358.96   18.90
  -2  -5   1  352.76   18.40
  -2  -5   1  367.36   18.50
   2  -5  -1  379.86   18.50
   2  -5  -1  382.76   18.80
  -2  -5   1  370.36   18.70
   2   5   1  371.86   18.50
  -2   5  -1  417.06   19.10
   2  -5  -1  388.56   19.10
  -2   5  -1  425.56   19.10
   2   5   1  394.16   19.00
  -2  -5   1  371.66   18.70
  -2  -5   1  391.86   18.90
  -2  -5   1  355.56   18.50
   2  -5  -1  360.96   18.50
   2  -5  -1  354.76   18.40
   2  -5   1  359.76   18.50
  -2  -5  -1  351.26   18.50
   2  -5   1  389.76   19.00
  -2  -5  -1  352.06   18.80
   2   5  -1  402.76   18.90
  -2  -5  -1  382.56   19.00
  -2  -5  -1  353.16   18.50
   2   5  -1  380.46   19.00
  -2  -5  -1  383.96   18.80
  -2   5   1  386.96   19.10
  -2  -5  -1  373.96   18.50
   2  -5   1  388.36   18.50
   2   5  -1  377.96   19.10
   2  -5   1  383.16   19.00
  -2   5   1  378.26   18.70
   2  -5   1  377.16   18.70
  -2  -5   3  370.06   17.80
   2   5   3  345.97   17.60
   2   5   3  359.16   18.30
  -2   5  -3  348.87   18.20
   2   5   3  347.77   18.20
  -2   5  -3  363.06   18.00
  -2  -5   3  353.16   17.80
  -2   5  -3  358.46   18.20
  -2  -5   3  347.67   17.70
   2   5   3  352.66   17.60
   2   5   3  366.76   18.00
  -2  -5   3  333.87   17.70
  -2   5  -3  348.97   17.40
   2  -5  -3  359.36   17.80
  -2   5  -3  347.47   18.20
   2  -5  -3  354.56   18.30
  -2  -5   3  367.06   18.30
  -2   5  -3  358.96   17.40
   2  -5  -3  372.46   17.90
  -2  -5   3  364.66   18.30
   2  -5  -3  341.07   17.80
  -2  -5   3  378.26   18.40
   2  -5   3  355.46   17.80
   2   5  -3  359.06   17.90
   2  -5   3  380.06   17.90
   2  -5   3  353.76   18.30
  -2  -5  -3  352.46   17.80
  -2  -5  -3  357.76   18.10
  -2   5   3  357.76   17.40
  -2   5   3  360.56   18.30
   2  -5   3  342.57   18.20
  -2   5   3  364.36   18.10
   2   5  -3  357.36   18.20
   2   5  -3  352.06   17.40
  -2  -5  -3  351.06   17.90
  -2  -5  -3  365.36   18.00
   2   5  -3  364.76   18.00
   2  -5   3  352.26   17.50
  -2   5   3  359.86   17.70
   2   5  -3  361.96   18.20
  -2  -5  -3  365.96   18.00
   2   5  -3  356.16   17.40
   2   5  -3  349.47   17.70
  -2   5   3  352.16   17.60
  -2   5  -5   24.00    4.20
   2  -5  -5   21.40    3.50
  -2   5  -5   14.40    2.30
  -2  -5   5   21.80    4.10
   2   5   5   23.40    3.90
  -2   5  -5   19.10    3.10
  -2  -5   5   18.60    3.40
   2  -5  -5   20.80    3.70
  -2   5  -5   21.60    3.60
   2  -5  -5   26.20    3.00
  -2   5  -5   18.40    3.70
  -2  -5   5   21.50    3.10
  -2  -5   5   19.70    3.00
   2  -5  -5   26.90    4.40
  -2  -5   5   17.40    3.50
   2   5   5   16.60    3.00
   2   5   5   19.00    3.00
   2   5   5   18.90    3.00
  -2   5  -5   15.70    2.80
  -2  -5  -5   24.10    3.40
   2   5  -5   17.20    3.60
   2  -5   5   23.70    3.40
   2  -5   5   19.00    2.70
   2   5  -5   19.10    2.80
  -2   5   5   22.70    3.10
  -2   5   5   19.80    3.10
   2  -5   5   22.60    3.90
   2   5  -5   19.00    2.30
   2   5  -5   21.00    3.60
   2   5  -5   25.00    2.70
   2  -5   5   19.80    3.90
   2  -5   5   15.50    3.00
   2   5  -5   20.60    2.10
  -2   5   5   22.60    2.80
  -2  -5  -5   23.50    3.80
  -2  -5  -5   26.00    4.10
  -2  -5  -5   20.30    3.10
   2   5  -5   20.50    3.30
  -2  -5  -5   22.70    3.60
  -2   5   5   23.70    3.90
   2  -5  -7   52.79    5.90
  -2   5  -7   53.19    6.10
   2   5   7   54.09    5.40
   2  -5  -7   52.29    4.60
   2   5   7   52.99    6.80
  -2  -5   7   53.99    6.50
  -2   5  -7   48.70    5.80
  -2   5  -7   53.39    5.40
  -2  -5   7   50.09    6.40
  -2  -5   7   44.00    5.10
  -2  -5   7   51.69    6.00
   2  -5  -7   66.09    6.80
   2   5   7   50.09    3.30
  -2  -5   7   53.49    5.90
   2   5   7   50.89    5.70
  -2   5  -7   48.30    7.10
  -2   5  -7   41.80    5.10
   2  -5  -7   55.69    5.70
   2   5   7   49.40    5.70
   2   5  -7   34.40    5.60
  -2  -5  -7   55.59    5.60
  -2   5   7   53.89    5.20
  -2   5   7   50.79    4.70
  -2   5   7   66.89    7.60
  -2   5   7   54.49    5.80
   2  -5   7   42.90    6.50
   2  -5   7   40.40    4.90
   2   5  -7   50.99    6.00
   2  -5   7   66.69    6.60
  -2   5   7   51.99    5.80
   2   5  -7   47.90    5.10
   2   5  -7   53.49    6.20
  -2  -5  -7   52.59    6.30
   2   5  -7   48.90    5.80
   2   5  -7   46.40    4.40
   2  -5   7   45.90    5.60
   2  -5   7   53.29    5.90
   2   5  -7   48.90    3.40
  -2  -5  -7   47.50    3.50
  -2  -5   9   11.80    7.90
  -2   5  -9   18.00    5.80
   2  -5  -9   15.20    4.90
   2  -5  -9   28.30    5.50
   2   5   9   28.40    5.00
  -2  -5   9   14.10    5.00
  -2   5  -9   19.20    4.40
   2   5   9   18.10    4.40
   2   5   9    7.00    8.60
   2  -5  -9   21.30    5.70
   2  -5  -9   12.70    6.80
  -2   5  -9   20.20    5.50
  -2  -5   9   17.70    6.50
   2   5   9   27.70    5.20
   2  -5   9   19.60    5.10
  -2  -5  -9   18.80    4.90
  -2  -5  -9   13.40    6.80
   2   5  -9   23.30    4.60
  -2   5   9   28.10    5.20
  -2   5   9   28.90    6.70
   2  -5   9   22.50    7.10
  -2   5   9   18.60    4.40
  -2   5   9   14.90    4.50
   2  -5   9   16.50    5.20
  -2  -5  -9   18.50    4.10
   2  -5   9   14.80    7.00
  -2  -5  -9   16.10    5.90
  -2   5   9    6.90    4.00
   2   5  -9   16.80    7.00
   2   5  -9   14.60    4.30
  -2  -5  -9   13.90    2.20
   2   5  11   -3.70    7.50
  -2   5 -11    5.60    5.30
  -2   5 -11   -2.40    9.80
  -2  -5  11    5.20    6.80
   2  -5 -11   12.60    5.40
  -2   5 -11   24.90   10.40
   2  -5 -11   10.00    9.80
   2  -5  11    6.60    9.00
   2  -5  11   30.50    9.90
  -2  -5 -11    6.50    5.00
  -2   5  11    4.80    8.10
  -2   5  11    3.00    4.80
  -2  -5 -11   10.10    9.10
  -2   5  11    2.30    6.60
   2   5 -11    8.50    5.60
   2   5 -11    3.60   10.10
   2   5 -11    6.50    9.30
   2   6   0   26.00    2.60
   2   6   0   26.00    3.10
   2  -6   0   23.90    3.10
  -2   6   0   29.10    3.30
  -2  -6   0   29.20    2.00
  -2  -6   0   27.40    1.90
  -2  -6   0   29.00    2.90
   2   6   0   26.90    2.80
   2  -6   0   24.70    1.90
  -2  -6   0   29.90    3.30
  -2  -6   0   26.60    2.00
   2  -6   0   29.90    2.00
  -2  -6   0   27.90    2.90
  -2  -6   0   31.20    3.20
   2   6   0   27.60    2.90
   2  -6   0   30.00    2.90
   2  -6   0   26.90    3.70
  -2   6  -2  189.98   10.50
  -2   6  -2  190.98   10.80
  -2  -6   2  205.78   10.50
   2   6   2  211.48   10.60
  -2  -6   2  196.98   10.10
   2  -6  -2  213.48   11.30
   2   6   2  193.38   10.60
   2   6   2  210.28   10.90
   2  -6  -2  200.28   10.40
  -2  -6   2  208.48   10.20
  -2  -6   2  201.28   10.70
  -2  -6   2  194.28   10.20
  -2   6  -2  202.98   10.90
  -2  -6   2  207.18   10.50
   2  -6  -2  194.38   10.40
  -2  -6   2  211.08   11.00
   2  -6  -2  195.58   10.20
   2  -6  -2  190.68   10.00
  -2   6  -2  198.98   10.90
  -2  -6   2  199.78   10.90
  -2  -6   2  205.18   11.10
   2   6   2  202.88   10.90
  -2   6   2  197.18   11.00
  -2  -6  -2  208.38   10.90
  -2  -6  -2  201.48   10.30
   2   6  -2  207.38   10.90
   2   6  -2  206.18   10.80
   2  -6   2  210.08   10.40
   2   6  -2  208.18   10.80
  -2  -6  -2  197.68   10.00
   2   6  -2  202.18   10.20
  -2  -6  -2  202.48   10.80
  -2  -6  -2  200.98   10.70
   2  -6   2  199.98   10.80
   2  -6   2  202.58   10.20
   2  -6   2  190.48   10.10
  -2   6   2  203.18   10.90
   2  -6   2  210.08   10.50
  -2  -6  -2  192.38   10.20
   2   6  -2  207.78   10.60
   2  -6   2  204.78   11.20
   2  -6  -4  169.48    9.20
  -2  -6   4  182.28   10.00
  -2   6  -4  156.18    9.60
  -2   6  -4  158.68    8.30
  -2  -6   4  173.58    9.90
   2   6   4  178.68    9.20
  -2   6  -4  151.18    9.70
   2  -6  -4  169.08    9.00
  -2  -6   4  169.98    9.20
  -2   6  -4  173.38    9.90
   2  -6  -4  172.38    9.20
  -2   6  -4  159.88    8.20
  -2  -6   4  170.18    9.10
  -2  -6   4  161.18    9.60
   2   6   4  151.48    9.60
  -2   6  -4  178.38    9.30
   2  -6  -4  174.28   10.00
   2   6   4  167.18    8.70
  -2  -6   4  168.18    9.10
   2   6   4  163.28    8.60
   2   6   4  172.18    9.50
   2   6  -4  150.68    8.20
   2  -6   4  158.18    9.90
   2  -6   4  145.79    9.50
   2   6  -4  179.78    8.80
  -2   6   4  176.98    8.80
   2   6  -4  178.78   10.10
   2  -6   4  165.08    9.20
  -2  -6  -4  177.08    9.20
   2  -6   4  173.88    9.10
   2  -6   4  167.48    8.50
   2   6  -4  171.48    9.20
  -2  -6  -4  167.08    9.40
  -2   6   4  162.88    8.60
   2   6  -4  154.28    8.40
  -2  -6  -4  180.28    9.50
  -2  -6  -4  168.38    9.30
   2   6  -4  152.48    9.50
   2  -6   4  168.28    9.50
  -2   6   4  163.58    9.70
  -2   6   4  174.18    8.50
  -2   6   4  179.18    9.40
   2   6  -4  163.88    9.30
  -2  -6  -4  171.38    9.20
   2  -6  -6   92.79    7.40
   2   6   6   91.29    6.20
  -2   6  -6  105.89    7.00
  -2   6  -6   99.89    7.30
  -2   6  -6  108.29    7.70
  -2   6  -6  106.39    6.00
   2   6   6  111.59    7.20
  -2  -6   6  102.49    6.80
  -2  -6   6   82.39    6.80
  -2  -6   6   87.29    7.30
   2   6   6   92.89    6.70
   2  -6  -6   81.79    7.20
  -2  -6   6  117.29    8.40
   2   6   6  124.09    8.50
  -2  -6   6   89.59    7.80
   2  -6  -6   99.99    7.70
   2  -6   6   79.69    6.80
  -2  -6  -6   88.49    7.20
  -2   6   6  103.59    6.30
  -2  -6  -6   99.39    6.60
   2   6  -6   95.89    6.70
  -2  -6  -6  100.59    7.10
  -2  -6  -6   93.99    7.60
   2  -6   6  103.29    7.30
  -2   6   6  100.99    6.00
   2   6  -6  105.49    7.60
  -2   6   6  100.19    6.80
  -2   6   6   93.59    7.30
   2   6  -6   90.39    5.70
   2   6  -6  122.99    7.60
   2  -6   6  110.09    7.70
   2   6  -6  111.09    6.00
   2   6  -6   95.59    6.00
  -2  -6   8   87.19    8.40
   2   6   8   86.39    9.40
  -2   6  -8   86.99    9.70
  -2   6  -8   86.89    7.30
   2   6   8   84.69    7.50
   2  -6  -8   81.49    7.10
  -2   6  -8   82.39    7.60
   2   6   8   85.29    7.40
  -2   6  -8   67.99    6.40
   2  -6  -8   76.69    6.30
  -2  -6   8  101.49    8.70
  -2  -6   8   83.29    8.90
  -2  -6   8   88.59    8.30
   2  -6  -8   99.09    8.30
   2  -6   8   88.49    7.80
   2  -6   8   84.49    8.50
   2  -6   8   84.09    8.00
   2  -6   8   84.69    8.70
  -2  -6  -8  106.29    6.80
  -2  -6  -8   76.09    4.90
   2   6  -8   69.09    5.10
   2   6  -8   74.39    5.80
   2   6  -8   95.69    7.60
  -2   6   8   86.49    7.50
   2   6  -8   83.09    7.80
   2   6  -8  103.09    9.20
  -2   6   8   82.89    7.90
  -2  -6  -8   86.59    8.90
   2   6  -8   76.89    6.30
  -2  -6  -8   79.29    7.30
   2  -6 -10   10.10    5.20
  -2   6 -10   11.20    5.10
  -2  -6  10   14.50    7.20
   2   6  10   17.40    5.20
  -2  -6  10   12.60    6.40
  -2   6 -10    9.30    5.40
   2   6  10    6.20    5.40
  -2   6 -10    8.00    8.00
  -2   6 -10   23.70    4.50
   2   6 -10    9.10    5.80
   2   6 -10   15.70    5.40
  -2  -6 -10   16.60    5.30
   2  -6  10    9.00    7.50
   2  -6  10   29.30    9.10
  -2   6  10   17.00    5.40
   2   6 -10    9.00    5.20
   2   6 -10    8.90    8.50
  -2   6  10    8.20    8.90
  -2   6  10   15.90    5.50
   2  -7  -1  136.49    7.30
  -2  -7   1  150.38    8.90
  -2  -7   1  144.99    7.30
  -2  -7   1  137.09    7.30
  -2  -7   1  138.49    7.50
   2  -7  -1  145.69    7.50
  -2  -7   1  140.39    8.10
  -2  -7   1  144.69    8.00
  -2  -7   1  152.08    8.70
   2   7   1  145.09    8.00
   2   7   1  142.99    8.20
  -2   7  -1  142.29    8.20
  -2  -7   1  140.99    8.30
   2   7   1  141.39    8.50
  -2  -7   1  147.49    8.10
   2  -7  -1  139.59    7.30
   2   7   1  143.99    8.30
   2  -7  -1  145.89    8.00
   2  -7  -1  148.79    8.80
   2  -7  -1  141.19    7.90
  -2   7  -1  145.09    8.60
  -2  -7  -1  146.69    8.40
  -2  -7  -1  142.69    7.50
   2  -7   1  145.09    8.60
   2  -7   1  140.19    8.10
  -2   7   1  145.29    8.60
   2  -7   1  150.48    8.00
  -2   7   1  153.78    8.00
  -2  -7  -1  142.09    8.20
  -2  -7  -1  139.29    7.30
  -2  -7  -1  146.19    8.40
   2  -7   1  144.89    7.40
   2  -7   1  146.69    8.70
  -2  -7  -1  145.19    7.40
   2  -7   1  143.49    7.90
   2   7  -1  153.18    8.20
   2   7  -1  143.79    7.80
  -2  -7  -1  142.79    8.60
   2  -7   1  139.59    7.30
  -2  -7   3   63.49    4.60
  -2  -7   3   63.19    4.50
   2  -7  -3   62.89    5.50
   2  -7  -3   58.79    3.80
   2   7   3   72.59    5.30
   2  -7  -3   59.29    4.20
   2  -7  -3   60.69    4.30
  -2   7  -3   57.79    5.30
  -2   7  -3   77.59    6.10
  -2  -7   3   61.89    5.40
  -2  -7   3   54.99    4.10
  -2  -7   3   58.99    5.70
  -2  -7   3   54.79    4.00
  -2   7  -3   67.89    5.00
   2   7   3   52.79    5.20
   2  -7  -3   63.39    4.20
  -2   7  -3   69.99    4.60
   2  -7   3   48.60    5.50
   2   7  -3   51.29    4.80
  -2  -7  -3   60.59    4.60
  -2   7   3   72.29    5.50
   2  -7   3   51.39    4.10
  -2  -7  -3   53.39    4.90
  -2  -7  -3   59.19    4.10
   2  -7   3   52.99    4.80
   2   7  -3   67.09    5.70
   2   7  -3   74.49    4.60
   2  -7   3   72.99    4.20
  -2  -7  -3   65.49    4.30
  -2   7   3   71.39    5.20
  -2  -7  -3   63.39    5.60
   2   7   5   43.70    6.40
   2  -7  -5   29.90    3.60
  -2  -7   5   31.70    5.00
   2  -7  -5   30.80    4.90
   2  -7  -5   29.00    4.90
  -2   7  -5   42.60    7.50
  -2  -7   5   27.90    3.80
   2   7   5   30.70    5.20
  -2   7  -5   22.30    3.30
  -2   7  -5   29.40    4.80
   2   7   5   33.50    3.40
  -2   7  -5   25.40    4.90
  -2  -7   5   26.90    4.20
  -2  -7   5   32.20    5.30
   2  -7   5   31.70    5.50
   2  -7   5   26.10    4.00
  -2  -7  -5   29.20    5.00
  -2   7   5   31.00    2.60
   2   7  -5   29.40    4.90
  -2  -7  -5   42.90    5.40
  -2  -7  -5   29.60    4.70
   2   7  -5   21.20    3.00
  -2   7   5   26.90    4.60
   2  -7   5   28.10    5.00
   2  -7   5   37.50    5.70
  -2  -7  -5   31.90    3.90
   2   7  -5   18.10    6.00
  -2   7   5   21.00    3.20
   2  -7   5   23.20    3.80
  -2  -7  -5   29.70    4.70
   2   7  -5   28.90    5.00
   2   7  -5   27.60    4.40
  -2   7   5   37.60    7.00
   2   7   7    9.40    4.40
  -2   7  -7   13.50    4.90
  -2  -7   7   15.00    5.60
  -2  -7   7   12.60    4.20
   2   7   7    5.20    4.50
   2  -7  -7    7.20    4.50
   2  -7  -7   11.40    3.80
   2   7   7    4.50    2.80
  -2   7  -7   15.50    5.60
   2  -7  -7    7.80    4.80
  -2   7  -7   16.20    5.00
  -2  -7   7    6.10    4.30
  -2   7  -7   11.00    4.20
   2  -7   7   19.70    5.00
   2   7  -7   10.70    4.30
   2   7  -7    3.50    2.90
   2  -7   7   11.80    5.30
  -2   7   7    6.50    2.70
  -2  -7  -7   12.70    4.00
  -2  -7  -7   10.50    5.20
  -2   7   7    8.80    4.80
   2  -7   7    8.70    4.10
  -2  -7  -7   13.90    4.10
  -2  -7  -7    8.30    1.80
  -2   7   7    8.10    4.50
  -2   7   7   15.00    5.30
  -2   7   7    9.90    2.70
   2  -7   7   11.00    4.40
   2  -7  -9   11.90    5.50
   2   7   9    4.90    4.60
  -2  -7   9    1.80    7.80
   2  -7  -9   14.00    4.60
  -2   7  -9    8.80    5.80
   2   7   9    5.90    5.00
  -2  -7   9    9.40    5.50
   2   7   9    9.70    5.60
   2   7   9   -1.80    7.50
  -2  -7   9   10.90    6.90
  -2  -7   9   -1.50    7.50
  -2   7  -9    2.60    5.20
  -2  -7   9   16.90    6.20
   2   7  -9    7.50    5.10
  -2  -7  -9   10.00    6.50
  -2  -7  -9   11.70    4.80
  -2   7   9    9.10    4.90
  -2  -7  -9    5.40    5.30
   2   7  -9    2.20    6.90
   2  -7   9    0.10    7.20
   2  -7   9   11.70    5.40
  -2   7   9    4.80    5.20
   2   7  -9    9.40    4.80
   2  -7   9    4.90    8.00
   2  -7   9    7.10    5.40
  -2   7   9    3.70    5.30
   2   7  -9    7.40    1.60
   2   7  -9   18.20    5.00
  -2  -8   0    7.50    2.10
   2  -8   0   10.50    2.40
   2  -8   0    9.80    3.40
  -2   8   0    8.80    2.60
  -2   8   0    9.00    2.50
   2  -8   0    8.30    2.00
   2   8   0   12.10    2.50
   2   8   0    6.60    2.30
   2  -8   0    9.60    1.40
  -2  -8   0    8.40    3.50
   2  -8   0   10.70    3.40
  -2  -8   0    9.70    1.30
  -2  -8   0    9.90    3.40
  -2  -8   0   14.50    2.90
  -2  -8   0    9.20    1.40
  -2  -8   0    9.90    2.30
   2   8   0    8.70    2.70
  -2  -8   0   11.80    3.40
   2  -8   0   10.30    3.30
   2  -8   0    9.70    1.40
   2  -8   0   10.40    3.90
   2   8   2   75.09    5.50
  -2  -8   2   81.79    6.00
   2  -8  -2   77.09    5.50
  -2  -8   2   70.59    4.50
  -2   8  -2   71.59    5.90
  -2  -8   2   76.09    5.90
   2   8   2   75.79    6.80
   2  -8  -2   70.69    5.70
  -2  -8   2   77.29    5.80
  -2  -8   2   74.09    4.20
   2  -8  -2   66.19    4.20
   2  -8  -2   77.79    5.10
   2  -8  -2   74.69    4.00
  -2  -8   2   61.89    5.10
  -2   8  -2   77.19    5.90
   2   8   2   58.89    5.30
  -2  -8   2   78.99    6.20
  -2  -8   2   67.79    4.10
  -2  -8   2   75.89    5.20
  -2   8  -2   76.49    5.10
   2  -8   2   66.09    4.10
  -2  -8  -2   74.49    5.40
  -2  -8  -2   62.89    4.20
  -2  -8  -2   72.99    5.70
   2  -8   2   76.59    5.00
   2  -8   2   68.79    5.40
   2  -8   2   72.69    6.10
   2  -8   2   73.69    5.60
   2   8  -2   73.39    6.30
   2  -8   2   79.29    5.10
   2   8  -2   73.29    5.40
  -2  -8  -2   79.49    6.20
   2   8  -2   70.69    5.60
   2  -8   2   78.19    6.40
  -2   8   2   72.09    5.90
  -2  -8  -2   71.59    4.10
  -2  -8  -2   74.39    5.10
   2  -8   2   73.79    4.20
  -2  -8  -2   70.99    5.50
  -2  -8  -2   83.69    4.60
   2   8   4  250.27   13.40
  -2   8  -4  241.08   13.90
  -2   8  -4  263.77   14.30
  -2  -8   4  244.28   13.40
  -2  -8   4  227.48   12.70
   2  -8  -4  238.48   12.80
  -2  -8   4  234.88   13.40
  -2  -8   4  225.58   13.40
   2   8   4  197.98   13.90
  -2  -8   4  236.38   12.40
   2  -8  -4  236.78   12.30
  -2  -8   4  230.98   12.70
   2  -8  -4  240.08   13.50
  -2   8  -4  240.28   13.20
   2  -8  -4  232.68   12.50
  -2   8  -4  225.18   12.90
  -2  -8   4  233.08   12.60
   2   8   4  249.88   13.20
  -2   8   4  257.37   14.10
   2  -8   4  222.88   12.70
  -2  -8  -4  244.28   13.40
  -2  -8  -4  232.68   12.80
   2   8  -4  197.48   13.70
  -2  -8  -4  227.98   12.70
  -2   8   4  231.28   13.90
   2  -8   4  234.18   13.40
   2  -8   4  258.97   12.10
   2   8  -4  253.07   13.00
   2   8  -4  248.58   12.70
  -2  -8  -4  242.48   13.10
   2   8  -4  238.98   12.40
   2  -8   4  235.08   13.40
  -2  -8  -4  232.48   12.60
   2  -8   4  233.48   12.40
  -2  -8   6   75.89    7.10
  -2  -8   6   77.09    7.00
  -2   8  -6   79.69    7.00
   2   8   6   73.89    6.80
  -2  -8   6   65.29    5.70
  -2   8  -6   84.49    8.20
  -2   8  -6   81.59    7.40
   2   8   6   59.79    4.90
  -2  -8   6   72.39    8.00
   2  -8  -6   77.39    6.70
   2  -8  -6   72.39    7.90
   2   8   6   77.19    8.30
  -2  -8   6   72.39    7.80
  -2  -8   6   60.09    6.50
   2  -8  -6   74.09    6.60
   2  -8  -6   71.19    7.00
   2  -8  -6   70.29    4.70
   2   8  -6   76.29    7.30
   2  -8   6   77.69    7.70
  -2   8   6   66.69    4.90
   2  -8   6   67.69    6.60
  -2   8   6   94.49    7.20
  -2  -8  -6   77.99    6.50
   2   8  -6   77.59    7.50
   2  -8   6   77.49    7.70
  -2  -8  -6   75.99    7.50
  -2  -8  -6   75.89    6.50
   2   8  -6   71.79    5.60
   2   8  -6   75.59    6.20
   2  -8   6   73.59    7.10
  -2  -8  -6   76.89    5.40
  -2   8   6   74.99    7.80
  -2  -8  -6   76.69    7.20
  -2   8   6   74.69    5.30
  -2  -8  -6   75.19    6.90
   2  -8  -8   57.59    8.50
   2  -8  -8   55.69    7.70
  -2   8  -8   54.59    8.60
  -2   8  -8   45.40    4.00
  -2  -8   8   50.99    7.50
   2  -8  -8   67.29    7.00
  -2  -8   8   46.10    8.40
  -2   8  -8   40.60    5.80
   2   8   8   32.00    4.60
   2   8   8   49.60    7.20
  -2   8  -8   53.49    7.80
  -2   8  -8   38.60    3.50
  -2   8   8   63.09    8.30
   2   8  -8   43.70    3.40
   2   8  -8   49.50    4.00
  -2  -8  -8   49.10    6.20
  -2   8   8   49.60    5.80
   2   8  -8   56.09    7.50
   2  -8   8   45.30    8.10
  -2   8   8   40.10    4.80
   2   8  -8   39.30    3.80
  -2  -8  -8   45.40    7.60
   2  -8   8   57.99    7.40
   2  -8   8   55.79    9.50
  -2  -8  -8   61.99    7.50
   2   8  10   24.80    6.30
  -2   8 -10   26.40    6.00
  -2  -8  10    8.50    8.70
  -2   8 -10   41.80   10.70
   2   8  10   23.40    5.90
   2   8  10   30.40   16.60
   2  -8  10   16.80   10.00
   2   8 -10   20.60    9.90
   2  -8  10   59.79   12.60
  -2   8  10   51.89   13.90
   2  -8  10    6.70    9.50
  -2   8  10   28.40    6.50
   2   9   1   64.79    6.00
  -2  -9   1   64.79    4.00
  -2  -9   1   67.49    4.10
  -2  -9   1   67.89    5.50
   2  -9  -1   65.69    6.00
  -2   9  -1   80.69    5.80
   2  -9  -1   79.29    6.50
  -2   9  -1   71.89    6.30
   2  -9  -1   73.79    6.30
   2  -9  -1   58.49    4.00
   2  -9  -1   73.79    4.10
   2  -9  -1   77.59    6.10
  -2  -9   1   75.19    6.20
  -2  -9   1   68.59    6.50
  -2  -9   1   69.59    5.30
   2  -9  -1   57.49    4.00
  -2  -9   1   61.89    4.50
  -2  -9  -1   67.49    4.50
   2  -9   1   66.19    5.40
  -2  -9  -1   59.39    6.00
   2  -9   1   66.69    3.90
  -2  -9  -1   76.99    6.20
   2   9  -1   70.59    5.70
  -2  -9  -1   74.29    4.10
   2  -9   1   78.79    5.30
  -2  -9  -1   71.99    5.70
  -2   9   1   84.29    5.90
   2  -9   1   75.69    5.70
   2  -9   1   73.49    6.30
   2  -9   1   69.59    4.20
   2   9  -1   66.19    6.90
  -2  -9  -1   75.09    5.60
  -2  -9  -1   70.39    4.10
   2  -9   1   74.59    6.20
  -2   9  -3   99.89    7.50
  -2  -9   3  117.69    8.00
  -2   9  -3  138.29    9.20
  -2  -9   3  120.59    7.70
   2  -9  -3  122.59    7.80
  -2  -9   3  115.49    8.10
   2  -9  -3  118.79    7.00
   2   9   3  111.89    7.90
  -2   9  -3  121.19    8.10
  -2  -9   3  113.69    8.40
   2   9   3   89.29    9.00
  -2  -9   3  129.89    7.90
   2  -9  -3  119.19    8.50
   2  -9  -3  113.19    7.30
  -2  -9   3  115.69    6.70
   2   9   3  121.39    8.20
   2  -9  -3  111.29    6.10
  -2  -9   3  115.19    7.70
   2  -9  -3  114.39    6.90
   2  -9  -3  119.39    6.90
  -2  -9   3  104.89    6.50
  -2  -9  -3  114.79    7.90
   2  -9   3   98.39    8.10
  -2  -9  -3  111.09    7.60
  -2   9   3  109.79    7.90
  -2  -9  -3  120.29    6.90
  -2  -9  -3  114.09    7.50
   2   9  -3  116.79    9.20
   2   9  -3  130.49    7.10
   2  -9   3  118.99    8.30
   2  -9   3  118.09    6.80
   2  -9   3  107.39    6.50
   2  -9   3  118.49    7.10
   2  -9   3  122.19    8.60
  -2  -9  -3  111.29    7.80
   2  -9   3  119.79    8.20
  -2  -9  -3  119.59    8.60
   2  -9  -5   10.70    4.20
   2   9   5   10.80    5.10
  -2   9  -5    2.70    2.70
   2  -9  -5    6.80    3.40
  -2  -9   5   12.50    3.70
   2  -9  -5    8.70    2.10
  -2  -9   5   13.10    4.10
  -2  -9   5   11.20    5.30
  -2   9  -5   23.90    6.50
   2   9   5    9.20    3.30
  -2  -9   5    9.10    4.10
  -2  -9   5   10.30    3.70
   2   9   5   13.10    4.10
  -2   9  -5   16.70    4.10
   2  -9  -5   12.50    3.90
  -2   9  -5   14.90    5.40
  -2  -9   5    9.80    5.00
   2  -9  -5   11.50    3.80
   2  -9   5    8.40    4.30
  -2   9   5   14.10    5.30
   2  -9   5    8.60    3.50
   2  -9   5   18.40    4.80
   2   9  -5   16.40    3.30
  -2  -9  -5    9.40    3.80
  -2  -9  -5   10.50    4.00
   2   9  -5   14.80    4.60
  -2  -9  -5   10.50    3.10
   2  -9   5    9.60    4.10
   2   9  -5   10.20    4.20
   2   9  -5   19.60    4.20
  -2  -9  -5    7.00    3.70
   2  -9   5   11.70    4.10
  -2   9  -7   19.50    4.10
   2  -9  -7   27.30    5.20
  -2  -9   7   29.10    5.40
  -2   9  -7   26.10    7.00
   2  -9  -7   28.50    5.30
  -2   9  -7   32.00    5.90
   2   9   7   28.40    5.10
  -2  -9   7   27.80    5.30
  -2  -9   7   28.60    4.90
   2  -9  -7   31.00    5.40
  -2  -9   7   28.00    6.10
   2   9   7   23.40    2.90
  -2  -9   7   29.20    6.60
   2   9   7   25.40    7.40
   2   9  -7   31.60    5.90
  -2  -9  -7   24.70    5.20
  -2   9   7   19.90    2.50
   2   9  -7   29.10    6.20
  -2  -9  -7   26.90    5.40
  -2   9   7   26.80    4.60
   2  -9   7   33.30    7.30
  -2   9   7   24.10    4.30
   2   9  -7   31.20    7.20
  -2  -9  -7   19.70    3.50
   2  -9   7   24.30    5.10
   2  -9   7   38.60    6.60
   2  -9   7   24.90    6.00
  -2   9   7   31.20    6.80
  -2  -9  -7   32.70    7.00
   2  -9   7   26.30    6.60
  -2   9  -9   36.40    5.90
   2   9   9   52.39   12.90
   2   9   9   29.20    5.30
  -2  -9   9   35.10   11.60
  -2  -9   9   41.70   10.50
   2   9   9   21.00    4.50
   2  -9  -9   42.70    8.80
   2   9  -9   31.00    7.50
   2  -9   9   46.00   11.40
   2   9  -9   35.30    7.40
  -2  -9  -9   32.40    8.00
  -2   9   9   23.80    5.00
  -2   9   9   46.50   12.20
  -2 -10   0   62.19    5.90
   2 -10   0   63.59    6.40
   2 -10   0   61.49    5.90
  -2 -10   0   61.69    3.80
  -2  10   0   49.60    6.70
  -2 -10   0   64.69    6.40
   2 -10   0   69.19    5.10
  -2 -10   0   64.39    5.90
   2 -10   0   59.79    5.30
   2 -10   0   57.89    6.30
   2 -10   0   65.39    6.70
   2 -10   0   61.29    6.80
  -2 -10   0   63.49    6.20
  -2 -10   0   60.09    5.00
  -2 -10   0   61.49    5.80
  -2 -10   0   56.59    3.70
  -2 -10   0   57.09    5.60
   2 -10   0   61.69    4.20
   2 -10   0   56.89    3.60
   2  10   0   56.19    5.80
  -2 -10   2  150.68    9.80
   2  10   2  132.39    9.20
   2 -10  -2  135.49    7.80
  -2 -10   2  142.09    9.10
  -2  10  -2  138.69    9.70
  -2 -10   2  141.69    9.60
   2 -10  -2  149.39    9.80
   2  10   2  171.28   10.40
  -2 -10   2  131.99    7.60
   2 -10  -2  138.29    7.70
   2 -10  -2  143.79    8.10
  -2 -10   2  149.88    7.90
   2 -10  -2  146.09    9.10
  -2 -10   2  153.88    9.90
   2 -10  -2  158.28    9.70
   2 -10  -2  149.49    9.50
  -2 -10   2  170.38    9.60
  -2 -10   2  145.59    9.40
   2 -10   2  152.88    9.80
   2  10  -2  145.39    9.20
   2 -10   2  145.39    7.70
  -2 -10  -2  142.09    9.60
   2 -10   2  128.49    9.80
  -2 -10  -2  144.69    8.10
   2 -10   2  157.08   10.00
  -2 -10  -2  153.88    9.70
  -2 -10  -2  122.19    8.90
   2 -10   2  147.79    9.70
   2 -10   2  150.28    8.10
   2 -10   2  151.68    9.30
   2 -10   2  151.88    9.50
  -2 -10  -2  150.78    9.50
  -2  10   2  138.99    9.60
  -2 -10  -2  137.89    7.70
  -2 -10  -2  145.29    8.10
  -2 -10  -2  166.48    9.20
  -2  10  -4   71.29    8.50
  -2 -10   4   75.19    7.70
  -2 -10   4   74.49    7.90
  -2 -10   4   82.69    7.50
   2  10   4   51.39    6.90
   2  10   4   71.69    7.30
   2  10   4   73.69    7.20
  -2 -10   4   74.69    5.80
  -2 -10   4   69.99    6.60
  -2 -10   4   73.69    6.80
  -2  10  -4   63.19    6.20
  -2 -10   4   69.89    6.10
   2 -10  -4   75.39    6.90
   2 -10  -4   69.69    6.30
   2 -10  -4   80.49    6.70
   2 -10  -4   67.79    6.10
  -2 -10   4   76.69    7.90
   2  10  -4   70.69    6.60
  -2 -10  -4   71.59    7.10
   2 -10   4   73.39    5.90
  -2 -10  -4   70.09    6.30
   2 -10   4   69.29    7.40
   2 -10   4   69.49    5.80
   2 -10   4   81.39    7.20
  -2 -10  -4   69.29    6.60
   2  10  -4   75.09    7.80
  -2  10   4   64.39    6.60
  -2 -10  -4   69.49    7.20
   2 -10   4   71.09    6.00
  -2 -10  -4   75.69    6.90
   2 -10   4   78.59    7.50
  -2 -10   6   62.19    8.60
  -2  10  -6   65.29    7.60
  -2 -10   6   54.69    7.30
   2  10   6   59.79    7.90
   2 -10  -6   60.59    7.10
   2 -10  -6   64.69    7.90
  -2 -10   6   60.09    7.60
   2 -10  -6   52.89    7.60
  -2 -10   6   72.89    9.60
  -2  10  -6   49.70    6.90
   2  10   6   58.39    9.00
  -2 -10   6   55.89    7.70
  -2 -10   6   63.19    7.00
   2 -10  -6   51.79    6.90
  -2  10  -6   75.79    8.90
   2 -10   6   57.99    7.80
  -2 -10  -6   68.39    7.30
   2  10  -6   76.59    9.40
   2 -10   6   60.79    9.50
   2  10  -6   58.79    6.80
  -2 -10  -6   56.89    5.50
  -2 -10  -6   61.89    7.20
   2  10  -6   60.49    7.80
  -2 -10  -6   60.09    7.80
  -2  10   6   51.19    7.40
   2 -10   6   61.29    7.40
  -2  10   6   68.99   10.70
  -2 -10  -6   74.39    8.00
   2 -10   6   57.09    7.20
  -2 -10   8    8.80    6.60
  -2 -10   8    3.20    8.30
   2 -10  -8   14.40    7.70
   2  10   8   17.80    5.80
   2 -10  -8    6.90    6.10
  -2  10  -8    5.90    5.70
   2  10   8   14.20   10.80
   2 -10   8    3.60    8.00
   2  10  -8   19.40    6.70
   2 -10   8   19.20   10.80
  -2 -10  -8    2.10    6.10
  -2  10   8    2.30    6.40
  -2 -10  -8   13.20    7.30
   2  10  -8   19.90    4.20
  -2 -10  -8    3.10    7.40
   2 -10   8    6.90    5.90
  -2  10   8    1.90    8.90
   2 -11  -1   25.50    4.30
   2 -11  -1   37.50    6.50
   2 -11  -1   36.90    4.30
  -2 -11   1   31.00    5.40
  -2 -11   1   37.10    6.40
  -2 -11   1   48.70    6.70
  -2 -11   1   38.60    4.90
   2 -11  -1   27.60    2.80
  -2 -11   1   31.60    2.60
   2 -11  -1   46.50    6.10
  -2 -11   1   35.60    6.50
  -2 -11   1   31.40    3.30
   2 -11  -1   30.40    5.30
  -2 -11   1   33.60    4.70
   2 -11  -1   32.90    3.70
  -2 -11   1   39.30    6.40
  -2 -11  -1   43.60    5.90
  -2 -11  -1   30.90    5.60
   2 -11   1   41.60    5.90
  -2 -11  -1   41.70    6.20
  -2 -11  -1   31.50    4.40
   2 -11   1   32.60    2.70
   2  11  -1   33.60    5.30
   2 -11   1   41.00    5.00
   2 -11   1   51.49    7.10
   2 -11   1   44.30    7.90
  -2 -11  -1   28.30    3.90
  -2 -11  -1   32.50    3.00
  -2 -11  -1   43.50    5.70
   2 -11   1   33.70    6.10
   2 -11   1   36.10    6.00
  -2 -11  -1   40.20    5.10
   2 -11   1   29.10    5.10
   2 -11   1   34.00    3.30
  -2 -11  -1   36.30    6.20
  -2 -11   3   38.10    5.60
  -2 -11   3   30.60    5.70
  -2 -11   3   28.50    4.10
  -2 -11   3   32.70    5.40
   2 -11  -3   24.00    4.30
  -2 -11   3   19.90    3.10
  -2 -11   3   34.80    5.80
   2  11   3   28.00    4.40
   2 -11  -3   30.80    4.90
  -2  11  -3   27.20    4.20
   2 -11  -3   31.10    5.50
   2 -11  -3   30.80    5.10
  -2 -11   3   26.90    3.70
   2 -11  -3   27.50    5.40
  -2 -11   3   28.70    5.00
   2 -11  -3   27.30    4.60
  -2 -11   3   32.60    5.80
   2 -11  -3   25.70    3.90
   2 -11  -3   26.50    4.80
  -2 -11  -3   28.10    3.70
   2 -11   3   27.10    4.70
   2 -11   3   26.20    4.00
  -2 -11  -3   33.70    5.30
  -2 -11  -3   27.80    4.80
   2 -11   3   41.90    6.60
  -2 -11  -3   27.00    4.80
  -2 -11  -3   29.10    5.40
  -2 -11  -3   27.40    4.70
   2 -11   3   30.60    5.10
  -2  11   3   17.50    3.80
  -2 -11  -3   26.50    5.10
   2  11  -3   30.20    4.10
   2 -11   3   33.00    6.00
   2 -11   3   29.70    6.00
   2 -11   3   29.80    5.10
  -2 -11   5    9.00    5.90
  -2 -11   5    4.90    5.40
  -2  11  -5   10.10    5.60
   2 -11  -5   10.00    5.50
  -2 -11   5    1.70    7.20
   2 -11  -5    6.80    4.50
  -2 -11   5    0.80    8.20
  -2  11  -5    3.80    3.20
   2 -11  -5    7.40    5.00
   2  11   5    6.00    5.60
   2 -11  -5    5.50    2.00
   2  11   5    5.30    5.30
  -2 -11   5    2.20    5.00
  -2 -11   5    7.50    4.90
   2 -11  -5    6.20    2.40
  -2 -11   5   14.10    3.40
   2  11   5   11.80    6.50
  -2 -11   5    6.20    5.90
   2 -11  -5    8.70    4.40
  -2 -11  -5    6.20    5.20
   2 -11   5    5.50    3.80
   2 -11   5    1.80    5.40
   2 -11   5    7.20    4.80
   2 -11   5    4.00    6.10
  -2 -11  -5    9.20    5.10
   2  11  -5    8.30    7.00
  -2 -11  -5    4.40    4.50
  -2  11   5    7.40    4.80
   2 -11   5    7.10    3.50
   2  11  -5    4.10    3.80
   2 -11   5    6.60    7.30
  -2 -11  -5    9.70    4.70
  -2 -11  -5    8.70    4.70
  -2 -11  -5   10.20    5.60
   2 -11  -7   12.10    5.80
  -2  11  -7   22.20    5.80
  -2  11  -7   17.50    6.60
  -2 -11   7   13.30    6.20
  -2 -11   7   -0.40    8.50
   2  11   7   17.20    9.50
  -2 -11   7   15.70    7.20
   2  11   7   12.30    5.60
   2 -11   7   12.60    5.70
  -2  11   7   19.10   10.40
  -2 -11  -7   18.40    7.30
  -2  11   7   20.70    8.90
   2  11  -7   21.60    8.60
   2  11  -7   18.90    5.00
   2 -11   7   11.70    6.00
   2 -11   7    3.80    8.40
  -2 -11  -7   21.60    6.30
   2 -12   0  171.38   10.00
   2 -12   0  168.38   11.70
   2  12   0  168.88   11.60
   2 -12   0  168.28   11.70
  -2 -12   0  174.28    9.10
   2 -12   0  181.88   11.30
  -2 -12   0  193.68   11.90
   2 -12   0  175.48   11.70
  -2 -12   0  183.38   11.40
  -2 -12   0  168.78   12.20
   2 -12   0  203.88   11.90
   2 -12   0  166.68   11.50
  -2 -12   0  189.48   11.80
   2 -12   0  172.58    9.10
   2 -12   0  153.88    9.10
  -2 -12   0  171.28   10.30
  -2 -12   0  181.58   10.40
  -2  12   0  169.48   12.10
  -2 -12   0  164.38    9.00
   2 -12  -2   57.69    7.70
  -2 -12   2   58.19    7.80
   2 -12  -2   60.39    7.70
   2 -12  -2   57.59    6.70
   2 -12  -2   50.89    7.20
  -2 -12   2   59.69    4.80
   2 -12  -2   62.99    7.30
  -2 -12   2   65.19    8.20
   2 -12  -2   62.39    5.20
   2 -12  -2   59.49    7.30
   2 -12  -2   52.29    4.60
   2  12   2   66.79    9.20
  -2 -12   2   63.39    8.20
  -2 -12   2   57.99    7.30
  -2 -12   2   54.29    4.00
  -2  12  -2   60.69    8.30
  -2 -12   2   58.99    6.70
  -2 -12   2   56.69    7.70
  -2 -12  -2   47.90    5.40
   2 -12   2   62.99    6.80
   2 -12   2   57.59    8.20
   2 -12   2   56.59    8.00
   2  12  -2   58.89    6.70
  -2 -12  -2   61.89    8.20
  -2 -12  -2   56.39    6.20
   2 -12   2   61.69    7.10
  -2  12   2   61.89    8.80
  -2 -12  -2   60.69    7.80
   2 -12   2   66.09    8.40
  -2 -12  -2   60.29    7.50
   2 -12   2   59.69    7.50
   2 -12   2   51.09    7.50
  -2 -12  -2   57.29    7.40
   2  12   4   38.90    7.60
  -2 -12   4   37.30    5.00
  -2 -12   4   41.90    7.70
  -2 -12   4   50.59    7.60
  -2 -12   4   38.10    8.90
  -2  12  -4   35.50    6.40
   2 -12  -4   38.10    5.10
   2 -12  -4   40.70    5.40
  -2 -12   4   45.00    6.10
   2  12   4   56.09    9.70
   2 -12  -4   49.10    6.50
   2 -12  -4   34.70    4.00
  -2 -12   4   37.20    6.60
   2 -12   4   49.99    6.00
  -2  12   4   28.70    6.60
   2 -12   4   33.30    4.90
   2 -12   4   45.80    5.80
  -2 -12  -4   42.60    6.70
   2 -12   4   36.70    7.00
  -2 -12  -4   40.00    6.20
  -2 -12  -4   43.70    5.50
   2  12  -4   33.40    5.10
   2 -12   4   47.30    9.10
   2 -12   4   47.50    7.70
  -2 -12  -4   49.10    7.40
  -2 -12   6   11.50    5.20
   2  12   6    9.60    9.30
  -2  12  -6    6.60    7.80
  -2  12  -6   10.30    6.90
   2 -12  -6   10.90    6.20
   2  12   6    8.50    5.10
  -2 -12   6    9.20    6.60
   2 -12  -6    7.80    5.00
  -2 -12  -6   11.90    7.20
  -2 -12  -6    9.40    5.10
   2  12  -6    8.60    5.30
   2 -12   6   10.50    5.30
  -2  12   6    8.70    4.90
   2 -12   6   14.80    9.00
   2 -12   6   11.30    7.40
   2  12  -6    4.20    9.00
  -2 -13   1   20.30    7.20
   2 -13  -1   23.30    6.90
   2 -13  -1   15.80    5.40
  -2 -13   1   14.40    6.30
  -2  13  -1   10.80    4.80
  -2 -13   1   19.80    2.50
   2 -13  -1   15.90    5.50
   2  13   1    9.40    5.30
   2 -13  -1   18.00    6.40
   2 -13  -1   18.00    6.30
  -2 -13   1   22.30    5.80
   2 -13  -1   20.70    3.70
   2 -13  -1   10.20    3.30
  -2 -13   1   24.30    6.60
  -2 -13   1   18.20    2.30
  -2 -13   1   17.90    5.80
  -2 -13  -1   16.70    5.90
  -2 -13  -1   21.30    5.90
   2  13  -1   17.40    7.40
   2 -13   1   19.50    6.40
   2 -13   1   24.60    6.80
  -2 -13  -1   19.10    5.80
   2 -13   1   20.40    6.50
   2 -13   1   19.30    2.70
  -2 -13  -1   19.50    5.60
   2 -13   1   21.50    5.30
   2 -13   1   21.30    5.80
  -2 -13  -1   16.90    4.00
   2 -13   1   23.10    6.40
  -2  13   1   18.00    5.00
  -2 -13  -1   17.50    6.50
   2 -13  -3   -1.00    3.80
   2 -13  -3    1.20    3.70
   2  13   3    1.00    5.50
   2 -13  -3    1.50    4.70
  -2 -13   3    0.80    5.00
  -2 -13   3    2.60    3.30
  -2 -13   3   -3.90    7.60
  -2 -13   3    3.00    6.50
   2 -13  -3    4.20    4.90
   2 -13  -3    5.70    6.10
  -2  13  -3    1.90    3.70
  -2 -13   3    5.70    6.20
   2 -13  -3    1.40    8.10
   2 -13  -3   -1.10    2.10
   2 -13   3    4.10    6.70
   2 -13   3    0.30    5.80
   2  13  -3    0.00    6.60
   2 -13   3   13.50    5.20
  -2  13   3    0.60    4.30
  -2 -13  -3    5.60    6.20
   2 -13   3   -0.30    8.60
   2 -13   3    4.70    6.20
   2 -13   3    1.80    3.50
   2 -13   3    5.80    7.00
  -2 -13  -3    2.50    3.70
  -2 -13   5   31.40    8.70
  -2  13  -5   22.90    6.80
   2  13   5   25.30    7.50
  -2 -13   5   45.30   10.00
   2 -13  -5   25.30    6.30
   2  13   5   38.90   11.80
   2 -13  -5   29.30    7.70
  -2 -13  -5   28.60    6.70
  -2  13   5   21.50    6.80
  -2 -13  -5   26.50    6.30
   2 -13   5   25.00    8.40
   2 -13   5   33.30    8.30
   2  13  -5   23.20    9.80
   2 -14   0   57.69    7.70
   2 -14   0   65.29   10.50
   2  14   0   75.79   10.60
  -2 -14   0   68.19    8.70
  -2 -14   0   70.89   10.30
  -2 -14   0   69.59    9.40
   2 -14   0   93.99   12.50
   2 -14   0   52.99    6.10
   2 -14   0   70.69    9.40
  -2  14   0   75.89   10.70
  -2 -14   0   72.59   10.60
   2 -14   0   69.79    9.80
  -2 -14   2   18.10    7.40
  -2 -14   2    7.00    7.10
  -2 -14   2   18.60    7.90
   2 -14  -2   22.20    5.70
   2 -14  -2   22.00    8.90
  -2 -14   2   19.30    6.10
   2  14   2   14.70    6.70
   2 -14  -2   16.00    7.80
  -2  14  -2   13.10    5.60
   2 -14  -2   17.60    6.60
  -2 -14   2   18.50    6.80
   2  14  -2   14.80    6.60
   2 -14   2   18.10    6.40
  -2 -14  -2   15.60    7.00
   2 -14   2   13.90    6.00
  -2  14   2   13.20    6.30
   2 -14   2    9.20   10.40
   2 -14   2   15.60    6.80
  -2 -14  -2   16.80    6.60
   2 -14   2   16.60    9.40
   3   0   0    0.50    0.90
  -3   0   0    0.20    0.50
  -3   0   0    0.10    0.40
   3   0   0    0.60    0.70
   3   0   0    0.30    0.70
  -3   0   0    0.50    0.90
  -3   0   2   -0.20    0.70
   3   0   2    0.10    1.40
  -3   0  -2   -0.60    0.80
   3   0  -2   -0.40    1.40
  -3   0   2   -0.20    1.20
   3   0  -2    0.40    0.80
   3   0  -2    0.50    1.30
   3   0   2   -1.10    0.70
   3   0   2    0.10    0.60
   3   0  -2    0.60    0.70
  -3   0  -2    0.40    1.20
   3   0  -2   -1.10    0.60
   3   0   2    0.00    1.20
   3   0   2    0.50    0.90
  -3   0  -2    0.30    0.80
   3   0   4   -0.20    0.80
  -3   0   4    1.80    1.10
   3   0  -4    2.50    1.50
   3   0   4    2.50    2.30
   3   0   4    0.00    1.60
  -3   0  -4    1.00    1.40
   3   0   4    1.30    1.80
   3   0   4    3.00    2.00
   3   0  -4    3.70    2.00
  -3   0  -4    0.30    1.90
  -3   0  -4    0.60    1.60
  -3   0   4    1.60    1.60
  -3   0   4    6.00    2.10
  -3   0  -4   -0.60    1.20
  -3   0  -4    0.90    2.20
  -3   0  -6    0.60    2.10
   3   0   6   -1.10    3.00
  -3   0  -6    0.00    1.00
   3   0  -6   -0.80    3.40
  -3   0   6   -0.70    1.80
  -3   0  -6   -1.20    3.10
  -3   0   6   -1.00    2.80
  -3   0  -6    0.20    3.50
   3   0  -6   -1.70    2.90
   3   0  -6    4.70    3.10
   3   0   6    1.00    3.10
   3   0   6   -3.60    2.20
  -3   0   6    3.20    2.00
   3   0   6    0.50    2.00
  -3   0   6   -0.90    2.90
   3   0   8    2.00    3.50
   3   0   8    0.70    4.30
  -3   0  -8    6.70    3.00
  -3   0   8   -0.30    2.60
   3   0   8    1.20    3.10
  -3   0  -8    0.10    3.70
  -3   0  -8    3.00    2.00
  -3   0   8    2.10    3.30
  -3   0  -8    2.20    3.50
  -3   0   8   -0.70    3.80
   3   0   8   -1.00    3.10
  -3   0  -8    0.20    3.20
   3   0  -8   -1.10    3.60
   3   0   8   -1.00    3.70
  -3   0   8   -0.90    3.60
   3   0  -8   -1.30    3.10
   3   0  -8    0.40    3.60
   3   0  -8   -0.50    3.70
   3   0  10    4.20    4.60
   3   0 -10   -3.70    4.60
  -3   0 -10    6.50    4.40
  -3   0  10    2.20    5.30
   3   0 -10    0.90    4.60
  -3   0 -10    5.00    5.60
  -3   0  10   -1.00    4.20
   3   0 -10   -0.30    5.60
   3   0  10    1.30    4.70
  -3   0 -10    4.70    5.10
   3   0 -10    3.60    4.90
  -3   0  10    4.20    6.50
   3   0  10    4.70    7.10
   3   0  10    5.30    6.50
   3   0  10   -2.20    4.50
   3  -1  -1  556.54   27.00
   3   1   1  558.64   27.00
   3  -1  -1  543.35   27.00
  -3  -1   1  544.25   27.00
   3  -1  -1  539.25   26.80
  -3  -1   1  553.54   26.90
  -3  -1   1  568.54   26.90
  -3   1  -1  542.15   26.90
   3  -1  -1  552.34   27.00
  -3   1  -1  541.75   26.90
   3   1   1  534.25   26.90
   3   1   1  532.45   26.80
  -3  -1   1  561.94   27.00
  -3   1  -1  568.24   27.00
  -3   1  -1  569.24   27.00
   3   1   1  535.95   26.90
   3  -1  -1  518.45   26.70
   3   1   1  560.14   27.00
  -3  -1   1  555.74   27.00
   3   1  -1  560.04   26.90
  -3  -1  -1  537.95   26.80
  -3  -1  -1  545.45   27.00
  -3   1   1  533.45   26.90
   3  -1   1  567.94   27.00
   3  -1   1  547.55   27.00
   3  -1   1  561.04   26.90
   3   1  -1  588.54   27.00
  -3   1   1  569.74   27.00
   3   1  -1  552.94   26.90
   3   1  -1  579.34   27.00
  -3  -1  -1  567.74   27.00
   3   1  -1  523.55   26.90
  -3   1   1  510.05   26.80
   3  -1   1  551.34   27.00
  -3  -1  -1  539.55   27.00
  -3   1  -3  709.13   35.50
  -3   1  -3  714.13   35.60
  -3  -1   3  690.33   35.20
  -3   1  -3  741.23   35.60
   3   1   3  743.23   35.60
   3  -1  -3  760.92   35.60
   3  -1  -3  732.93   35.60
  -3   1  -3  721.03   35.50
   3   1   3  712.23   35.50
  -3  -1   3  715.63   35.50
   3  -1  -3  719.03   35.60
   3  -1  -3  724.53   35.40
   3   1   3  759.02   35.60
  -3  -1   3  748.73   35.60
  -3  -1   3  716.63   35.60
   3   1   3  704.83   35.30
   3   1   3  722.03   35.50
   3   1  -3  736.93   35.50
   3   1  -3  708.23   35.50
  -3   1   3  712.63   35.20
   3  -1   3  738.53   35.60
  -3   1   3  767.72   35.60
  -3  -1  -3  742.93   35.50
  -3   1   3  687.83   35.40
  -3   1   3  724.53   35.60
   3  -1   3  662.53   35.10
  -3  -1  -3  721.73   35.60
   3   1  -3  743.13   35.60
  -3  -1  -3  708.03   35.30
   3  -1   3  756.22   35.60
   3  -1   3  720.23   35.60
  -3  -1  -3  726.23   35.60
   3   1  -3  732.63   35.50
  -3  -1  -3  746.23   35.50
   3   1  -3  710.03   35.50
  -3   1   3  705.93   35.50
  -3   1  -5  919.71   46.50
  -3  -1   5  944.41   46.40
   3   1   5 1000.90   46.70
   3   1   5  983.90   46.70
   3   1   5  951.50   46.60
  -3   1  -5  889.01   46.50
   3   1   5  920.21   46.30
  -3  -1   5  918.41   46.60
  -3  -1   5  945.71   46.60
   3  -1  -5  955.90   46.60
  -3  -1   5  895.61   46.10
  -3   1  -5  954.70   46.50
   3  -1  -5  976.90   46.70
   3   1   5  963.60   46.60
   3  -1  -5  943.71   46.60
   3  -1  -5  980.10   46.70
  -3   1  -5  959.30   46.70
  -3  -1   5  991.40   46.70
   3  -1   5  939.71   46.60
   3   1  -5  941.51   46.60
  -3  -1  -5  960.20   46.70
  -3  -1  -5  934.01   46.60
   3  -1   5  929.61   46.70
   3   1  -5  931.21   46.60
   3  -1   5  974.80   46.70
   3  -1   5  958.10   46.60
  -3  -1  -5  951.70   46.60
  -3   1   5  947.21   46.60
  -3   1   5  942.61   46.60
  -3   1   5  920.21   46.40
   3   1  -5  932.21   46.50
  -3   1   5  914.11   46.10
   3   1  -5  962.90   46.60
   3  -1   5  973.60   46.70
  -3   1   5  991.80   46.70
  -3  -1  -5  914.01   46.10
   3   1  -5  970.20   46.60
  -3  -1  -5  917.71   46.40
   3  -1  -7  268.97   13.90
  -3  -1   7  261.97   13.90
  -3   1  -7  249.58   13.40
   3  -1  -7  266.87   14.20
  -3   1  -7  257.17   14.00
   3   1   7  265.67   14.10
  -3   1  -7  253.27   13.90
  -3   1  -7  241.28   13.70
   3   1   7  257.07   14.20
   3   1   7  250.57   13.90
   3  -1  -7  265.17   13.90
   3  -1  -7  207.58   13.70
  -3  -1   7  250.27   13.90
  -3  -1   7  242.78   13.30
  -3  -1   7  260.57   13.30
  -3  -1   7  232.58   14.00
   3   1   7  251.07   13.20
   3   1   7  269.17   13.90
  -3  -1  -7  257.17   13.90
   3   1  -7  244.08   13.90
  -3   1   7  244.28   13.50
  -3  -1  -7  244.18   13.30
   3   1  -7  254.67   14.00
   3  -1   7  259.57   13.90
  -3   1   7  246.08   13.30
   3  -1   7  214.48   14.10
   3   1  -7  241.18   13.60
   3  -1   7  234.18   14.00
  -3   1   7  245.18   13.90
   3   1  -7  245.88   13.80
   3  -1   7  264.37   14.00
  -3  -1  -7  248.58   12.70
   3  -1   7  238.48   13.50
  -3   1   7  258.87   12.90
   3  -1  -9   73.89    7.70
  -3   1  -9   74.89    7.00
   3   1   9   92.49    8.20
   3  -1  -9   74.99    8.40
  -3  -1   9   82.59    6.30
   3  -1  -9   82.09    7.60
  -3   1  -9   81.49    8.00
  -3  -1   9   65.09    6.90
  -3   1  -9   97.99    8.50
   3   1   9   70.69    7.10
  -3  -1   9   68.29    8.10
   3   1   9   73.29    7.10
   3  -1  -9   78.09    7.20
   3   1   9   93.79    8.50
  -3  -1   9   71.39    8.00
   3   1   9   78.19    6.90
  -3  -1   9   75.19    7.90
  -3   1  -9   77.89    7.80
   3  -1   9   70.89    8.40
  -3   1   9   67.99    7.70
  -3  -1  -9   69.69    7.50
  -3  -1  -9   84.59    7.20
   3  -1   9   74.59    7.20
  -3  -1  -9   80.79    7.80
   3   1  -9   71.89    6.90
  -3   1   9   78.69    7.20
   3   1  -9   79.99    8.40
   3  -1   9   67.59    7.50
   3  -1   9   73.89    7.30
  -3   1   9   93.59    8.20
  -3  -1  -9   72.09    5.40
  -3   1   9   73.99    5.70
   3   1  -9   68.49    7.50
  -3   1 -11   34.00    7.70
   3  -1 -11   27.50    8.50
   3   1  11   27.10    6.70
  -3   1 -11   36.60    8.20
   3   1  11   17.20    9.60
   3  -1 -11   19.80    7.30
  -3  -1  11    5.50    8.30
   3   1  11   45.50    8.00
  -3   1  11   50.19    8.40
   3   1 -11   26.90    7.30
  -3  -1 -11   39.70    5.60
   3   1 -11   28.40    8.10
  -3  -1 -11   25.30    7.90
   3   1 -11   26.60    8.50
   3  -1  11   47.00    8.50
   3  -1  11    6.70    8.60
  -3   1  11   25.60    6.50
  -3   2   0    1.20    0.70
   3   2   0    1.90    0.70
   3   2   0    1.40    1.10
  -3  -2   0    1.70    0.70
  -3  -2   0    1.80    1.00
   3   2   0    0.90    0.90
  -3   2   0    1.40    0.90
  -3  -2   0    1.80    0.90
   3   2   0    1.60    1.10
   3   2   0    1.20    0.90
   3  -2   0    2.20    0.90
  -3   2   0    2.10    0.70
   3  -2   0    1.50    0.90
  -3  -2   0    1.20    0.80
   3  -2   0    1.80    0.60
   3   2   0    2.00    0.30
  -3  -2   0    0.30    0.70
  -3   2  -2   53.79    3.40
  -3  -2   2   54.99    3.60
   3  -2  -2   57.49    3.40
   3  -2  -2   53.99    3.60
  -3  -2   2   59.79    3.60
  -3  -2   2   56.99    3.60
  -3  -2   2   53.39    3.30
   3   2   2   56.19    3.60
  -3  -2   2   58.39    3.60
   3  -2  -2   56.39    3.50
   3   2   2   65.59    3.60
   3  -2  -2   56.99    3.70
   3   2  -2   53.89    3.50
   3  -2   2   57.09    3.50
   3  -2   2   52.39    3.30
   3  -2   2   61.19    3.60
  -3  -2  -2   51.09    3.60
  -3  -2  -2   52.89    3.40
  -3  -2  -2   60.29    3.50
  -3   2   2   54.09    3.00
  -3  -2  -2   59.29    3.40
  -3   2   2   61.79    3.30
  -3   2   2   50.69    3.20
   3   2  -2   58.39    3.20
  -3  -2  -2   64.29    3.50
   3   2  -2   50.89    3.20
   3  -2   2   52.89    3.50
   3   2   4 1018.80   50.59
   3  -2  -4 1049.79   50.49
  -3   2  -4  995.10   50.69
   3   2   4 1035.40   50.59
   3  -2  -4 1025.10   50.59
   3   2   4 1034.80   50.49
  -3   2  -4 1024.80   50.49
   3   2   4 1010.90   50.29
   3   2   4 1081.29   50.59
  -3  -2   4 1031.20   50.59
   3  -2  -4 1044.00   50.49
  -3   2  -4 1045.10   50.49
  -3  -2   4  977.20   50.09
  -3  -2   4 1034.00   50.69
  -3  -2   4 1057.89   50.59
   3  -2  -4 1017.70   50.59
  -3   2  -4 1095.59   50.79
   3  -2   4 1061.69   50.59
   3   2  -4  986.20   50.49
   3  -2   4 1032.60   50.59
   3   2  -4 1045.60   50.69
   3  -2   4 1063.79   50.59
   3   2  -4 1017.80   50.49
  -3   2   4 1037.80   50.19
  -3  -2  -4 1033.80   50.59
  -3  -2  -4 1012.00   50.29
   3   2  -4 1024.90   50.69
   3  -2   4 1021.90   50.69
  -3   2   4 1037.30   50.49
   3   2  -4 1078.89   50.49
  -3   2   4 1018.10   50.49
  -3   2   4 1065.09   50.59
  -3  -2  -4 1004.40   50.59
  -3   2   4 1024.10   50.59
  -3  -2  -4 1020.20   50.59
   3   2   6  100.19    7.00
   3  -2  -6  118.69    7.20
  -3   2  -6  119.59    7.40
  -3  -2   6  105.99    7.20
   3   2   6  118.29    7.50
  -3   2  -6  103.39    7.20
  -3   2  -6  115.79    6.80
   3  -2  -6  118.49    7.40
  -3  -2   6  100.19    6.10
   3   2   6  102.49    7.00
   3  -2  -6  115.39    7.40
   3   2   6  113.99    6.40
  -3  -2   6  102.99    7.10
   3  -2  -6  110.59    7.50
  -3   2  -6  117.79    7.50
  -3  -2   6   93.19    7.40
  -3  -2   6  113.39    7.00
   3   2   6  130.09    7.80
   3   2  -6  117.09    7.70
   3  -2   6  113.09    7.40
   3   2  -6  116.09    7.60
   3  -2   6  123.59    7.70
   3  -2   6  107.99    7.30
  -3   2   6  115.09    6.10
  -3  -2  -6  120.09    7.50
  -3   2   6  119.19    7.00
   3  -2   6   93.19    7.20
  -3  -2  -6  118.19    7.50
  -3   2   6  102.09    7.00
  -3   2   6  123.89    6.90
   3   2  -6  121.69    7.50
   3  -2   6  114.09    6.80
   3   2  -6  123.89    6.80
   3   2  -6  112.39    7.30
  -3  -2  -6  127.09    7.80
  -3  -2  -6  116.89    6.90
  -3  -2  -6  125.89    6.50
   3  -2  -8   41.70    6.10
   3   2   8   38.70    5.80
   3   2   8   42.20    6.10
   3  -2  -8   53.39    5.80
  -3  -2   8   38.00    5.40
  -3  -2   8   48.50    6.70
   3   2   8   36.70    5.90
   3   2   8   49.40    6.00
   3  -2  -8   39.60    6.20
  -3  -2   8   37.80    5.20
  -3   2  -8   41.40    6.60
   3   2   8   37.90    4.20
  -3   2  -8   43.40    5.30
  -3   2  -8   45.40    5.90
   3  -2  -8   51.49    5.90
  -3  -2   8   52.19    5.90
   3   2  -8   42.90    5.70
  -3   2   8   41.30    6.10
   3  -2   8   54.99    6.00
   3   2  -8   41.20    5.90
  -3  -2  -8   45.20    5.60
   3  -2   8   42.40    6.00
  -3   2   8   40.30    6.10
  -3  -2  -8   36.20    6.20
  -3   2   8   41.60    5.70
  -3   2   8   43.30    6.20
  -3  -2  -8   40.00    4.40
   3   2  -8   49.99    6.40
   3   2  -8   40.70    6.30
  -3  -2  -8   39.70    4.70
   3  -2   8   35.90    6.10
  -3  -2  -8   39.30    6.30
   3  -2   8   51.29    6.00
   3   2  10   11.40    8.60
  -3  -2  10   10.10    5.40
  -3   2 -10    7.00    4.60
   3   2  10   23.10    5.40
   3  -2 -10   12.80    5.50
  -3  -2  10    2.90    7.00
  -3   2 -10   10.60    6.30
   3   2  10   11.60    5.40
  -3  -2  10    9.70    5.40
   3  -2 -10    8.40    4.10
   3   2  10    7.10    5.30
  -3   2 -10    9.00    7.00
  -3   2 -10    8.80    4.40
  -3  -2  10    7.60    3.90
   3   2  10    2.30    4.70
   3   2 -10   17.90    6.00
  -3   2  10    5.30    4.50
  -3   2  10   16.00    6.20
  -3  -2 -10   11.50    6.00
   3  -2  10   14.90    5.70
  -3  -2 -10    8.40    4.10
   3   2 -10   14.10    5.40
  -3   2  10   10.00    5.30
   3  -2  10    8.40    4.20
  -3   2  10   21.20    5.20
   3   2 -10    9.90    4.40
  -3   2  10   11.30    5.60
   3  -2  10   11.00    4.80
  -3  -2 -10    9.20    4.60
   3   2 -10   13.30    7.00
   3   3   1 1315.97   63.69
   3   3   1 1319.07   63.59
   3  -3  -1 1321.17   63.69
   3  -3  -1 1242.28   63.59
  -3   3  -1 1299.67   63.49
  -3  -3   1 1332.87   63.79
   3   3   1 1304.17   63.69
  -3  -3   1 1282.37   63.59
   3   3   1 1254.57   63.49
  -3   3  -1 1309.77   63.79
   3  -3  -1 1308.77   63.79
   3   3   1 1330.47   63.79
  -3   3  -1 1310.87   63.59
  -3  -3   1 1345.07   63.59
   3   3   1 1303.87   63.59
  -3   3  -1 1375.46   63.89
  -3  -3   1 1296.57   63.79
   3  -3  -1 1319.17   63.49
  -3  -3   1 1386.86   63.79
  -3   3  -1 1324.07   63.89
  -3  -3  -1 1255.47   63.59
   3  -3   1 1298.57   63.79
   3   3  -1 1318.47   63.49
   3   3  -1 1292.77   63.69
   3   3  -1 1318.87   63.79
   3   3  -1 1308.67   63.79
  -3   3   1 1257.07   63.59
   3   3  -1 1333.07   63.49
   3  -3   1 1265.37   63.59
   3   3  -1 1311.97   63.79
  -3   3   1 1275.67   63.59
  -3  -3  -1 1318.37   63.59
  -3   3   1 1390.86   63.79
  -3  -3  -1 1268.87   63.49
   3   3  -1 1337.57   63.69
  -3  -3  -1 1299.47   63.79
  -3   3   1 1340.77   63.59
  -3  -3  -1 1352.06   63.69
   3  -3   1 1343.67   63.59
   3   3  -1 1272.27   63.49
  -3  -3  -1 1300.17   63.69
   3  -3   1 1339.27   63.59
   3   3   3  778.52   38.60
  -3  -3   3  796.52   38.80
  -3  -3   3  788.22   38.90
  -3   3  -3  797.92   38.60
   3  -3  -3  775.72   38.70
  -3  -3   3  811.82   38.70
   3  -3  -3  807.12   38.70
  -3   3  -3  792.92   38.90
  -3   3  -3  775.02   38.90
   3  -3  -3  774.12   38.80
   3   3   3  781.02   38.60
   3   3   3  788.82   38.70
   3   3   3  762.62   38.60
  -3  -3   3  780.82   38.60
  -3   3  -3  775.22   38.60
   3  -3  -3  785.42   38.70
   3   3   3  770.52   38.60
  -3  -3  -3  773.82   38.70
  -3  -3  -3  779.02   38.60
   3   3  -3  798.12   38.60
  -3  -3  -3  778.72   38.80
   3   3  -3  817.12   38.90
  -3   3   3  809.92   38.70
   3   3  -3  787.52   38.90
   3   3  -3  794.52   38.50
  -3   3   3  775.12   38.60
   3   3  -3  761.52   38.60
  -3   3   3  779.72   38.60
  -3  -3  -3  778.02   38.70
   3  -3   3  827.42   38.70
   3   3  -3  812.02   38.40
  -3  -3  -3  803.72   38.60
   3  -3   3  829.72   38.70
   3  -3   3  786.12   38.70
  -3   3   3  788.32   38.80
   3  -3   3  796.62   38.90
   3   3   5  350.16   18.10
  -3   3  -5  350.16   17.80
  -3  -3   5  337.07   17.30
   3   3   5  340.37   17.40
   3  -3  -5  356.66   18.00
   3  -3  -5  329.57   18.00
  -3  -3   5  346.27   18.10
  -3   3  -5  333.37   18.10
   3  -3  -5  359.36   18.20
   3  -3  -5  351.96   17.80
   3   3   5  358.56   18.00
  -3  -3   5  351.66   18.10
   3   3   5  364.66   18.20
  -3   3  -5  355.66   17.80
  -3   3  -5  356.16   18.30
  -3  -3   5  360.76   18.20
   3   3   5  354.46   17.90
  -3  -3   5  353.46   18.00
   3  -3   5  365.96   18.20
   3  -3   5  355.96   18.20
   3   3  -5  356.76   18.40
   3   3  -5  348.97   17.20
  -3  -3  -5  348.47   17.70
  -3   3   5  351.06   17.90
  -3   3   5  357.96   18.10
  -3   3   5  351.06   17.90
  -3  -3  -5  350.36   18.10
  -3  -3  -5  351.36   18.00
  -3  -3  -5  350.96   18.10
  -3   3   5  349.07   17.50
   3   3  -5  341.97   18.00
   3   3  -5  343.77   17.90
  -3  -3  -5  350.66   18.20
   3  -3   5  359.46   18.10
   3   3  -5  350.86   17.80
   3   3  -5  354.76   17.80
   3  -3   5  345.97   17.90
   3  -3   5  350.16   18.20
   3  -3  -7  226.98   12.40
  -3   3  -7  206.88   12.50
   3   3   7  208.28   12.60
   3   3   7  215.38   12.50
   3   3   7  222.18   13.50
  -3  -3   7  205.78   11.30
   3   3   7  213.38   12.40
  -3   3  -7  221.48   12.70
  -3   3  -7  212.98   12.10
   3  -3  -7  219.18   12.30
  -3  -3   7  224.48   12.50
  -3   3  -7  210.08   12.30
   3   3   7  206.88   11.30
   3  -3  -7  225.28   12.60
   3  -3  -7  221.88   13.00
  -3  -3   7  239.38   12.70
  -3   3   7  214.28   12.40
  -3  -3  -7  207.38   12.40
   3  -3   7  230.78   13.20
   3   3  -7  211.58   12.20
  -3  -3  -7  202.58   11.90
   3  -3   7  225.38   12.50
  -3  -3  -7  213.58   12.30
  -3   3   7  227.98   12.00
  -3  -3  -7  222.88   13.10
   3   3  -7  226.48   12.30
   3   3  -7  240.28   13.10
   3  -3   7  231.98   12.70
  -3   3   7  231.18   12.70
   3   3  -7  211.48   12.30
   3  -3   7  210.58   12.80
  -3  -3  -7  218.58   12.00
   3   3  -7  213.78   12.50
  -3   3   7  221.68   12.60
  -3   3   7  223.18   12.20
   3  -3   7  180.28   12.80
   3  -3  -9   26.60    5.70
   3   3   9   21.10    4.20
  -3  -3   9   24.60    3.90
   3   3   9   22.50    3.60
  -3   3  -9   22.20    5.20
  -3   3  -9   20.60    4.50
  -3  -3   9   25.00    5.50
  -3   3  -9   27.90    5.90
   3   3   9   23.70    6.20
  -3  -3   9   25.20    5.20
   3  -3  -9   23.90    5.70
  -3   3  -9   25.10    5.40
   3  -3  -9   23.10    4.70
   3   3   9   21.70    4.40
  -3  -3   9   43.10    7.10
   3   3  -9   20.10    5.30
   3   3  -9   20.90    5.70
   3  -3   9   15.90    4.80
  -3   3   9   25.00    5.10
  -3   3   9   26.30    5.60
  -3   3   9   27.10    4.30
  -3  -3  -9   24.70    3.70
  -3  -3  -9   25.10    5.70
  -3   3   9   25.70    5.10
  -3  -3  -9   16.60    4.60
   3   3  -9   23.70    5.20
   3  -3   9   22.10    5.60
   3   3  -9   23.10    4.60
  -3  -3  -9   23.80    4.30
   3  -3   9   24.40    5.00
   3   3  11   31.00   10.10
  -3  -3  11   29.80    7.60
   3  -3 -11   22.00    6.90
  -3   3 -11   18.00   12.00
  -3  -3  11   27.20    7.20
  -3  -3  11   25.70    9.50
   3   3  11   28.40    6.40
  -3   3 -11   37.90    8.40
  -3  -3 -11   19.40    5.20
   3  -3  11   35.10   10.10
   3   3 -11   15.00    6.10
  -3  -3 -11   37.00    9.80
   3  -3  11   17.80    8.60
   3  -3  11   30.20   10.60
  -3  -3 -11   25.40    6.50
  -3   3  11   24.30   11.60
   3   3 -11   38.30   10.50
  -3   3  11   38.60    6.60
  -3   3  11   35.60    7.20
  -3  -4   0    6.60    1.50
   3  -4   0    6.40    1.10
   3  -4   0    4.30    0.90
   3   4   0    5.60    1.40
  -3  -4   0    6.50    1.20
  -3  -4   0    5.50    1.20
   3  -4   0    7.40    1.80
  -3  -4   0    7.60    1.50
  -3  -4   0    5.20    1.00
  -3  -4   0    7.10    1.40
   3  -4   0    8.80    1.40
  -3   4  -2 1018.00   51.49
  -3  -4   2 1040.00   51.39
   3   4   2 1042.30   51.39
  -3   4  -2 1040.10   51.99
   3   4   2 1059.49   51.59
  -3   4  -2 1058.89   51.59
   3  -4  -2 1091.49   51.79
   3  -4  -2 1108.69   52.09
   3   4   2 1039.70   51.59
   3   4   2 1078.99   51.89
  -3   4  -2 1096.39   51.99
   3  -4  -2 1087.49   51.79
  -3   4  -2 1046.20   51.59
   3  -4  -2  991.20   51.69
  -3  -4   2 1093.79   51.69
  -3  -4   2 1063.79   51.99
   3   4   2 1099.79   51.99
  -3  -4   2 1037.20   51.69
   3   4   2 1070.59   51.89
  -3  -4   2 1081.29   51.99
  -3  -4   2 1026.10   51.49
  -3  -4   2 1061.39   51.99
  -3  -4  -2 1049.09   51.59
   3   4  -2 1048.50   51.49
   3   4  -2 1056.99   51.49
  -3  -4  -2 1029.40   51.69
   3   4  -2 1107.79   51.99
  -3  -4  -2 1064.89   51.69
  -3   4   2 1029.10   51.59
   3   4  -2 1081.19   51.69
   3   4  -2 1065.59   51.99
  -3  -4  -2 1091.69   51.79
  -3   4   2 1087.09   51.59
   3  -4   2 1021.20   51.69
  -3   4   2 1039.80   51.59
   3   4  -2 1046.40   51.69
   3  -4   2 1100.09   51.99
   3  -4   2 1069.59   52.09
   3   4  -2 1068.39   51.49
  -3   4   2 1107.09   51.89
   3  -4   2 1060.99   51.69
  -3  -4  -2 1064.39   51.89
   3   4   4   73.59    4.80
  -3   4  -4   64.79    5.10
   3   4   4   60.19    3.60
  -3   4  -4   63.29    4.30
  -3   4  -4   62.69    4.80
   3   4   4   72.19    3.50
   3  -4  -4   60.59    4.50
  -3   4  -4   62.09    4.00
  -3  -4   4   58.99    4.80
   3  -4  -4   64.99    4.90
   3  -4  -4   62.29    4.40
   3   4   4   70.59    4.40
  -3  -4   4   68.09    4.50
   3   4   4   74.29    5.20
  -3  -4   4   62.99    4.90
  -3   4  -4   66.89    5.30
   3   4   4   65.29    4.50
  -3  -4   4   62.19    4.10
  -3  -4   4   63.29    5.10
   3  -4  -4   68.19    4.70
   3  -4   4   64.09    5.50
   3   4  -4   67.89    4.30
  -3   4   4   65.49    4.70
  -3  -4  -4   79.19    4.60
  -3  -4  -4   74.09    4.70
  -3   4   4   62.89    3.80
   3  -4   4   64.19    4.90
   3  -4   4   58.49    4.80
  -3  -4  -4   74.69    4.70
   3   4  -4   65.79    4.80
  -3  -4  -4   69.89    4.60
  -3   4   4   61.79    4.60
   3   4  -4   63.49    4.40
   3   4  -4   66.09    5.40
   3   4  -4   70.89    4.20
   3   4  -4   61.29    4.00
  -3   4   4   76.29    4.90
   3   4  -4   76.19    4.20
  -3  -4  -4   74.19    4.70
   3  -4   4   64.29    4.50
  -3  -4   6   10.80    3.00
  -3   4  -6    3.90    2.40
   3   4   6    7.20    1.30
  -3  -4   6    7.90    3.20
  -3   4  -6    7.40    2.40
   3  -4  -6    7.80    2.60
   3   4   6    9.80    3.90
   3  -4  -6    9.80    3.30
   3   4   6    9.80    3.10
   3  -4  -6    9.70    4.10
  -3  -4   6   11.90    3.60
  -3   4  -6    6.50    3.10
   3   4   6   10.80    3.10
  -3  -4   6   11.90    4.20
  -3   4  -6    9.00    4.20
  -3   4  -6    6.90    3.80
   3   4  -6    7.80    3.90
   3   4  -6    7.50    3.00
  -3  -4  -6   13.40    4.10
   3   4  -6    7.40    3.70
  -3  -4  -6    7.00    2.60
   3   4  -6   10.80    3.30
  -3   4   6   11.30    3.10
  -3   4   6    9.10    2.10
  -3  -4  -6   10.00    3.50
  -3   4   6   14.20    3.10
  -3  -4  -6   15.60    3.50
   3   4  -6    5.90    2.30
   3  -4   6    9.90    3.70
  -3  -4  -6    4.80    3.00
   3  -4   6    9.40    3.50
   3  -4   6    7.60    3.00
   3  -4   6    9.90    3.30
  -3  -4   8   63.49    6.90
  -3   4  -8   61.79    6.50
   3   4   8   60.49    7.70
   3  -4  -8   66.99    7.00
  -3   4  -8   60.69    6.30
  -3  -4   8   56.09    6.80
  -3   4  -8   64.69    6.90
  -3  -4   8   64.19    7.50
   3   4   8   57.69    4.50
   3  -4  -8   62.69    6.80
   3  -4  -8   61.59    6.80
   3   4   8   73.59    7.30
   3  -4  -8   79.39    6.90
   3   4   8   60.39    6.60
  -3  -4   8   63.59    7.00
  -3   4  -8   62.19    7.60
   3   4   8   62.09    6.40
  -3   4  -8   64.59    6.20
   3  -4   8   67.89    7.90
  -3  -4  -8   59.79    6.00
   3   4  -8   63.59    7.00
  -3   4   8   68.19    7.20
  -3  -4  -8   73.59    6.90
  -3   4   8   59.89    6.90
   3   4  -8   66.79    6.00
  -3   4   8   63.29    6.30
  -3  -4  -8   62.09    5.60
   3   4  -8   58.99    7.10
   3   4  -8   63.79    6.80
  -3   4   8   68.99    5.50
   3   4  -8   65.49    6.50
   3  -4   8   68.29    6.90
   3  -4   8   68.39    7.10
   3  -4   8   63.49    7.00
  -3  -4  -8   66.89    6.90
   3  -4   8   74.69    7.50
   3  -4 -10    1.00    6.80
   3  -4 -10    2.90    5.40
   3   4  10    3.30    5.00
  -3  -4  10    3.80    5.80
  -3  -4  10    3.30    5.60
   3   4  10    0.30    5.00
  -3   4 -10   11.00    4.90
   3   4  10    3.50    3.20
  -3   4 -10    3.10    5.40
  -3  -4  10    2.30    6.70
   3   4  10    7.50    7.10
   3   4  10   -0.60    7.90
  -3  -4 -10    0.70    4.00
   3  -4  10    1.40    7.30
  -3   4  10    0.60    7.10
   3   4 -10    0.10    7.40
  -3   4  10    1.10    4.80
  -3  -4 -10    4.30    5.00
   3   4 -10    1.60    5.00
   3  -4  10    2.50    6.50
  -3  -4 -10    2.80    7.00
   3  -4  10   -3.50    7.50
   3   4 -10    5.30    2.90
  -3  -4 -10    2.50    5.10
   3   4 -10    7.40    4.90
  -3   4  10   22.60    8.10
  -3   4  10    3.50    4.70
   3   4 -10    1.50    5.50
   3   5   1  249.48   12.50
   3   5   1  252.67   12.90
   3   5   1  248.68   12.80
  -3  -5   1  257.07   12.80
   3  -5  -1  258.67   12.60
   3  -5  -1  247.28   12.50
  -3   5  -1  256.87   13.20
   3   5   1  243.88   13.10
  -3  -5   1  252.77   12.80
   3  -5  -1  254.77   12.20
   3  -5  -1  256.77   13.10
  -3  -5   1  237.08   12.50
  -3  -5   1  257.47   13.10
  -3  -5   1  256.77   13.20
  -3  -5   1  258.97   12.60
  -3   5  -1  242.98   12.50
  -3  -5   1  257.67   12.50
  -3  -5   1  257.87   12.30
  -3   5  -1  248.38   13.20
   3   5   1  254.67   12.90
   3   5  -1  259.97   13.20
   3  -5   1  263.47   12.50
   3  -5   1  238.58   12.50
  -3  -5  -1  237.68   12.50
   3   5  -1  239.18   12.50
   3  -5   1  252.77   13.00
   3  -5   1  253.17   12.60
  -3  -5  -1  249.68   12.40
  -3  -5  -1  256.47   12.60
   3   5  -1  245.08   12.90
   3   5  -1  226.48   13.00
  -3   5   1  243.98   12.70
  -3   5   1  234.98   12.20
  -3   5   1  254.27   12.20
  -3  -5  -1  251.87   12.50
   3  -5   1  251.17   13.20
   3   5  -1  244.98   12.80
  -3  -5  -1  251.37   13.00
  -3  -5  -1  260.47   12.90
  -3   5   1  254.97   13.10
   3   5   3  491.65   24.40
  -3  -5   3  491.45   24.60
  -3   5  -3  482.75   24.60
  -3  -5   3  488.25   24.40
   3   5   3  512.35   24.80
  -3  -5   3  491.75   24.90
  -3  -5   3  512.05   25.10
   3  -5  -3  514.85   25.10
   3   5   3  497.35   25.00
   3  -5  -3  490.15   24.70
   3   5   3  479.75   24.40
   3   5   3  486.75   24.70
  -3  -5   3  491.95   25.10
  -3  -5   3  485.15   24.60
  -3  -5   3  492.35   24.20
  -3   5  -3  475.25   24.30
   3  -5  -3  498.45   24.60
  -3   5  -3  489.75   25.00
  -3   5  -3  496.75   24.30
  -3   5  -3  516.65   25.10
  -3   5  -3  494.35   25.00
   3  -5  -3  493.25   24.70
   3  -5   3  518.05   25.20
  -3   5   3  479.85   24.30
   3  -5   3  483.35   24.20
   3   5  -3  523.45   25.10
   3   5  -3  494.65   24.90
  -3  -5  -3  509.55   24.80
   3   5  -3  497.35   24.30
   3   5  -3  506.05   24.40
  -3  -5  -3  495.65   24.80
  -3   5   3  503.45   25.10
   3   5  -3  477.85   24.60
   3  -5   3  483.05   24.60
  -3   5   3  500.85   24.50
  -3   5   3  477.85   24.40
   3   5  -3  514.65   24.60
  -3  -5  -3  517.85   24.60
   3  -5   3  498.65   24.60
  -3  -5  -3  496.55   24.70
   3  -5   3  487.95   25.00
  -3  -5  -3  509.25   24.70
  -3   5   3  511.35   24.90
   3   5  -3  487.45   24.30
  -3   5  -5  135.29    8.30
   3   5   5  125.09    7.50
   3  -5  -5  136.59    8.70
  -3   5  -5  129.39    8.40
   3  -5  -5  129.19    7.40
   3   5   5  133.19    8.40
   3   5   5  123.49    7.50
  -3  -5   5  119.69    8.40
   3  -5  -5  149.19    8.20
  -3   5  -5  128.59    7.70
  -3   5  -5  138.79    7.30
  -3  -5   5  131.69    7.80
  -3  -5   5  132.99    8.40
  -3  -5   5  125.79    7.90
   3   5   5  135.19    8.80
   3  -5  -5  134.69    7.60
  -3   5  -5  131.89    7.20
  -3  -5  -5  130.59    8.30
   3  -5   5  130.19    8.60
  -3  -5  -5  130.29    8.10
  -3   5   5  128.59    8.00
  -3  -5  -5  131.89    7.90
  -3   5   5  130.19    7.60
  -3   5   5  106.19    8.10
   3   5  -5  125.69    8.60
   3   5  -5  126.59    7.70
   3   5  -5  133.09    8.30
  -3  -5  -5  151.18    8.10
  -3   5   5  131.09    7.00
   3   5  -5  130.79    7.20
   3   5  -5  127.69    7.20
   3  -5   5  127.19    7.90
  -3  -5  -5  133.09    7.70
   3   5  -5  130.69    7.60
   3  -5   5  129.89    8.40
   3  -5   5  133.29    8.40
   3   5  -5  143.99    7.30
   3  -5   5  127.49    8.40
  -3   5   5  130.29    7.50
   3  -5  -7   51.79    6.50
   3   5   7   49.70    3.40
   3  -5  -7   47.20    5.40
  -3   5  -7   58.09    5.70
   3   5   7   46.00    6.20
   3  -5  -7   62.29    6.10
  -3  -5   7   53.59    6.40
   3   5   7   56.29    5.70
  -3  -5   7   73.59    7.70
  -3  -5   7   46.40    6.00
   3  -5  -7   49.50    5.70
  -3  -5   7   52.89    5.90
  -3   5  -7   55.49    6.00
   3   5   7   50.69    6.30
   3   5   7   45.80    5.60
  -3   5  -7   60.49    6.60
  -3   5  -7   57.49    4.70
  -3  -5  -7   54.89    5.90
   3  -5   7   49.60    5.80
   3  -5   7   69.59    7.70
  -3   5   7   67.19    7.70
   3  -5   7   49.70    6.90
  -3   5   7   45.10    6.50
   3  -5   7   56.69    6.20
  -3  -5  -7   46.40    4.30
   3   5  -7   53.79    5.90
  -3  -5  -7   46.30    6.10
   3   5  -7   53.49    6.10
  -3  -5  -7   65.89    6.80
  -3   5   7   47.10    5.50
   3  -5   7   51.19    6.80
  -3  -5  -7   50.59    6.00
  -3   5   7   48.50    4.60
   3   5  -7   59.99    4.70
   3   5  -7   47.20    5.20
   3   5  -7   51.69    6.10
   3   5  -7   47.90    5.60
   3  -5  -9   47.00    7.60
   3   5   9   64.89    8.00
  -3  -5   9   72.99    9.10
  -3   5  -9   62.39    6.70
  -3   5  -9   73.69    8.10
  -3  -5   9   54.39    7.80
   3  -5  -9   46.50    7.40
   3   5   9   66.49    7.90
  -3   5  -9   57.59    7.90
   3   5   9   53.49    6.70
  -3   5  -9   62.49    6.90
   3   5   9   56.19   10.20
  -3  -5   9   59.99    9.90
  -3  -5   9   52.09    7.30
   3   5   9   52.59    4.00
   3  -5  -9   55.89    9.60
   3  -5  -9   46.80    8.00
   3   5  -9   68.09    6.90
  -3  -5  -9   68.29    6.50
   3  -5   9   65.89    9.90
  -3  -5  -9   52.69    8.30
   3   5  -9   59.69    9.20
  -3  -5  -9   61.09    5.10
   3  -5   9   55.89    7.30
  -3   5   9   65.79    7.90
  -3   5   9   48.90    5.90
  -3  -5  -9   65.89    7.40
   3   5  -9   54.79    7.20
   3  -5   9   57.49   10.30
  -3  -5  -9   59.99    9.80
  -3   5   9   58.09    7.90
  -3   5   9   48.70    6.30
   3  -5   9   61.49    9.60
   3   5  -9   51.59    5.80
   3   5  -9   59.59    8.10
   3  -5   9   53.09    7.60
  -3   5 -11    6.10    5.40
  -3  -5  11   -1.40    6.20
   3   5  11   19.40    8.00
   3  -5 -11    4.50    8.70
  -3  -5  11    3.70   10.20
  -3   5 -11    8.20    7.80
  -3   5 -11   30.10   11.20
   3   5  11    5.80   11.60
  -3  -5  11   10.90   10.90
  -3   5 -11    6.70    5.10
  -3   5  11   21.40    8.30
  -3   5  11   18.70    6.20
   3   5 -11   12.70   11.40
  -3  -5 -11   -0.40    9.50
   3   5 -11    0.40    7.90
  -3   5  11   15.20   11.00
  -3  -5 -11   13.30    4.80
   3  -5  11    4.20   10.60
   3  -5  11   19.50   10.30
   3  -5  11    1.00    9.50
  -3  -6   0  491.35   25.20
  -3  -6   0  504.95   25.80
   3  -6   0  514.25   25.80
   3  -6   0  515.35   25.40
   3  -6   0  526.05   25.30
  -3  -6   0  517.45   25.70
  -3   6   0  527.45   25.90
  -3  -6   0  509.15   25.20
  -3  -6   0  533.35   25.60
  -3   6   0  508.65   25.70
   3  -6   0  498.05   25.20
  -3  -6   0  492.35   25.50
   3   6   0  509.05   25.80
   3   6   0  540.75   25.50
   3   6   0  523.85   25.60
   3  -6   0  521.15   25.70
  -3  -6   0  526.55   25.70
   3  -6   0  529.05   26.00
   3   6   0  504.05   25.50
  -3  -6   0  489.55   25.10
   3   6   0  534.75   25.70
   3  -6  -2   79.49    6.10
   3  -6  -2   74.59    4.80
   3  -6  -2   84.39    5.00
  -3  -6   2   79.99    4.40
  -3  -6   2   84.39    6.00
  -3  -6   2   83.19    4.60
  -3  -6   2   78.39    5.30
  -3   6  -2   87.49    4.80
  -3  -6   2   81.09    4.80
  -3   6  -2   99.09    5.60
  -3  -6   2   82.39    5.40
   3   6   2   87.09    5.60
  -3  -6   2   81.69    5.10
   3   6   2   91.79    5.90
  -3  -6   2   73.39    4.50
  -3  -6  -2   79.79    4.40
   3  -6   2   85.59    6.00
   3  -6   2   81.69    4.90
   3   6  -2   97.99    5.60
  -3  -6  -2   78.39    5.20
   3   6  -2   97.49    5.60
   3   6  -2   99.09    6.00
  -3  -6  -2   86.49    5.70
  -3  -6  -2   81.49    4.80
   3  -6   2   80.09    5.50
  -3  -6  -2   69.89    4.80
  -3   6   2   68.59    5.30
  -3   6   2   72.59    4.60
   3  -6   2   70.69    4.50
   3  -6  -4   14.10    2.30
  -3  -6   4   16.80    2.80
   3  -6  -4   11.90    3.70
  -3  -6   4   16.90    3.60
  -3  -6   4   17.70    3.40
  -3   6  -4   15.60    3.60
   3   6   4   13.40    2.00
   3  -6  -4   15.60    2.40
  -3   6  -4   10.80    2.40
   3   6   4   21.40    2.70
  -3  -6   4   13.90    3.20
  -3   6  -4   12.10    1.60
   3  -6  -4   15.40    2.80
  -3   6  -4   16.60    3.60
  -3   6  -4   17.00    2.70
  -3  -6   4   13.60    2.80
   3   6   4   15.70    3.50
  -3  -6   4   13.50    2.50
   3   6   4   14.80    3.10
  -3   6  -4   12.50    1.90
  -3  -6   4   14.40    2.40
   3  -6   4   13.00    3.30
  -3  -6  -4   12.10    2.60
  -3  -6  -4   14.00    2.70
   3  -6   4   12.70    2.50
   3  -6   4   12.40    3.50
  -3   6   4   22.10    3.60
   3   6  -4   13.20    2.60
   3  -6   4   13.50    1.80
   3  -6   4   12.70    3.40
  -3  -6  -4   15.30    2.40
   3   6  -4   17.40    3.50
  -3  -6  -4   15.20    2.50
  -3   6   4   13.00    1.90
   3   6  -4   11.60    3.30
  -3  -6  -4   14.50    3.10
   3   6  -4   13.00    2.30
   3   6  -4   13.20    1.60
   3   6   6  105.29    7.30
  -3  -6   6  101.99    6.90
   3   6   6   98.79    7.20
  -3   6  -6   97.29    7.30
  -3   6  -6  102.79    6.90
   3  -6  -6  102.59    6.60
   3  -6  -6  105.19    7.40
   3  -6  -6  105.29    7.60
   3   6   6  102.49    6.70
  -3   6  -6   99.09    6.40
  -3  -6   6   94.59    7.90
  -3   6  -6  121.99    8.60
   3  -6  -6  102.39    7.70
  -3  -6   6   96.59    7.50
  -3  -6   6  100.89    7.30
  -3   6  -6   99.89    7.60
  -3  -6   6   99.89    7.60
   3   6   6  104.49    8.00
  -3   6  -6  101.19    8.20
  -3   6   6  101.19    6.10
   3   6  -6  121.69    7.50
  -3  -6  -6  106.69    7.50
   3   6  -6  103.09    7.70
  -3   6   6  108.09    7.40
   3   6  -6  108.39    6.70
   3   6  -6   97.39    6.40
  -3  -6  -6  101.69    7.60
   3  -6   6   98.29    7.70
  -3   6   6   99.09    7.60
  -3   6   6   99.39    6.80
   3  -6   6  127.59    9.00
  -3  -6  -6  101.79    7.70
  -3   6   6  104.29    9.60
   3  -6   6  104.19    7.90
  -3  -6  -6   99.29    7.20
   3   6  -6  103.49    6.20
   3  -6   6  100.99    7.50
  -3  -6  -6   96.79    7.90
   3   6  -6  100.49    7.80
   3  -6   6   83.69    7.20
   3   6  -6   95.79    7.70
   3  -6  -8    0.10    4.50
   3  -6  -8    3.30    5.00
  -3  -6   8   15.40    6.10
  -3  -6   8    3.30    4.90
   3   6   8    4.90    4.20
  -3   6  -8   -3.80    3.60
  -3  -6   8    1.40    4.40
  -3   6  -8    3.90    5.10
  -3  -6   8    6.60    4.50
   3  -6  -8    4.80    4.60
  -3   6  -8    1.50    4.20
   3  -6  -8    1.70    4.00
  -3   6  -8    2.90    2.90
  -3   6  -8    6.10    4.50
   3   6   8   14.00    3.80
  -3   6  -8   -1.40    4.20
  -3   6   8   -0.60    3.10
   3  -6   8    3.50    4.30
  -3   6   8    2.40    4.00
   3  -6   8   -0.30    3.80
   3  -6   8    5.60    5.20
   3   6  -8    9.60    4.20
   3   6  -8    3.20    2.90
   3   6  -8    4.70    2.50
  -3  -6  -8   -0.40    2.30
   3   6  -8   -5.10    3.30
  -3   6   8   19.70    6.50
   3   6  -8    6.90    4.50
  -3  -6  -8   -1.40    5.90
  -3  -6  -8    2.30    4.40
   3   6  -8   17.40    6.20
   3   6  -8    1.80    4.00
  -3   6 -10    3.10    4.60
  -3  -6  10  -18.00    8.70
  -3   6 -10   -3.10    7.70
  -3  -6  10    2.90    4.50
   3  -6 -10   21.60    7.40
   3   6  10    1.50    7.00
  -3  -6  10   -1.50    6.20
  -3  -6  10   15.00    7.60
   3   6  10    4.90    5.50
   3   6  10    5.70    5.60
  -3   6 -10    1.60    5.80
   3  -6 -10   -4.10    7.60
  -3   6 -10    4.00    9.00
   3  -6  10   12.60    8.10
  -3   6  10    2.30    5.50
   3  -6  10   -5.20    8.20
   3   6 -10   -4.70    5.60
   3   6 -10   -3.30    8.40
   3   6 -10   13.80    5.10
  -3  -6 -10   -3.50    7.50
  -3  -6 -10    1.00    5.10
  -3   6  10    0.10    7.80
   3   6 -10    2.10    5.60
  -3   6  10   10.30    9.40
  -3   6  10    0.10    5.30
   3  -7  -1   20.50    3.50
  -3   7  -1   17.60    2.90
  -3  -7   1   16.90    3.20
  -3  -7   1   23.70    3.70
  -3  -7   1   11.90    1.80
  -3   7  -1   11.80    2.40
  -3  -7   1   13.70    2.90
   3  -7  -1   15.20    2.30
   3  -7  -1   15.30    2.60
  -3  -7   1   13.50    1.60
  -3  -7   1   15.10    3.10
   3  -7  -1   13.20    1.60
  -3  -7   1   15.20    2.60
  -3  -7   1   13.90    1.80
   3   7   1   16.60    2.70
   3   7   1   16.80    2.80
   3  -7  -1   14.40    2.60
   3   7   1   11.10    2.20
   3  -7   1   18.80    3.80
  -3   7   1   14.20    2.90
  -3  -7  -1   13.40    1.90
  -3  -7  -1   16.40    2.20
   3  -7   1   14.90    2.30
  -3  -7  -1   16.10    2.80
  -3   7   1   13.80    2.40
   3   7  -1   17.40    2.70
  -3  -7  -1   13.50    1.90
   3  -7   1   14.90    3.40
   3  -7   1   14.10    1.70
  -3  -7  -1   22.80    3.70
   3  -7   1   15.80    3.40
   3   7  -1   15.50    2.50
   3  -7   1   17.40    2.40
  -3  -7  -1   13.70    2.40
   3   7  -1   15.80    2.60
   3  -7  -3   81.89    6.20
  -3   7  -3   90.29    6.70
   3  -7  -3   82.99    5.20
   3   7   3   83.19    6.60
  -3  -7   3   78.99    6.10
  -3  -7   3   80.69    6.20
   3  -7  -3   79.99    5.20
   3  -7  -3   75.59    5.70
  -3  -7   3   89.79    5.90
   3   7   3   86.99    6.30
  -3   7  -3   80.69    5.70
  -3   7  -3   77.69    6.40
  -3  -7   3   75.09    4.90
  -3  -7   3   80.09    5.90
  -3  -7   3   79.09    5.10
  -3  -7   3   79.39    5.00
  -3   7  -3   85.59    6.10
  -3  -7   3   67.89    4.70
   3  -7   3   81.69    5.10
  -3  -7  -3   80.39    5.20
  -3  -7  -3   80.49    5.80
   3  -7   3   76.89    4.90
  -3  -7  -3   80.59    5.20
  -3  -7  -3   84.09    5.80
  -3   7   3   80.69    5.80
   3   7  -3   82.89    5.10
   3   7  -3   92.99    6.40
   3   7  -3   82.89    5.20
   3  -7   3   77.59    6.30
   3   7  -3   82.49    6.20
  -3  -7  -3   80.39    5.90
   3  -7  -5   95.79    7.30
  -3  -7   5  109.19    7.60
   3  -7  -5  103.89    6.20
  -3  -7   5  101.99    6.20
  -3  -7   5   99.49    7.60
  -3  -7   5   95.09    7.00
  -3   7  -5  103.09    7.50
  -3  -7   5  104.59    6.70
  -3  -7   5  127.79    9.20
   3   7   5  105.89    7.50
  -3   7  -5  104.29    8.80
   3   7   5  122.29    6.30
   3   7   5  101.59    5.90
   3  -7  -5  106.79    7.80
  -3  -7  -5  109.39    7.10
  -3  -7  -5   81.59    6.90
  -3  -7  -5   86.79    7.30
  -3   7   5   95.79    7.20
   3  -7   5   89.19    6.90
  -3  -7  -5   85.79    7.00
  -3   7   5  109.79    6.20
   3   7  -5  102.29    7.50
  -3  -7  -5  115.19    7.90
  -3   7   5  101.99    6.00
   3   7  -5  101.89    6.20
   3  -7   5  105.99    7.50
   3  -7   5  126.79    8.80
   3   7  -5  103.69    6.90
  -3   7   5  103.79    5.30
   3   7  -5  101.89    7.10
   3  -7   5  100.69    7.60
  -3   7  -7   55.49    6.50
  -3   7  -7   46.60    5.40
   3  -7  -7   42.80    5.10
   3   7   7   44.90    6.20
  -3   7  -7   45.40    4.40
   3  -7  -7   41.40    6.80
   3  -7  -7   45.80    6.10
  -3  -7   7   45.10    6.20
  -3  -7   7   46.10    7.00
  -3  -7   7   45.20    6.50
  -3  -7   7   53.19    6.40
  -3   7  -7   59.09    5.20
  -3   7  -7   43.50    6.80
   3  -7  -7   45.20    6.70
   3   7   7   53.09    6.50
   3   7   7   48.70    4.90
   3   7   7   46.10    7.60
   3  -7   7   61.99    7.40
   3   7  -7   51.89    6.80
   3  -7   7   43.30    6.40
   3  -7   7   43.70    7.00
  -3   7   7   38.90    5.10
  -3  -7  -7   55.29    6.10
  -3  -7  -7   45.80    6.80
  -3  -7  -7   39.80    6.90
   3   7  -7   59.49    7.00
   3  -7   7   45.90    6.40
  -3   7   7   64.39    8.30
  -3   7   7   49.99    7.90
   3   7  -7   51.09    6.60
   3   7  -7   45.70    4.40
   3   7  -7   60.29    4.70
   3   7  -7   47.00    6.50
   3   7  -7   50.69    4.50
  -3  -7  -7   48.10    6.80
   3  -7   7   65.39    7.30
   3   7   9   24.40    8.70
  -3  -7   9   16.50    7.50
   3  -7  -9   14.10    5.20
  -3   7  -9   18.50    4.90
  -3   7  -9   12.10    4.70
  -3  -7   9   17.10    6.20
   3   7   9   26.80    5.80
  -3   7  -9   27.00    5.80
  -3   7  -9   20.90    7.10
  -3  -7   9   17.80    6.40
   3   7   9   17.40    5.10
   3   7   9   18.10    5.10
   3   7  -9   18.10    4.60
   3   7  -9   30.80    5.50
  -3  -7  -9   17.60    2.60
   3  -7   9   19.40    6.40
  -3   7   9   12.40    5.10
  -3  -7  -9   24.00    4.90
   3   7  -9    9.00    4.40
  -3   7   9   16.60    5.40
  -3   7   9   23.80    5.00
   3  -7   9   19.90    7.50
   3  -7   9   23.00    6.10
   3   7  -9   24.10    6.10
  -3  -7  -9   14.10    6.70
   3  -7   9   14.60    8.40
   3   7  -9   15.10    7.40
   3  -8   0  178.58   10.40
   3  -8   0  178.08    9.00
  -3  -8   0  186.58    9.80
  -3  -8   0  174.58   10.00
  -3  -8   0  170.78    9.00
   3  -8   0  158.88    8.90
  -3  -8   0  187.88    9.60
  -3   8   0  176.38   10.60
   3   8   0  178.78   10.00
  -3  -8   0  178.68   10.00
   3   8   0  174.78   10.20
   3  -8   0  178.28   10.40
   3  -8   0  153.38    9.80
  -3   8   0  175.78    9.90
  -3  -8   0  177.68    9.00
  -3  -8   0  178.68   10.10
   3   8   0  175.68    9.70
   3  -8   0  181.18    9.20
  -3  -8   0  162.38    8.90
   3  -8   0  179.18    9.50
   3   8   2   74.09    6.10
  -3  -8   2   69.69    5.60
   3  -8  -2   61.89    4.30
  -3  -8   2   70.29    5.90
  -3  -8   2   81.49    5.90
   3  -8  -2   73.29    5.00
  -3  -8   2   58.39    4.10
  -3  -8   2   69.59    4.20
   3   8   2   67.19    5.70
   3  -8  -2   68.49    6.40
  -3  -8   2   63.79    6.40
   3   8   2   70.09    6.90
  -3   8  -2   70.09    6.60
  -3   8  -2   65.29    6.00
  -3  -8   2   72.99    5.00
   3  -8  -2   71.09    4.50
   3  -8   2   72.89    5.10
  -3  -8  -2   65.59    4.30
   3   8  -2   80.29    5.00
  -3  -8  -2   67.89    3.90
  -3   8   2   69.09    6.50
   3   8  -2   72.29    6.00
  -3  -8  -2   65.59    5.40
   3  -8   2   67.99    4.90
   3  -8   2   71.99    6.00
   3  -8   2   68.59    6.00
  -3  -8  -2   62.59    5.90
  -3  -8  -2   71.19    5.80
   3   8  -2   70.69    6.20
  -3  -8  -2   75.39    4.60
   3   8  -2   72.69    5.40
  -3  -8  -2   74.69    6.10
   3  -8   2   64.89    4.40
  -3  -8   4   71.89    5.60
  -3  -8   4   67.99    6.30
   3  -8  -4   69.99    6.40
   3   8   4   73.89    6.50
  -3  -8   4   95.29    7.70
  -3  -8   4   70.29    5.90
   3  -8  -4   61.89    5.70
   3  -8  -4   73.19    6.40
   3   8   4   70.99    5.90
  -3   8  -4   92.99    7.60
  -3  -8   4   71.99    6.70
  -3  -8   4   70.39    5.30
  -3   8  -4   81.69    6.80
   3  -8  -4   68.49    5.30
   3   8   4   71.09    8.50
  -3  -8   4   81.89    5.20
  -3   8  -4   78.29    5.50
  -3  -8  -4   67.99    6.00
  -3  -8  -4   69.29    6.30
  -3  -8  -4   67.79    6.40
   3   8  -4   70.49    5.50
  -3   8   4   95.39    8.10
   3   8  -4   76.39    6.40
  -3  -8  -4   72.29    5.80
   3   8  -4   81.29    6.30
   3   8  -4   78.79    5.40
   3  -8   4   68.79    5.80
   3  -8   4   69.79    6.50
  -3   8   4   70.69    7.70
   3  -8   4   87.09    8.10
   3   8   6   36.60    3.60
   3  -8  -6   35.40    5.40
   3  -8  -6   33.80    4.90
  -3  -8   6   32.30    5.30
  -3  -8   6   48.90    7.10
   3  -8  -6   28.10    4.10
  -3  -8   6   30.70    5.30
  -3   8  -6   39.90    6.00
  -3  -8   6   28.30    4.60
  -3   8  -6   47.30    6.70
   3   8   6   34.40    5.70
   3   8  -6   34.40    5.00
   3   8  -6   34.00    5.40
   3   8  -6   49.99    6.60
  -3  -8  -6   37.20    5.50
  -3  -8  -6   29.80    5.00
  -3   8   6   37.10    3.90
  -3   8   6   29.90    2.60
   3  -8   6   36.30    6.30
  -3   8   6   43.90    3.90
  -3  -8  -6   31.20    5.70
   3  -8   6   32.70    4.90
  -3  -8  -6   32.00    5.20
   3  -8   6   32.20    5.90
   3   8  -6   37.00    4.50
   3  -8   6   32.70    5.30
  -3  -8  -6   49.10    8.50
   3   8   8   30.40    5.60
   3  -8  -8   19.20    7.30
   3  -8  -8   23.20    5.60
  -3   8  -8   16.70    2.60
  -3   8  -8   21.30    6.10
  -3   8  -8   28.70    4.60
   3   8   8   34.30    6.30
  -3  -8   8   24.10    6.00
   3   8   8   19.90    4.50
  -3  -8   8   29.20    5.70
  -3  -8   8   25.20    7.50
  -3  -8   8   24.40    6.00
  -3  -8   8   21.00    5.60
  -3   8  -8   23.80    4.10
  -3  -8   8   25.40    4.00
   3  -8  -8   13.60    5.90
   3  -8  -8   25.00    4.10
  -3  -8  -8   19.50    6.70
  -3   8   8   23.10    4.90
   3  -8   8   23.00    5.40
   3   8  -8   21.20    2.90
   3   8  -8   16.40    2.40
  -3  -8  -8   29.90    5.70
   3  -8   8   21.60    7.20
   3   8  -8   24.60    3.30
  -3   8   8   12.60    4.90
  -3  -8  -8   23.10    5.10
  -3  -8  -8   19.70    2.70
   3  -8   8   28.30    7.60
  -3   8   8   27.20    8.30
   3  -8   8   29.50    5.80
  -3   8   8   25.00    5.50
  -3   8   8   26.40    4.30
   3  -8   8   14.90    4.80
   3   8  -8   10.70    4.00
   3  -9  -1   39.90    5.10
  -3  -9   1   37.90    5.20
  -3  -9   1   33.80    5.40
   3   9   1   23.50    4.30
  -3  -9   1   30.50    3.30
   3  -9  -1   31.00    2.40
   3   9   1   40.30    5.20
   3  -9  -1   34.00    4.40
   3  -9  -1   38.10    5.10
  -3  -9   1   35.80    5.00
   3  -9  -1   27.80    3.00
  -3  -9   1   29.90    2.60
  -3  -9   1   24.40    2.70
  -3  -9   1   27.80    4.20
  -3   9  -1   22.30    3.60
   3  -9  -1   39.00    5.50
   3  -9  -1   37.00    4.70
  -3   9  -1   32.50    5.00
  -3  -9   1   27.60    4.50
  -3  -9   1   29.80    5.30
   3   9  -1   24.40    4.20
  -3   9   1   36.90    4.50
  -3  -9  -1   32.10    3.00
   3  -9   1   30.30    5.20
   3  -9   1   33.00    5.70
  -3  -9  -1   39.40    5.60
  -3   9   1   35.00    5.00
  -3  -9  -1   38.70    5.40
   3  -9   1   32.30    3.50
   3  -9   1   27.80    2.50
   3   9  -1   35.60    4.70
  -3  -9  -1   37.20    4.50
   3  -9   1   34.60    5.40
   3  -9   1   34.60    4.40
  -3  -9  -1   33.80    3.90
  -3  -9  -1   26.90    3.40
  -3  -9  -1   33.00    5.10
  -3   9  -3   46.30    4.00
   3  -9  -3   45.50    5.30
  -3   9  -3   43.70    6.40
  -3  -9   3   36.10    5.60
   3  -9  -3   34.60    4.00
  -3  -9   3   38.60    4.00
   3   9   3   33.90    6.10
   3   9   3   54.79    7.40
  -3  -9   3   39.00    6.00
  -3  -9   3   41.20    4.40
  -3  -9   3   38.90    5.40
   3  -9  -3   35.60    4.30
   3  -9  -3   38.20    4.40
  -3   9  -3   41.60    4.80
  -3  -9   3   33.50    3.60
   3   9   3   30.20    4.30
  -3  -9  -3   38.80    5.20
   3  -9   3   35.80    5.50
   3  -9   3   39.40    4.10
  -3  -9  -3   40.40    4.90
   3   9  -3   37.50    5.10
  -3  -9  -3   37.40    4.50
   3  -9   3   38.40    4.10
  -3  -9  -3   38.30    4.30
   3   9  -3   35.10    5.60
   3   9  -3   38.80    6.80
  -3  -9  -3   39.40    4.50
  -3   9   3   33.80    5.10
   3  -9  -5   89.89    7.50
  -3   9  -5  105.59    8.10
  -3  -9   5   94.59    7.60
  -3  -9   5   82.49    8.30
   3  -9  -5   68.89    7.30
  -3  -9   5   86.09    6.10
   3   9   5   90.79    8.20
  -3  -9   5   83.69    6.70
  -3   9  -5   71.89    6.60
  -3   9  -5   80.19    8.00
  -3  -9   5   97.09    7.90
  -3  -9   5   86.39    7.40
   3  -9  -5   80.19    5.80
   3   9   5   75.39    7.90
  -3  -9   5   93.89    6.20
   3  -9  -5   78.69    7.60
  -3  -9   5   81.99    7.40
   3  -9   5   90.09    7.50
  -3  -9  -5   87.19    7.70
   3  -9   5   86.29    8.40
  -3  -9  -5   68.39    7.30
  -3  -9  -5   83.49    7.40
  -3   9   5  105.19    8.90
   3  -9   5   86.29    7.60
  -3  -9  -5   85.89    8.00
   3   9  -5   83.99    7.60
   3   9  -5   90.69    8.00
  -3  -9  -5   87.49    6.50
   3  -9   5   82.39    6.20
  -3   9   5   82.39    7.80
   3  -9   5   82.49    5.50
   3   9   7   54.09    6.90
  -3  -9   7   38.70    5.30
  -3   9  -7   34.90    4.90
   3   9   7   51.99    4.90
  -3  -9   7   40.90    7.30
   3  -9  -7   48.70    7.30
  -3  -9   7   46.90    7.40
  -3   9  -7   54.29    6.90
   3  -9  -7   45.40    7.00
  -3  -9   7   50.79    7.70
   3  -9  -7   38.30    6.00
  -3   9   7   54.99    9.50
   3  -9   7   41.00    7.30
  -3  -9  -7   52.79    6.30
   3   9  -7   42.60    7.60
   3  -9   7   46.00    7.80
   3  -9   7   46.70    5.90
   3   9  -7   46.50    5.10
  -3  -9  -7   49.50    6.40
  -3  -9  -7   39.20    5.10
  -3  -9  -7   53.19    7.10
   3  -9   7   43.90    9.10
  -3  -9  -7   49.60    7.70
  -3   9   7   34.40    5.00
   3   9  -7   51.69    5.70
  -3   9  -9   38.90   12.30
  -3   9  -9   11.10    7.80
   3   9   9    8.60    5.50
  -3  -9   9   11.30   10.20
   3   9   9   16.30   10.60
  -3   9  -9   21.20    8.70
  -3  -9   9   19.80    8.30
   3   9   9   10.60    4.80
  -3   9   9   40.50   12.10
   3  -9   9   13.70   10.20
  -3   9   9   11.70    5.40
   3   9  -9   17.50    7.60
   3  -9   9    6.30    9.20
   3   9  -9    9.60    6.40
   3   9  -9    9.00   10.60
   3  -9   9   20.30    8.40
   3 -10   0   10.10    4.00
   3 -10   0    2.60    6.50
   3 -10   0    7.60    3.60
   3 -10   0    6.40    4.20
  -3 -10   0    7.60    4.30
   3  10   0   -0.20    3.90
  -3 -10   0    6.00    2.60
   3 -10   0    7.70    2.30
  -3 -10   0    6.90    4.20
  -3 -10   0    6.40    2.20
  -3 -10   0    9.30    3.30
  -3 -10   0    9.00    3.90
  -3 -10   0    8.40    3.60
  -3 -10   0    1.80    2.10
   3 -10   0    3.30    1.70
  -3 -10   0    5.70    1.70
  -3 -10   2  142.49    9.30
   3 -10  -2  130.29    9.60
   3 -10  -2  129.89    6.90
  -3  10  -2  133.39    9.80
  -3 -10   2  147.19    9.50
   3 -10  -2  152.18    9.10
  -3 -10   2  130.99    9.40
  -3 -10   2  140.39    7.70
  -3 -10   2  135.59    9.00
   3 -10  -2  140.19    7.80
   3  10   2  127.99    9.00
  -3 -10   2  122.09    9.40
   3 -10  -2  146.69    8.90
  -3 -10   2  128.79    7.50
  -3 -10   2  117.69    7.50
   3 -10  -2  131.49    9.30
  -3  10  -2  127.59    8.70
   3 -10  -2  134.79    7.80
  -3 -10  -2  133.59    9.30
  -3 -10  -2  130.79    7.80
  -3 -10  -2  147.99    7.80
   3 -10   2  135.29    7.80
  -3 -10  -2  125.49    7.20
   3 -10   2  143.49    9.00
  -3 -10  -2  146.59    9.50
  -3 -10  -2  139.59    9.50
   3 -10   2  134.09    9.10
  -3  10   2  115.49    8.50
   3  10  -2  129.99    8.50
  -3 -10  -2  119.59    8.90
   3 -10   2  155.08   10.10
   3 -10   2  135.99    9.70
  -3 -10  -2  132.59    9.50
   3 -10   2  164.58   10.40
   3 -10   2  125.19    7.40
   3 -10   2  130.39    9.30
  -3 -10   4   42.40    6.20
  -3 -10   4   45.60    6.40
  -3 -10   4   47.20    5.70
   3 -10  -4   55.69    6.30
  -3 -10   4   41.50    6.80
   3 -10  -4   41.80    5.70
   3 -10  -4   41.20    4.90
   3  10   4   51.19    6.80
  -3  10  -4   48.90    6.60
   3 -10  -4   46.80    5.10
  -3 -10   4   54.49    7.30
   3  10   4   48.80    6.30
  -3 -10   4   43.70    7.20
  -3 -10   4   45.40    5.10
   3 -10  -4   37.40    6.10
  -3 -10   4   42.60    4.60
   3  10   4   45.50    6.80
  -3  10  -4   50.09    6.00
  -3 -10  -4   51.49    5.90
  -3 -10  -4   60.79    6.80
   3 -10   4   45.10    4.90
  -3 -10  -4   46.70    6.70
   3 -10   4   48.40    4.70
  -3 -10  -4   55.09    5.20
   3 -10   4   59.19    7.60
   3  10  -4   41.50    6.40
   3 -10   4   50.99    6.70
   3  10  -4   47.80    6.50
  -3 -10  -4   46.70    6.30
   3 -10   4   47.60    6.50
  -3  10   4   43.20    5.90
   3 -10   4   42.50    7.20
  -3  10  -6   19.10    4.30
  -3  10  -6   22.40    5.50
  -3 -10   6   26.30    4.30
  -3 -10   6   22.00    5.90
  -3 -10   6   22.30    5.80
   3  10   6   24.60    4.70
   3  10   6   19.60    7.30
  -3 -10   6   23.90    5.20
   3 -10  -6   21.70    4.70
   3 -10  -6   20.70    5.30
  -3  10  -6   26.20    5.70
  -3 -10   6   27.30    7.60
   3 -10  -6   22.40    5.80
  -3 -10   6   16.50    5.50
   3 -10  -6   25.80    5.40
   3  10  -6   22.40    5.50
   3 -10   6   26.90    8.10
   3  10  -6   24.80    5.00
   3  10  -6   23.70    5.00
   3 -10   6   22.50    5.00
   3  10  -6   28.10    7.30
  -3 -10  -6   24.60    5.50
  -3 -10  -6   22.00    5.30
  -3 -10  -6   26.90    6.20
  -3 -10  -6   23.20    4.60
  -3  10   6   21.50    4.70
  -3 -10  -6   29.10    5.70
   3 -10   6   18.20    5.50
  -3 -10  -6   27.40    5.20
  -3 -10   8   57.09    7.80
   3  10   8   74.19    8.80
  -3 -10   8   64.09   11.30
  -3 -10   8   41.80    9.20
  -3  10  -8   49.90    8.80
  -3 -10   8   80.89   10.90
   3  10  -8   54.39    8.00
   3 -10   8   49.70    7.50
   3 -10   8   43.40    9.40
  -3  10   8   87.99   15.70
  -3  10   8   50.39    8.20
   3  10  -8   85.09   13.20
   3 -10   8   85.29   14.00
  -3 -10  -8   53.59    8.60
  -3 -11   1   45.10    5.80
   3 -11  -1   46.60    6.00
   3 -11  -1   34.80    6.00
  -3 -11   1   45.30    6.70
  -3 -11   1   25.70    4.60
   3 -11  -1   31.40    5.70
   3  11   1   25.60    4.30
   3 -11  -1   34.60    3.70
   3 -11  -1   25.20    3.30
   3 -11  -1   38.60    5.20
  -3 -11   1   32.00    5.90
  -3 -11   1   36.00    5.00
  -3 -11   1   36.00    5.80
  -3 -11   1   40.10    3.90
  -3  11  -1   31.10    4.70
  -3 -11  -1   54.29    7.00
   3 -11   1   39.00    4.20
  -3 -11  -1   39.90    3.90
   3 -11   1   39.80    6.00
  -3 -11  -1   38.30    4.80
  -3  11   1   31.10    5.40
   3  11  -1   37.30    5.50
   3 -11   1   41.30    6.80
   3 -11   1   35.40    5.80
  -3 -11  -1   35.40    5.70
   3 -11   1   48.90    6.70
  -3 -11  -1   34.80    5.10
  -3 -11  -1   36.00    6.30
  -3 -11  -1   24.40    3.70
   3 -11   1   37.30    5.90
  -3 -11  -1   38.60    6.70
  -3 -11  -1   34.70    5.60
  -3  11  -3   38.70    5.60
   3 -11  -3   38.40    5.30
   3 -11  -3   38.80    6.40
   3 -11  -3   36.90    6.40
   3 -11  -3   43.40    5.80
   3 -11  -3   35.20    4.50
  -3 -11   3   42.80    6.40
  -3 -11   3   41.90    6.10
  -3 -11   3   56.39    7.00
   3 -11  -3   38.40    6.40
  -3 -11   3   38.50    5.90
   3  11   3   30.80    4.90
  -3  11  -3   51.89    6.60
  -3 -11   3   39.00    4.50
  -3 -11   3   34.90    5.60
  -3 -11   3   36.40    6.10
  -3 -11  -3   42.00    6.10
   3 -11   3   39.10    7.10
   3 -11   3   39.50    4.90
  -3 -11  -3   39.80    5.10
  -3  11   3   35.70    6.00
   3 -11   3   42.60    7.10
   3 -11   3   32.90    5.70
   3 -11   3   40.60    7.00
  -3 -11  -3   39.60    5.10
  -3 -11  -3   20.80    7.00
   3  11  -3   46.70    6.80
  -3 -11  -3   45.70    6.20
   3 -11   3   47.90    5.40
   3  11  -3   33.90    4.60
  -3 -11  -3   38.90    6.80
   3 -11   3   35.70    6.30
  -3 -11  -3   42.80    5.50
  -3 -11   5   37.50    6.60
   3 -11  -5   37.40    6.80
   3  11   5   43.70    7.60
  -3 -11   5   44.40    6.60
  -3  11  -5   32.70    6.00
   3  11   5   38.70    5.30
  -3 -11   5   49.10    5.70
  -3  11  -5   50.79    7.20
  -3 -11   5   37.30    9.40
  -3 -11   5   40.60    6.00
   3 -11  -5   36.00    5.00
  -3 -11   5   41.90    5.20
  -3 -11   5   42.90    6.70
   3 -11  -5   42.30    7.10
   3 -11   5   41.70    5.30
  -3 -11  -5   48.60    6.60
   3 -11   5   46.90    7.80
   3 -11   5   35.60    5.10
   3 -11   5   39.70    5.50
  -3 -11  -5   58.39    8.10
   3 -11   5   44.30    6.90
  -3 -11  -5   59.39    8.00
  -3  11   5   40.60    6.40
   3 -11   5   41.10    6.50
  -3 -11  -5   43.80    6.90
   3 -11  -7    2.50    8.60
  -3 -11   7   -1.10    6.20
  -3 -11   7  -15.50    8.80
  -3 -11   7    5.20    6.10
   3  11   7   13.60   10.80
   3 -11  -7   -4.10    5.60
  -3  11  -7    1.00    8.20
   3  11   7    0.00    5.20
  -3  11  -7    0.30    7.80
  -3 -11   7    1.60    5.40
  -3 -11   7    0.80    7.80
   3 -11   7   -0.60    8.80
   3 -11   7   10.80   10.30
   3 -11   7    1.40    6.00
   3  11  -7    0.20    6.30
   3  11  -7    5.00    8.90
  -3  11   7   27.80   11.70
  -3 -11  -7   -1.30    7.10
  -3  11   7    0.30    8.40
  -3 -11  -7    7.60    6.50
  -3 -11  -7    6.60    6.00
   3 -12   0    3.90    2.60
   3 -12   0    8.60    5.40
   3 -12   0    8.20    3.00
  -3 -12   0    8.10    5.00
   3 -12   0   10.90    5.10
  -3 -12   0    9.20    4.70
  -3 -12   0    8.60    4.50
   3 -12   0   17.20    5.60
  -3 -12   0   10.30    5.00
   3  12   0    3.50    4.40
   3 -12   0    6.70    5.60
  -3 -12   0    7.40    4.30
  -3 -12   0    3.90    4.50
   3 -12   0    8.10    5.00
  -3  12   0    4.50    4.60
   3 -12   0    7.50    3.70
   3 -12  -2   51.79    8.40
   3 -12  -2   30.30    3.90
   3 -12  -2   23.40    4.80
  -3 -12   2   30.10    6.10
   3 -12  -2   32.40    6.20
   3 -12  -2   30.00    3.90
  -3 -12   2   22.00    3.50
  -3 -12   2   26.00    4.10
  -3 -12   2   30.50    5.00
   3 -12  -2   19.30    6.70
  -3 -12   2   27.00    6.00
  -3 -12   2   29.90    6.50
   3 -12  -2   29.10    5.40
  -3 -12   2   29.50    5.80
   3 -12  -2   31.50    5.70
   3  12   2   22.50    5.90
  -3  12  -2   24.80    5.50
  -3 -12   2   24.70    5.10
  -3 -12  -2   29.70    3.90
  -3 -12  -2   29.20    6.00
   3 -12   2   30.10    5.00
   3 -12   2   26.60    6.20
   3  12  -2   24.30    4.10
   3 -12   2   32.30    4.00
  -3  12   2   28.40    5.70
   3 -12   2   37.90    6.20
   3 -12   2   25.80    3.20
   3 -12   2   33.50    5.00
   3 -12   2   35.70    6.90
   3 -12   2   34.40    5.80
  -3 -12  -2   29.70    4.10
  -3 -12  -2   26.50    5.20
  -3 -12  -2   29.60    5.40
  -3 -12  -2   42.50    6.90
  -3 -12  -2   33.70    4.80
  -3 -12  -2   33.80    6.50
  -3 -12   4    7.40    4.60
   3  12   4    6.30    4.10
  -3 -12   4    6.40    6.00
   3 -12  -4    5.90    4.30
  -3 -12   4    5.50    5.80
  -3 -12   4    3.80    5.10
   3 -12  -4    5.90    6.10
   3 -12  -4    7.10    4.90
  -3  12  -4    3.40    6.40
   3 -12  -4    2.60    3.80
  -3 -12   4   13.80    7.30
   3 -12  -4    0.70    5.30
  -3 -12   4    4.50    4.00
  -3 -12  -4   -8.00    5.40
   3  12  -4    7.40    3.90
   3 -12   4    5.30    4.50
  -3 -12  -4   10.60    5.90
  -3 -12  -4   -5.70    6.50
  -3 -12  -4   -0.40    5.40
  -3  12   4    2.30    6.90
   3 -12   4    3.20    6.50
   3 -12   4    2.10    6.30
   3 -12   4   13.10    7.40
   3 -12   4    2.60    4.90
  -3 -12  -4    4.60    5.30
   3  12   6   25.40    6.50
  -3 -12   6   16.00    9.20
   3 -12  -6   13.40    5.90
  -3  12  -6   20.70    5.40
  -3 -12   6   30.80    5.60
  -3 -12   6   17.30    5.80
  -3 -12   6   10.00    8.20
   3  12   6   20.00   10.40
  -3  12  -6   19.10    9.90
   3 -12   6   14.80    9.80
  -3 -12  -6   12.90    6.40
   3 -12   6    5.90    8.90
   3 -12   6   14.30    8.50
  -3 -12  -6   19.10    6.80
   3 -12   6   16.50    5.70
   3  12  -6   18.30    5.10
  -3  12   6   14.80    5.40
   3  12  -6   25.20   10.50
  -3 -13   1   10.60    6.50
  -3 -13   1    6.90    3.80
   3 -13  -1   25.70    5.40
   3 -13  -1   27.10    6.80
  -3 -13   1   13.20    3.40
   3 -13  -1   13.70    5.70
   3 -13  -1   30.90    8.60
  -3 -13   1   14.40    4.50
   3 -13  -1   14.10    3.40
  -3 -13   1   16.20    5.90
  -3 -13   1   18.60    7.40
  -3 -13   1   16.20    6.00
   3  13   1    9.40    3.90
  -3  13  -1    7.10    3.70
   3 -13  -1    7.00    6.30
   3 -13   1   12.80    2.60
   3 -13   1   13.90    6.20
  -3 -13  -1   13.50    6.30
   3 -13   1   18.20    6.00
  -3  13   1   12.10    4.20
  -3 -13  -1   14.40    3.80
   3 -13   1   15.10    3.10
  -3 -13  -1   12.30    3.90
   3 -13   1   19.00    6.50
   3  13  -1    9.60    7.10
  -3 -13  -1   15.30    3.60
  -3 -13  -1    7.30    5.90
  -3 -13  -1   16.00    6.00
   3 -13   1   17.30    6.90
  -3 -13   3   19.90    4.80
  -3 -13   3   19.20    6.70
   3 -13  -3   22.20    5.20
  -3  13  -3   14.70    5.40
   3 -13  -3   18.60    8.20
   3 -13  -3   32.90    4.40
   3 -13  -3   23.70    4.40
  -3 -13   3   24.30    4.40
  -3 -13   3   25.20    6.80
   3  13   3   23.10    6.50
   3 -13  -3   23.40    6.30
  -3 -13  -3   26.60    6.40
   3 -13   3   16.30    7.30
   3 -13   3   12.50    6.80
  -3 -13  -3   22.70    5.80
  -3  13   3   17.50    6.00
  -3 -13  -3   25.90    7.70
   3 -13   3   24.40    9.00
   3 -13   3   30.50    5.60
  -3 -13  -3   22.30    5.80
   3 -13   3   22.10    7.70
   3 -13   3   18.10    5.60
   3  13  -3   21.80    7.80
  -3 -13  -3   19.40    5.60
   3 -13   3   21.30    3.90
   3 -13  -5   12.10    7.30
  -3 -13   5   10.80    8.10
   3 -13  -5   11.20    5.80
  -3  13  -5    6.40    6.30
   3 -13   5   19.00    9.10
   3  13  -5    9.30    9.80
  -3 -13  -5    9.60    6.30
   3 -13   5    6.00    9.90
  -3  13   5    7.60    6.30
   3 -14   0    7.60    5.80
  -3  14   0    5.50    6.20
   3 -14   0   17.90    9.80
  -3 -14   0    9.50    6.20
   3  14   0    9.60    5.90
  -3 -14   0    5.00    7.50
   3 -14   0   -0.90    7.10
   3 -14   0   24.90    7.50
  -3 -14   0   -1.10    9.20
   3  14   2    4.70    6.40
  -3 -14   2    9.90    6.60
  -3  14  -2    4.80    6.10
  -3 -14   2   11.60    6.90
   3 -14  -2   11.60    6.50
   3 -14  -2   16.30    9.40
  -3  14   2    5.10    6.10
   3 -14   2   18.40    9.60
  -3 -14  -2   10.10    6.90
  -3 -14  -2    3.50    7.10
   3 -14   2   16.30    6.50
   3 -14   2    9.40    6.60
   3  14  -2    5.10    6.40
  -4   0   0 9645.73  462.65
  -4   0   0 9304.57  463.95
   4   0   0 9588.44  463.45
  -4   0   0 9747.83  464.05
   4   0   0 9349.96  463.35
   4   0   0 9233.08  463.95
   4   0   0 9787.82  464.05
  -4   0   0 9373.16  463.25
   4   0   0 9999.00  464.55
   4   0   2   16.60    2.00
  -4   0  -2   22.20    2.30
  -4   0   2   18.20    2.00
  -4   0  -2   21.70    2.10
  -4   0  -2   21.90    1.90
  -4   0  -2   18.40    1.90
   4   0  -2   22.60    1.70
   4   0  -2   21.90    2.50
   4   0   2   20.20    2.20
   4   0  -2   21.50    2.30
   4   0   2   22.20    2.20
   4   0  -2   16.10    1.90
   4   0  -2   20.70    1.70
  -4   0   2   20.80    1.70
   4   0   2   21.70    1.70
  -4   0   2   16.40    2.00
   4   0   2   17.50    1.80
  -4   0   2   20.30    2.30
   4   0   4  393.46   19.90
   4   0  -4  389.06   19.80
   4   0  -4  398.96   19.50
  -4   0  -4  406.26   19.90
   4   0   4  372.66   19.40
  -4   0   4  385.96   20.00
  -4   0  -4  396.46   19.90
  -4   0   4  379.06   19.50
  -4   0  -4  405.56   19.90
  -4   0   4  403.36   20.00
   4   0   4  379.96   19.90
  -4   0   4  398.86   19.90
   4   0  -4  396.86   19.90
  -4   0  -4  386.06   19.90
   4   0   4  402.66   19.90
   4   0  -4  397.46   19.90
   4   0   4  396.96   19.90
   4   0  -4  399.76   20.00
  -4   0   6  297.47   15.30
   4   0  -6  296.07   15.40
  -4   0  -6  271.07   14.90
  -4   0  -6  269.37   15.30
   4   0   6  275.77   15.20
  -4   0  -6  278.57   15.20
  -4   0   6  273.17   14.50
   4   0  -6  288.77   15.20
   4   0   6  280.27   14.80
   4   0   6  281.47   15.20
   4   0   6  281.67   15.30
   4   0   6  284.77   15.10
   4   0  -6  301.07   15.40
  -4   0   6  288.07   14.50
  -4   0  -6  290.47   15.20
   4   0  -6  279.47   15.20
  -4   0   6  287.47   15.40
  -4   0   6  284.77   15.10
   4   0  -8  170.98   10.10
  -4   0  -8  165.28    9.70
   4   0  -8  155.38   10.10
   4   0  -8  147.09   10.20
   4   0   8  154.38    9.90
  -4   0  -8  145.09   10.10
  -4   0   8  148.59    9.20
   4   0   8  150.58   10.00
   4   0  -8  146.59   10.30
   4   0   8  152.38   10.50
   4   0   8  163.28   10.40
  -4   0   8  155.38   10.50
  -4   0   8  154.58    9.00
  -4   0  -8  162.88   10.50
  -4   0   8  148.49   10.40
  -4   0  -8  149.88   10.20
   4   0   8  143.99   10.20
  -4   0   8  172.38   10.70
   4   0  10   46.20    6.90
   4   0 -10   68.79   10.40
   4   0  10   64.89    8.10
   4   0  10   64.99    7.90
   4   0 -10   68.99    8.40
  -4   0  10   67.89    9.00
  -4   0  10   63.29    8.90
  -4   0 -10   55.09    8.00
   4   0 -10   68.99    7.60
   4   0 -10   62.79    8.70
  -4   0 -10   75.99    7.10
  -4   0  10   51.59    8.30
  -4  -1   1  141.39    7.50
  -4   1  -1  135.29    7.20
  -4   1  -1  138.89    7.40
  -4  -1   1  138.59    7.40
   4  -1  -1  138.59    7.40
   4   1   1  135.59    7.30
   4  -1  -1  140.79    7.20
   4   1   1  136.29    7.40
   4   1   1  141.69    7.10
   4   1   1  138.09    7.40
   4  -1  -1  145.39    7.40
   4   1   1  135.29    7.20
  -4  -1   1  141.49    7.20
   4  -1  -1  132.99    7.00
   4   1   1  153.68    7.50
  -4   1  -1  136.89    7.40
   4  -1  -1  148.49    7.50
  -4  -1   1  131.99    7.20
  -4  -1   1  154.78    7.50
  -4   1  -1  142.19    7.40
   4   1  -1  147.99    7.50
   4   1  -1  131.69    7.20
  -4  -1  -1  127.49    7.40
   4   1  -1  136.39    7.40
  -4   1   1  133.49    7.10
  -4  -1  -1  138.49    7.20
   4   1  -1  143.19    7.40
   4  -1   1  137.89    7.40
   4  -1   1  155.98    7.50
  -4   1   1  131.79    7.40
  -4  -1  -1  134.99    7.40
  -4  -1  -1  147.69    7.50
   4  -1   1  145.69    7.30
   4   1  -1  137.99    7.40
  -4   1   1  144.99    7.50
   4  -1   1  131.19    7.30
  -4  -1   3  197.38   10.80
   4  -1  -3  202.08   10.50
  -4   1  -3  203.38   10.60
   4  -1  -3  197.28   10.70
  -4   1  -3  199.38   10.50
   4  -1  -3  204.38   10.60
   4   1   3  197.58   10.20
  -4   1  -3  200.48   10.50
   4   1   3  208.78   10.50
  -4   1  -3  208.78   10.50
   4   1   3  207.38   10.60
   4  -1  -3  197.68   10.20
  -4  -1   3  198.18   10.30
   4   1   3  198.68   10.50
  -4  -1   3  199.38   10.50
  -4  -1   3  195.98   10.60
   4   1   3  205.88   10.40
  -4   1   3  201.58   10.50
  -4  -1  -3  203.48   10.50
   4  -1   3  193.68   10.60
  -4   1   3  202.48   10.10
   4   1  -3  203.48   10.50
  -4   1   3  194.38   10.50
  -4  -1  -3  194.68   10.60
  -4  -1  -3  190.28   10.60
   4  -1   3  211.38   10.70
   4   1  -3  181.98   10.30
   4   1  -3  211.88   10.50
   4  -1   3  198.18   10.50
  -4  -1  -3  206.08   10.50
   4  -1   3  185.48   10.00
  -4   1   3  217.08   10.70
   4   1  -3  207.08   10.60
   4   1  -3  196.38    9.90
  -4  -1  -3  200.78   10.20
   4  -1   3  204.98   10.50
  -4   1   3  192.58   10.10
   4  -1  -5   12.20    2.20
  -4   1  -5    8.30    2.90
   4   1   5   13.50    2.60
   4   1   5   11.30    1.80
   4  -1  -5   10.90    3.00
   4   1   5   18.50    2.90
  -4  -1   5   11.10    3.20
   4  -1  -5   10.40    2.70
  -4   1  -5   12.20    3.00
  -4  -1   5   11.60    1.60
   4   1   5   12.20    3.00
  -4  -1   5   12.20    3.10
  -4   1  -5    9.70    3.40
  -4   1  -5   12.40    2.50
   4   1   5   11.50    3.20
  -4   1   5   16.50    2.30
   4   1  -5   12.20    3.00
  -4   1   5   13.50    3.20
   4   1  -5   11.60    3.60
  -4  -1  -5    9.90    2.30
   4  -1   5   11.70    3.10
   4   1  -5   11.60    2.30
   4   1  -5   13.00    2.70
  -4  -1  -5   13.50    3.30
  -4   1   5    9.80    2.40
  -4   1   5    8.70    2.50
   4   1  -5    9.40    2.70
   4  -1   5    9.40    2.90
  -4  -1  -5   13.00    3.00
   4  -1   5    9.40    2.30
   4  -1   5   13.60    3.10
   4   1   7   -4.00    3.60
  -4   1  -7    4.90    3.80
   4  -1  -7    5.90    3.20
  -4   1  -7    5.30    3.20
   4   1   7    5.60    2.70
   4  -1  -7   13.30    4.20
  -4  -1   7   10.80    4.20
  -4  -1   7    4.00    2.40
   4  -1  -7    4.80    3.70
   4   1   7    3.70    3.10
   4   1   7   11.50    5.00
  -4  -1   7    0.60    4.00
  -4  -1   7    4.00    3.20
   4  -1  -7   11.50    3.70
  -4  -1   7    4.40    3.00
  -4   1  -7    4.10    3.40
   4   1   7    5.10    3.20
   4  -1   7   14.60    4.30
  -4  -1  -7    8.00    3.40
  -4  -1  -7    4.80    3.70
  -4  -1  -7    7.20    2.10
  -4   1   7    5.80    2.60
   4   1  -7   -4.50    3.60
   4   1  -7    4.30    3.10
   4  -1   7    4.50    3.10
   4   1  -7   -2.20    3.10
  -4   1   7    6.90    3.40
  -4   1   7    4.60    3.30
   4   1  -7    5.70    3.60
   4  -1   7    5.90    3.40
   4  -1   7   14.60    5.20
  -4   1   7   14.10    5.10
  -4  -1  -7    7.30    4.00
   4   1  -7    2.00    3.10
   4  -1   7    2.00    3.20
   4   1   9   12.70    5.40
   4  -1  -9   13.90    4.90
  -4  -1   9   12.40    4.20
   4   1   9    9.70    5.50
   4  -1  -9   14.10    4.90
  -4   1  -9    6.40    4.90
   4   1   9   10.90    4.20
  -4   1  -9    7.10    3.80
   4   1   9    7.00    4.70
  -4   1  -9   10.00    4.80
  -4  -1   9   12.70    5.10
   4   1   9    9.90    4.30
   4  -1  -9    9.70    4.10
   4  -1  -9   26.00    5.60
   4   1  -9   10.50    4.60
  -4  -1  -9    9.60    5.30
   4   1  -9   12.30    5.10
   4  -1   9    9.50    4.70
  -4   1   9    8.70    4.90
  -4   1   9    6.50    4.10
  -4  -1  -9   11.20    4.00
   4   1  -9   15.50    4.50
  -4   1   9    9.30    2.80
   4   1  -9    8.90    4.00
   4  -1   9    7.80    4.20
   4  -1   9   26.90    6.20
  -4  -1  -9   23.20    5.50
  -4  -1  -9   11.60    3.10
   4   1  -9   10.00    3.90
  -4   1   9    8.90    5.50
  -4  -1  -9    8.90    4.70
   4  -1   9    9.80    4.50
  -4   1   9   16.20    5.50
  -4  -1  11   -0.10    7.30
   4   1  11  -11.90    7.80
  -4  -1  11   12.60    9.20
   4   1  11   -3.60    5.80
   4  -1 -11    3.10    7.70
  -4   1  11   -1.40    8.80
  -4  -1 -11   -3.20    7.00
   4  -1  11    8.90    9.10
   4  -1  11    9.00    9.80
   4  -1  11   -1.50    8.90
  -4   1  11   -6.10    8.50
  -4  -1 -11    2.20    6.60
  -4   1  11    0.10    7.70
  -4   1  11    1.40    5.90
   4   1 -11  -10.80    7.90
  -4  -2   0  359.16   18.00
   4   2   0  349.07   17.60
   4   2   0  375.96   18.00
   4  -2   0  357.56   18.00
  -4  -2   0  360.86   17.90
   4  -2   0  375.76   18.00
  -4  -2   0  354.06   17.90
   4   2   0  367.66   17.90
   4   2   0  342.37   17.80
   4   2   0  364.26   17.90
   4  -2   0  364.36   17.70
  -4   2   0  348.97   17.70
  -4   2   0  347.27   17.80
  -4   2   0  379.36   17.90
   4   2   0  361.56   18.00
   4  -2   0  354.86   17.90
  -4  -2   0  348.77   17.90
  -4  -2   0  374.96   18.00
  -4   2  -2 2343.87  112.39
  -4  -2   2 2337.77  112.49
  -4  -2   2 2289.27  112.49
   4  -2  -2 2330.97  112.49
  -4  -2   2 2329.67  112.49
   4   2   2 2311.87  112.29
  -4  -2   2 2328.87  112.59
  -4   2  -2 2349.26  112.59
  -4  -2   2 2408.56  112.49
   4   2   2 2332.37  112.39
   4  -2  -2 2246.98  112.49
   4   2   2 2291.47  112.49
  -4   2  -2 2380.86  112.39
   4  -2  -2 2314.17  112.49
   4   2   2 2373.26  113.09
   4   2   2 2206.38  112.29
  -4   2  -2 2255.27  112.59
   4  -2  -2 2290.27  112.49
  -4  -2  -2 2284.97  112.49
  -4   2   2 2350.16  112.49
   4   2  -2 2312.67  112.39
   4   2  -2 2407.06  112.59
   4  -2   2 2261.17  112.49
   4   2  -2 2275.17  112.39
  -4  -2  -2 2341.77  112.39
   4  -2   2 2303.77  112.59
  -4  -2  -2 2440.36  113.29
  -4   2   2 2279.37  112.39
  -4  -2  -2 2276.37  112.49
   4  -2   2 2355.06  112.39
   4  -2   2 2362.86  112.49
  -4   2   2 2294.97  112.29
   4   2  -2 2293.27  112.49
  -4  -2  -2 2335.37  112.49
  -4   2   2 2329.67  112.49
   4   2   4  174.88    9.30
  -4  -2   4  172.88    9.40
   4   2   4  162.08    9.30
  -4  -2   4  172.48    9.30
  -4   2  -4  177.78    9.50
   4  -2  -4  174.28    9.10
  -4   2  -4  176.88    9.20
   4  -2  -4  170.58    9.30
  -4  -2   4  164.58    9.40
   4   2   4  168.58    9.20
  -4   2  -4  176.58    9.30
   4  -2  -4  171.08    9.30
  -4   2  -4  165.08    9.30
   4  -2  -4  179.38    9.50
   4   2   4  173.08    8.90
   4   2   4  173.58    9.50
   4  -2   4  173.38    9.40
   4   2  -4  163.98    9.20
  -4   2   4  173.28    9.30
  -4  -2  -4  175.28    9.40
   4  -2   4  168.78    9.30
   4   2  -4  176.68    9.20
  -4  -2  -4  166.98    8.80
  -4   2   4  173.08    8.70
  -4  -2  -4  167.78    9.30
  -4  -2  -4  165.48    9.30
   4   2  -4  170.18    9.60
  -4   2   4  165.88    9.60
   4  -2   4  162.18    9.20
   4   2  -4  174.48    9.10
   4  -2   4  172.18    9.40
   4   2  -4  165.08    9.20
  -4  -2  -4  172.08    9.20
  -4   2   4  166.28    9.20
  -4   2   4  160.78    9.10
   4  -2   4  156.68    8.50
  -4  -2   6   69.09    5.90
   4   2   6   73.49    5.70
  -4  -2   6   71.39    5.70
  -4  -2   6   64.89    4.00
   4   2   6   71.09    5.60
  -4  -2   6   68.99    6.20
  -4   2  -6   76.89    6.00
  -4   2  -6   59.59    5.40
   4  -2  -6   74.99    6.40
  -4  -2   6   67.19    5.50
   4  -2  -6   58.99    5.40
   4  -2  -6   71.69    6.00
   4  -2  -6   66.09    5.80
   4   2   6   74.69    5.70
  -4   2   6   69.59    4.30
   4   2  -6   70.59    5.90
   4  -2   6   67.19    5.60
  -4  -2  -6   64.99    5.10
   4   2  -6   69.69    5.90
  -4  -2  -6   55.39    5.20
  -4  -2  -6   69.59    6.40
  -4   2   6   70.59    5.80
   4   2  -6   52.79    5.10
   4   2  -6   70.49    5.90
   4  -2   6   59.09    5.60
   4  -2   6   57.49    5.10
   4  -2   6   65.89    6.10
  -4  -2  -6   68.89    4.50
  -4   2   6   70.59    5.10
  -4  -2  -6   73.59    5.90
  -4   2   6   74.59    6.00
   4  -2   6   71.99    5.80
  -4   2   6   69.79    5.70
   4   2  -6   69.49    5.90
   4  -2  -8   86.69    8.10
  -4  -2   8   82.99    8.10
  -4   2  -8   67.09    7.30
   4   2   8   93.39    7.10
  -4  -2   8   83.69    7.60
  -4  -2   8   74.79    7.50
  -4   2  -8   83.29    6.90
  -4  -2   8   76.89    7.20
  -4   2  -8   78.19    7.70
   4   2   8   82.19    7.80
   4   2   8   91.39    7.10
   4  -2  -8   82.39    7.70
   4  -2  -8   82.29    7.60
   4   2   8   79.49    5.90
   4   2   8   75.79    7.30
   4  -2  -8   75.69    7.60
   4   2  -8   77.09    7.00
   4   2  -8   82.29    7.30
   4   2  -8   99.69    7.90
   4  -2   8   78.79    7.60
  -4   2   8   84.79    7.80
  -4  -2  -8   78.79    6.10
  -4  -2  -8   86.79    7.70
  -4   2   8   82.29    7.40
   4  -2   8   80.59    8.20
  -4   2   8   78.99    5.20
  -4   2   8   78.69    7.10
  -4  -2  -8   90.69    7.30
   4   2  -8   80.09    7.30
  -4  -2  -8   78.09    6.20
   4   2  -8   71.89    7.00
   4  -2   8   79.39    7.90
   4  -2   8   77.59    7.50
  -4   2 -10  115.19    9.20
  -4  -2  10  116.89    9.90
  -4  -2  10  119.19    8.40
   4   2  10  107.69    9.00
   4  -2 -10  102.29   10.50
   4  -2 -10  110.59   10.80
  -4  -2  10  107.49   12.00
   4   2  10  106.19    9.40
   4   2  10  113.59    9.60
  -4  -2  10  112.59   11.70
  -4   2 -10  119.79   11.30
   4  -2  10  117.09   11.10
   4   2 -10   99.49   11.20
  -4   2  10  116.99   10.20
   4   2 -10  100.49   10.30
  -4  -2 -10  109.19   11.00
   4  -2  10  130.69   10.40
  -4   2  10  118.79   10.60
  -4   2  10  110.89    8.80
  -4  -2 -10  105.69   10.00
   4  -2  10  114.19   11.40
   4   2 -10  108.09   10.00
   4   2 -10  109.39    9.20
  -4  -2 -10   90.59    9.90
   4  -3  -1  376.96   19.40
   4   3   1  398.76   19.90
  -4   3  -1  449.56   20.00
   4   3   1  384.06   19.70
  -4  -3   1  394.46   19.80
  -4   3  -1  373.06   19.70
   4   3   1  378.86   19.40
  -4   3  -1  444.36   19.70
   4  -3  -1  370.06   19.70
   4  -3  -1  407.06   19.80
  -4  -3   1  385.46   19.80
  -4   3  -1  388.06   19.30
   4   3   1  434.86   19.70
  -4  -3   1  387.66   19.80
  -4  -3   1  389.86   19.90
   4   3   1  393.46   19.70
  -4  -3   1  404.06   19.90
  -4   3   1  365.96   19.40
   4   3  -1  451.95   19.70
   4   3  -1  401.86   19.40
  -4   3   1  446.56   19.90
  -4  -3  -1  383.46   19.40
   4   3  -1  375.56   19.60
  -4  -3  -1  405.96   19.80
  -4  -3  -1  398.86   19.90
   4   3  -1  394.86   19.80
   4  -3   1  398.96   20.00
   4   3  -1  381.76   19.30
   4   3  -1  386.26   19.80
   4  -3   1  368.86   19.70
   4   3  -1  367.66   19.80
  -4   3   1  460.25   19.80
   4  -3   1  407.26   19.60
  -4   3   1  363.06   19.60
  -4  -3  -1  420.76   19.80
  -4  -3  -1  371.36   19.70
   4  -3   1  408.66   19.80
  -4   3  -3  199.08   10.40
  -4  -3   3  199.88   10.60
  -4   3  -3  198.78   10.70
   4   3   3  196.28   10.60
  -4  -3   3  197.78   10.60
  -4   3  -3  203.98   10.40
   4  -3  -3  197.18   10.60
   4  -3  -3  206.28   10.50
  -4  -3   3  205.98   10.50
  -4  -3   3  204.58   10.70
   4   3   3  195.08   10.10
   4   3   3  213.48   10.40
   4   3   3  195.38   10.50
  -4   3  -3  194.08   10.70
   4   3   3  200.78   10.40
  -4  -3   3  195.58   10.60
   4  -3  -3  196.68   10.50
   4   3   3  194.18   10.30
   4  -3  -3  192.98   10.70
   4   3  -3  207.08   10.40
   4  -3   3  211.18   10.50
  -4   3   3  199.08   10.30
  -4  -3  -3  196.38   10.30
   4  -3   3  190.88   10.60
   4   3  -3  196.68   10.60
   4   3  -3  198.48   10.70
   4   3  -3  197.88   10.10
  -4  -3  -3  188.18   10.50
   4  -3   3  214.78   10.50
  -4  -3  -3  194.88   10.70
  -4   3   3  206.58   10.50
  -4  -3  -3  213.78   10.40
  -4   3   3  190.88    9.90
  -4   3   3  195.38   10.40
   4   3  -3  179.28   10.20
  -4  -3  -3  205.98   10.50
   4  -3   3  191.08   10.60
   4  -3  -5   18.10    3.20
  -4  -3   5   13.90    1.40
   4   3   5   15.90    3.30
   4   3   5   17.40    3.10
  -4   3  -5   16.90    2.60
   4  -3  -5   18.00    2.90
  -4   3  -5   24.30    3.50
   4   3   5   16.90    2.60
  -4   3  -5   19.50    3.00
   4   3   5   18.50    3.10
  -4  -3   5   21.40    3.90
   4  -3  -5   17.40    3.10
  -4  -3   5   26.00    4.20
   4   3   5   29.20    4.20
  -4  -3   5   21.10    2.90
  -4   3  -5   17.10    3.70
   4  -3  -5   16.90    2.80
   4  -3   5   19.60    2.80
  -4  -3  -5   18.70    2.80
   4   3  -5   17.80    2.90
  -4   3   5   16.40    3.20
   4   3  -5   17.10    2.50
   4   3  -5   16.90    2.90
  -4   3   5   16.80    2.70
   4  -3   5   11.30    3.20
  -4   3   5   17.50    2.80
  -4  -3  -5   18.10    2.50
   4  -3   5   24.60    3.90
  -4  -3  -5   21.50    3.30
  -4   3   5   17.50    3.40
   4   3  -5   19.90    3.20
   4  -3   5   21.20    3.30
  -4  -3  -5   17.70    3.10
  -4   3   5   14.80    2.00
  -4  -3  -5   20.60    3.20
   4   3  -5   16.50    3.60
  -4  -3   7    4.20    4.00
   4   3   7    6.20    3.50
   4   3   7    4.20    3.40
  -4   3  -7    4.30    3.80
  -4  -3   7    4.80    1.60
   4  -3  -7    5.80    3.40
   4  -3  -7    3.50    3.00
   4  -3  -7    5.60    4.20
  -4   3  -7    6.10    3.80
  -4   3  -7   -0.10    3.50
   4  -3  -7    4.60    4.10
   4   3   7    6.90    4.40
  -4  -3   7    4.70    3.40
  -4  -3  -7    6.70    3.90
   4   3  -7    5.30    3.70
  -4  -3  -7   12.90    4.30
   4  -3   7   16.80    4.40
   4  -3   7    5.10    3.60
  -4  -3  -7    3.70    3.50
   4  -3   7    5.30    3.40
   4  -3   7    5.80    3.90
   4   3  -7   15.80    4.80
   4   3  -7    4.40    3.40
   4   3  -7    2.80    3.70
  -4  -3  -7    4.00    2.40
  -4  -3  -7    7.70    3.20
  -4   3   7    0.80    3.60
  -4  -3   9    8.00    6.20
   4   3   9    7.50    4.90
   4   3   9    8.50    3.10
  -4  -3   9    8.30    4.50
   4  -3  -9    7.20    7.40
   4  -3  -9    8.50    5.00
  -4  -3   9    8.40    4.90
   4   3   9   11.20    4.60
   4   3   9   14.80    4.40
  -4   3  -9    8.20    4.50
  -4   3  -9   14.40    5.60
  -4   3  -9    6.70    5.20
   4   3   9   -4.20    7.60
   4  -3  -9    7.70    4.80
   4  -3  -9    9.30    4.20
  -4   3  -9    4.50    4.60
  -4  -3   9    5.90    4.50
   4  -3   9    3.80    5.70
   4  -3   9    6.10    4.40
   4   3  -9    8.70    5.00
   4   3  -9   -0.70    6.40
  -4  -3  -9    8.90    4.10
  -4  -3  -9    5.70    6.90
  -4  -3  -9    5.80    5.30
   4  -3   9   11.00    5.00
   4  -3   9    9.30    7.90
  -4   3   9    9.20    4.70
  -4   3   9   19.40    6.30
   4   3  -9    6.80    4.50
  -4   3   9   18.30    4.50
   4   3  -9   10.70    5.00
  -4  -3  -9   10.60    4.50
   4   3  -9    7.20    5.00
  -4   3   9    2.40    5.50
   4   3  11   -2.40    6.00
   4  -3 -11    5.20    9.80
   4  -3 -11   -3.90    6.50
   4   3  11   21.10   12.90
  -4   3 -11    2.30    7.60
  -4  -3  11   -1.60    5.40
  -4   3 -11   13.00   10.70
  -4  -3  11   26.30   10.20
  -4  -3 -11   10.90    9.70
  -4   3  11   14.40    6.10
  -4   3  11   -8.20   10.60
  -4   3  11   20.00    7.40
   4  -3  11   11.40   11.30
   4   3 -11   -0.80    7.40
   4   3 -11   30.30   10.00
  -4  -3 -11    8.70    7.10
  -4  -3 -11    4.80    7.50
   4  -3  11   -3.80    7.70
   4  -3  11   16.90   10.50
  -4  -4   0  309.47   14.60
   4   4   0  286.77   14.30
  -4   4   0  295.17   14.40
   4   4   0  290.97   14.40
  -4  -4   0  283.97   14.90
   4  -4   0  266.77   14.50
   4  -4   0  280.47   15.00
  -4  -4   0  277.37   14.50
  -4   4   0  290.87   14.70
   4   4   0  292.57   14.70
   4  -4   0  297.97   14.60
   4   4   0  290.77   14.40
  -4   4   0  271.57   14.30
   4   4   0  292.57   14.60
  -4  -4   0  295.57   14.80
   4  -4   0  278.37   14.10
   4   4   0  308.17   14.80
   4  -4   0  292.57   14.30
  -4  -4   0  287.77   14.60
  -4   4   0  291.17   14.80
  -4  -4   0  292.57   14.70
   4  -4  -2 1246.18   60.19
   4  -4  -2 1232.08   60.39
  -4  -4   2 1215.68   60.39
   4  -4  -2 1279.47   60.29
  -4   4  -2 1227.98   59.99
  -4  -4   2 1255.67   60.19
   4  -4  -2 1209.88   60.19
   4   4   2 1242.08   59.89
   4   4   2 1250.87   60.39
   4   4   2 1286.57   60.29
  -4   4  -2 1186.58   59.89
  -4   4  -2 1302.57   60.49
   4   4   2 1228.08   59.99
  -4  -4   2 1306.07   60.39
  -4  -4   2 1214.78   60.09
  -4   4  -2 1218.18   60.39
  -4   4  -2 1221.18   59.99
  -4  -4   2 1260.47   60.29
   4   4   2 1220.28   59.99
   4   4   2 1201.68   60.19
  -4  -4  -2 1189.28   60.09
  -4   4   2 1253.97   59.99
   4   4  -2 1215.38   60.19
   4  -4   2 1226.88   60.09
  -4  -4  -2 1223.98   59.89
  -4   4   2 1222.48   60.29
  -4   4   2 1193.78   59.99
  -4  -4  -2 1227.28   60.09
  -4   4   2 1158.48   59.99
   4   4  -2 1213.78   60.29
   4   4  -2 1279.37   60.39
   4   4  -2 1212.08   59.69
   4   4  -2 1237.28   59.99
   4  -4   2 1270.97   60.49
  -4  -4  -2 1271.67   60.19
   4   4  -2 1226.38   59.99
   4  -4   2 1211.78   60.09
   4   4  -2 1250.07   60.09
  -4  -4  -2 1238.18   60.29
   4  -4   2 1251.57   60.09
   4   4   4  128.79    7.40
  -4   4  -4  145.59    7.50
   4   4   4  126.79    7.40
  -4   4  -4  136.49    7.70
   4  -4  -4  132.69    7.60
   4  -4  -4  121.79    7.50
  -4  -4   4  130.49    7.60
   4  -4  -4  132.49    7.90
   4   4   4  129.59    8.10
   4   4   4  126.69    6.90
  -4  -4   4  126.79    7.80
  -4   4  -4  132.69    7.40
   4   4   4  125.69    7.60
  -4  -4   4  131.69    7.50
  -4   4  -4  139.09    8.30
   4  -4  -4  130.39    8.00
   4   4   4  130.09    8.20
  -4  -4   4  130.79    8.30
  -4   4   4  128.79    7.50
  -4   4   4  132.79    6.80
  -4  -4  -4  131.29    7.70
   4  -4   4  139.39    8.20
   4   4  -4  135.39    8.20
   4   4  -4  131.79    7.50
  -4  -4  -4  126.79    7.80
   4  -4   4  129.49    7.50
   4   4  -4  132.89    7.30
   4   4  -4  135.59    7.40
   4   4  -4  149.49    7.20
  -4  -4  -4  133.29    7.50
  -4   4   4  130.49    7.80
  -4   4   4  125.89    6.80
   4  -4   4  127.19    7.80
   4   4  -4  144.69    7.30
  -4  -4  -4  132.59    8.00
  -4   4   4  127.79    7.60
  -4   4   4  142.59    7.90
  -4  -4  -4  133.09    7.70
   4  -4   4  132.09    7.70
   4   4  -4  130.19    7.60
   4   4   6  137.09    7.70
  -4  -4   6  127.09    9.10
  -4  -4   6  143.79    7.60
  -4   4  -6  153.18    9.60
   4  -4  -6  160.38    9.60
   4   4   6  152.88    9.30
  -4   4  -6  149.99    9.30
   4   4   6  141.19    9.10
   4  -4  -6  152.88    9.20
  -4  -4   6  153.18    9.50
  -4   4  -6  140.89    9.70
  -4  -4   6  156.18    9.50
  -4   4  -6  156.68    8.70
   4   4   6  155.48    8.90
   4  -4  -6  161.68    9.30
   4  -4  -6  163.78    9.60
   4  -4   6  133.39    9.30
   4  -4   6  140.99    9.40
   4   4  -6  147.09    9.30
  -4   4   6  156.08    8.80
  -4  -4  -6  170.58    8.80
  -4  -4  -6  158.18    9.60
  -4  -4  -6  150.88    9.50
   4   4  -6  147.99    9.30
  -4   4   6  149.19    9.00
  -4  -4  -6  154.88    9.60
   4  -4   6  144.29    9.20
  -4   4   6  144.99    9.00
   4   4  -6  146.99    9.50
   4  -4   6  145.49    9.40
  -4   4   6  132.39    9.10
   4   4  -6  140.39    8.60
  -4  -4  -6  156.98    9.30
   4   4   8  178.78   11.30
   4  -4  -8  141.19   10.00
  -4   4  -8  180.78   11.10
   4   4   8  142.29    8.30
  -4  -4   8  184.98   11.90
   4  -4  -8  176.48   11.40
  -4  -4   8  146.99   10.40
  -4  -4   8  154.88   10.30
   4   4   8  149.29   10.50
   4  -4  -8  148.19    9.70
  -4  -4   8  152.88   10.00
   4   4   8  149.29   10.30
  -4   4  -8  146.19    9.70
   4   4   8  146.69    9.80
   4  -4  -8  142.49   10.50
  -4   4  -8  146.59   10.20
  -4   4  -8  139.79   10.70
   4   4  -8  171.38   10.90
   4  -4   8  147.39   10.50
   4   4  -8  150.98   10.00
  -4  -4  -8  121.99    9.40
  -4   4   8  162.48    9.90
  -4  -4  -8  157.58   10.90
   4  -4   8  150.48   10.60
   4   4  -8  177.58   11.20
   4   4  -8  144.49   10.00
  -4  -4  -8  143.09    9.80
  -4   4   8  145.19   10.40
   4  -4   8  143.89   10.20
  -4   4   8  147.49   10.10
   4  -4   8  145.39   10.80
   4   4  -8  150.68    9.90
  -4  -4  -8  144.69    9.20
   4  -4   8  171.28   11.00
  -4  -4  -8  177.08   10.90
  -4   4   8  151.68   10.30
   4   4  10   68.69    7.60
  -4  -4  10   69.69    8.20
  -4   4 -10   86.09   10.80
   4   4  10   68.39    6.40
   4   4  10   83.59   11.80
  -4  -4  10   81.19   10.20
  -4  -4  10   79.19    8.70
   4   4  10   70.09    8.30
   4   4  10   95.49   11.10
  -4   4 -10   68.09    8.00
  -4  -4  10   72.09   11.10
   4  -4 -10   68.39    8.90
  -4   4  10   70.79    8.70
   4  -4  10   76.89   11.10
  -4  -4 -10   72.49    7.80
  -4   4  10   88.99   11.20
   4   4 -10   80.79    8.10
   4   4 -10   71.59    6.40
  -4   4  10   72.19    8.90
  -4  -4 -10   69.39    7.50
   4   4 -10   80.29   10.30
   4   4 -10   79.89    8.90
  -4   4  10   73.39    8.50
  -4  -5   1   78.59    5.20
  -4  -5   1   91.19    4.80
   4  -5  -1   80.59    4.90
  -4   5  -1   88.19    4.40
  -4  -5   1   86.69    5.00
   4   5   1   77.09    5.00
  -4   5  -1   74.89    4.30
  -4  -5   1   82.99    5.60
   4  -5  -1   79.39    4.40
  -4   5  -1   73.89    5.30
   4   5   1   85.49    4.90
   4  -5  -1   79.69    5.60
  -4   5  -1   78.19    5.30
   4   5   1   79.39    4.30
   4   5   1   85.79    4.70
   4  -5  -1   74.19    4.60
   4   5   1   92.99    4.50
  -4  -5   1   72.79    4.80
  -4  -5  -1   76.49    5.20
   4  -5   1   84.59    4.80
   4  -5   1   78.89    4.80
  -4   5   1   88.59    4.40
  -4   5   1   77.79    4.70
   4   5  -1   87.19    5.30
  -4   5   1   79.39    5.40
   4   5  -1   72.49    4.40
   4   5  -1   80.69    5.10
   4   5  -1   91.59    4.30
  -4  -5  -1   76.19    4.60
   4   5  -1   80.49    4.30
   4  -5   1   73.29    4.70
  -4  -5  -1   78.89    4.80
  -4  -5  -1   84.69    5.40
  -4  -5  -1   78.69    4.10
   4  -5   1   76.39    5.20
  -4   5   1   80.89    4.50
  -4  -5  -1   73.99    4.70
  -4  -5  -1   76.39    5.30
   4  -5  -3   84.59    6.50
  -4   5  -3   90.89    6.60
   4   5   3   83.29    4.80
  -4  -5   3   87.39    5.40
   4   5   3   84.29    5.80
   4  -5  -3   87.49    5.40
   4  -5  -3   84.09    5.50
  -4   5  -3   84.89    5.70
  -4  -5   3   85.99    5.80
  -4   5  -3   77.49    5.00
   4  -5  -3   83.79    5.40
  -4  -5   3   85.09    5.80
  -4   5  -3   85.49    5.00
   4   5   3   88.89    4.60
   4   5   3   86.59    6.00
  -4  -5   3   87.29    5.40
  -4  -5   3   85.69    6.40
   4   5   3   81.79    5.60
   4  -5   3   87.09    5.40
  -4  -5  -3   99.99    5.40
   4   5  -3   85.39    5.60
  -4   5   3   84.89    4.90
  -4   5   3   79.09    4.70
   4   5  -3   85.69    4.90
   4  -5   3   81.79    5.70
   4   5  -3   87.79    6.20
  -4   5   3   86.39    5.80
  -4  -5  -3   85.19    5.60
   4  -5   3   81.39    5.70
  -4  -5  -3   87.29    5.50
  -4  -5  -3   87.39    6.10
  -4  -5  -3   85.39    5.70
   4   5  -3   88.69    4.90
   4  -5   3   87.39    5.50
   4   5  -3   87.09    5.30
   4   5  -3   82.09    4.70
  -4   5   3   97.39    5.20
   4   5   5    3.00    2.10
   4  -5  -5    2.00    3.50
   4   5   5    3.40    3.90
  -4   5  -5    1.80    4.00
  -4  -5   5    1.40    3.50
  -4   5  -5    3.60    2.10
  -4  -5   5    0.90    3.20
   4   5   5    2.10    2.80
   4   5   5    3.40    0.70
  -4   5  -5    2.30    2.70
  -4  -5   5    8.90    3.10
   4  -5  -5    2.80    2.70
   4  -5  -5    2.20    2.40
  -4   5  -5    3.40    2.30
  -4   5  -5    3.20    3.70
   4  -5  -5    1.80    3.00
   4   5   5    2.60    2.80
   4   5  -5    0.90    1.80
   4   5  -5    2.50    3.10
  -4  -5  -5   -1.30    2.80
   4   5  -5    2.20    2.30
   4   5  -5    2.40    2.10
  -4  -5  -5    1.60    3.50
  -4   5   5    3.10    2.30
   4   5  -5    3.90    2.60
  -4  -5  -5    1.50    2.90
   4  -5   5    2.30    3.30
  -4   5   5    3.00    2.70
  -4   5   5    1.60    2.30
  -4  -5  -5   -0.60    3.00
   4  -5   5    1.60    3.00
   4   5  -5    0.10    4.00
   4   5  -5    0.40    1.80
   4  -5   5    7.20    3.30
  -4   5   5    2.10    1.30
   4  -5   5    6.90    2.50
  -4   5   5    2.40    3.10
  -4  -5  -5    0.70    2.60
   4  -5  -7   31.80    4.70
   4  -5  -7   26.10    4.80
  -4   5  -7   28.10    5.40
   4   5   7   26.50    4.60
   4   5   7   23.50    5.30
  -4   5  -7   11.20    4.60
  -4  -5   7   18.10    2.60
  -4  -5   7   29.20    5.00
   4   5   7   22.20    4.90
  -4  -5   7   22.40    4.90
  -4   5  -7   18.10    3.60
  -4   5  -7   32.20    5.70
  -4  -5   7   27.40    4.80
  -4   5  -7   26.50    5.00
   4   5   7   20.80    2.40
   4  -5  -7   23.20    4.50
   4  -5  -7   24.20    4.80
  -4  -5   7   25.00    5.00
   4   5   7   26.70    4.40
   4  -5   7   25.20    4.60
   4  -5   7   21.80    4.90
  -4   5   7   30.60    4.90
   4   5  -7   23.20    5.10
   4   5  -7   36.60    6.60
   4   5  -7   27.70    3.50
   4  -5   7   27.00    4.60
   4  -5   7   24.30    5.50
  -4   5   7   22.10    3.30
  -4  -5  -7   14.30    4.70
  -4  -5  -7   30.40    4.10
   4  -5   7   24.70    4.80
  -4   5   7   25.80    4.90
  -4   5   7   21.40    3.60
  -4  -5  -7   23.20    4.80
   4   5  -7   22.80    4.40
  -4  -5  -7   21.20    4.70
   4   5   9    3.10    1.80
  -4  -5   9    5.50    6.80
  -4   5  -9   -4.00    4.60
  -4  -5   9   -1.70    5.10
  -4   5  -9    4.00    4.30
   4  -5  -9    6.20    6.40
  -4   5  -9   -0.70    4.70
   4  -5  -9   -1.80    4.80
   4  -5  -9   -0.60    5.70
  -4   5  -9   -8.70    8.30
  -4   5  -9   15.20    6.30
   4   5   9    5.10    4.20
   4  -5  -9   -1.90    4.40
  -4  -5   9    0.30    4.60
  -4  -5  -9    1.50    3.40
   4   5  -9    1.00    4.80
   4  -5   9    4.10    7.00
   4  -5   9   -2.00    4.60
   4  -5   9    0.80    6.80
  -4  -5  -9   -0.90    5.40
  -4   5   9    3.10    3.60
   4   5  -9   -1.30    5.00
   4   5  -9   11.60    2.90
  -4  -5  -9    6.00    4.80
   4   5  -9    2.20    4.60
   4   5  -9    2.50    4.90
   4  -5   9    1.50    5.00
  -4   5   9    1.10    4.80
  -4   5   9   13.60    6.40
  -4   5   9   24.80    6.20
   4  -6   0 2016.40   96.19
   4   6   0 1992.60   96.29
  -4  -6   0 2090.39   96.49
  -4  -6   0 1963.80   96.19
  -4  -6   0 1953.50   96.29
  -4   6   0 1987.70   96.49
   4   6   0 1938.21   96.59
  -4  -6   0 1990.20   96.69
   4  -6   0 1962.60   95.99
  -4  -6   0 1885.51   96.19
  -4   6   0 2001.30   96.69
   4  -6   0 1896.71   96.19
   4  -6   0 1977.00   96.79
   4  -6   0 1983.60   96.69
   4  -6   0 1969.60   95.99
   4   6   0 1968.40   96.29
  -4  -6   0 2003.00   96.59
   4   6   0 2095.69   96.59
   4   6   0 2020.90   96.49
   4   6   2   63.69    3.70
  -4  -6   2   73.29    4.80
   4  -6  -2   73.89    4.60
  -4   6  -2   55.09    3.90
  -4  -6   2   57.09    4.20
  -4  -6   2   65.19    4.60
   4  -6  -2   65.59    4.50
   4   6   2   67.79    4.60
   4   6   2   63.79    4.00
   4  -6  -2   70.69    5.50
  -4   6  -2   62.99    5.10
   4   6   2   66.89    3.80
   4   6   2   63.59    5.60
  -4   6  -2   61.19    5.10
   4   6   2   67.69    4.70
  -4  -6   2   69.49    4.30
  -4  -6   2   82.89    5.70
   4   6  -2   62.69    4.50
  -4  -6  -2   78.19    5.00
   4  -6   2   66.89    4.30
   4  -6   2   67.29    4.80
  -4  -6  -2   65.79    4.90
  -4   6   2   63.89    4.20
  -4  -6  -2   80.59    4.60
   4  -6   2   67.59    4.30
  -4  -6  -2   64.69    4.50
  -4   6   2   66.19    3.90
   4   6  -2   66.29    5.10
   4   6  -2   79.99    4.90
  -4   6   2   62.69    3.70
  -4  -6  -2   66.99    4.10
   4   6  -2   68.39    5.40
  -4   6   2   71.09    4.60
   4   6   4  493.75   24.10
  -4  -6   4  463.15   24.80
   4   6   4  510.65   24.70
  -4  -6   4  480.65   24.30
  -4   6  -4  487.45   23.80
  -4  -6   4  487.85   24.90
   4  -6  -4  459.85   24.40
  -4  -6   4  467.55   23.50
   4   6   4  479.25   24.50
   4  -6  -4  509.55   24.40
  -4  -6   4  483.05   24.50
  -4   6  -4  482.95   25.10
   4  -6  -4  508.95   24.70
  -4  -6   4  482.85   24.90
   4   6   4  497.95   25.00
   4  -6  -4  501.05   24.90
  -4   6  -4  456.15   23.80
  -4  -6   4  463.05   24.80
   4   6   4  484.75   24.00
  -4   6  -4  476.85   24.30
  -4   6  -4  479.45   24.80
  -4   6  -4  476.65   24.80
  -4   6   4  464.55   23.70
  -4   6   4  489.35   24.50
   4  -6   4  473.95   24.90
   4  -6   4  485.75   25.00
   4   6  -4  480.55   23.80
  -4  -6  -4  476.25   24.60
   4   6  -4  511.45   24.10
   4   6  -4  493.15   24.90
   4   6  -4  463.75   24.20
  -4  -6  -4  489.95   24.60
  -4  -6  -4  483.05   24.50
  -4  -6  -4  501.55   24.30
  -4  -6  -4  503.45   24.60
   4   6  -4  485.95   25.00
   4   6  -4  474.05   23.80
  -4   6   4  502.85   24.10
   4  -6   4  481.45   23.70
  -4   6   4  491.65   24.10
   4   6  -4  476.45   24.20
   4  -6   4  491.35   24.40
   4  -6   4  492.25   24.50
  -4  -6   6   35.30    5.80
   4   6   6   39.60    4.30
  -4  -6   6   40.50    5.90
   4  -6  -6   41.30    5.40
   4   6   6   39.20    5.90
   4   6   6   40.50    5.40
   4  -6  -6   34.70    6.00
  -4   6  -6   48.00    6.00
  -4  -6   6   46.60    5.90
  -4  -6   6   43.40    6.00
  -4   6  -6   38.60    5.50
  -4   6  -6   42.60    4.50
  -4   6  -6   42.20    4.10
   4   6   6   46.70    6.70
  -4   6  -6   39.20    6.00
   4  -6  -6   43.10    5.40
   4  -6  -6   45.60    5.30
  -4  -6  -6   43.30    4.90
   4   6  -6   43.70    5.80
   4   6  -6   44.80    6.10
   4  -6   6   48.60    5.90
   4  -6   6   43.40    5.70
   4   6  -6   42.20    4.80
  -4   6   6   40.40    4.30
  -4  -6  -6   42.90    5.90
   4   6  -6   41.40    4.50
   4  -6   6   45.80    5.70
   4  -6   6   37.10    5.80
  -4  -6  -6   42.70    4.80
  -4   6   6   43.40    4.40
  -4   6   6   42.20    6.00
   4   6  -6   41.00    4.10
  -4  -6  -6   24.60    6.40
   4  -6   6   41.70    5.90
   4   6  -6   53.99    5.40
  -4   6   6   39.70    3.40
   4  -6  -8  114.29    9.50
   4  -6  -8  122.79    9.20
   4  -6  -8  151.38   10.90
   4   6   8  106.09   11.80
  -4   6  -8  125.49    9.40
  -4  -6   8  122.89    9.50
  -4   6  -8  115.89    9.30
  -4   6  -8   96.09    8.80
  -4  -6   8  123.29    9.30
   4   6   8  119.59    8.90
  -4  -6   8  110.39    6.50
  -4  -6   8  113.19   12.60
   4  -6  -8  129.59    9.40
  -4   6  -8  100.49    9.10
   4   6   8  124.99    9.50
  -4   6  -8  132.99    9.20
   4  -6   8  124.49    9.60
   4   6  -8  125.29   12.30
   4  -6   8  118.09    9.70
   4   6  -8  117.79    7.50
   4   6  -8  122.89    9.20
  -4  -6  -8  111.69   10.10
  -4   6   8  122.49    7.70
   4  -6   8  100.29   12.50
   4  -6   8  150.08   10.40
   4   6  -8  117.19    9.20
   4   6  -8  117.99    8.90
  -4   6   8  149.49   10.60
  -4  -6  -8  105.09    8.00
   4  -6   8  107.89   12.10
   4   6  -8  103.19    9.20
  -4  -6  -8  122.59    9.00
  -4   6   8  119.79    8.90
  -4   6 -10   34.10    8.90
   4  -6 -10   57.49    9.90
   4   6  10   68.29   12.80
  -4   6 -10   47.90    6.30
  -4   6 -10   56.99    9.20
  -4   6 -10   52.29    7.20
  -4  -6  10   55.09    9.50
  -4  -6  10   44.40    7.20
   4   6  10   44.00    8.60
   4   6  10   44.70    6.80
   4   6 -10   44.50    7.70
   4   6 -10   40.80    6.20
   4  -6  10   24.80    9.40
  -4   6  10   49.20    9.30
  -4   6  10   49.00    7.20
  -4   6  10   46.90   10.80
  -4  -6 -10   41.70    8.90
  -4  -6 -10   47.90    6.70
   4   6 -10   66.59    8.60
   4   6 -10   41.90    6.50
   4  -6  10   83.19   14.40
   4   6 -10   70.79   11.20
  -4   6  10   47.50    6.50
   4  -6  10   41.40    9.10
  -4  -7   1   74.69    5.20
  -4  -7   1   76.99    4.80
   4  -7  -1   68.29    4.60
   4   7   1   80.79    6.00
  -4  -7   1   71.59    4.50
   4   7   1   72.99    5.40
   4  -7  -1   79.19    6.30
   4  -7  -1   75.09    4.70
   4   7   1   76.19    4.70
  -4  -7   1   80.89    6.10
   4   7   1   71.09    5.30
   4   7   1   72.09    5.10
  -4   7  -1   77.19    5.80
  -4  -7   1   66.89    5.20
   4  -7  -1   70.49    4.60
  -4   7  -1   67.79    5.70
   4  -7   1   67.79    4.40
  -4  -7  -1   76.39    4.70
  -4  -7  -1   69.89    5.40
  -4  -7  -1   77.09    4.90
  -4   7   1   73.79    5.60
   4  -7   1   74.89    4.70
   4   7  -1   84.69    5.00
  -4  -7  -1   68.99    4.60
   4   7  -1   79.29    6.00
  -4  -7  -1   77.39    4.20
   4  -7   1   77.59    4.80
  -4  -7  -1   69.79    4.50
   4   7  -1   74.39    5.30
   4  -7   1   75.89    6.10
  -4  -7  -1   74.99    5.70
  -4   7   1   78.59    5.40
   4   7  -1   73.19    4.50
  -4  -7   3    5.00    2.00
   4  -7  -3    3.00    1.90
   4   7   3    4.30    1.30
  -4  -7   3    2.60    3.30
  -4   7  -3    3.80    3.80
  -4  -7   3    5.00    4.00
   4   7   3    3.30    0.80
   4  -7  -3    3.20    2.70
   4   7   3    3.70    3.10
  -4  -7   3    4.50    3.80
  -4   7  -3    4.00    2.70
  -4  -7   3    2.10    1.80
  -4  -7   3    2.00    2.80
   4   7   3    3.80    3.40
   4  -7  -3   -2.00    3.90
   4   7   3    4.90    3.20
  -4   7  -3    2.40    3.40
   4  -7  -3    0.30    2.50
  -4  -7   3    1.50    1.40
  -4   7  -3    0.30    2.70
  -4  -7   3    1.60    2.90
  -4  -7  -3    3.60    2.70
   4   7  -3    4.80    1.80
   4   7  -3    3.10    3.10
   4  -7   3    3.60    3.60
  -4   7   3    3.60    2.00
   4   7  -3    6.70    3.20
   4   7  -3    3.60    1.40
   4  -7   3    2.90    2.10
  -4   7   3    3.30    1.20
  -4   7   3    4.00    1.20
   4  -7   3    2.20    2.10
  -4  -7  -3    2.70    2.30
  -4  -7  -3    2.40    3.40
   4  -7   3    2.40    2.70
   4   7  -3   -0.20    1.80
  -4  -7  -3    1.60    2.20
   4   7   5   12.70    2.20
  -4  -7   5   11.30    1.80
   4  -7  -5   13.20    3.10
  -4  -7   5   14.80    3.90
  -4   7  -5   13.00    2.00
  -4  -7   5   18.30    4.40
   4   7   5   10.80    4.20
   4  -7  -5   15.30    4.50
  -4  -7   5   14.60    4.70
  -4   7  -5   18.20    4.90
  -4  -7   5    9.70    3.80
  -4   7  -5   16.70    4.20
  -4   7  -5   12.20    3.40
  -4   7  -5   11.50    1.90
   4  -7  -5   13.50    3.80
  -4  -7   5   15.00    3.80
  -4  -7   5   13.00    3.60
   4   7   5   22.50    5.10
   4   7  -5   12.30    1.90
   4   7  -5   14.00    2.20
   4  -7   5   15.50    4.10
   4   7  -5   17.20    3.00
   4   7  -5   12.70    4.20
  -4   7   5   13.20    3.10
  -4   7   5   14.30    3.00
   4   7  -5   15.10    3.80
   4  -7   5   12.20    4.30
  -4  -7  -5   12.70    3.80
  -4  -7  -5   12.60    4.50
  -4   7   5   16.60    2.70
   4  -7   5   17.20    5.00
   4   7  -5   13.90    2.80
  -4  -7  -5   13.70    3.70
   4  -7   5   11.90    3.80
  -4  -7  -5   14.40    4.10
   4  -7   5   11.50    1.30
  -4  -7   7   15.10    4.60
  -4   7  -7   14.90    6.20
  -4   7  -7   16.10    5.00
  -4  -7   7   17.00    4.50
   4   7   7   20.40    3.90
   4  -7  -7   18.60    5.00
  -4   7  -7   13.60    3.60
  -4   7  -7   13.30    3.20
   4  -7  -7   12.20    4.30
  -4  -7   7   19.10    5.00
   4   7   7   32.20    6.80
   4   7   7   16.40    4.70
  -4   7  -7   22.00    5.10
   4   7   7   12.80    3.70
   4  -7  -7   13.40    4.90
   4  -7  -7   11.10    4.40
  -4  -7  -7   20.50    6.10
   4   7  -7   14.20    4.40
   4  -7   7   22.70    5.20
   4  -7   7   14.80    4.50
   4   7  -7   22.80    3.00
  -4   7   7   13.20    4.10
  -4   7   7   14.30    4.80
  -4  -7  -7   13.00    4.70
  -4  -7  -7   15.50    4.70
   4  -7   7   15.60    5.50
   4  -7   7   18.00    4.80
  -4  -7  -7   13.00    4.90
   4   7  -7   13.10    4.80
  -4  -7  -7    8.80    4.50
  -4   7   7   14.10    2.50
  -4   7   7   10.70    4.60
   4   7  -7   13.40    3.60
   4   7   9    5.10    5.10
  -4  -7   9    6.90    5.20
  -4   7  -9    3.40    7.90
   4   7   9    1.00    5.50
  -4  -7   9   -1.20    8.20
  -4   7  -9    4.40    5.30
   4  -7  -9    7.20    5.90
   4  -7  -9   -0.90    7.10
  -4   7  -9    5.70    5.60
  -4   7  -9    6.60    9.30
  -4   7  -9    3.70    4.20
  -4  -7  -9    4.90    4.90
  -4  -7  -9    2.30    6.80
   4   7  -9   -0.20    4.80
   4   7  -9    3.80    5.10
  -4   7   9    2.80    5.30
   4  -7   9   18.30    8.60
   4   7  -9    4.40    5.40
  -4   7   9   -1.30    3.30
  -4   7   9   12.90    5.70
   4   7  -9   10.60    3.10
  -4  -8   0  112.59    6.50
   4  -8   0  119.09    8.30
  -4   8   0  118.59    8.70
   4   8   0  115.69    7.90
   4   8   0  115.39    7.10
   4   8   0  117.59    7.00
  -4  -8   0  115.69    7.70
   4  -8   0  119.89    6.50
  -4  -8   0  114.09    7.50
   4  -8   0  122.79    6.80
   4   8   0  118.09    8.30
   4  -8   0  120.19    8.20
   4  -8   0  119.69    6.80
  -4  -8   0  110.09    6.10
  -4  -8   0  117.89    7.90
  -4   8   0  116.89    7.50
  -4  -8   0  138.79    6.80
  -4  -8   0  105.39    7.30
   4   8   2  519.75   25.70
  -4  -8   2  490.25   24.70
  -4  -8   2  504.35   24.80
  -4  -8   2  475.75   24.30
   4  -8  -2  499.35   24.80
  -4   8  -2  501.05   25.60
   4   8   2  475.85   25.30
  -4  -8   2  510.75   25.60
   4  -8  -2  507.45   25.70
   4   8   2  502.35   25.30
  -4   8  -2  488.65   25.60
   4  -8  -2  474.35   24.90
  -4  -8   2  524.85   25.60
   4   8   2  457.85   25.40
   4  -8  -2  503.35   24.80
  -4  -8   2  486.35   25.60
  -4  -8   2  497.95   24.70
  -4  -8   2  515.45   25.30
   4  -8   2  494.85   25.70
   4  -8   2  503.95   24.80
  -4   8   2  491.05   25.80
   4  -8   2  508.15   24.70
   4   8  -2  518.55   25.40
  -4  -8  -2  498.55   24.60
   4   8  -2  495.65   25.20
  -4  -8  -2  493.65   24.80
  -4   8   2  495.95   25.10
   4  -8   2  492.75   25.70
   4  -8   2  484.05   24.80
  -4  -8  -2  483.45   24.40
  -4  -8  -2  499.05   25.20
  -4  -8  -2  498.15   25.40
   4   8  -2  506.45   25.30
  -4  -8  -2  491.35   25.00
  -4  -8  -2  518.55   25.60
  -4   8  -4   13.10    3.70
   4  -8  -4   10.30    4.00
  -4   8  -4   12.10    4.70
   4  -8  -4   14.50    4.40
  -4  -8   4   13.50    2.80
  -4  -8   4   14.70    3.80
   4  -8  -4   12.70    3.40
  -4  -8   4   10.60    2.20
  -4  -8   4   14.20    2.00
   4  -8  -4   11.60    2.90
  -4  -8   4   13.30    3.90
  -4   8  -4   16.40    4.50
  -4  -8   4    9.80    3.60
  -4  -8   4   15.20    4.00
  -4   8  -4   14.00    3.00
  -4  -8  -4   13.60    3.80
   4  -8   4   16.90    4.20
   4   8  -4   12.70    2.80
  -4  -8  -4   10.90    4.00
   4   8  -4   10.90    2.80
   4   8  -4   13.50    4.60
  -4   8   4    6.80    3.70
   4  -8   4   15.60    4.10
  -4  -8  -4   13.80    3.30
   4   8  -4   13.60    3.40
   4   8  -4    8.40    3.80
   4  -8   4   11.10    2.90
  -4  -8  -4   23.20    3.90
  -4  -8  -4   13.40    3.70
   4  -8   4   10.40    3.80
  -4   8  -6   63.99    6.40
  -4  -8   6   59.29    7.70
  -4  -8   6   56.29    3.90
   4  -8  -6   61.69    6.70
   4   8   6   61.49    5.00
  -4  -8   6   59.49    7.00
  -4   8  -6   49.50    6.30
   4  -8  -6   56.09    7.00
  -4   8  -6   57.29    7.70
  -4  -8   6   63.99    6.90
  -4   8  -6   51.09    6.20
  -4  -8   6   83.09    8.30
   4   8   6   78.09    8.40
   4  -8  -6   62.69    7.00
   4   8   6   63.29    6.60
   4   8   6   72.89    5.50
   4  -8  -6   54.79    6.30
   4  -8   6   60.99    7.10
  -4   8   6   58.19    5.10
  -4  -8  -6   62.19    5.70
   4   8  -6   65.49    6.90
  -4   8   6   60.39    6.00
   4   8  -6   68.09    8.30
   4   8  -6   61.79    7.40
  -4  -8  -6   68.49    7.60
  -4  -8  -6   72.79    7.50
   4  -8   6   66.99    7.10
  -4  -8  -6   47.00    7.70
   4  -8   6   57.29    7.40
  -4  -8  -6   80.09    7.70
   4   8  -6   43.40    5.70
  -4   8  -8   14.90    4.50
  -4   8  -8   22.60    6.00
   4   8   8   16.90    5.30
   4   8   8   17.30    5.30
  -4  -8   8   21.70    8.30
   4  -8  -8   25.40    6.90
  -4  -8   8   22.20    5.60
  -4   8  -8   17.70    2.80
   4  -8  -8   13.00    5.50
   4  -8  -8   18.20    5.90
  -4  -8   8   20.90    6.00
  -4   8  -8    2.60    8.50
   4   8   8   21.40    8.50
   4   8  -8   19.80    5.20
  -4  -8  -8   20.50    5.30
   4  -8   8   27.30    6.20
  -4   8   8   13.70    4.30
  -4  -8  -8   20.30    7.40
   4  -8   8   15.50    7.80
   4   8  -8   25.80    6.50
  -4   8   8   24.00    6.00
  -4   8   8   16.70    5.30
   4  -8   8   13.70    5.70
   4   8  -8   14.70    2.90
  -4  -8  -8   18.40    6.60
  -4   8   8   17.40    2.40
   4   8  -8   16.50    7.80
  -4  -8  -8   17.50    5.30
   4  -9  -1    2.50    1.30
  -4  -9   1    2.40    1.80
  -4   9  -1    1.90    2.40
  -4  -9   1    2.00    3.60
  -4  -9   1    5.60    3.30
   4  -9  -1    2.60    1.00
   4  -9  -1    1.10    2.50
  -4  -9   1    3.00    3.50
   4  -9  -1    2.90    2.40
   4   9   1    0.50    2.40
  -4  -9   1    3.30    1.50
   4  -9  -1    3.30    3.40
  -4   9  -1    1.50    3.90
  -4  -9   1    0.10    1.50
  -4  -9   1    3.70    3.50
   4  -9  -1    8.30    5.70
  -4  -9   1    5.20    3.90
  -4  -9  -1    1.00    2.00
  -4  -9  -1    2.10    2.20
  -4   9   1    3.10    2.40
   4  -9   1    2.80    2.00
  -4  -9  -1   -0.10    1.40
   4  -9   1    1.40    2.40
  -4  -9  -1    0.80    3.40
   4  -9   1   -0.70    4.80
  -4  -9  -1    3.80    3.20
   4   9  -1    3.20    4.10
  -4   9   1    0.80    3.10
  -4  -9  -1    2.20    3.50
   4  -9   1    2.80    3.90
  -4  -9  -1    3.80    2.10
   4  -9   1    0.80    1.90
   4  -9   1    5.50    3.90
   4  -9  -3   30.40    4.80
  -4   9  -3   26.60    4.30
  -4  -9   3   27.10    4.50
   4  -9  -3   23.40    4.10
  -4  -9   3   23.40    4.20
   4   9   3   27.70    4.40
  -4  -9   3   23.60    4.20
  -4  -9   3   35.20    5.50
  -4   9  -3   33.30    5.60
  -4  -9   3   34.00    5.20
  -4  -9   3   27.80    4.70
   4  -9  -3   29.90    5.40
   4  -9  -3   23.00    3.80
  -4  -9   3   23.40    3.70
  -4  -9  -3   22.60    3.90
   4   9  -3   31.10    5.20
  -4  -9  -3   29.80    4.80
   4  -9   3   23.70    3.90
  -4  -9  -3   24.80    4.50
   4  -9   3   26.20    4.60
   4  -9   3   29.80    4.80
  -4  -9  -3   27.90    3.50
   4   9  -3   28.70    4.50
   4   9  -3   24.40    4.50
  -4  -9  -3   24.10    4.10
   4  -9   3   24.20    3.40
   4   9  -3   27.40    4.40
  -4   9   3   21.30    3.20
   4  -9   3   36.80    5.70
  -4  -9   5   12.30    4.70
  -4  -9   5    8.80    4.10
   4  -9  -5    4.10    3.80
   4  -9  -5   12.00    4.10
  -4  -9   5    9.60    4.80
  -4   9  -5   18.20    4.90
   4   9   5   11.20    4.10
  -4  -9   5   13.70    3.20
   4  -9  -5   19.90    5.10
  -4  -9   5   11.70    4.20
  -4   9  -5   16.20    5.60
  -4   9  -5   11.90    3.20
  -4  -9   5   13.50    5.20
  -4  -9   5   12.20    3.30
  -4   9  -5   14.30    4.40
  -4  -9   5    9.60    4.10
   4  -9   5   14.70    5.20
   4  -9   5    9.20    3.90
   4   9  -5   17.60    3.50
   4   9  -5   14.80    4.40
   4   9  -5   14.30    5.20
   4   9  -5   15.00    3.50
   4  -9   5   13.20    5.50
   4  -9   5   10.60    2.30
   4  -9   5   11.40    4.50
   4   9  -5   14.20    4.30
  -4  -9  -5   12.40    4.20
  -4   9   5   10.10    4.70
   4  -9   5    4.00    3.60
  -4  -9  -5    7.70    4.30
  -4  -9  -5   10.40    4.20
  -4  -9  -5   10.80    5.00
  -4  -9   7   17.50    4.90
  -4   9  -7   14.30    5.80
  -4  -9   7    9.50    6.50
  -4   9  -7   18.70    8.50
  -4  -9   7   12.20    6.60
  -4  -9   7   18.30    5.80
   4  -9  -7   11.60    4.90
   4  -9  -7   16.50    4.70
   4  -9  -7   14.10    5.30
  -4   9  -7   16.60    4.40
   4   9   7   14.80    2.80
   4  -9  -7   15.10    5.40
  -4   9  -7   14.20    5.50
   4   9   7   13.30    4.80
  -4  -9  -7   18.60    6.80
   4  -9   7   12.00    7.70
   4   9  -7   25.30    4.40
   4   9  -7   18.30    7.60
  -4  -9  -7   13.60    5.30
  -4  -9  -7   20.50    5.10
  -4   9   7    8.50    4.00
   4  -9   7   16.30    5.00
   4   9  -7   12.70    6.40
   4  -9   7   20.70    5.30
   4  -9   7   17.00    7.30
   4   9  -7   19.50    5.30
  -4  -9  -7   21.60    5.90
   4  -9  -9    0.40    8.60
  -4   9  -9   12.00   10.00
   4   9   9   11.10    4.90
  -4  -9   9   10.60    8.40
  -4   9  -9   12.20   12.60
  -4   9  -9   12.30    9.10
  -4   9   9   33.80   13.30
   4  -9   9   27.00   12.20
   4   9  -9   16.30    5.90
   4  -9   9   18.50    8.90
  -4 -10   0   61.39    4.60
  -4 -10   0   63.09    6.60
   4 -10   0   63.99    6.00
   4  10   0   60.69    6.10
   4  10   0   43.40    5.90
  -4 -10   0   57.19    3.70
   4 -10   0   58.89    5.90
   4 -10   0   51.29    7.10
   4 -10   0   60.69    4.90
   4 -10   0   57.19    7.20
   4 -10   0   63.19    7.40
  -4 -10   0   59.19    6.70
  -4 -10   0   57.59    5.10
  -4 -10   0   59.19    6.70
  -4  10   0   54.69    5.60
  -4 -10   0   58.99    4.60
  -4  10   0   64.19    6.90
  -4  10  -2   46.50    6.30
   4  10   2   60.79    6.10
  -4 -10   2   52.79    6.70
  -4  10  -2   46.60    5.80
  -4 -10   2   55.19    6.70
   4 -10  -2   48.70    6.10
  -4 -10   2   49.30    7.00
   4 -10  -2   48.80    4.60
  -4 -10   2   50.99    6.30
   4  10   2   50.29    5.90
  -4 -10   2   53.59    5.10
  -4 -10   2   47.80    6.00
  -4 -10   2   43.40    3.40
  -4 -10   2   48.90    4.70
   4 -10  -2   48.00    5.20
   4 -10  -2   49.70    6.30
  -4 -10   2   51.29    6.60
  -4 -10  -2   49.40    4.90
   4 -10   2   37.60    5.90
   4 -10   2   48.00    7.00
   4  10  -2   48.70    5.50
  -4 -10  -2   45.30    3.70
   4 -10   2   51.39    7.40
  -4 -10  -2   66.79    6.90
  -4 -10  -2   49.80    5.60
   4 -10   2   50.29    6.50
  -4 -10  -2   53.79    6.80
   4 -10   2   49.30    5.70
   4 -10   2   52.39    5.00
  -4 -10  -2   51.09    4.70
  -4 -10  -2   42.00    3.80
  -4 -10  -2   51.59    5.10
   4 -10   2   62.09    6.90
  -4  10   2   48.30    5.40
   4  10   4   16.60    5.90
  -4 -10   4    3.50    4.60
  -4 -10   4    6.00    4.10
  -4  10  -4    8.70    5.60
   4 -10  -4    6.50    4.70
   4 -10  -4   -0.70    3.10
  -4 -10   4    3.70    4.50
  -4  10  -4    6.00    4.70
  -4 -10   4    6.50    3.50
   4 -10  -4    6.20    4.80
   4  10   4   10.90    4.00
  -4  10  -4    5.20    3.40
  -4 -10   4   17.00    4.20
  -4 -10   4    1.60    3.30
   4 -10  -4    2.40    3.60
  -4 -10   4    5.00    4.30
  -4  10   4    5.90    3.30
   4 -10   4    2.00    4.90
   4 -10   4    7.10    4.60
   4  10  -4    3.40    3.40
  -4 -10  -4    2.60    3.80
   4 -10   4    5.00    3.20
  -4 -10  -4    6.70    5.10
  -4 -10  -4   13.10    4.90
   4 -10   4    6.60    2.60
   4 -10   4   15.00    5.70
  -4 -10  -4    6.00    4.10
  -4 -10  -4    5.50    4.30
   4 -10   4   17.40    4.20
   4 -10  -6    5.30    5.10
  -4 -10   6    4.00    4.40
  -4  10  -6    8.90    8.00
  -4  10  -6    4.50    5.10
  -4 -10   6    6.70    7.10
  -4 -10   6    7.70    5.20
   4  10   6   10.50    5.40
   4 -10   6    5.80    4.90
   4 -10   6   19.20    5.30
   4 -10   6    8.10    7.70
  -4 -10  -6    5.20    5.50
  -4 -10   8   48.40    8.30
  -4  10  -8   35.00    7.20
  -4 -10   8   54.79   12.50
   4  10   8   47.40   12.00
  -4  10  -8   45.30   12.00
   4  10   8   42.00    6.90
  -4 -10   8   44.10    7.70
  -4 -10   8   31.40    9.70
   4 -10  -8   47.00    9.00
   4  10  -8   57.19    9.60
  -4 -10  -8   53.29    9.00
   4  10  -8   51.39    6.40
   4 -10   8   42.70   10.30
   4  10  -8   50.89   11.20
   4 -10   8   52.99    8.00
   4 -10   8   39.60   10.40
  -4  10   8   44.50    8.20
   4 -10   8   46.10    7.90
  -4 -11   1   -0.90    1.70
   4 -11  -1   -0.10    4.30
   4  11   1   -0.80    3.10
  -4 -11   1    0.90    4.10
  -4  11  -1    1.10    4.40
  -4 -11   1   -0.50    4.80
   4 -11  -1    1.30    1.60
   4 -11  -1   11.60    4.20
  -4 -11   1    0.70    4.40
   4 -11  -1   -1.20    4.80
  -4  11  -1   -0.70    2.70
  -4 -11   1   -2.30    4.50
  -4 -11   1    1.80    2.80
   4 -11  -1   -1.00    5.10
  -4 -11   1    2.00    4.00
   4 -11  -1    0.20    1.60
   4 -11  -1    1.90    3.60
  -4 -11   1   -1.70    4.20
   4 -11  -1    1.40    3.00
   4 -11   1    1.00    2.60
  -4 -11  -1    0.80    4.40
   4 -11   1    2.70    3.00
  -4 -11  -1    3.70    3.00
   4 -11   1    6.10    5.20
  -4 -11  -1    2.00    4.10
   4 -11   1    4.60    5.00
   4  11  -1    1.10    3.30
  -4 -11  -1    0.30    4.10
   4  11  -1   -1.50    4.50
  -4 -11  -1    0.50    3.90
   4 -11   1    3.00    3.00
  -4 -11  -1   -0.90    3.90
   4 -11   1    8.30    5.20
  -4 -11  -1    9.00    4.70
  -4  11   1   -0.90    2.90
   4 -11   1    2.10    4.20
  -4 -11  -1    1.70    2.60
   4 -11   1   10.40    4.30
  -4 -11   3   30.00    6.00
   4 -11  -3   24.30    5.90
  -4 -11   3   24.70    4.90
   4 -11  -3   20.90    4.70
  -4 -11   3   24.40    5.30
  -4 -11   3   27.40    6.00
   4  11   3   23.80    5.60
   4 -11  -3   28.40    5.80
   4 -11  -3   35.10    4.30
  -4 -11   3   28.60    5.60
  -4  11  -3   23.60    5.30
  -4 -11   3   42.70    7.10
   4  11   3   42.00    6.30
  -4 -11   3   25.70    3.50
   4 -11  -3   29.30    5.20
  -4 -11  -3   27.30    4.30
   4  11  -3   31.40    5.70
  -4 -11  -3   30.50    5.50
   4 -11   3   25.00    4.90
   4  11  -3   29.00    4.40
  -4 -11  -3   25.00    5.30
   4 -11   3   26.90    4.30
   4 -11   3   29.80    6.30
  -4 -11  -3   31.80    5.20
  -4 -11  -3   25.50    5.60
   4 -11   3   26.60    6.30
  -4  11   3   23.10    4.20
   4 -11   3   28.40    5.20
  -4 -11  -3   25.10    5.00
  -4 -11  -3   29.00    5.30
   4 -11   3   29.00    5.90
  -4 -11   5   -0.30    3.50
   4 -11  -5    4.20    4.20
  -4  11  -5    4.00    6.00
   4 -11  -5    0.50    5.00
   4 -11  -5    1.30    4.30
  -4 -11   5    4.60    4.80
  -4 -11   5   -0.60    4.70
  -4 -11   5    2.30    4.20
   4  11   5    4.80    5.60
  -4 -11   5    5.20    7.40
  -4  11  -5    1.50    5.20
  -4  11  -5   -0.90    7.80
  -4 -11  -5  -12.10    6.60
   4 -11   5   -2.60    7.70
  -4 -11  -5    0.00    4.80
   4 -11   5    2.00    4.90
   4 -11   5    0.80    3.40
  -4 -11  -5    6.10    4.70
   4  11  -5    0.30    7.50
   4  11  -5    5.40    5.40
   4 -11   5    3.10    5.00
  -4 -11  -5    9.90    5.40
  -4  11   5    1.20    5.40
  -4  11  -7   24.00    5.70
  -4 -11   7   33.20   11.20
   4  11   7   54.79   11.90
  -4 -11   7   21.00    6.50
   4 -11  -7   29.30    6.70
  -4 -11   7   26.80    7.00
   4 -11  -7   23.70    6.90
  -4  11  -7   14.30   11.30
   4  11   7   24.70    6.10
  -4 -11   7   33.70   10.80
  -4  11  -7   21.90   10.40
   4  11  -7   33.10   12.00
   4 -11   7   23.80   11.10
  -4 -11  -7   42.80    9.00
   4 -11   7    9.80    9.90
  -4 -11  -7   27.90    7.90
   4 -11   7   26.10    6.70
  -4  11   7   22.60    9.10
   4 -11   7   24.80    6.50
  -4 -11  -7   27.10    8.00
  -4 -11  -7   31.30    7.10
   4  12   0   37.80    6.30
   4 -12   0   47.20    7.50
  -4 -12   0   59.59    6.00
  -4 -12   0   45.40    7.00
   4 -12   0   43.50    5.30
   4 -12   0   42.50    6.60
  -4 -12   0   41.70    5.70
  -4 -12   0   44.50    5.10
   4 -12   0   47.60    8.20
  -4 -12   0   45.10    7.50
  -4  12   0   39.40    6.60
   4 -12   0   49.00    6.80
  -4 -12   0   51.09    6.50
   4 -12   0   44.30    6.20
   4 -12   0   42.50    4.10
   4 -12   0   41.80    5.30
  -4 -12   0   45.20    6.80
  -4 -12   2   11.40    5.50
   4 -12  -2    9.70    5.00
   4  12   2    7.90    6.70
  -4 -12   2   16.30    5.70
   4 -12  -2   12.00    5.20
   4 -12  -2   13.50    3.70
  -4 -12   2   14.30    4.40
   4 -12  -2   11.60    5.00
  -4  12  -2    5.30    6.20
  -4 -12   2   17.80    6.40
   4 -12  -2   11.30    4.70
  -4 -12   2   14.20    5.60
  -4 -12   2   11.30    3.60
   4 -12  -2    4.70    7.40
  -4 -12   2    8.60    2.30
  -4 -12  -2    9.90    5.10
   4 -12   2   13.50    4.50
  -4 -12  -2   10.30    6.60
   4 -12   2   12.70    5.60
  -4 -12  -2   12.20    3.80
  -4 -12  -2    9.70    2.30
   4 -12   2   17.20    6.30
  -4 -12  -2    9.20    4.90
  -4 -12  -2    9.30    5.10
   4 -12   2    9.10    4.00
   4 -12   2   23.70    6.80
  -4 -12  -2   12.60    5.30
  -4 -12  -2   16.80    4.00
   4 -12   2   12.90    5.40
  -4  12   2    6.20    5.20
  -4 -12  -2   11.90    3.50
   4  12  -2   11.40    4.30
   4 -12   2   11.20    3.40
   4 -12   2   17.00    5.10
   4  12   4   35.60    5.40
   4 -12  -4   40.00    6.20
  -4  12  -4   41.30    8.60
  -4 -12   4   43.80    7.20
  -4 -12   4   33.40   10.10
  -4  12  -4   28.80    4.90
   4 -12  -4   61.19    8.50
   4 -12  -4   36.50    5.60
  -4 -12   4   40.30    6.00
   4  12  -4   39.50    5.50
  -4 -12  -4   45.10    5.90
  -4 -12  -4   33.50    7.30
   4 -12   4   38.70    7.80
  -4 -12  -4   28.00    6.00
   4 -12   4   43.40    8.00
   4 -12   4   42.00    6.10
   4 -12   4   33.20    5.20
  -4  12   4   27.00    7.40
  -4 -12  -4   45.20    7.10
   4 -12   4   38.00    5.90
   4  12   6   41.70   11.40
   4 -12  -6    8.60    5.90
   4  12   6   13.10    5.60
  -4  12  -6    8.90    6.50
  -4 -12   6   35.90   10.70
  -4 -12   6   11.40    7.10
  -4  12  -6   14.80   10.60
  -4 -12   6   -5.80    9.30
  -4  12   6    6.50    5.80
   4 -12   6   15.20    7.90
   4  12  -6   12.40    5.50
   4  12  -6    8.60   10.40
  -4 -12  -6   11.70    6.30
   4 -12   6   10.80    9.50
   4 -12   6   22.70   11.30
   4 -12   6   10.40    6.20
   4 -13  -1    2.30    4.80
   4 -13  -1    5.40    6.00
   4 -13  -1    6.80    7.40
  -4 -13   1    5.40    7.10
   4 -13  -1    2.10    5.50
   4 -13  -1    3.40    5.80
  -4 -13   1    6.10    3.70
  -4 -13   1   -1.50    5.30
  -4 -13   1    6.90    5.20
  -4  13  -1    6.30    5.30
   4 -13  -1    2.70    3.30
   4  13   1    6.90    4.60
  -4 -13   1    1.80    2.20
   4  13  -1    7.20    6.50
   4 -13   1    4.40    4.30
  -4 -13  -1    2.90    3.80
   4 -13   1    2.60    5.50
  -4 -13  -1    5.20    4.60
   4 -13   1    4.00    6.40
  -4 -13  -1   -1.30    2.90
   4 -13   1    3.20    4.10
  -4  13   1    4.60    5.20
   4 -13   1    3.50    4.00
   4 -13   1   10.10    6.50
   4 -13   1    5.50    6.60
  -4 -13  -1    2.40    3.80
   4 -13   1   17.00    5.90
  -4 -13  -1    9.10    6.50
   4  13   3    4.90    5.80
   4 -13  -3   -3.50    7.10
  -4 -13   3    1.10    4.50
  -4 -13   3    3.60    6.40
  -4  13  -3    0.90    5.40
   4 -13  -3    3.00    5.60
   4 -13  -3   -0.80    5.60
   4 -13  -3   -6.40    7.90
   4 -13  -3   -1.60    5.40
   4 -13  -3   15.00    6.20
   4  13  -3    1.10    8.90
   4 -13   3   -3.40    4.50
   4 -13   3   -2.90    5.20
  -4 -13  -3    3.70    4.50
  -4  13   3    1.10    6.10
  -4 -13  -3   -0.80    5.60
   4 -13   3   11.10    5.50
  -4 -13  -3    4.90    6.30
  -4 -13  -3   14.40    6.60
  -4 -13  -3  -11.70    5.90
   4 -14   0   14.30    9.80
  -4  14  -2   18.20    4.40
   4  14   2   25.60    5.20
   4 -14  -2   20.50    7.10
  -4 -14   2   24.40    7.70
  -4 -14  -2   39.00    8.50
   4 -14   2   17.40    9.30
  -4 -14  -2   29.70    8.10
   4 -14   2   25.30    6.90
   4  14  -2   24.50    7.50
  -4  14   2   19.40    5.00
   5   0   0    1.60    1.20
  -5   0   0    0.80    1.10
  -5   0   0    0.20    1.00
   5   0   0    1.90    1.20
  -5   0   0   -1.80    1.40
   5   0   0    0.00    0.90
  -5   0   0    1.90    1.30
   5   0   0   -0.80    1.30
  -5   0  -2   -0.40    1.80
   5   0   2   -0.40    1.50
   5   0  -2   -0.50    0.90
  -5   0   2   -1.00    1.30
  -5   0  -2   -0.70    1.50
  -5   0   2    1.20    2.50
   5   0  -2    0.80    1.60
   5   0   2    1.00    2.00
  -5   0  -2   -0.10    1.50
   5   0   2    2.00    1.10
  -5   0   2    0.50    2.10
   5   0  -2   -0.20    1.50
   5   0  -2    0.10    2.00
  -5   0   2    1.10    1.50
   5   0   2   -0.60    1.50
  -5   0  -2   -0.10    2.00
  -5   0   4    1.80    1.90
  -5   0  -4    1.00    2.30
   5   0   4    1.10    1.90
  -5   0  -4   -0.20    2.50
   5   0  -4    1.00    2.90
  -5   0  -4    0.90    1.90
   5   0   4    0.50    2.00
  -5   0   4    0.80    2.00
  -5   0   4    3.10    1.90
   5   0  -4    0.40    1.80
   5   0   4   -0.30    1.60
   5   0   4   -0.30    2.70
   5   0  -4    1.40    2.50
   5   0   4    2.10    2.60
  -5   0  -4    1.30    1.90
  -5   0   4    2.70    2.60
   5   0  -4   -1.70    2.40
   5   0  -6   -0.50    3.60
   5   0   6    1.30    3.30
  -5   0  -6    1.10    3.10
  -5   0  -6   -2.10    3.10
   5   0  -6   -0.20    2.70
  -5   0   6    0.20    2.20
   5   0  -6   -0.40    3.40
   5   0   6    2.30    3.10
  -5   0  -6   -2.10    3.50
  -5   0   6    2.10    3.50
   5   0  -6    0.70    3.40
   5   0   6    2.30    3.10
  -5   0  -6    0.70    3.00
  -5   0   6   -0.30    3.10
  -5   0   6    2.90    1.60
  -5   0   6   -0.80    3.10
   5   0   6   -0.80    3.40
  -5   0   8   -3.50    4.40
   5   0  -8    1.90    4.20
   5   0   8   -0.40    3.90
  -5   0  -8   -2.00    4.40
   5   0  -8    2.10    3.80
   5   0   8    0.90    4.30
   5   0  -8   -0.80    3.80
  -5   0   8    1.40    4.50
  -5   0   8   -2.50    3.80
  -5   0   8    0.70    3.20
  -5   0  -8   -0.70    4.10
   5   0   8    1.40    3.70
  -5   0   8    1.10    3.30
  -5   0  -8    1.40    5.20
   5   0   8   -1.60    4.40
   5   0   8    1.40    3.60
   5   0  -8   -1.00    4.30
   5   0 -10    4.10    6.30
   5   0  10    3.30    5.90
  -5   0 -10    5.00    6.80
  -5   0 -10    4.40    6.70
  -5   0  10    5.40    7.40
  -5   0  10    2.60    6.30
   5   0  10   -2.40    6.50
  -5   0  10    2.40    6.10
  -5   0  10   -3.50    9.00
   5   0 -10    1.30    4.90
   5   0 -10    2.80    6.40
   5   1   1 1412.06   70.29
   5  -1  -1 1434.76   70.39
   5   1   1 1476.15   70.29
  -5   1  -1 1462.25   70.29
   5   1   1 1382.36   70.19
  -5  -1   1 1460.55   70.39
   5   1   1 1473.65   70.29
  -5   1  -1 1463.85   70.29
   5   1   1 1417.56   70.29
   5  -1  -1 1432.96   70.09
  -5  -1   1 1463.85   70.29
  -5  -1   1 1385.46   70.19
  -5  -1   1 1479.15   70.39
   5  -1  -1 1419.36   70.29
  -5  -1   1 1472.25   70.19
   5  -1  -1 1455.15   70.29
   5  -1  -1 1457.95   70.19
  -5   1  -1 1405.96   70.19
   5   1   1 1413.56   70.09
  -5   1  -1 1402.86   70.29
   5   1  -1 1456.35   70.29
  -5   1   1 1462.85   70.29
  -5  -1  -1 1433.96   70.09
  -5   1   1 1415.26   70.29
   5   1  -1 1443.26   70.29
   5  -1   1 1439.76   70.29
   5  -1   1 1514.85   70.39
  -5  -1  -1 1455.45   70.29
  -5   1   1 1367.96   70.09
   5  -1   1 1520.45   70.19
  -5  -1  -1 1431.86   70.29
   5   1  -1 1486.55   70.29
  -5  -1  -1 1432.66   70.29
   5   1  -1 1402.16   70.09
   5   1  -1 1503.75   70.39
   5  -1   1 1483.05   70.29
   5   1   3  632.04   30.80
  -5   1  -3  610.94   30.80
  -5  -1   3  628.94   30.70
  -5  -1   3  649.83   30.90
   5  -1  -3  579.84   30.50
   5  -1  -3  632.84   30.90
   5  -1  -3  633.04   30.80
   5   1   3  627.54   30.80
  -5  -1   3  622.24   30.90
   5   1   3  599.44   30.50
   5  -1  -3  621.64   30.60
  -5   1  -3  634.04   30.80
  -5  -1   3  616.64   30.80
   5   1   3  618.04   30.70
   5   1   3  590.54   30.70
   5  -1  -3  626.44   30.80
  -5   1  -3  625.64   30.80
  -5   1  -3  621.84   30.80
  -5   1   3  631.64   30.40
   5  -1   3  649.34   30.80
  -5  -1  -3  627.44   30.70
  -5  -1  -3  603.24   30.80
   5   1  -3  633.34   30.80
  -5  -1  -3  613.14   30.80
   5  -1   3  628.14   30.90
   5  -1   3  597.94   30.40
   5  -1   3  623.74   30.80
   5   1  -3  593.14   30.20
   5  -1   3  611.04   30.80
  -5   1   3  608.44   30.50
   5   1  -3  621.44   30.70
  -5   1   3  631.04   30.80
  -5   1   3  635.54   30.80
   5   1  -3  624.64   30.90
  -5  -1  -3  645.04   30.80
   5   1  -3  615.54   30.80
  -5   1   3  633.24   31.00
   5  -1  -5  213.78   11.80
   5  -1  -5  198.98   11.10
  -5   1  -5  227.48   11.70
  -5  -1   5  196.08   11.40
  -5  -1   5  207.68   11.60
  -5  -1   5  193.48   11.60
   5  -1  -5  209.88   10.90
   5   1   5  209.68   11.60
   5   1   5  217.28   11.70
   5   1   5  188.98   11.50
  -5   1  -5  224.18   11.50
  -5   1  -5  217.58   11.50
  -5   1  -5  212.68   11.50
   5  -1  -5  199.48   11.60
   5   1   5  189.98   11.40
   5  -1  -5  196.78   11.40
   5   1   5  221.88   10.80
   5   1  -5  213.28   11.50
  -5   1   5  220.28   11.80
  -5  -1  -5  200.88   11.60
  -5   1   5  207.98   11.30
  -5  -1  -5  186.98   11.40
  -5  -1  -5  193.38   11.50
  -5   1   5  197.08   11.40
   5  -1   5  214.78   10.50
   5  -1   5  233.68   11.90
  -5  -1  -5  214.08   11.90
   5   1  -5  206.28   11.50
   5  -1   5  216.98   11.70
   5  -1   5  211.68   11.50
  -5   1   5  218.28   10.30
   5   1  -5  215.28   11.50
   5   1  -5  201.48   11.30
   5   1  -5  210.48   11.80
   5  -1   5  207.18   11.40
   5   1   7   57.79    6.00
   5  -1  -7   59.79    5.90
   5   1   7   60.89    5.80
   5  -1  -7   46.50    5.80
  -5   1  -7   51.59    6.00
  -5  -1   7   38.30    6.50
   5   1   7   52.29    5.40
  -5   1  -7   49.60    6.10
   5   1   7   70.49    6.70
   5  -1  -7   60.09    6.30
  -5  -1   7   47.70    4.10
  -5  -1   7   54.69    6.10
   5   1   7   51.89    8.00
  -5  -1   7   51.29    5.90
   5  -1  -7   57.99    6.10
  -5   1  -7   52.09    5.70
  -5  -1  -7   53.29    6.20
  -5   1   7   53.69    4.80
   5  -1   7   48.20    6.30
  -5   1   7   70.49    6.60
  -5   1   7   52.89    4.20
  -5   1   7   52.89    6.00
   5  -1   7   73.19    7.30
  -5   1   7   64.19    5.90
   5  -1   7   53.79    5.70
   5   1  -7   54.79    5.90
  -5  -1  -7   51.99    5.60
   5  -1   7   50.49    6.10
   5  -1   7   50.49    6.00
  -5  -1  -7   40.80    5.40
   5   1  -7   50.69    6.70
   5   1  -7   70.19    6.90
   5   1  -7   51.89    5.60
  -5  -1  -7   41.00    6.50
   5  -1  -9   83.09    8.00
  -5   1  -9   79.49    8.60
  -5  -1   9   70.19   11.80
  -5  -1   9   77.69    8.20
   5  -1  -9   83.39    7.90
   5  -1  -9   95.99    9.10
   5  -1  -9   86.69    9.30
   5   1   9   82.89    7.80
  -5   1  -9   93.29    7.70
   5   1   9   90.29   10.60
   5   1   9   87.99    7.90
  -5  -1   9   83.99    8.30
   5  -1  -9   78.79   10.00
  -5  -1   9   86.99    8.70
   5   1   9   81.19    8.00
  -5   1  -9   83.19    8.30
  -5  -1   9   83.49    6.70
   5  -1   9   84.19    7.90
   5  -1   9   79.59   11.10
   5   1  -9   84.39    8.00
  -5  -1  -9   81.99    8.80
  -5  -1  -9   77.49    9.50
   5  -1   9   72.09    7.90
  -5   1   9   84.69    6.60
   5  -1   9   70.29   10.50
   5   1  -9   93.29    9.10
  -5   1   9   91.59    9.00
  -5   1   9   82.79    8.30
  -5   1   9   85.59   11.00
   5   1  -9   86.29    7.60
  -5  -1  -9   84.39    7.70
   5  -1   9   81.39    8.10
  -5  -1  11   14.10   11.50
  -5  -1  11   21.10    9.00
   5   1  11   18.40    6.40
  -5   1 -11    5.60    8.10
  -5   1 -11   19.60   10.60
   5  -1 -11   44.60    9.60
   5   1  11   31.10   12.90
   5   1 -11    1.70    7.50
  -5  -1 -11   23.00    8.40
   5  -1  11   27.20   11.00
   5  -1  11   29.60   11.30
  -5   1  11   21.30    8.00
   5  -1  11   23.10    9.10
  -5  -1 -11   45.50   10.20
   5   1 -11   25.20   10.40
  -5   2   0  261.77   13.40
  -5  -2   0  281.07   13.70
  -5  -2   0  271.37   13.70
   5   2   0  266.07   13.70
   5   2   0  268.67   13.70
   5   2   0  268.27   13.70
  -5  -2   0  266.07   13.70
   5  -2   0  286.77   13.80
   5  -2   0  266.97   13.70
   5  -2   0  264.07   13.70
  -5   2   0  277.17   13.70
   5  -2   0  275.37   13.40
   5   2   0  260.77   13.70
   5   2   0  263.67   13.30
   5   2   0  271.77   13.80
  -5  -2   0  263.27   13.70
  -5   2   0  261.57   13.70
  -5  -2   0  274.27   13.80
  -5  -2   2 1198.08   57.19
  -5  -2   2 1183.28   57.19
   5   2   2 1186.58   56.99
   5  -2  -2 1180.88   57.19
  -5  -2   2 1194.18   57.19
   5   2   2 1203.78   57.09
   5   2   2 1176.28   57.09
   5  -2  -2 1078.09   56.69
  -5   2  -2 1181.28   57.09
   5  -2  -2 1115.79   57.09
  -5   2  -2 1155.58   56.99
   5   2   2 1213.58   57.19
   5  -2  -2 1166.48   57.09
  -5   2  -2 1212.88   57.19
   5   2   2 1125.19   56.99
   5   2   2 1151.18   56.89
  -5  -2   2 1194.78   57.29
  -5  -2   2 1200.28   57.09
  -5   2  -2 1197.18   57.09
   5  -2  -2 1185.88   57.19
  -5  -2  -2 1143.99   56.89
   5  -2   2 1213.38   57.09
   5  -2   2 1188.88   57.09
  -5   2   2 1181.88   57.09
   5   2  -2 1215.68   57.29
  -5  -2  -2 1136.79   57.19
   5   2  -2 1178.38   57.09
   5  -2   2 1157.58   57.19
  -5  -2  -2 1159.78   57.19
  -5   2   2 1153.28   57.09
  -5  -2  -2 1164.18   57.09
   5   2  -2 1136.19   57.09
   5   2  -2 1163.18   57.09
   5  -2   2 1141.59   57.19
  -5   2   2 1110.19   56.69
   5   2   4   66.89    4.70
   5  -2  -4   70.39    5.40
   5  -2  -4   63.79    5.10
   5   2   4   62.19    4.90
  -5  -2   4   63.49    5.00
   5   2   4   64.79    5.20
  -5   2  -4   66.19    4.70
  -5  -2   4   62.19    4.40
   5  -2  -4   66.79    4.40
  -5  -2   4   65.49    5.70
  -5  -2   4   65.19    4.90
   5   2   4   68.39    5.10
  -5   2  -4   64.49    4.90
  -5   2  -4   61.19    5.40
   5   2   4   64.79    5.30
   5  -2  -4   62.39    4.90
  -5   2  -4   63.99    5.40
  -5  -2  -4   75.09    5.50
  -5  -2  -4   64.59    5.20
   5   2  -4   66.89    4.30
  -5   2   4   77.69    4.20
   5   2  -4   68.19    5.10
   5   2  -4   69.39    5.60
   5   2  -4   63.89    4.50
  -5   2   4   68.69    5.50
   5  -2   4   67.99    5.60
   5   2  -4   66.49    4.50
  -5  -2  -4   64.89    4.60
   5  -2   4   67.69    5.60
   5  -2   4   65.89    5.10
  -5   2   4   66.69    4.80
  -5  -2  -4   59.09    4.80
   5  -2   4   65.59    5.00
  -5   2   4   64.69    4.60
  -5  -2  -4   68.59    4.40
   5  -2   4   54.09    3.60
   5  -2  -6   23.60    4.00
  -5  -2   6   24.60    4.30
  -5  -2   6   26.40    4.60
  -5  -2   6   24.80    4.80
  -5   2  -6   23.30    4.40
   5   2   6   28.00    4.00
  -5  -2   6   28.90    4.50
   5   2   6   24.40    4.00
  -5   2  -6   22.80    4.00
   5  -2  -6   23.90    4.20
  -5   2  -6   25.20    3.70
   5  -2  -6   22.60    3.90
   5   2   6   27.00    3.90
   5   2   6   13.10    4.10
  -5   2  -6   26.80    4.50
   5  -2  -6   19.50    3.50
  -5   2   6   16.60    3.60
   5   2  -6   27.90    3.90
  -5   2   6   20.60    3.40
  -5  -2  -6   23.50    3.70
   5  -2   6   27.20    4.60
  -5  -2  -6   22.60    4.20
  -5  -2  -6   25.60    3.50
   5   2  -6   19.90    4.10
   5   2  -6   25.00    3.90
  -5  -2  -6   29.70    4.40
  -5   2   6   25.70    4.10
   5  -2   6   26.60    3.90
  -5   2   6   20.10    3.60
   5  -2   6   26.40    4.50
  -5   2   6   16.60    4.30
  -5  -2  -6   21.10    3.90
   5   2  -6   30.20    4.50
   5  -2   6   27.90    4.90
   5   2  -6   26.40    4.10
  -5  -2   8    8.70    3.60
  -5   2  -8    7.40    3.90
   5  -2  -8   10.80    4.50
   5   2   8    8.00    3.90
  -5   2  -8   11.20    4.30
   5   2   8   10.60    4.50
  -5  -2   8    3.70    2.80
   5   2   8    4.80    4.80
  -5  -2   8    5.60    4.30
  -5   2  -8    8.80    4.60
   5   2   8    8.80    4.20
   5  -2  -8    9.90    4.80
   5   2   8    5.90    3.80
  -5  -2   8    7.10    4.40
   5  -2  -8   17.00    3.80
  -5   2  -8   13.30    3.90
  -5  -2  -8   11.80    4.20
   5  -2   8   11.10    3.70
   5   2  -8   21.20    4.20
  -5   2   8   10.40    4.30
   5   2  -8    8.80    4.10
   5   2  -8    6.20    4.00
  -5  -2  -8    9.80    4.20
   5  -2   8    9.10    4.10
   5   2  -8    7.40    4.00
  -5  -2  -8   11.60    5.00
   5  -2   8   25.00    5.90
   5   2  -8    9.00    5.10
   5  -2   8    9.20    3.90
  -5  -2  -8    9.80    3.50
  -5   2   8   10.80    3.00
  -5   2   8    7.40    4.40
  -5  -2  10   15.30    5.80
  -5   2 -10    9.50    5.00
  -5  -2  10   13.90    4.50
   5  -2 -10   14.60    6.60
   5   2  10    9.00    6.90
  -5  -2  10   22.10    8.20
   5   2  10    7.60    8.20
   5  -2 -10   12.90    6.30
  -5   2 -10   27.50    7.80
   5   2  10   14.10    5.70
  -5   2  10   12.10    6.50
   5   2 -10   13.90    6.00
  -5   2  10   17.60    6.50
   5   2 -10   13.20    5.30
   5   2 -10    7.80    5.80
  -5   2  10    9.10    6.90
  -5  -2 -10   15.60    7.20
   5   2 -10    9.00    7.00
   5  -2  10   16.70    7.70
   5  -2  10   17.00    7.40
  -5  -3   1  171.38    9.40
   5  -3  -1  173.88    9.20
   5   3   1  187.88    9.20
  -5   3  -1  191.48    9.00
  -5  -3   1  169.78    9.40
  -5   3  -1  167.98    9.00
   5  -3  -1  167.98    8.70
   5   3   1  179.68    8.70
  -5   3  -1  163.68    8.40
  -5  -3   1  171.08    9.20
   5  -3  -1  161.48    9.20
   5   3   1  173.58    9.10
   5   3   1  168.28    9.20
   5  -3  -1  168.78    9.30
  -5  -3   1  179.88    9.20
  -5  -3   1  174.28    9.20
   5   3  -1  163.28    8.90
   5   3  -1  165.58    8.60
   5   3  -1  163.68    9.20
   5  -3   1  161.48    9.40
   5   3  -1  171.08    9.30
   5  -3   1  169.58    9.20
  -5   3   1  163.78    8.60
   5  -3   1  173.98    8.90
   5  -3   1  171.58    9.20
   5   3  -1  201.58    9.40
  -5  -3  -1  176.18    9.20
   5   3  -1  169.58    9.20
  -5   3   1  158.38    9.00
  -5  -3  -1  166.18    9.20
   5   3  -1  203.48    9.10
  -5  -3  -1  163.78    9.40
  -5  -3  -1  170.18    8.70
   5  -3  -3  472.75   23.30
  -5   3  -3  474.25   23.10
  -5  -3   3  463.15   23.20
  -5  -3   3  451.15   23.30
   5   3   3  455.15   22.90
   5   3   3  452.45   23.10
  -5   3  -3  454.45   23.40
   5   3   3  466.25   23.40
  -5   3  -3  459.05   23.20
  -5  -3   3  465.25   23.30
   5  -3  -3  463.85   23.30
   5   3   3  449.26   22.90
  -5  -3   3  481.45   23.30
  -5  -3   3  450.65   23.40
   5  -3  -3  461.85   23.20
   5   3   3  459.65   23.10
  -5   3  -3  483.45   23.50
   5  -3  -3  484.45   23.30
   5   3   3  453.95   23.20
   5  -3   3  445.36   23.10
  -5  -3  -3  479.85   23.00
  -5  -3  -3  469.05   23.30
  -5   3   3  469.15   23.20
  -5  -3  -3  475.85   23.10
   5   3  -3  468.05   23.50
   5  -3   3  458.65   23.40
   5  -3   3  460.55   23.10
  -5  -3  -3  438.36   23.20
  -5   3   3  498.85   23.10
   5  -3   3  473.25   23.30
   5   3  -3  476.25   22.90
  -5   3   3  436.46   22.60
  -5   3   3  459.65   23.20
   5   3  -3  465.25   23.10
   5   3  -3  446.66   23.20
   5   3  -3  453.25   23.20
  -5  -3  -3  449.76   23.20
   5   3   5  197.88   10.10
  -5   3  -5  174.08   10.10
  -5   3  -5  163.78   10.10
   5   3   5  183.28   10.20
   5   3   5  173.88    9.40
   5  -3  -5  177.78   10.00
  -5   3  -5  165.28    9.60
  -5  -3   5  165.68   10.00
   5   3   5  168.98    9.70
  -5   3  -5  179.08   10.20
  -5  -3   5  168.68   10.10
  -5  -3   5  167.78   10.30
   5   3   5  168.68    9.70
   5  -3  -5  164.78    9.80
   5  -3  -5  174.18   10.30
   5  -3  -5  177.28    9.90
  -5   3   5  191.88   10.20
   5   3  -5  173.38   10.10
  -5  -3  -5  173.48   10.00
   5   3  -5  174.88   10.10
  -5   3   5  169.58    9.70
   5  -3   5  167.38    9.80
   5  -3   5  170.68   10.30
  -5  -3  -5  170.88    9.60
  -5   3   5  169.28    9.10
  -5  -3  -5  169.98   10.20
  -5  -3  -5  179.38   10.00
  -5   3   5  163.18    9.70
  -5   3   5  175.48   10.00
   5   3  -5  164.68    9.80
   5  -3   5  171.98   10.00
   5   3  -5  164.78    9.70
   5  -3   5  161.88    8.60
  -5  -3  -5  175.88   10.10
   5  -3   5  175.08   10.20
   5   3  -5  173.28    9.50
   5   3   7  221.58   12.80
   5  -3  -7  223.38   12.80
   5  -3  -7  232.38   12.60
  -5  -3   7  213.98   12.50
   5  -3  -7  194.98   12.30
  -5  -3   7  221.38   13.00
   5  -3  -7  206.28   12.70
   5   3   7  203.08   12.00
   5   3   7  224.38   12.60
  -5  -3   7  208.08   12.40
   5   3   7  173.38   13.50
   5   3   7  244.08   13.00
  -5  -3   7  201.68   12.80
  -5   3  -7  241.88   13.80
  -5   3  -7  210.08   12.30
  -5   3  -7  222.08   12.70
   5   3  -7  207.48   12.30
   5  -3   7  216.18   12.30
   5  -3   7  228.28   13.10
  -5  -3  -7  218.98   12.60
   5  -3   7  208.08   12.80
   5   3  -7  193.08   12.70
   5   3  -7  212.98   12.60
   5  -3   7  227.18   12.60
  -5   3   7  212.38   12.50
  -5   3   7  207.58   10.90
  -5  -3  -7  224.38   13.00
  -5  -3  -7  244.08   12.00
  -5  -3  -7  228.38   12.50
  -5   3   7  216.58   12.90
   5  -3   7  216.78   12.80
  -5   3   7  194.18   12.40
  -5   3   7  248.98   13.30
   5   3  -7  209.48   12.30
  -5  -3  -7  217.08   12.00
  -5   3  -9   59.39    8.10
   5   3   9   30.90    5.20
   5  -3  -9   37.80    6.30
   5  -3  -9   41.00    6.50
  -5  -3   9   31.90    4.10
   5   3   9   36.30    5.60
  -5   3  -9   29.20    4.80
  -5  -3   9   40.60    6.00
  -5  -3   9   38.80    7.30
   5  -3  -9   38.60    5.90
   5  -3  -9   44.90    7.30
   5   3   9   57.99    9.10
   5   3   9   39.20    7.70
  -5  -3   9   40.50    6.20
   5   3   9   38.50    5.00
  -5   3  -9   34.10    6.20
  -5   3  -9   63.09    9.00
  -5  -3   9   43.00    8.90
  -5  -3  -9   38.40    6.40
   5   3  -9   35.00    5.10
   5   3  -9   38.70    6.90
  -5   3   9   39.50    5.70
   5   3  -9   40.00    8.10
  -5  -3  -9   42.20    6.80
   5  -3   9   32.90    5.90
  -5  -3  -9   41.30    5.10
   5  -3   9   40.00    7.20
   5   3  -9   38.50    5.60
   5  -3   9   39.40    6.50
   5  -3   9   40.20    6.90
  -5  -3  -9   34.90    6.30
   5  -3   9   37.30    5.80
  -5   3   9   41.10    6.20
   5   3  11   37.00   10.80
   5  -3 -11   23.50   11.90
  -5  -3  11   32.80   16.00
  -5   3 -11   17.60   11.00
  -5  -3  11   61.49   11.60
  -5  -3  11   56.19    8.00
   5   3  11   26.30    6.50
   5   3  11   37.50   12.40
   5  -3  11   21.70   10.80
   5  -3  11   18.40   12.60
  -5   3  11   39.10   11.00
  -5   3  11   27.50    9.70
   5   3 -11   21.10    9.90
  -5   3  11   52.79    7.90
  -5   3  11   44.50   10.90
   5   4   0   82.49    5.40
   5   4   0   97.49    5.00
   5  -4   0   73.99    4.60
   5   4   0   93.99    4.90
   5  -4   0   72.39    5.00
  -5  -4   0   83.79    5.00
  -5  -4   0   73.49    5.10
   5  -4   0   78.59    5.00
  -5  -4   0   78.39    5.00
   5  -4   0   72.09    5.10
  -5   4   0   86.29    5.80
   5   4   0   93.99    5.10
   5   4   0   96.29    4.90
  -5  -4   0   71.99    5.10
  -5   4   0   82.79    4.80
   5   4   0   79.59    4.60
   5   4   2  241.48   12.30
  -5   4  -2  228.58   11.90
  -5  -4   2  237.58   12.70
  -5   4  -2  251.57   13.00
   5  -4  -2  243.48   12.70
   5   4   2  243.18   12.30
  -5  -4   2  240.88   12.70
  -5   4  -2  235.68   12.70
   5   4   2  236.98   12.70
  -5   4  -2  238.88   12.30
   5  -4  -2  249.58   12.80
   5   4   2  241.78   12.30
  -5  -4   2  230.38   12.60
  -5  -4   2  245.08   12.50
  -5   4  -2  238.78   12.20
   5  -4  -2  237.08   12.50
  -5  -4   2  236.28   12.60
   5  -4  -2  236.28   12.40
   5   4   2  237.18   12.40
  -5  -4  -2  234.48   12.60
  -5   4   2  248.98   12.30
  -5  -4  -2  240.98   12.10
  -5  -4  -2  242.78   12.60
   5  -4   2  231.08   12.60
   5  -4   2  241.48   12.70
  -5   4   2  246.48   12.60
   5   4  -2  239.78   12.20
   5  -4   2  242.48   12.30
   5   4  -2  236.98   12.50
   5   4  -2  236.98   12.60
   5   4  -2  243.08   12.40
  -5   4   2  237.48   12.30
   5   4  -2  241.68   11.80
  -5  -4  -2  240.58   12.40
   5   4  -2  233.68   12.10
   5  -4   2  235.48   12.40
  -5  -4  -2  229.18   12.50
  -5  -4   4  377.16   18.60
   5   4   4  364.96   18.50
   5  -4  -4  349.96   18.30
   5  -4  -4  345.47   18.10
   5   4   4  354.36   18.00
  -5   4  -4  339.87   18.40
   5   4   4  357.06   17.50
  -5  -4   4  367.86   18.40
  -5   4  -4  367.16   17.80
   5  -4  -4  350.86   18.40
  -5   4  -4  350.96   18.00
  -5  -4   4  331.87   18.20
   5   4   4  343.97   18.10
   5  -4  -4  365.56   18.30
  -5  -4   4  350.36   18.20
  -5  -4   4  335.57   18.40
  -5   4  -4  357.86   17.90
   5   4   4  341.27   18.10
   5  -4   4  359.16   18.30
  -5  -4  -4  338.57   18.30
   5  -4   4  368.86   18.50
  -5  -4  -4  373.06   18.40
  -5  -4  -4  358.06   18.20
  -5   4   4  335.47   17.30
   5   4  -4  361.96   17.90
  -5  -4  -4  352.96   18.10
   5  -4   4  361.06   18.60
  -5   4   4  324.97   18.00
  -5   4   4  358.76   18.20
  -5  -4  -4  347.87   18.00
   5   4  -4  347.57   17.90
   5   4  -4  381.96   17.80
   5   4  -4  342.87   18.30
  -5   4   4  354.46   18.00
   5  -4   4  337.47   18.20
   5   4  -4  354.36   18.60
   5   4  -4  361.26   18.00
   5   4   6   26.30    4.10
   5  -4  -6   42.40    6.80
   5  -4  -6   27.40    4.80
  -5  -4   6   17.90    4.00
   5  -4  -6   29.90    4.60
   5   4   6   27.30    4.20
   5   4   6   26.20    4.00
  -5   4  -6   30.70    4.70
  -5   4  -6   34.30    5.10
  -5  -4   6   23.70    4.20
  -5   4   6   20.10    2.00
  -5   4   6   28.40    4.10
   5  -4   6   34.50    6.00
  -5   4   6   26.90    4.00
   5  -4   6   24.70    4.10
  -5   4   6   23.90    1.70
  -5  -4  -6   35.30    5.60
  -5  -4  -6   25.00    3.70
   5  -4   6   30.70    4.40
   5   4  -6   36.60    5.00
  -5   4   6   27.90    5.20
  -5  -4  -6   26.40    4.70
  -5  -4  -6   23.50    4.40
   5  -4   6   16.10    4.20
   5   4  -6   29.80    4.70
  -5   4   6   31.30    4.50
   5   4  -6   29.10    4.50
  -5  -4   8  115.99    9.50
   5  -4  -8  122.39    9.70
   5  -4  -8   97.69    8.40
   5  -4  -8  104.59    9.00
   5   4   8  125.39    6.80
  -5   4  -8  112.99    9.50
  -5  -4   8  105.19    8.90
  -5   4  -8  105.89    8.40
  -5   4  -8   93.29    8.90
  -5  -4   8  101.79    8.80
   5   4   8  105.39    8.10
   5   4   8  120.19    8.90
  -5   4  -8  107.09    8.90
   5   4   8  106.99    8.90
   5  -4  -8  105.19    8.80
  -5  -4   8  117.99   10.20
   5   4  -8  104.89    8.40
  -5   4   8  110.59    8.80
   5  -4   8  113.89    9.10
  -5  -4  -8  115.49    9.70
   5   4  -8  108.29    8.80
   5  -4   8  109.19    8.70
   5   4  -8  101.99    9.20
   5  -4   8  111.29    9.00
  -5  -4  -8  101.49    8.00
  -5  -4  -8  107.19    9.40
   5  -4   8  127.99    9.50
  -5  -4  -8  113.79    8.60
   5   4  -8  104.19    8.30
  -5   4   8  103.29    9.00
  -5   4   8  108.59    8.50
   5   4  -8   98.19    8.80
  -5  -4  10   15.40    6.60
  -5  -4  10   30.60    7.90
   5  -4 -10    4.30    6.40
  -5   4 -10   -5.10    7.80
  -5   4 -10    6.90    5.10
  -5   4  10    4.50    4.00
  -5  -4 -10    5.00    6.70
  -5   4  10    2.60    5.10
   5  -4  10   -0.40    7.40
   5  -4  10   26.80    7.80
   5   4 -10   22.30    7.80
   5   4 -10    1.60    5.60
   5   4 -10    7.40    5.00
  -5  -4 -10    4.30    4.70
   5   4 -10   -0.40    8.40
  -5   4  10   10.40    7.80
  -5   4  10    7.80    6.10
  -5   5  -1   84.59    4.80
  -5   5  -1   77.89    4.50
  -5   5  -1   76.99    5.70
  -5   5  -1   80.69    5.50
   5  -5  -1   81.49    5.50
  -5  -5   1   84.09    5.60
   5  -5  -1   81.39    4.20
   5  -5  -1   82.89    4.20
   5   5   1   91.89    5.20
   5  -5  -1   88.29    5.20
  -5  -5   1   81.09    5.10
   5   5   1   74.09    5.40
  -5  -5   1   79.29    5.30
  -5  -5   1   89.69    6.20
   5   5   1   77.49    4.50
   5   5   1   82.29    4.90
   5  -5  -1   81.49    6.20
   5   5   1   79.59    6.10
  -5  -5   1   78.59    5.40
  -5  -5  -1   83.89    4.10
  -5   5   1   86.29    4.90
   5  -5   1   84.29    4.90
  -5  -5  -1   75.79    5.00
  -5  -5  -1   79.89    5.50
   5  -5   1   81.39    6.00
  -5  -5  -1   89.39    6.10
  -5   5   1   67.99    5.30
  -5  -5  -1   83.39    5.90
   5   5  -1   84.89    4.60
  -5   5   1   75.99    4.70
  -5   5   1   87.89    5.50
   5  -5   1   77.39    5.30
   5   5  -1   80.09    4.50
   5   5  -1   78.19    4.50
   5   5  -1   79.79    5.40
  -5  -5  -1   84.99    5.20
   5   5  -1   82.79    5.30
  -5  -5  -1   84.29    5.60
   5  -5   1   85.99    5.20
  -5  -5   3   63.19    4.50
   5  -5  -3   65.09    5.30
   5   5   3   60.59    4.20
  -5   5  -3   50.69    3.80
   5  -5  -3   56.09    5.00
  -5  -5   3   60.19    5.20
   5   5   3   57.59    5.00
   5  -5  -3   59.19    4.50
   5  -5  -3   58.59    5.40
  -5   5  -3   59.89    4.10
  -5  -5   3   62.29    4.90
   5   5   3   64.19    4.50
   5   5   3   58.89    3.80
  -5   5  -3   54.89    3.90
   5   5   3   63.79    4.90
   5   5   3   57.49    4.40
  -5   5  -3   64.39    5.50
  -5  -5   3   55.49    4.40
  -5   5   3   57.59    4.30
   5  -5   3   61.49    4.70
  -5   5   3   58.99    4.70
   5   5  -3   60.89    3.80
  -5  -5  -3   71.49    4.30
  -5   5   3   55.99    4.60
  -5  -5  -3   58.49    4.50
  -5   5   3   48.10    3.80
   5   5  -3   73.89    5.60
   5   5  -3   59.39    4.90
   5   5  -3   59.09    3.70
   5  -5   3   60.29    4.30
   5  -5   3   46.00    4.80
   5   5  -3   69.69    4.10
  -5  -5  -3   70.99    4.90
  -5  -5  -3   59.79    5.20
  -5  -5  -3   55.99    4.50
   5  -5   3   58.79    5.00
   5   5   5  229.48   12.40
  -5   5  -5  237.98   12.20
   5   5   5  234.38   12.80
  -5   5  -5  240.78   12.20
  -5  -5   5  238.88   13.30
  -5  -5   5  191.68   13.10
   5   5   5  226.98   13.00
   5   5   5  235.78   11.50
   5  -5  -5  222.58   12.80
   5  -5  -5  226.38   12.80
   5  -5  -5  233.58   12.90
  -5  -5   5  235.28   12.80
   5   5   5  208.08   13.10
  -5   5  -5  227.88   12.10
   5   5   5  216.88   11.40
  -5   5  -5  237.78   13.00
  -5  -5   5  235.08   12.80
   5   5   5  224.68   12.50
  -5   5  -5  193.08   13.40
   5  -5  -5  234.28   12.90
   5  -5   5  193.48   13.50
   5  -5   5  258.87   12.90
   5   5  -5  218.48   12.00
  -5   5   5  221.58   11.30
   5  -5   5  224.18   12.80
   5   5  -5  189.78   13.10
  -5   5   5  231.68   11.30
   5   5  -5  237.18   12.10
   5   5  -5  237.18   13.00
  -5  -5  -5  239.18   13.20
  -5  -5  -5  208.88   12.60
   5  -5   5  243.28   12.70
   5   5  -5  238.88   12.20
   5   5  -5  240.08   12.10
  -5   5   5  227.98   12.40
  -5  -5  -5  232.98   12.80
  -5   5   5  223.28   11.30
  -5  -5  -5  234.28   12.80
  -5   5   5  235.48   12.60
  -5  -5  -5  236.08   12.50
   5  -5  -7   61.59    7.20
  -5   5  -7   57.69    6.20
   5  -5  -7   55.99    6.80
   5  -5  -7   59.39    6.70
  -5   5  -7   63.69    6.80
   5   5   7   60.89    6.40
  -5   5  -7   56.59    7.30
   5   5   7   56.19    3.80
   5   5   7   72.49    7.80
  -5   5  -7   68.69    6.20
   5   5   7   76.89    6.90
  -5  -5   7   65.89    7.00
   5   5   7   59.39    4.40
  -5   5  -7   63.49    6.60
  -5  -5   7   83.09    8.00
  -5  -5   7   53.79    7.10
  -5  -5   7   56.79    6.70
   5  -5  -7   57.79    6.90
   5  -5   7   80.59    7.90
   5  -5   7   66.89    7.80
  -5   5   7   58.29    6.60
  -5   5   7   47.30    8.60
  -5  -5  -7   54.29    6.00
   5  -5   7   67.99    6.80
   5   5  -7   60.99    6.00
  -5  -5  -7   57.89    6.50
  -5  -5  -7   57.69    7.40
  -5  -5  -7   64.69    7.30
  -5  -5  -7   65.89    7.10
  -5   5   7   60.79    6.50
   5  -5   7   63.49    6.90
   5   5  -7   56.69    6.80
   5   5  -7   62.89    6.70
  -5   5   7   72.09    4.90
   5   5  -7   56.99    6.60
   5  -5   7   54.49    6.70
   5   5  -7   61.29    7.00
   5   5  -7   60.49    6.50
  -5   5  -9   24.70    7.50
  -5  -5   9   14.60    5.50
   5  -5  -9   14.10    5.60
  -5   5  -9   15.00    5.40
  -5  -5   9   29.60    6.50
   5   5   9   28.60    5.10
  -5   5  -9   22.90    5.60
   5   5   9    0.20    8.40
   5   5   9   18.00    2.30
   5   5   9   18.10    5.50
  -5  -5   9   13.20    7.70
  -5   5   9   24.20    5.90
  -5   5   9   21.50    6.80
   5   5  -9   18.00    7.70
  -5  -5  -9   19.10    6.40
   5  -5   9   13.40    7.90
  -5   5   9   22.50    4.80
   5   5  -9   20.60    5.70
   5  -5   9   17.80    6.00
   5   5  -9   23.30    5.10
  -5  -5  -9   28.40    5.20
   5   5  -9   23.00    6.20
   5   6   0  190.58   10.50
   5   6   0  201.38   10.00
   5  -6   0  204.38   10.20
   5  -6   0  206.68   10.70
  -5  -6   0  212.88   11.10
  -5  -6   0  201.38   10.70
   5   6   0  196.68   10.00
   5   6   0  210.08   11.10
  -5  -6   0  209.78   11.00
  -5  -6   0  204.28   10.60
  -5  -6   0  199.28   10.90
   5  -6   0  195.58   10.00
   5   6   0  190.68   10.90
  -5   6   0  204.08   10.10
  -5   6   0  195.98   10.80
  -5   6   0  203.88   11.20
  -5   6   0  192.08   10.00
   5  -6   0  194.68   10.80
  -5  -6   0  209.18   11.20
   5  -6   0  188.88   11.10
   5   6   0  206.38   10.70
  -5  -6   2   18.40    2.60
   5  -6  -2   18.90    3.80
  -5   6  -2   19.90    2.30
  -5  -6   2   18.50    3.70
  -5  -6   2   16.60    3.20
   5  -6  -2   17.70    2.90
   5  -6  -2   16.10    2.50
  -5   6  -2   14.90    2.80
  -5  -6   2   15.20    3.20
   5  -6  -2   20.70    4.00
  -5   6  -2   18.20    1.90
   5   6   2   18.00    2.80
   5   6   2   22.20    3.00
   5   6   2   22.10    2.20
  -5  -6   2   17.50    3.00
   5   6   2   18.80    3.10
   5   6   2   30.20    4.50
   5   6  -2   20.20    3.90
  -5   6   2   12.20    2.70
   5   6  -2   25.80    3.60
  -5  -6  -2   18.80    3.30
   5   6  -2   16.60    2.10
   5  -6   2   19.70    2.80
  -5  -6  -2   17.80    2.70
   5  -6   2   17.80    2.50
  -5   6   2   16.30    2.70
  -5  -6  -2   17.10    2.30
  -5  -6  -2   20.30    2.70
   5  -6   2   15.70    2.80
   5  -6   2   17.40    3.40
  -5   6   2   13.20    1.90
   5   6  -2   20.40    3.40
  -5  -6   4   13.30    3.60
   5   6   4   17.70    3.10
  -5  -6   4   12.30    2.90
   5   6   4   16.70    1.60
  -5  -6   4   20.20    4.00
   5   6   4   11.70    2.70
   5   6   4   19.80    4.70
  -5   6  -4   17.10    3.40
  -5   6  -4   16.00    2.30
   5  -6  -4   17.30    3.40
  -5   6  -4   17.90    3.90
   5   6   4   18.30    3.60
  -5  -6   4   18.70    3.60
   5  -6  -4   18.90    4.00
  -5   6  -4   16.10    3.60
   5   6   4   16.90    2.60
  -5  -6  -4   16.60    3.90
   5   6  -4   15.20    3.70
   5  -6   4   13.70    3.90
  -5   6   4   16.00    2.10
  -5  -6  -4   18.60    2.90
  -5  -6  -4   19.50    3.70
   5  -6   4   24.60    3.70
  -5   6   4   14.00    3.20
  -5  -6  -4   18.30    4.00
   5  -6   4   10.80    2.30
   5   6  -4   15.70    2.30
   5  -6   4   19.50    4.00
   5   6  -4   18.40    3.00
   5   6  -4   17.70    4.40
   5   6  -4   16.00    3.00
   5   6  -4   19.40    2.30
  -5   6   4   18.40    3.20
   5  -6  -6  100.49    8.00
  -5   6  -6  123.19    9.20
   5   6   6  108.19    8.70
   5  -6  -6  111.59    8.00
  -5   6  -6   98.59    8.60
   5  -6  -6  116.99    8.30
  -5   6  -6  105.89    6.90
   5  -6  -6   96.69    8.20
  -5   6  -6  108.39    7.40
  -5  -6   6  119.69    8.10
  -5  -6   6  113.19    9.10
  -5  -6   6  101.99    8.20
  -5  -6   6  119.29    8.30
  -5   6  -6  109.29    7.70
   5   6   6  129.69    8.10
   5   6   6  109.69    8.10
  -5  -6   6  105.09   10.00
   5   6  -6  104.19    7.40
   5   6  -6  113.99    8.20
  -5  -6  -6  121.79    8.90
   5   6  -6  119.59    8.80
   5  -6   6  115.19    9.50
   5  -6   6  106.89    8.70
  -5   6   6   92.39    8.00
   5  -6   6  116.29    8.70
  -5  -6  -6  113.89    8.20
  -5   6   6  113.49    8.20
  -5  -6  -6  106.29    7.70
   5  -6   6  103.49    8.50
   5   6  -6  101.29    8.40
   5   6  -6  109.29    6.70
  -5   6   6  122.89    9.00
   5  -6   6  107.99    8.00
  -5  -6  -6  119.39    8.80
   5   6  -6  110.99    7.30
  -5  -6  -6  106.49    8.20
  -5   6  -8   12.20    5.10
   5  -6  -8   -1.10    5.90
  -5   6  -8    5.40    5.50
  -5  -6   8   -6.20    4.80
  -5  -6   8    9.20    5.10
  -5   6  -8    9.50    8.00
   5   6   8    7.90    4.60
   5  -6  -8    0.80    7.00
   5  -6  -8    3.00    4.90
  -5  -6   8    8.50    6.30
   5   6   8    5.90    4.30
   5   6   8    3.60    4.60
   5   6   8    3.50    6.60
  -5   6  -8    3.00    4.80
  -5   6   8    4.50    4.10
   5   6  -8    6.40    5.70
   5  -6   8    6.70    4.90
  -5   6   8   19.20    7.40
   5   6  -8    5.60    5.00
   5  -6   8    0.30    6.00
  -5  -6  -8    6.90    6.10
  -5  -6  -8    6.40    4.80
   5   6  -8    7.60    4.30
  -5   6   8    3.30    2.90
  -5  -6  -8    2.20    4.70
   5   6  -8    3.80    4.70
  -5   6   8    5.90    4.50
   5   6  -8    3.40    4.80
   5  -6   8   -3.10    5.30
  -5  -6  -8   -7.90    7.40
   5  -6   8    8.80    6.50
  -5   6   8    1.20    4.60
  -5   6 -10    0.20    7.60
  -5   6 -10  -14.50   10.20
   5   6  10   -1.70    5.50
   5   6  10   16.40    8.60
  -5  -6  10    0.10    9.90
   5   6  10   -0.40   11.10
  -5  -6  10   14.50   10.60
  -5   6 -10   -5.30    8.70
   5  -6 -10   19.40   10.30
  -5   6 -10    0.60    5.00
   5   6 -10    8.20    5.50
  -5   6  10   -2.10    5.60
   5   6 -10   -7.40    5.80
   5   6 -10   -3.80    9.90
  -5  -6 -10   -4.70    5.40
   5  -6  10   13.20    9.60
  -5   6  10   -4.80   10.30
   5  -6  10   28.60   10.60
  -5  -6 -10   13.20    9.70
   5   6 -10    0.40    6.30
   5  -6  10    6.60   10.80
   5   7   1   87.49    5.70
  -5  -7   1   90.09    5.90
   5  -7  -1   88.59    6.90
   5  -7  -1   72.59    6.40
  -5  -7   1   84.59    6.10
   5  -7  -1   92.89    5.80
   5  -7  -1   86.59    6.00
  -5   7  -1   88.69    7.50
   5   7   1   91.99    5.60
  -5  -7   1   74.19    6.20
  -5  -7   1   90.39    6.60
   5  -7  -1   91.89    4.90
   5   7   1   89.69    6.40
   5   7   1   88.19    6.30
  -5   7  -1   72.19    6.00
  -5  -7   1   91.59    5.50
  -5  -7  -1   88.19    6.20
  -5  -7  -1   93.89    6.50
  -5  -7  -1   83.09    5.20
   5  -7   1   93.19    7.30
   5  -7   1   89.79    6.10
  -5   7   1   88.49    6.30
   5   7  -1   87.29    6.10
  -5   7   1   91.19    5.80
  -5  -7  -1   86.29    5.60
   5   7  -1   92.39    6.40
   5  -7   1   93.69    5.60
  -5  -7  -1   70.39    6.20
  -5  -7  -1   75.69    6.40
   5   7  -1   91.19    6.20
   5   7  -1   86.39    5.10
   5  -7  -3  108.99    7.40
   5   7   3  115.79    6.20
  -5  -7   3  115.99    7.80
   5   7   3  107.79    6.10
   5   7   3  118.19    8.00
   5  -7  -3  121.59    8.00
   5  -7  -3  119.39    8.40
   5   7   3   98.89    7.50
  -5  -7   3  120.79    8.40
   5  -7  -3  122.79    7.80
   5   7   3  111.99    6.30
  -5   7  -3  127.19    6.70
  -5  -7   3  118.39    7.10
  -5  -7   3  117.29    7.80
  -5   7  -3  132.39    8.00
  -5   7   3  112.79    6.60
   5   7  -3  127.59    7.30
  -5   7   3  123.39    6.30
  -5   7   3  106.29    6.20
  -5   7   3  118.29    7.80
  -5  -7  -3  117.69    7.60
   5  -7   3  119.39    7.90
  -5  -7  -3  115.89    7.90
  -5  -7  -3  117.19    7.50
   5   7  -3  109.19    7.70
   5  -7   3  115.59    7.90
   5  -7   3  113.89    7.10
  -5  -7  -3  115.59    8.30
   5   7  -3  113.99    7.30
  -5  -7   5   44.70    6.50
  -5   7  -5   44.80    3.90
  -5  -7   5   41.30    5.90
   5  -7  -5   40.80    4.80
  -5  -7   5   44.60    5.90
  -5   7  -5   34.90    4.90
   5  -7  -5   43.10    6.10
  -5   7  -5   38.70    6.10
   5   7   5   43.50    4.30
  -5  -7   5   42.10    5.90
   5   7   5   40.50    4.50
  -5   7  -5   52.69    5.80
   5   7   5   38.40    6.50
   5  -7  -5   45.80    5.70
  -5  -7   5   30.00    4.70
   5  -7  -5   43.30    6.10
  -5   7  -5   38.90    6.30
   5   7   5   49.90    5.70
  -5  -7  -5   41.50    5.20
   5  -7   5   35.40    5.20
   5   7  -5   45.20    4.30
   5  -7   5   43.30    6.10
   5   7  -5   39.50    3.50
   5   7  -5   43.20    5.70
  -5   7   5   40.40    4.30
   5  -7   5   39.50    2.70
   5   7  -5   54.89    5.60
   5   7  -5   39.70    6.50
  -5  -7  -5   42.10    6.40
   5  -7   5   36.20    6.00
  -5  -7  -5   42.60    5.40
  -5  -7  -5   44.90    5.70
  -5   7   5   41.50    4.30
  -5   7   5   40.10    5.90
   5   7  -5   40.50    5.40
  -5  -7   7   16.90    5.10
  -5  -7   7   13.90    7.50
   5  -7  -7   13.80    5.10
   5   7   7   19.60    4.30
  -5   7  -7   20.40    8.60
  -5   7  -7   18.70    3.20
  -5  -7   7   21.10    5.00
  -5  -7   7   20.10    8.10
  -5   7  -7   14.90    4.10
  -5   7  -7   15.80    5.30
   5   7   7    9.80    7.70
   5   7   7   20.90    4.60
   5  -7  -7   19.30    5.30
   5   7   7   18.90    4.90
  -5   7  -7   16.70    3.70
   5  -7  -7   14.70    5.00
  -5  -7   7   18.00    5.30
   5  -7  -7   22.60    5.20
   5   7  -7   17.60    3.50
   5   7  -7   21.00    8.00
   5  -7   7   20.00    5.10
  -5   7   7   27.70    7.00
   5  -7   7   12.20    8.30
   5  -7   7   11.40    5.00
   5   7  -7   18.70    5.10
  -5   7   7   15.60    5.10
  -5  -7  -7   18.30    3.90
  -5  -7  -7   23.10    5.60
   5  -7   7   17.00    4.80
  -5   7   7   18.90    4.60
  -5  -7  -7   30.80    5.80
   5   7  -7   16.10    5.00
   5  -7   7   12.50    7.10
   5   7  -7   14.10    2.90
  -5   7   7   15.50    4.80
   5   7  -7   22.40    4.90
  -5  -7  -7   23.70    5.10
   5  -7  -9   13.60    6.30
  -5  -7   9   18.40    8.40
  -5   7  -9    8.40    6.00
   5   7   9   19.60    5.90
  -5   7  -9   18.10    8.20
  -5   7  -9    8.80    5.70
   5   7   9   20.50    6.50
   5   7   9   16.40    9.10
   5   7   9    9.20    4.30
  -5   7  -9   14.00    6.40
  -5  -7   9   13.80    7.80
   5   7  -9   17.80    5.90
   5   7  -9   15.00    8.30
   5  -7   9   -0.80    9.00
  -5  -7  -9    9.80    7.30
   5   7  -9    0.80    4.90
   5  -7   9   14.70    7.70
  -5  -7  -9   18.30    5.40
  -5  -7  -9   12.30    5.40
  -5   7   9   17.50    6.60
   5   7  -9   12.70    5.40
   5   7  -9   12.00    5.40
  -5  -8   0   95.59    6.40
   5  -8   0  101.09    5.60
   5  -8   0   95.49    5.80
  -5   8   0  114.29    7.40
   5   8   0   98.59    6.40
   5  -8   0  101.29    7.50
   5  -8   0   96.69    6.60
  -5  -8   0   95.19    7.20
   5   8   0   90.79    6.20
  -5  -8   0  103.09    6.10
   5  -8   0   93.19    6.20
  -5  -8   0   90.49    6.70
   5   8   0   92.99    8.00
  -5  -8   0  101.19    7.10
  -5  -8   0   92.99    7.30
  -5  -8   2    3.50    2.20
   5   8   2    2.50    2.30
   5   8   2    6.80    3.40
   5  -8  -2    4.90    3.80
   5  -8  -2    3.20    3.30
  -5  -8   2    5.30    2.60
   5  -8  -2    5.40    2.40
   5  -8  -2    5.20    2.40
  -5   8  -2   13.50    3.80
  -5  -8   2    4.10    3.20
  -5  -8   2    4.70    3.70
   5   8   2    3.80    3.20
  -5  -8  -2    5.60    2.00
  -5  -8  -2    4.90    3.30
   5   8  -2    5.20    3.40
   5   8  -2    2.70    4.00
   5   8  -2    2.50    2.80
  -5   8   2    4.80    2.70
  -5   8   2   11.50    2.80
  -5  -8  -2    5.30    3.60
  -5  -8  -2    5.00    2.20
  -5  -8  -2    5.40    4.10
  -5  -8  -2    8.30    3.40
   5  -8  -4   64.99    6.40
  -5   8  -4   73.79    7.40
  -5  -8   4   86.79    7.30
   5   8   4   75.19    4.20
  -5  -8   4   64.89    5.80
   5  -8  -4   84.39    7.10
  -5   8  -4   78.19    5.50
   5   8   4   78.99    6.80
   5   8   4   76.39    4.40
  -5  -8   4   74.59    7.20
  -5   8  -4   65.59    6.60
  -5  -8   4   68.39    7.60
  -5  -8   4   77.59    7.30
   5  -8  -4   85.19    7.20
   5   8   4   68.99    6.70
  -5  -8   4   72.39    7.00
   5   8  -4   80.89    5.20
   5  -8   4   71.09    5.20
  -5  -8  -4   87.89    6.80
  -5  -8  -4   71.89    6.90
  -5  -8  -4   68.39    5.70
   5   8  -4   86.09    6.40
  -5  -8  -4   58.89    6.10
   5  -8   4   79.39    7.30
   5   8  -4   78.49    6.90
  -5   8   4   76.99    4.40
   5   8  -4   74.69    7.10
   5  -8   4   68.49    6.90
  -5   8   4   78.99    4.60
   5   8  -4   83.49    7.10
   5   8   6   46.60    5.20
   5  -8  -6   63.39    7.10
   5  -8  -6   51.79    6.60
  -5  -8   6   45.00    7.10
   5  -8  -6   54.09    7.30
  -5   8  -6   39.50    6.50
   5   8   6   50.59    5.20
   5  -8  -6   40.80    6.70
   5   8   6   56.69    7.30
  -5  -8   6   47.50    6.60
  -5  -8   6   48.10    6.90
  -5   8  -6   59.79   10.60
  -5   8  -6   56.79    7.30
  -5  -8   6   72.99    8.30
  -5   8  -6   47.90    6.80
   5  -8   6   54.09    6.80
  -5  -8  -6   34.60    5.70
  -5   8   6   48.70    5.00
   5  -8   6   51.69    8.00
   5  -8   6   46.00    7.80
   5  -8   6   59.59    7.10
   5   8  -6   53.49    6.40
  -5  -8  -6   48.40    6.40
  -5  -8  -6   48.60    7.40
   5   8  -6   45.80    6.90
   5   8  -6   58.99    8.90
   5   8  -6   52.59    7.00
  -5   8   6   49.70    5.20
  -5  -8  -6   52.29    7.60
  -5  -8  -6   51.09    7.50
  -5   8  -8   12.50    5.60
   5  -8  -8    8.50    5.80
   5   8   8   33.40    9.10
  -5   8  -8   25.50    8.80
  -5   8  -8    7.70    5.90
  -5   8  -8   16.60    3.90
  -5  -8   8    6.30    8.30
   5   8   8    6.30    5.00
  -5   8  -8   11.20    3.00
   5   8   8    6.80    5.30
  -5  -8   8    7.30    5.80
   5  -8   8   12.60    5.90
   5  -8   8    9.50    7.30
   5  -8   8   15.20    8.10
  -5  -8  -8    4.70    6.50
  -5   8   8   12.00    4.10
  -5  -8  -8   10.90    4.70
   5   8  -8    9.60    5.90
  -5   8   8    4.90    5.90
  -5   8   8   -2.50    5.60
   5   8  -8   17.80    3.40
   5  -9  -1  158.18    9.30
  -5  -9   1  151.78    8.80
  -5  -9   1  171.48   10.50
  -5  -9   1  159.18    9.20
   5  -9  -1  154.18    8.50
   5   9   1  133.69    9.20
   5  -9  -1  128.49   10.20
   5   9   1  155.38    8.80
   5   9   1  138.79   10.10
   5   9   1  156.78    9.80
  -5  -9   1  156.88    9.60
  -5  -9   1  171.88    9.90
  -5   9  -1  141.39    9.70
   5  -9  -1  174.38   10.40
   5  -9  -1  150.28    8.80
  -5  -9   1  143.79    9.00
   5   9   1  155.88    9.70
  -5   9   1  137.89    9.20
  -5  -9  -1  146.19    8.90
   5   9  -1  160.78    9.90
   5  -9   1  153.98    9.10
   5   9  -1  170.68    9.70
   5  -9   1  147.99    8.80
   5  -9   1  159.08    8.50
   5  -9   1  150.68    8.50
   5  -9   1  160.18   10.10
   5   9  -1  158.18    9.80
  -5   9   1  139.29    9.90
  -5  -9  -1  154.48    9.00
  -5  -9  -1  167.78    9.00
  -5  -9  -1  159.08    9.80
  -5  -9  -1  167.58    9.40
   5  -9  -3  102.59    8.10
   5  -9  -3   89.69    7.40
   5   9   3   93.19    7.80
  -5  -9   3   93.09    7.10
   5  -9  -3   93.29    8.40
  -5  -9   3   86.09    7.90
  -5   9  -3   87.19    7.20
   5  -9  -3   92.89    6.60
   5  -9  -3   75.39    6.50
   5   9   3   91.79    7.40
  -5  -9   3  106.19    8.10
  -5  -9   3   94.49    7.60
  -5   9  -3   95.89    8.90
  -5  -9   3   95.49    7.70
   5   9  -3   93.99    9.30
  -5   9   3   95.79    7.00
  -5  -9  -3   95.89    6.20
   5  -9   3   97.29    7.70
   5  -9   3  105.99    7.60
  -5  -9  -3   93.69    7.50
   5   9  -3   91.79    7.80
   5   9  -3   95.09    7.80
  -5  -9  -3   96.39    7.90
  -5  -9  -3   89.99    6.50
   5  -9   3   89.89    6.90
   5  -9   3   90.09    6.90
   5  -9   3   99.49    8.00
  -5   9   3   84.89    8.20
  -5  -9  -3   93.19    7.60
  -5   9  -5   14.90    4.80
  -5   9  -5   28.30    7.80
  -5  -9   5   19.50    4.90
  -5   9  -5   16.60    3.90
  -5  -9   5   12.60    4.90
   5   9   5   18.00    5.00
   5  -9  -5   18.50    5.30
   5   9   5   15.00    4.50
  -5  -9   5   16.60    5.10
   5  -9  -5   17.90    4.70
  -5   9  -5   19.90    4.60
  -5  -9   5   16.70    5.10
  -5  -9   5   17.90    6.00
  -5  -9   5   18.60    5.30
   5  -9  -5   19.80    5.10
   5   9  -5   20.00    6.40
   5   9  -5   18.00    3.30
   5   9  -5   13.70    5.20
   5  -9   5   14.00    4.40
   5  -9   5   17.90    2.80
  -5  -9  -5   16.90    4.60
   5  -9   5   23.60    4.80
  -5  -9  -5   17.10    4.60
  -5  -9  -5   14.20    5.00
  -5  -9  -5   26.20    5.00
   5  -9   5   34.20    6.90
  -5   9   5   12.30    3.40
   5  -9   5   15.50    4.50
   5  -9   5   19.80    5.90
   5   9  -5   17.90    4.00
   5   9   7   65.49    9.80
  -5  -9   7   61.49    8.70
   5  -9  -7   62.69    8.30
   5  -9  -7   47.30    8.40
   5  -9  -7   54.89    8.80
  -5   9  -7   55.49    9.80
  -5   9  -7   53.29    8.50
   5   9   7   64.69    5.60
  -5  -9   7   73.09   10.10
  -5   9  -7   57.99    7.70
   5   9   7   49.20    7.80
   5   9   7   67.19    6.00
  -5  -9   7   59.29    9.10
  -5   9   7   50.99    6.10
   5  -9   7   74.19    9.00
   5  -9   7   84.99   11.70
   5  -9   7   52.69    8.00
  -5   9   7   59.49    6.50
   5   9  -7   48.30    8.60
  -5   9   7   61.29    5.70
   5   9  -7   65.39   10.00
  -5  -9  -7   46.70    6.60
   5  -9   7   51.29    7.30
   5   9  -7   61.29    8.10
   5  -9   7   55.29    8.90
  -5  -9  -7   60.59    8.60
  -5  -9  -7   53.19    8.80
  -5 -10   0   17.80    4.10
  -5 -10   0   17.50    3.10
   5  10   0   20.40    4.30
   5  10   0   11.10    3.10
  -5 -10   0   14.00    4.80
  -5 -10   0   15.70    4.20
   5  10   0    8.40    3.90
  -5  10   0   10.70    3.50
   5 -10   0   17.70    2.00
   5 -10   0   17.20    4.30
  -5 -10   0   15.70    3.60
  -5 -10   0   18.10    3.50
   5 -10   0   20.40    3.30
   5 -10   0   17.20    3.80
   5 -10   0   15.40    1.90
   5 -10   0   21.30    5.00
   5 -10   0   17.60    3.00
  -5 -10   2  141.59    9.90
   5 -10  -2  172.48   11.10
  -5 -10   2  142.59    9.40
  -5 -10   2  148.79   10.10
   5 -10  -2  129.99    8.70
  -5 -10   2  137.49    8.40
   5 -10  -2  159.18    9.30
   5 -10  -2  133.09    8.60
   5 -10  -2  147.99   10.20
  -5 -10   2  131.19    9.60
   5  10   2  125.59    9.70
   5  10   2  154.28    9.80
   5  10   2  155.88    9.40
  -5  10  -2  137.09    9.80
  -5  10  -2  133.89   10.50
   5  10  -2  135.39    9.90
  -5  10   2  135.39    9.50
  -5 -10  -2  136.19    7.70
  -5 -10  -2  123.09    7.40
   5 -10   2  134.29    9.20
   5 -10   2  141.59    9.40
  -5 -10  -2  135.69   10.00
  -5 -10  -2  135.79    8.90
   5  10  -2  148.99    9.80
  -5  10   2  148.69    8.70
   5 -10   2  142.99    9.70
  -5 -10  -2  148.09   10.10
  -5 -10  -2  142.69    9.40
  -5 -10  -2  140.39    9.30
   5  10  -2  126.79   10.10
   5 -10   2  141.19   10.10
   5 -10   2  144.69    9.60
   5 -10   2  141.79    8.50
  -5  10  -4   47.50    5.40
   5 -10  -4   43.70    7.10
   5  10   4   54.79    7.40
   5 -10  -4   44.20    5.20
  -5  10  -4   41.20    6.90
  -5 -10   4   43.30    6.50
  -5 -10   4   42.40    7.10
   5 -10  -4   47.30    7.20
   5 -10  -4   46.40    6.40
  -5 -10   4   41.70    6.70
  -5 -10   4   51.49    6.80
  -5  10  -4   50.89    8.40
  -5 -10   4   34.40    6.30
  -5 -10  -4   45.40    6.00
  -5 -10  -4   46.90    6.20
   5 -10   4   42.20    5.50
  -5 -10  -4   48.20    6.20
   5  10  -4   38.60    6.10
   5 -10   4   36.80    5.00
   5 -10   4   67.09    9.30
   5  10  -4   60.09    9.30
  -5 -10  -4   43.40    6.30
   5 -10   4   41.20    6.40
   5  10  -4   46.90    5.60
  -5 -10  -4   41.00    6.60
  -5 -10  -4   42.70    6.00
   5  10  -4   52.99    5.90
   5 -10   4   41.80    6.60
  -5  10  -6    4.80    5.30
  -5  10  -6    5.70    6.30
   5 -10  -6   18.60    5.50
   5 -10  -6    8.30    5.30
  -5 -10   6    3.10    6.10
  -5 -10   6   -0.10    6.90
   5  10   6   23.00    8.20
  -5 -10   6    4.70    5.20
   5 -10  -6    8.30    5.90
  -5  10  -6    9.50    8.60
   5  10   6    9.70    4.60
  -5 -10  -6    7.50    5.90
  -5 -10  -6    4.80    5.30
   5  10  -6    8.20    7.20
  -5  10   6    5.30    3.90
   5  10  -6    7.60    5.20
   5 -10   6    2.70    5.50
   5  10  -6   -3.60    4.40
  -5 -10  -6    3.20    6.10
   5 -10   6    3.90    5.30
   5  10  -6    5.70    5.30
   5 -10   6    6.50    7.50
   5 -10   6    8.20    6.00
   5  11   1   24.70    4.50
  -5 -11   1   39.10    6.00
  -5 -11   1   35.90    4.90
  -5 -11   1   45.50    6.20
  -5  11  -1   33.50    5.80
  -5 -11   1   32.70    6.00
  -5 -11   1   34.10    5.70
   5 -11  -1   34.20    5.30
   5 -11  -1   35.60    6.00
   5 -11  -1   36.00    4.20
   5 -11  -1   36.20    6.40
  -5  11  -1   27.50    5.30
   5  11   1   40.40    6.90
  -5 -11   1   28.10    4.70
   5 -11  -1   37.00    4.90
   5 -11  -1   37.10    5.30
  -5 -11  -1   31.40    5.20
   5 -11   1   33.40    4.30
   5 -11   1   41.10    5.40
   5 -11   1   36.90    5.20
  -5 -11  -1   35.30    4.60
  -5 -11  -1   29.10    6.20
  -5 -11  -1   33.00    5.70
  -5 -11  -1   40.00    6.10
   5 -11   1   36.70    5.30
   5  11  -1   35.40    5.30
   5 -11   1   30.20    4.70
  -5 -11  -1   33.40    5.40
   5 -11   1   30.10    4.50
  -5  11   1   23.00    4.80
  -5 -11  -1   37.10    5.20
   5 -11   1   36.00    6.30
   5 -11   1   40.80    6.70
  -5 -11   3   50.19    7.20
  -5  11  -3   45.80    8.80
  -5 -11   3   43.90    7.10
  -5 -11   3   40.20    8.10
   5 -11  -3   50.29    8.20
   5 -11  -3   46.60    6.10
  -5 -11   3   45.20    7.40
   5 -11  -3   39.70    6.90
  -5 -11   3   41.90    7.70
  -5  11  -3   41.10    6.40
   5  11   3   44.40    6.80
   5 -11  -3   48.30    7.20
   5 -11  -3   42.50    7.20
  -5 -11  -3   40.00    6.20
  -5 -11  -3   48.40    7.20
   5  11  -3   49.00    6.80
   5 -11   3   56.99    8.50
   5 -11   3   42.80    6.80
   5 -11   3   63.79    9.20
   5 -11   3   39.60    5.40
  -5  11   3   45.10    8.00
  -5 -11  -3   42.60    5.00
   5 -11   3   47.90    7.30
  -5 -11  -3   51.99    7.60
   5 -11   3   42.60    7.70
  -5 -11   5   77.69    9.10
  -5  11  -5   57.19   10.10
   5 -11  -5   61.29    8.10
  -5 -11   5   67.49    8.50
   5 -11  -5   55.59    8.40
   5 -11  -5   65.59    8.70
   5  11   5   75.69    8.40
  -5  11  -5   81.69   11.20
   5  11  -5   48.70    6.80
  -5 -11  -5   63.49    9.20
   5 -11   5   64.79    5.80
   5 -11   5   72.89    8.50
   5 -11   5   61.59    8.30
  -5  11   5   64.09   10.60
  -5 -11  -5   57.09    9.10
   5 -11   5   82.89    9.80
  -5 -11  -5   65.39    9.00
  -5  11  -7   42.60    8.20
   5  11   7   49.20   11.40
  -5 -11   7   44.50   10.90
   5  11   7   52.79    7.60
  -5 -11   7   56.39   12.60
  -5 -11   7   46.00    7.90
  -5  11   7   47.30   10.30
   5 -11   7   43.50    9.90
   5 -11   7   51.09    7.80
   5 -11   7   76.19   12.80
  -5 -12   0   37.30    5.50
   5 -12   0   29.00    3.20
   5  12   0   35.50    6.50
  -5 -12   0   40.70    5.70
  -5 -12   0   42.50    6.50
  -5 -12   0   25.50    5.20
   5 -12   0   35.60    5.60
   5  12   0   47.30    6.70
   5 -12   0   27.70    6.90
   5 -12   0   34.10    4.10
   5 -12   0   47.40    5.90
   5 -12   0   43.20    6.60
  -5  12   0   34.90    7.60
  -5  12   0   48.00    6.90
   5 -12   0   43.90    9.10
  -5 -12   0   35.30    6.80
   5 -12  -2   12.80    5.90
   5 -12  -2   20.30    7.90
  -5 -12   2    9.50    5.50
   5 -12  -2    8.20    4.20
   5 -12  -2   10.70    5.20
   5  12   2    8.30    5.10
   5 -12  -2   12.50    4.60
  -5  12  -2    7.80    4.10
  -5  12  -2   13.70    9.10
  -5 -12   2   10.00    5.80
  -5 -12   2   11.80    4.80
  -5 -12   2   23.30    4.90
   5 -12   2   13.60    6.80
  -5 -12  -2   26.10    6.60
  -5 -12  -2   12.00    4.90
  -5  12   2   11.00    6.70
   5 -12   2    8.70    3.90
  -5 -12  -2    7.80    6.50
   5 -12   2    0.80    7.60
   5 -12   2    5.10    5.60
  -5 -12  -2   11.10    3.00
   5 -12   2   13.40    4.90
   5 -12   2   22.60    5.20
  -5 -12  -2    6.50    2.20
   5  12  -2   11.60    5.60
   5 -12   2    6.30    3.70
   5  12  -2   13.70    8.90
  -5 -12   4   10.40    5.70
  -5 -12   4   16.70    5.60
  -5 -12   4    7.20    7.30
  -5  12  -4   10.10    5.40
   5 -12  -4   11.60    5.70
   5 -12  -4   11.00    6.10
   5  12   4   16.10    5.60
   5 -12  -4    9.70    5.20
   5 -12  -4   24.40    5.30
  -5  12   4    8.80    4.70
   5 -12   4    9.70    7.70
   5 -12   4   18.70    5.80
  -5 -12  -4    9.00    7.60
  -5 -12  -4   10.80    7.40
  -5 -12  -4   16.40    5.30
   5  12  -4   12.80    8.10
   5  12  -4    9.20    4.80
   5 -12   4   14.30    5.70
   5 -12   4    0.30    7.60
   5 -12   4   11.80    5.90
  -5 -12  -4   22.10    6.50
   5 -12   4   12.60    5.40
   5  13   1   14.90    5.90
   5 -13  -1   19.30    8.80
  -5  13  -1    9.60    5.60
  -5 -13   1   17.60    5.20
   5 -13  -1   19.30    5.50
   5 -13  -1   14.00    6.50
   5 -13   1   15.70    9.30
  -5 -13  -1   20.80    7.40
   5 -13   1   11.40    6.50
   5 -13   1   13.00    4.10
  -5  13   1   11.90    5.50
   5  13  -1   12.70    4.60
  -5 -13  -1   18.70    5.80
   5 -13   1    9.20    5.90
   5 -13   1    4.10    8.30
   5 -13   1   18.00    4.00
  -5 -13  -1   15.80    7.00
  -5 -13  -1   14.90    4.30
   5 -13  -3   31.20   11.30
  -5 -13   3   47.90    8.80
   5 -13  -3   35.40   10.00
  -5 -13   3   17.70   10.50
  -5 -13   3   30.70    5.90
  -5  13  -3   17.50    6.40
   5 -13   3   21.90    5.90
   5 -13   3   27.00    9.10
   5  13  -3   24.30    9.10
  -5  13   3   16.80    6.20
  -5 -13  -3   22.50    7.10
  -5 -13  -3   20.40    7.60
   5  14   0   28.80    7.40
  -5  14   0   16.90    5.10
  -6   0   0  509.35   26.00
   6   0   0  522.35   26.10
   6   0   0  544.45   26.10
   6   0   0  510.85   26.00
   6   0   0  510.15   25.80
   6   0   0  507.05   25.80
  -6   0   0  524.15   25.90
  -6   0   0  533.55   25.60
  -6   0   0  540.95   26.10
  -6   0   2   32.90    3.20
   6   0   2   32.90    3.50
  -6   0  -2   33.60    3.40
   6   0  -2   27.20    2.40
  -6   0   2   36.60    3.20
  -6   0  -2   30.50    2.90
   6   0   2   33.80    3.00
   6   0   2   35.40    3.40
   6   0  -2   32.90    3.60
  -6   0  -2   31.60    3.00
  -6   0   2   33.60    3.50
  -6   0  -2   32.90    3.20
   6   0   2   39.90    3.00
   6   0  -2   33.60    3.70
   6   0  -2   31.80    2.90
  -6   0  -4  187.88   10.30
  -6   0  -4  189.68   10.70
   6   0   4  199.88   10.60
  -6   0   4  165.68   10.20
   6   0   4  185.78   10.50
   6   0   4  180.68   10.20
   6   0   4  196.98    9.70
  -6   0   4  184.18   10.40
  -6   0  -4  187.08   10.40
  -6   0   4  193.48   10.70
  -6   0  -4  169.08   10.20
   6   0  -4  201.18   10.60
  -6   0   4  180.08   10.10
   6   0  -4  170.38   10.10
   6   0  -4  173.28   10.10
   6   0  -4  187.78    9.60
   6   0  -4  199.38   10.70
  -6   0   4  191.38    9.50
   6   0   6   74.89    6.30
   6   0  -6   80.09    6.70
  -6   0  -6   73.89    7.30
   6   0   6   91.29    5.00
  -6   0  -6   76.19    6.80
   6   0  -6   77.29    6.60
   6   0   6   79.99    6.30
   6   0   6  101.49    8.30
  -6   0   6   82.79    5.50
  -6   0   6   75.19    6.50
  -6   0  -6   62.59    8.40
   6   0  -6   79.19    6.40
   6   0  -6   79.99    6.40
  -6   0  -6   83.49    6.50
  -6   0   6  101.99    8.30
   6   0   6   78.19    7.00
   6   0   8   64.09    7.20
  -6   0   8   67.69    7.20
  -6   0  -8   90.39    8.30
   6   0   8   65.89    6.60
   6   0  -8   69.19    7.40
  -6   0   8   64.49    8.10
   6   0  -8   70.29    8.70
   6   0  -8   57.29    6.50
  -6   0  -8   77.89    8.20
   6   0   8   70.29    7.60
  -6   0  -8   64.89    6.80
  -6   0   8   62.39    7.50
   6   0   8   70.49    7.30
   6   0  -8   61.19    7.70
   6   0  -8   86.19    7.50
   6   0   8   88.49    8.60
  -6   0  -8   68.49    6.70
  -6   0   8   62.69    7.70
  -6   0 -10   66.69   10.90
   6   0 -10   90.49   11.40
   6   0  10   65.99   11.40
  -6   0  10   56.09    9.60
  -6   0  10   85.39   12.20
   6  -1  -1   51.09    3.80
   6   1   1   48.90    3.70
  -6   1  -1   49.20    4.00
   6   1   1   51.69    4.00
   6  -1  -1   51.59    4.00
   6   1   1   43.40    3.30
   6   1   1   50.09    4.10
  -6  -1   1   48.70    4.00
  -6  -1   1   51.39    4.10
  -6  -1   1   60.99    3.70
   6   1   1   50.59    3.80
  -6   1  -1   52.79    3.90
   6   1   1   47.70    3.70
  -6  -1   1   49.80    3.90
   6  -1  -1   52.59    4.00
  -6  -1   1   53.69    3.90
  -6   1  -1   57.89    3.60
   6   1  -1   51.89    3.90
   6  -1   1   48.70    3.60
   6  -1   1   56.39    3.80
  -6   1   1   56.09    3.90
  -6  -1  -1   54.59    4.00
  -6   1   1   52.89    3.90
   6  -1   1   54.39    3.90
  -6  -1  -1   60.89    3.60
  -6  -1  -1   52.79    4.20
   6   1  -1   49.60    3.80
   6  -1   1   49.99    3.80
   6   1  -1   52.79    4.00
  -6  -1  -1   49.30    3.90
   6   1  -1   54.49    3.80
  -6   1   1   44.40    3.40
   6   1   3   79.69    5.00
   6  -1  -3   69.29    5.20
   6  -1  -3   68.99    5.60
   6  -1  -3   64.49    4.40
   6   1   3   68.19    5.60
   6   1   3   76.29    5.20
  -6   1  -3   66.99    5.00
  -6  -1   3   71.69    5.60
  -6   1  -3   78.49    5.00
  -6   1  -3   68.09    5.50
  -6  -1   3   70.59    4.80
   6  -1  -3   65.29    5.50
   6   1   3   69.09    5.30
  -6  -1   3   67.59    5.30
  -6   1  -3   79.59    4.90
  -6  -1   3   68.69    5.30
   6   1   3   79.89    5.20
   6   1  -3   65.99    4.90
  -6   1   3   65.99    5.10
   6   1  -3   79.49    5.70
  -6  -1  -3   69.89    4.70
   6   1  -3   70.89    4.00
   6  -1   3   58.79    4.20
  -6  -1  -3   64.99    5.00
   6  -1   3   71.29    5.30
   6  -1   3   69.19    4.80
   6   1  -3   68.39    4.80
   6   1  -3   79.09    5.50
  -6   1   3   79.19    5.60
  -6  -1  -3   70.19    5.60
  -6   1   3   67.59    4.10
   6  -1   3   72.59    5.40
   6  -1   3   70.89    5.20
  -6  -1  -3   61.79    5.00
  -6   1   3   67.79    5.20
   6  -1  -5   73.49    5.80
  -6  -1   5   63.39    5.30
   6  -1  -5   77.89    6.10
   6   1   5   62.69    5.40
   6   1   5   70.29    6.20
  -6  -1   5   72.79    6.30
  -6  -1   5   59.19    5.70
   6   1   5   77.99    5.20
  -6   1  -5   69.39    6.10
   6  -1  -5   71.69    4.50
   6   1   5   55.39    5.60
   6   1   5   66.79    5.20
   6  -1  -5   56.69    5.30
   6  -1  -5   68.39    5.00
  -6   1  -5   64.99    5.60
  -6   1  -5   69.69    6.00
  -6   1  -5   70.89    6.20
  -6  -1   5   75.59    6.40
  -6   1   5   68.59    5.10
   6   1  -5   69.79    5.00
   6   1  -5   70.39    5.90
  -6  -1  -5   70.89    6.20
   6  -1   5   71.39    6.10
  -6   1   5   70.29    5.80
  -6  -1  -5   76.69    6.20
  -6  -1  -5   58.59    5.50
   6   1  -5   65.99    5.60
  -6  -1  -5   83.69    6.10
  -6   1   5   67.69    4.10
   6  -1   5   62.89    5.60
   6  -1   5   78.29    5.90
  -6   1   5   67.09    5.50
   6   1  -5   57.89    5.70
   6  -1   5   59.59    4.20
   6  -1   5   65.79    5.30
  -6   1   5   67.79    6.00
   6   1  -5   70.39    6.00
   6   1   7   61.29    6.00
   6   1   7   45.20    6.30
   6  -1  -7   54.79    5.70
   6   1   7   68.29    7.20
   6   1   7   41.00    4.90
  -6   1  -7   44.20    6.40
   6  -1  -7   45.10    6.20
  -6  -1   7   50.49    6.40
  -6  -1   7   54.69    6.90
   6  -1  -7   49.80    6.40
  -6  -1   7   50.39    6.80
  -6   1  -7   56.79    6.30
   6  -1  -7   44.60    5.70
   6  -1  -7   45.60    6.40
   6   1   7   47.90    6.40
  -6   1  -7   55.49    5.90
  -6  -1   7   51.19    6.30
   6   1  -7   43.00    6.00
  -6   1   7   65.29    6.20
  -6   1   7   45.70    4.70
   6  -1   7   56.99    6.60
   6   1  -7   50.99    6.10
   6   1  -7   46.80    5.40
  -6  -1  -7   43.70    5.90
  -6  -1  -7   45.50    6.50
  -6   1   7   42.10    5.90
  -6  -1  -7   50.69    6.60
   6  -1   7   46.00    6.50
  -6  -1  -7   54.69    6.10
   6   1  -7   51.49    5.80
   6  -1   7   55.59    5.90
   6  -1   7   45.10    6.20
  -6   1  -9   11.70    4.60
  -6  -1   9   14.20    5.30
  -6  -1   9   14.30    5.50
   6   1   9   13.80    5.20
   6   1   9   12.10    4.90
   6   1   9   -5.20    7.40
   6  -1  -9   16.30    4.90
  -6  -1   9   22.10    7.20
   6   1   9   11.90    5.60
   6   1   9   14.10    8.40
   6  -1  -9   14.80    5.90
   6  -1  -9   14.70    5.50
  -6   1  -9   19.40    6.10
  -6  -1   9   13.20    8.20
   6  -1  -9   20.00    5.30
   6  -1  -9   13.70    5.60
  -6   1  -9   18.50    7.80
  -6   1  -9   17.60    6.40
   6   1  -9   19.20    5.20
  -6  -1  -9   11.40    5.70
  -6   1   9   15.70    5.20
  -6  -1  -9   20.20    5.00
  -6   1   9   12.30    5.80
  -6   1   9   20.70    6.10
   6   1  -9   13.70    6.90
  -6  -1  -9   17.20    6.00
   6   1  -9   12.70    5.60
  -6   1   9   16.80    4.00
   6  -1   9   22.50    5.20
   6  -1   9   14.70    4.70
   6   1  -9   17.20    6.80
   6   1  -9   11.20    4.50
   6  -1   9   25.30    7.40
   6  -1   9   14.40    6.30
   6  -1   9   14.80    5.80
   6  -1 -11    4.40    7.60
   6  -1 -11   18.30   10.00
  -6   1 -11   25.10   10.30
   6   1  11    1.60    9.90
   6  -1  11    0.50   10.40
   6   1 -11   27.70   10.40
   6   1 -11   35.50   11.50
   6   2   0   34.20    3.70
   6   2   0   31.80    3.10
   6   2   0   29.90    2.20
   6   2   0   29.10    3.00
   6   2   0   33.10    3.10
  -6  -2   0   34.00    3.20
  -6  -2   0   34.40    3.00
   6  -2   0   29.00    2.80
  -6  -2   0   32.30    3.10
   6   2   0   33.10    3.30
  -6  -2   2  257.97   13.20
   6  -2  -2  251.37   13.20
  -6   2  -2  243.58   13.30
  -6  -2   2  260.97   13.30
   6  -2  -2  260.27   13.30
   6   2   2  253.47   13.20
   6  -2  -2  258.27   13.60
  -6   2  -2  253.47   13.40
  -6  -2   2  263.07   13.50
   6   2   2  248.18   13.20
  -6  -2   2  265.57   13.40
   6   2   2  252.07   13.20
   6   2   2  241.98   13.00
  -6   2  -2  255.37   13.30
   6   2   2  262.87   13.50
  -6  -2   2  262.17   13.50
   6   2   2  254.07   13.10
  -6   2  -2  250.77   13.20
   6  -2  -2  252.47   13.40
   6  -2  -2  248.08   12.70
  -6  -2  -2  253.47   13.40
  -6   2   2  244.58   12.80
  -6  -2  -2  239.18   13.30
   6  -2   2  266.17   13.50
   6  -2   2  251.37   13.30
   6  -2   2  259.17   13.40
  -6   2   2  262.57   13.30
   6   2  -2  257.67   13.30
  -6  -2  -2  256.97   13.00
   6   2  -2  254.87   13.50
   6   2  -2  250.37   13.20
  -6  -2  -2  265.67   13.50
   6   2  -2  255.37   13.30
  -6   2   2  256.77   13.30
   6  -2   2  263.07   13.20
   6  -2  -4  162.88    9.20
   6   2   4  150.88    8.40
  -6   2  -4  163.88    9.30
   6   2   4  153.18    8.70
  -6  -2   4  142.49    9.10
  -6  -2   4  139.19    8.90
  -6  -2   4  157.98    9.40
   6   2   4  135.19    9.10
   6  -2  -4  137.39    8.80
  -6  -2   4  160.98    9.00
   6   2   4  171.88    8.90
   6  -2  -4  154.98    8.60
   6   2   4  169.98    9.10
   6  -2  -4  145.89    9.20
   6  -2  -4  170.08    8.40
  -6   2  -4  141.09    9.10
  -6   2  -4  168.18    9.30
  -6   2  -4  158.48    8.70
   6  -2   4  158.38    9.30
   6   2  -4  158.78    8.60
  -6  -2  -4  143.49    9.00
  -6   2   4  159.28    8.30
  -6  -2  -4  162.98    8.80
  -6   2   4  168.58    8.90
   6  -2   4  143.29    8.10
   6   2  -4  159.28    8.90
   6   2  -4  127.29    9.10
  -6   2   4  170.88    9.30
   6  -2   4  140.89    8.90
   6   2  -4  157.88    8.70
  -6  -2  -4  143.19    9.10
   6  -2   4  170.78    9.10
   6  -2   4  150.68    8.90
  -6  -2  -4  146.99    9.10
  -6   2   4  149.59    8.10
  -6   2   4  165.38    8.90
   6   2  -4  159.28    9.20
  -6   2  -6  102.79    7.60
   6  -2  -6  114.59    7.00
  -6  -2   6  131.79    8.90
  -6  -2   6   99.59    7.60
  -6  -2   6  117.29    7.90
   6   2   6  108.69    7.80
  -6   2  -6  103.99    7.70
   6   2   6  106.49    7.80
   6   2   6  104.89    6.60
   6  -2  -6  108.19    7.60
  -6   2  -6  103.99    8.10
  -6  -2   6  119.59    8.60
   6   2   6  108.09    8.10
   6  -2  -6  102.19    8.30
   6  -2  -6  101.49    7.20
   6   2  -6  105.69    8.00
   6  -2   6  127.39    8.80
  -6   2   6  105.89    8.20
  -6  -2  -6   90.09    7.50
   6   2  -6  107.69    7.80
   6  -2   6  116.19    7.70
   6  -2   6   92.39    5.70
  -6   2   6  101.39    6.10
   6  -2   6  123.89    9.00
   6   2  -6  127.19    7.90
  -6   2   6   99.09    6.60
   6   2  -6  108.19    7.70
  -6  -2  -6  126.09    8.40
  -6   2   6  111.09    7.70
   6  -2   6  110.09    7.80
  -6  -2  -6  107.79    7.60
   6   2  -6  106.19    8.00
   6  -2  -8   49.90    7.00
  -6  -2   8   59.49    7.50
   6   2   8   51.79    5.60
   6   2   8   65.29    6.90
   6  -2  -8   49.99    6.50
  -6   2  -8   48.30    7.80
   6  -2  -8   73.49    7.60
   6   2   8   57.59    6.30
   6  -2  -8   57.79    6.80
  -6   2  -8   56.49    7.20
  -6  -2   8   55.99    7.00
  -6   2  -8   51.29    6.70
  -6  -2   8   55.39    6.80
   6   2   8   44.40    6.70
   6  -2   8   71.59    8.10
  -6   2   8   62.09    6.80
   6  -2   8   50.09    6.50
   6  -2   8   53.49    6.50
  -6   2   8   40.10    6.80
  -6  -2  -8   51.29    8.00
   6   2  -8   41.70    7.50
   6  -2   8   43.70    6.50
  -6  -2  -8   57.19    6.40
   6   2  -8   54.39    7.20
   6   2  -8   53.19    7.00
  -6   2   8   50.49    7.40
   6  -2   8   45.10    7.20
   6   2  -8   54.49    6.90
   6   2  10   30.50    8.40
  -6  -2  10   -5.80    8.20
  -6   2 -10    3.00    8.50
  -6  -2  10    7.70    6.70
   6  -2 -10   -6.80    7.10
   6  -2 -10    4.70    7.00
  -6  -2  10   14.70    8.40
  -6   2 -10    2.50    7.30
   6  -2  10   -8.00    7.40
  -6   2  10   25.80    7.90
  -6  -2 -10   11.40    7.50
   6   2 -10    3.80    6.80
  -6   2  10    7.80    8.70
   6   2 -10   12.80    8.00
   6  -2  10   11.20    8.60
   6   2 -10   12.90    5.70
   6  -2  10    8.70    8.10
   6   3   1   60.29    3.30
  -6  -3   1   58.89    4.20
  -6   3  -1   61.09    4.60
  -6  -3   1   60.89    4.30
   6   3   1   62.99    4.60
   6  -3  -1   55.39    4.00
  -6   3  -1   57.69    3.60
   6  -3  -1   58.69    4.90
   6   3   1   69.69    4.10
  -6  -3   1   56.49    4.20
   6   3   1   56.99    4.70
  -6   3  -1   54.19    4.10
   6  -3  -1   57.69    3.40
   6  -3  -1   56.19    4.60
  -6  -3   1   59.99    4.40
   6   3   1   57.39    4.10
   6   3   1   56.59    4.10
  -6  -3   1   55.89    4.30
   6   3  -1   62.19    4.10
   6  -3   1   58.59    4.20
   6  -3   1   64.89    4.30
   6   3  -1   65.69    4.90
   6  -3   1   54.59    4.00
   6   3  -1   56.09    4.20
  -6  -3  -1   54.49    4.00
   6  -3   1   56.89    4.40
   6   3  -1   55.39    3.30
  -6  -3  -1   58.69    4.40
  -6   3   1   62.69    4.20
  -6   3   1   56.49    4.50
  -6  -3  -1   55.89    4.40
   6   3  -1   55.79    4.50
   6   3  -1   62.19    4.30
  -6  -3  -1   55.09    4.10
  -6   3   1   52.69    3.40
   6  -3  -3  417.96   20.90
   6  -3  -3  396.66   20.10
   6   3   3  414.26   20.80
  -6  -3   3  404.26   20.80
  -6  -3   3  411.56   20.80
   6   3   3  408.76   20.80
  -6   3  -3  406.56   20.90
  -6  -3   3  423.56   20.90
  -6   3  -3  411.36   20.70
  -6   3  -3  415.36   21.00
   6   3   3  394.86   20.40
   6   3   3  400.36   20.60
   6   3   3  401.46   20.40
  -6  -3   3  423.06   20.90
  -6  -3   3  419.16   21.00
   6  -3  -3  392.96   20.60
  -6   3  -3  403.36   20.60
   6  -3  -3  421.36   21.10
   6   3   3  396.06   20.50
   6  -3  -3  407.66   20.70
   6  -3   3  403.96   20.80
  -6  -3  -3  398.86   20.40
  -6   3   3  414.36   20.70
   6   3  -3  401.36   20.50
  -6   3   3  396.26   20.70
   6  -3   3  418.36   20.90
  -6  -3  -3  413.86   20.90
  -6   3   3  391.76   20.00
   6  -3   3  396.36   20.70
  -6  -3  -3  383.26   20.70
   6   3  -3  434.66   21.10
  -6  -3  -3  396.46   20.80
   6   3  -3  403.26   20.70
   6   3  -3  413.16   20.60
   6   3  -3  408.46   20.30
  -6   3   3  426.06   20.80
   6  -3   3  409.86   20.70
   6  -3  -5   34.90    5.10
   6   3   5   32.70    4.80
   6   3   5   32.00    4.40
  -6   3  -5   35.20    5.00
   6  -3  -5   24.00    4.00
  -6   3  -5   29.90    4.70
   6  -3  -5   33.80    4.80
  -6  -3   5   31.80    5.20
   6   3   5   31.70    3.70
  -6  -3   5   29.10    5.10
   6   3   5   31.60    4.50
   6   3   5   31.20    4.70
  -6   3  -5   31.80    3.80
   6  -3  -5   30.70    4.60
  -6  -3   5   30.50    4.90
  -6  -3   5   36.50    4.50
  -6   3  -5   32.70    5.10
  -6  -3  -5   31.10    4.80
  -6   3   5   29.40    4.50
   6   3  -5   30.60    4.90
  -6  -3  -5   30.50    5.30
   6   3  -5   36.00    5.00
   6   3  -5   31.00    4.00
   6  -3   5   25.60    2.20
   6  -3   5   28.50    4.90
  -6   3   5   32.30    3.70
   6   3  -5   33.70    4.80
  -6  -3  -5   33.20    4.70
   6  -3   5   28.30    4.80
  -6  -3  -5   31.20    4.70
  -6  -3  -5   32.00    5.30
  -6   3   5   26.70    4.70
  -6   3   5   34.10    5.00
  -6   3   5   21.80    3.00
   6   3  -5   29.00    3.70
  -6   3  -7  104.39    7.60
   6   3   7  103.79    8.10
  -6   3  -7   91.79    8.20
  -6  -3   7  111.29    8.60
  -6  -3   7  100.69    8.70
  -6   3  -7   95.99    8.30
  -6  -3   7  104.09    8.60
   6  -3  -7  102.89    8.30
   6   3   7   98.39    8.20
   6   3   7   96.89    6.60
  -6  -3   7  106.99    8.20
   6   3   7  104.99    7.70
   6  -3  -7  101.79    7.80
   6  -3  -7  107.99    7.90
   6   3  -7  101.19    7.60
  -6   3   7  113.29    7.80
  -6   3   7  102.99    7.90
   6  -3   7  111.89    8.60
   6  -3   7  101.99    8.00
   6  -3   7  106.59    8.30
  -6   3   7   97.39    9.60
   6   3  -7   80.89    7.70
   6   3  -7   96.59    8.40
  -6  -3  -7  110.19    8.50
  -6   3   7   99.89    5.80
  -6  -3  -7  106.19    7.90
   6  -3   7  100.99    8.80
  -6  -3  -7   88.79    7.60
  -6  -3  -7  104.79    8.20
   6   3  -7  100.29    8.30
   6  -3   7  110.09    8.50
  -6   3  -9    6.80    5.20
   6   3   9   19.20    7.40
  -6  -3   9   12.60    6.60
  -6   3  -9   14.20    4.70
  -6   3  -9   16.90    7.70
   6   3   9   18.00    5.00
   6  -3  -9   16.40    5.20
   6   3   9   20.60    5.00
   6  -3  -9   17.20    5.40
   6   3   9   28.60    4.80
  -6   3   9   14.80    4.90
  -6  -3  -9   22.20    6.60
   6   3  -9   13.60    4.90
   6   3  -9   21.10    6.50
  -6  -3  -9   16.40    5.90
   6  -3   9    8.90    5.10
  -6   3   9   23.00    7.00
   6   3  -9   19.70    6.30
   6  -3   9   39.20    8.20
   6   3  -9   16.30    4.70
   6   4   0  294.17   15.80
   6   4   0  309.97   15.40
   6   4   0  311.47   15.40
  -6   4   0  298.67   15.50
   6  -4   0  292.07   15.50
   6   4   0  305.67   15.60
   6   4   0  293.27   15.30
  -6  -4   0  312.47   15.60
  -6  -4   0  308.27   15.70
   6  -4   0  303.87   15.10
   6  -4   0  295.17   15.90
  -6  -4   0  288.37   15.50
  -6  -4   0  308.37   15.80
  -6   4   0  299.37   15.70
  -6   4   0  312.07   15.40
   6  -4   0  311.07   15.70
   6   4   0  306.17   15.60
  -6  -4   0  300.27   15.80
   6  -4  -2  332.07   16.80
   6   4   2  320.27   16.40
   6   4   2  324.37   16.30
  -6   4  -2  305.57   15.80
   6   4   2  305.67   16.40
  -6  -4   2  330.97   16.90
  -6  -4   2  329.57   16.70
  -6  -4   2  337.27   17.00
  -6   4  -2  314.47   16.60
   6  -4  -2  329.67   17.10
   6  -4  -2  320.97   16.90
  -6  -4   2  332.67   16.80
   6   4   2  317.47   16.40
   6   4   2  339.67   16.80
   6  -4  -2  304.47   15.80
   6   4   2  309.47   16.00
  -6   4  -2  320.27   16.40
   6  -4  -2  306.67   16.50
  -6  -4   2  323.67   16.60
  -6   4  -2  315.37   16.70
   6   4  -2  323.07   16.30
  -6   4   2  310.27   15.80
   6  -4   2  331.77   16.70
  -6   4   2  330.77   16.60
   6   4  -2  315.17   16.40
   6   4  -2  316.47   16.40
  -6  -4  -2  323.07   16.00
   6   4  -2  316.87   16.90
   6  -4   2  329.37   16.40
  -6  -4  -2  330.07   16.80
   6  -4   2  312.47   16.50
   6  -4   2  324.07   16.80
  -6  -4  -2  312.67   16.50
   6   4  -2  327.87   15.80
   6   4  -2  321.97   15.70
  -6   4   2  317.07   16.40
  -6   4   2  328.47   16.40
  -6  -4  -2  325.77   16.60
   6   4  -2  334.07   16.80
   6  -4  -4  215.68   12.20
   6   4   4  230.28   12.30
  -6  -4   4  225.48   12.30
  -6  -4   4  222.08   12.80
  -6  -4   4  223.18   12.40
  -6  -4   4  182.88   12.20
   6   4   4  193.68   11.70
   6   4   4  214.38   12.00
   6  -4  -4  235.48   12.30
   6  -4  -4  223.58   12.50
   6   4   4  209.98   12.10
  -6   4  -4  227.68   11.90
  -6   4  -4  215.48   12.50
  -6   4  -4  223.88   12.10
   6   4   4  250.37   11.60
  -6  -4   4  201.28   12.10
   6  -4  -4  224.38   12.20
  -6   4  -4  214.68   12.70
   6   4   4  218.68   11.90
  -6   4   4  227.48   11.90
  -6   4   4  229.38   11.90
  -6  -4  -4  212.38   12.10
   6   4  -4  217.68   11.70
  -6   4   4  227.28   12.30
  -6  -4  -4  221.78   12.10
   6   4  -4  249.28   11.60
  -6  -4  -4  219.58   12.50
  -6  -4  -4  223.28   11.70
   6   4  -4  206.18   12.40
   6  -4   4  221.28   12.60
   6   4  -4  213.98   12.20
   6   4  -4  230.08   12.00
  -6   4   4  210.78   11.00
  -6  -4  -4  229.98   12.30
   6  -4   4  220.18   12.30
   6  -4   4  210.18   12.10
   6   4  -4  204.88   11.80
   6  -4   4  245.88   12.50
  -6  -4   6  169.98   10.30
   6  -4  -6  151.08   10.00
   6   4   6  167.38   10.10
   6   4   6  160.78   10.10
   6  -4  -6  164.78   10.10
  -6  -4   6  186.28   11.10
  -6  -4   6  171.78   10.50
  -6  -4   6  161.58   10.80
  -6   4  -6  166.98   10.00
   6   4   6  148.69   10.30
  -6   4  -6  179.88   10.50
   6   4   6  171.48   10.10
   6  -4  -6  167.98   10.10
   6   4   6  174.58   10.30
  -6  -4   6  170.78   10.50
   6  -4  -6  140.19   10.10
  -6   4  -6  159.88   10.30
  -6   4  -6  156.68   10.50
  -6  -4  -6  140.49   10.40
  -6   4   6  134.29   10.40
  -6   4   6  145.69    8.70
   6   4  -6  163.38   10.00
  -6  -4  -6  143.89   10.10
   6  -4   6  161.48   10.30
   6   4  -6  167.18   10.40
   6  -4   6  163.88   10.20
  -6   4   6  180.68   10.30
   6   4  -6  176.38   10.40
   6  -4   6  181.78   10.80
   6  -4   6  165.08   10.50
   6   4  -6  161.58   10.20
  -6  -4  -6  169.78   10.30
   6   4  -6  178.58   10.70
  -6  -4  -6  161.18    9.90
  -6  -4  -6  155.48    9.50
  -6   4  -8   67.39    9.10
   6  -4  -8   43.80    7.60
   6  -4  -8   46.30    7.50
   6   4   8   42.50    6.00
  -6  -4   8   44.50    9.20
   6   4   8   43.80    6.60
   6   4   8   62.19   10.00
  -6  -4   8   37.00    5.80
  -6  -4   8   64.99    7.30
   6  -4  -8   41.30    6.70
   6  -4  -8   39.30    7.50
  -6   4  -8   47.90    6.00
  -6   4  -8   46.30    6.80
  -6  -4   8   70.39    9.30
   6   4   8   46.10    6.30
  -6  -4  -8   45.00    7.60
  -6  -4  -8   48.00    8.80
  -6  -4  -8   44.20    6.40
   6   4  -8   44.40    7.30
   6   4  -8   41.60    6.50
   6  -4   8   44.20    8.70
   6  -4   8   54.59    8.10
   6  -4   8   45.70    7.30
  -6  -4  -8   52.29    7.20
   6   4  -8   62.99    6.60
   6   4  -8   44.10    6.60
  -6  -4  -8   40.70    6.20
   6   4  -8   68.39    8.40
  -6   4   8   42.60    6.70
  -6   4   8   48.80    6.30
   6  -4   8   44.90    7.00
   6  -4 -10   46.40    8.10
   6   4  10   45.80    8.20
  -6  -4  10   50.69   10.10
   6   4  10   86.09   14.10
  -6  -4  10   47.70    8.00
  -6  -4  10   53.99   10.70
  -6   4 -10   61.99   10.50
   6   4  10   47.30    5.80
  -6   4 -10   47.50    7.40
   6  -4  10   83.29   12.50
  -6   4  10   50.99    8.20
   6   4 -10   49.60    7.20
   6   4 -10   42.10    7.80
   6  -4  10   59.79   10.50
   6  -4  10   79.29   11.10
  -6   4  10   62.79    9.20
   6   4 -10   44.60    9.60
   6  -5  -1  171.08    9.60
   6  -5  -1  165.68    9.30
  -6  -5   1  161.88    9.10
   6   5   1  141.39    9.00
   6  -5  -1  158.18    8.10
   6  -5  -1  152.48    8.90
  -6  -5   1  169.48    9.60
   6   5   1  170.08    9.70
  -6   5  -1  154.68    9.30
  -6  -5   1  139.69    9.20
   6   5   1  175.28    8.70
  -6   5  -1  166.08    8.70
  -6   5  -1  175.68    8.70
   6   5   1  162.58    8.60
   6   5   1  167.48    8.90
  -6  -5   1  154.98    8.90
   6   5   1  163.68    9.30
  -6  -5   1  169.18    9.20
  -6  -5  -1  170.08    9.00
  -6  -5  -1  155.78    8.90
   6  -5   1  145.59    9.40
   6   5  -1  170.48    9.40
   6   5  -1  161.58    8.50
  -6  -5  -1  147.49    9.10
   6   5  -1  150.58    8.30
   6  -5   1  159.08    9.30
   6   5  -1  162.58    9.40
   6  -5   1  159.38    8.60
   6   5  -1  163.38    8.70
  -6  -5  -1  162.68    9.20
  -6   5   1  175.28    8.70
   6   5  -1  141.79    8.90
  -6   5   1  168.48    9.10
   6  -5   1  160.78    8.90
  -6   5   1  158.28    9.40
  -6  -5  -1  172.38    9.60
  -6   5   1  169.08    8.60
  -6   5  -3  110.79    7.20
  -6  -5   3  120.29    7.60
  -6  -5   3  109.19    7.40
   6  -5  -3  121.19    7.70
  -6   5  -3  106.09    6.10
   6   5   3  107.69    6.80
  -6   5  -3   97.69    7.40
  -6   5  -3  112.59    8.30
   6  -5  -3  107.79    7.10
   6  -5  -3  123.59    7.80
  -6  -5   3  110.59    7.70
  -6  -5   3  111.09    7.00
   6   5   3  114.59    7.50
   6   5   3  133.89    6.80
   6   5   3  111.09    7.20
   6   5   3  110.39    6.80
  -6   5  -3  112.39    6.70
   6   5   3  118.59    7.30
   6  -5  -3  115.49    7.80
  -6  -5   3  106.99    7.70
   6   5  -3  108.29    7.40
  -6  -5  -3  116.99    7.50
  -6   5   3  120.89    6.70
   6   5  -3  116.99    7.90
  -6   5   3  121.59    7.10
  -6   5   3  121.89    6.90
   6   5  -3  117.69    6.80
   6   5  -3  111.99    7.10
  -6  -5  -3  119.19    7.10
  -6   5   3  114.89    6.80
   6  -5   3  115.29    6.90
  -6  -5  -3  131.89    6.70
   6   5  -3   98.49    6.90
   6  -5   3  120.29    7.60
   6  -5   3  116.99    7.90
   6  -5   3  124.09    7.50
  -6  -5  -3  111.49    7.70
   6   5  -3  113.19    6.10
  -6  -5  -3  122.59    7.60
  -6  -5   5   38.90    6.60
  -6   5  -5   26.90    4.10
   6   5   5   21.70    4.30
  -6  -5   5   28.60    4.20
   6   5   5   22.60    3.20
  -6   5  -5   26.80    4.50
   6   5   5   35.10    5.30
  -6   5  -5   23.30    3.40
  -6  -5   5   22.00    4.50
   6  -5  -5   29.10    4.50
   6   5   5   21.50    3.80
   6  -5  -5   25.00    4.00
   6  -5  -5    9.00    5.30
  -6   5  -5   25.60    4.90
  -6   5   5   22.00    1.60
   6  -5   5   24.50    5.00
   6   5  -5   23.50    3.90
   6   5  -5   22.20    3.70
   6  -5   5   23.70    3.90
  -6  -5  -5   27.80    4.20
  -6   5   5   19.90    3.60
   6   5  -5   22.30    4.00
   6  -5   5   23.00    4.40
   6   5  -5   23.40    3.60
  -6  -5  -5   24.70    4.30
  -6   5   5   23.30    2.50
   6  -5   5   19.00    2.10
  -6  -5  -5   24.90    4.00
   6  -5   5   22.20    4.10
  -6   5   5   25.00    4.40
   6   5  -5   29.80    4.50
  -6  -5   7    9.40    4.80
   6   5   7    5.60    1.70
   6  -5  -7   19.10    4.70
  -6   5  -7    8.90    4.50
  -6  -5   7    4.60    3.90
  -6   5  -7   15.20    5.30
   6  -5  -7    8.60    4.00
  -6   5  -7    6.80    4.40
   6   5   7   10.80    4.30
   6   5   7   11.70    5.90
   6   5   7    5.20    3.30
  -6   5  -7    6.50    4.10
  -6  -5   7   13.90    4.50
   6   5   7   10.60    2.70
  -6  -5   7    9.60    5.60
   6   5   7    9.80    4.20
   6  -5  -7    9.70    4.40
  -6  -5   7    6.60    4.90
   6  -5  -7    6.80    4.90
  -6   5  -7    6.60    4.40
   6  -5   7    9.90    4.80
   6   5  -7   -0.50    4.30
  -6  -5  -7    9.60    4.80
   6   5  -7   11.10    4.40
  -6   5   7    6.90    3.60
   6   5  -7   14.20    5.00
   6  -5   7   12.90    5.40
   6  -5   7    7.50    3.80
   6   5  -7    5.00    4.80
  -6  -5  -7    8.20    4.30
  -6   5   7    8.90    4.10
   6   5  -7   11.00    4.40
   6   5  -7    3.70    3.70
   6  -5   7   19.60    5.30
  -6  -5  -7   10.40    3.90
   6  -5   7    9.00    4.20
   6   5   9    9.40    3.80
  -6   5  -9   16.80    8.80
  -6  -5   9    5.90    7.80
  -6  -5   9    1.10    5.40
   6   5   9    1.70    4.50
   6  -5  -9   -3.50    7.00
  -6   5  -9    1.00    5.00
  -6  -5   9   15.60    8.60
   6   5   9   -7.10    7.90
   6  -5  -9    7.10    6.30
  -6  -5  -9    2.00    5.60
   6   5  -9    2.00    5.30
  -6   5   9    1.30    5.20
   6   5  -9    7.50    4.80
  -6   5   9   -6.80    8.50
  -6   5   9    6.50    7.60
  -6   5   9   -2.60    4.80
   6  -5   9   27.00    8.20
   6   5  -9    6.10    7.30
   6  -5   9    0.50    8.00
   6   5  -9    4.60    5.00
  -6   5   9    3.60    3.20
  -6  -5  -9    9.20    6.90
   6  -5   9    5.00    6.80
  -6  -5  -9    9.50    7.10
  -6   6   0  454.75   21.90
  -6  -6   0  432.86   22.20
   6   6   0  444.76   21.90
   6   6   0  429.66   22.10
   6   6   0  445.86   22.60
  -6   6   0  424.06   22.50
  -6   6   0  425.56   21.90
   6  -6   0  453.05   22.50
   6   6   0  454.65   22.40
   6   6   0  441.06   22.50
  -6  -6   0  429.36   22.70
   6  -6   0  448.66   21.70
   6  -6   0  445.66   23.00
   6   6   0  428.86   21.80
  -6  -6   0  454.85   22.40
  -6   6   0  444.46   22.80
   6  -6   0  431.56   22.20
  -6  -6   0  446.26   22.40
  -6  -6   0  460.05   22.70
  -6  -6   2  224.18   12.70
  -6   6  -2  220.68   13.00
   6  -6  -2  230.38   13.00
   6   6   2  228.38   12.80
   6   6   2  232.08   12.80
   6  -6  -2  227.08   12.60
   6   6   2  241.58   12.10
   6  -6  -2  240.28   12.80
  -6   6  -2  233.38   13.50
  -6  -6   2  236.88   13.10
  -6  -6   2  222.78   12.70
   6   6   2  228.38   12.80
  -6  -6   2  233.38   12.70
   6   6   2  228.08   11.90
  -6  -6   2  231.58   12.40
   6  -6  -2  225.18   11.60
  -6   6  -2  258.17   12.00
  -6   6  -2  220.98   11.80
   6   6   2  225.48   12.00
   6  -6  -2  242.88   13.00
   6   6  -2  237.08   11.90
  -6   6   2  230.98   12.50
   6  -6   2  229.08   12.40
   6   6  -2  221.18   11.80
   6  -6   2  235.68   12.80
  -6  -6  -2  229.08   12.90
  -6  -6  -2  229.58   12.70
  -6   6   2  226.98   12.70
   6   6  -2  247.08   12.90
   6   6  -2  231.28   13.00
  -6   6   2  234.68   12.00
  -6  -6  -2  213.88   12.60
  -6  -6  -2  226.68   12.90
   6  -6   2  232.38   12.20
  -6  -6  -2  234.78   11.60
  -6   6   2  242.38   12.00
  -6  -6  -2  243.28   12.80
   6  -6   2  227.78   13.10
   6   6  -2  233.78   12.80
   6   6   4  384.36   18.70
   6   6   4  386.16   19.30
  -6  -6   4  384.16   19.80
  -6  -6   4  392.56   19.80
   6   6   4  396.06   19.90
  -6  -6   4  392.16   20.00
   6   6   4  379.66   20.00
  -6   6  -4  402.26   20.60
   6   6   4  337.77   20.10
  -6  -6   4  340.17   20.60
   6  -6  -4  392.36   20.10
  -6   6  -4  386.86   20.10
   6   6   4  370.06   19.10
  -6   6  -4  375.56   19.10
  -6  -6   4  388.36   20.10
   6  -6  -4  373.36   19.90
   6  -6  -4  374.66   19.90
  -6   6  -4  371.66   19.10
   6  -6  -4  369.56   19.80
   6   6  -4  381.06   19.00
  -6  -6  -4  358.46   19.70
  -6   6   4  379.56   19.70
   6  -6   4  395.06   20.40
  -6  -6  -4  377.16   19.90
  -6  -6  -4  395.66   19.70
  -6  -6  -4  379.96   19.20
   6   6  -4  357.36   19.10
   6   6  -4  392.66   20.40
   6   6  -4  378.06   18.80
  -6   6   4  367.06   19.00
  -6   6   4  379.26   19.20
   6  -6   4  367.46   19.70
   6   6  -4  381.06   20.00
   6   6  -4  371.26   19.60
   6  -6   4  375.76   19.70
  -6  -6  -4  338.27   20.40
  -6   6   4  384.06   19.40
   6  -6   4  365.36   19.60
   6  -6  -6  175.88   12.60
  -6  -6   6  219.98   12.80
   6  -6  -6  220.08   13.10
   6   6   6  210.68   13.30
  -6  -6   6  228.68   13.70
  -6  -6   6  205.48   13.10
   6  -6  -6  213.78   13.00
  -6   6  -6  214.08   12.60
  -6   6  -6  211.68   12.90
   6   6   6  223.28   13.20
   6  -6  -6  199.28   12.80
   6   6   6  211.98   12.60
  -6   6  -6  209.38   11.80
  -6  -6   6  214.48   13.60
  -6   6  -6  230.78   13.90
  -6  -6   6  246.48   13.80
   6   6   6  210.88   12.50
  -6   6  -6  192.28   12.00
  -6  -6  -6  224.58   12.10
  -6   6   6  205.08   12.30
  -6  -6  -6  203.48   13.10
   6  -6   6  236.78   13.10
   6  -6   6  213.68   12.80
  -6  -6  -6  217.98   13.10
  -6   6   6  210.38   12.90
  -6   6   6  204.78   12.80
   6   6  -6  209.98   13.10
   6  -6   6  251.27   14.40
   6   6  -6  205.98   12.50
   6   6  -6  229.48   13.20
   6  -6   6  226.58   12.70
  -6  -6  -6  207.58   12.80
   6   6  -6  217.28   12.30
  -6  -6  -6  213.78   13.30
   6   6  -6  204.38   11.90
   6   6  -6  215.88   12.70
  -6  -6   8   85.29    9.00
   6   6   8   86.39    8.60
   6  -6  -8  109.39   10.40
  -6  -6   8   81.39   12.60
   6   6   8  105.89    8.80
   6   6   8   87.59    8.50
  -6  -6   8   86.19    8.90
  -6   6  -8   80.89    8.70
   6  -6  -8   98.39    8.80
   6  -6  -8   82.99    9.20
  -6   6  -8   77.79    8.40
  -6  -6   8  111.19   11.90
   6  -6  -8   70.59    8.50
  -6   6   8   88.09    8.90
  -6  -6  -8   79.39    7.50
  -6   6   8   85.19    6.00
   6   6  -8   83.49    8.50
  -6   6   8  102.19    9.10
   6  -6   8   82.29    9.00
  -6  -6  -8   84.69    8.60
   6  -6   8   80.39   11.40
   6   6  -8   77.39    8.20
  -6  -6  -8   84.29    9.30
   6  -6   8   77.49    9.50
   6   6  -8   56.39    9.80
   6   7   1  176.38   10.00
  -6   7  -1  183.08   10.10
   6   7   1  170.28    9.20
   6  -7  -1  155.38    8.30
  -6   7  -1  165.68   10.30
  -6  -7   1  163.38    9.80
   6   7   1  166.98    8.40
  -6  -7   1  175.38   10.00
  -6  -7   1  167.48    9.80
   6   7   1  159.28    8.30
   6  -7  -1  168.98   10.10
  -6   7  -1  166.08    8.20
   6  -7  -1  169.58   10.10
  -6   7  -1  156.18    8.30
   6  -7  -1  161.88    9.40
   6   7   1  158.38    9.30
  -6  -7   1  160.58    9.30
   6   7  -1  173.38   10.20
  -6  -7  -1  170.68    9.80
   6  -7   1  169.68    8.90
  -6   7   1  156.68    9.70
  -6  -7  -1  177.38   10.20
   6   7  -1  162.08    8.80
  -6  -7  -1  164.68    9.40
   6  -7   1  134.39   10.50
  -6  -7  -1  174.08    9.90
  -6   7   1  167.18    8.50
   6   7  -1  161.18    9.70
   6  -7   1  160.88    9.30
  -6  -7  -1  158.78    9.70
  -6   7   1  157.98    8.40
  -6  -7  -1  164.18   10.30
   6  -7   1  173.88   10.00
  -6   7   1  166.98   10.70
   6  -7  -3   52.59    6.10
   6   7   3   51.69    3.80
  -6   7  -3   44.40    3.30
  -6  -7   3   48.30    5.60
  -6   7  -3   49.80    5.40
  -6   7  -3   52.49    3.70
  -6  -7   3   62.09    5.90
  -6  -7   3   55.89    4.80
   6  -7  -3   54.39    5.70
   6   7   3   54.39    5.80
  -6  -7   3   50.79    6.20
   6   7   3   52.69    5.80
   6  -7  -3   47.70    5.30
   6  -7  -3   51.89    5.50
   6   7   3   48.10    3.60
  -6  -7   3   58.69    6.00
   6   7  -3   55.99    6.10
   6   7  -3   52.29    3.10
  -6  -7  -3   42.00    5.20
  -6  -7  -3   45.80    6.90
  -6  -7  -3   50.79    5.20
   6  -7   3   40.70    4.80
  -6  -7  -3   50.69    4.30
  -6   7   3   54.49    3.80
   6  -7   3   66.79    6.90
   6   7  -3   55.79    5.30
   6  -7   3   49.00    6.00
   6  -7   3   51.49    6.10
  -6   7   3   52.49    5.50
  -6   7   3   51.09    6.50
   6   7  -3   50.69    3.60
  -6  -7  -3   54.59    5.50
  -6   7  -5   14.10    5.20
   6   7   5    8.60    5.00
   6  -7  -5    6.70    4.20
  -6   7  -5    5.70    3.00
  -6  -7   5    3.80    3.90
  -6   7  -5    7.30    4.00
   6  -7  -5   12.60    4.40
  -6   7  -5    4.80    2.30
  -6  -7   5    4.70    4.40
   6   7   5    6.40    4.50
   6   7   5    6.50    3.50
  -6  -7   5    6.40    4.20
   6  -7  -5   12.10    4.40
   6   7   5    7.10    2.60
   6  -7  -5    5.60    4.30
   6   7   5   14.90    3.80
  -6  -7   5    9.90    4.90
  -6   7  -5    6.80    3.10
  -6  -7   5    9.00    4.60
   6  -7   5    5.60    4.00
   6   7  -5    7.00    5.40
  -6  -7  -5    6.40    4.00
  -6  -7  -5    6.20    4.50
   6   7  -5    5.90    4.60
  -6   7   5    5.60    3.60
   6  -7   5    8.30    4.80
  -6   7   5    5.70    1.60
   6  -7   5    5.80    2.10
   6   7  -5    7.10    2.60
  -6  -7  -5    6.40    4.00
   6  -7   5   -2.60    5.70
  -6   7   5    7.60    2.80
  -6  -7  -5   11.00    4.00
  -6   7   5    3.30    4.00
   6   7  -5    9.90    2.40
   6  -7   5    8.00    4.10
  -6   7  -7   13.50    6.70
   6  -7  -7   27.30    6.20
  -6  -7   7   12.60    5.40
  -6   7  -7    9.80    4.80
  -6  -7   7   12.60    6.30
   6  -7  -7   10.20    5.00
   6   7   7    9.20    4.60
  -6   7  -7   16.60    5.70
  -6   7  -7    8.40    3.70
  -6  -7   7   20.40    5.60
   6  -7  -7   14.30    5.20
  -6  -7   7    5.40    5.50
   6   7   7    8.90    5.50
  -6  -7   7   15.60    5.10
   6   7   7    2.70    4.50
   6   7   7   15.90    7.10
  -6   7  -7   11.30    3.50
   6  -7  -7   13.70    5.50
   6  -7   7   10.10    4.60
   6  -7   7   13.40    5.00
   6  -7   7   12.00    5.60
   6  -7   7    9.80    6.10
   6   7  -7   13.30    5.30
   6  -7   7    7.10    6.40
  -6  -7  -7   18.90    4.60
  -6  -7  -7   10.90    5.50
   6   7  -7   10.80    3.90
  -6   7   7   12.40    4.70
   6   7  -7   17.50    5.40
   6   7  -7   11.60    5.70
   6   7  -7    9.30    4.70
  -6  -7  -7   11.40    4.80
  -6   7   7   10.90    5.10
   6  -7  -9    0.60    7.70
  -6   7  -9    4.00    6.30
   6   7   9   12.30    5.00
   6  -7  -9   16.00    7.10
  -6  -7   9   34.90    9.80
   6   7   9   23.90   11.70
  -6   7  -9    3.60    5.50
  -6   7  -9   14.70   11.80
  -6  -7   9   13.90   11.20
  -6   7  -9    7.50    8.70
   6   7   9    6.20    5.90
   6  -7   9   37.30   12.00
   6   7  -9   22.30    7.30
  -6   7   9   20.00    5.80
  -6  -7  -9    2.90    6.50
  -6   7   9    5.20    7.10
   6   7  -9    9.30    5.90
  -6  -7  -9    0.10    8.70
   6   7  -9    4.80    5.30
   6  -7   9   33.40    8.50
   6  -7   9   20.50   10.70
  -6  -7  -9   13.20    5.30
   6   7  -9   13.00    7.20
  -6  -7  -9    6.10    7.70
   6   7  -9   33.80   10.80
  -6  -8   0  277.87   15.10
   6  -8   0  278.77   14.30
  -6  -8   0  289.37   15.40
   6   8   0  267.47   14.90
   6  -8   0  283.07   15.80
  -6   8   0  278.67   15.60
  -6   8   0  278.67   15.80
   6  -8   0  280.07   15.00
   6   8   0  291.77   15.60
  -6  -8   0  307.27   16.00
  -6  -8   0  298.97   15.80
   6   8   0  293.97   15.50
  -6  -8   0  281.27   15.00
   6  -8   0  287.87   16.00
   6  -8   0  292.77   15.50
   6  -8  -2  112.59    8.10
   6   8   2  112.89    8.10
   6   8   2  108.89    7.90
  -6  -8   2  115.89    8.80
  -6   8  -2  133.79    9.30
   6   8   2  114.19    8.10
   6  -8  -2  106.29    7.40
  -6  -8   2  118.29    8.00
  -6  -8   2  108.59    8.60
  -6   8  -2  106.49    8.20
   6   8   2  121.89    6.90
   6  -8  -2  107.29    6.70
  -6  -8   2  101.39    7.60
  -6  -8   2  121.09    8.00
   6  -8  -2  116.89    8.20
  -6  -8  -2  132.19    8.20
  -6  -8  -2  130.79    7.30
   6  -8   2  108.19    7.20
   6  -8   2  112.19    8.90
  -6  -8  -2  134.89    8.10
   6   8  -2   95.89    8.10
   6  -8   2  130.89    8.10
  -6   8   2   96.79    7.70
  -6  -8  -2  138.69    8.20
   6  -8   2  107.99    7.30
  -6   8   2  116.59    7.50
  -6   8  -4  174.98   10.10
   6  -8  -4  189.38   11.00
  -6  -8   4  212.18   12.40
  -6  -8   4  187.18   11.30
   6  -8  -4  161.38   11.00
  -6  -8   4  188.18   11.20
  -6  -8   4  163.48   11.40
   6   8   4  177.38   11.40
   6  -8  -4  179.18   11.80
   6   8   4  203.58   11.10
  -6   8  -4  184.58   12.30
   6   8   4  174.48    9.60
   6   8   4  167.98    9.40
   6   8   4  184.98   11.50
  -6  -8   4  177.68   11.50
  -6  -8   4  182.98   11.60
  -6   8  -4  183.38   11.30
  -6  -8  -4  145.89   11.40
   6  -8   4  172.08   11.30
   6   8  -4  214.58   11.70
   6  -8   4  193.38   12.30
  -6  -8  -4  180.58   10.20
   6  -8   4  178.38    9.80
  -6  -8  -4  186.48   11.00
  -6   8   4  183.28   11.40
  -6   8   4  167.48    9.60
  -6  -8  -4  181.48   11.40
  -6   8   4  199.78    9.90
   6  -8   4  181.98   11.40
  -6   8   4  174.18    9.70
   6   8  -4  202.28   11.90
   6  -8   4  174.28   11.00
  -6  -8  -4  179.88   11.10
  -6   8  -6   88.59    5.50
  -6   8  -6   90.09    8.30
   6  -8  -6   76.19    7.90
   6  -8  -6   82.39    8.60
  -6  -8   6   89.19    9.60
   6   8   6   86.19    6.50
  -6  -8   6   88.59    9.30
  -6  -8   6   81.79    8.30
  -6   8  -6   81.59   10.80
   6   8   6   94.09    8.30
   6   8   6   86.29    7.50
   6   8   6   79.59   10.50
   6  -8  -6   90.39    7.90
  -6   8  -6   89.89    8.60
  -6  -8   6   81.99   11.90
  -6  -8   6   86.59    9.00
  -6   8  -6   76.29    5.00
  -6   8  -6   86.99    8.20
   6   8  -6   85.89   10.10
   6  -8   6   94.49    8.20
  -6   8   6   88.49    8.30
   6  -8   6   85.19   11.30
   6   8  -6   90.79    7.00
  -6  -8  -6   84.69    7.60
  -6  -8  -6   90.59    8.00
   6   8  -6   70.29    7.80
   6   8  -6   86.09    8.10
  -6   8   6   90.79    8.00
  -6  -8  -6   89.59    8.90
   6  -8   6   85.59    8.60
   6   8  -6   81.49    4.90
   6  -8   6   92.59    9.20
  -6   8   6   84.69    6.80
   6  -8   6   88.19   10.20
  -6  -8   8   22.00    8.30
  -6   8  -8   18.20    9.80
  -6   8  -8   28.30    8.10
  -6   8  -8   35.00    4.40
   6  -8  -8   33.70    6.90
  -6  -8   8   27.70    8.90
   6   8   8   34.60    6.10
   6  -8  -8   28.60    7.20
   6   8   8   13.30    9.80
   6   8  -8   34.80    9.70
   6   8  -8   35.60    6.40
  -6  -8  -8   37.10    7.70
   6  -8   8   16.10    8.90
  -6   8   8   40.30    6.10
   6   8  -8   31.40    4.50
   6  -8   8   31.10    9.00
  -6  -8  -8   37.70    9.00
   6   8  -8   35.70    5.80
  -6   8   8   37.80    5.20
   6  -9  -1   41.70    6.20
   6  -9  -1   53.89    4.30
   6   9   1   43.20    4.50
   6   9   1   57.89    5.70
  -6  -9   1   42.80    6.80
  -6   9  -1   40.90    5.60
   6  -9  -1   53.09    6.50
   6   9   1   34.60    5.30
  -6  -9   1   45.00    6.00
   6   9   1   41.80    5.70
   6  -9  -1   44.20    4.00
  -6  -9   1   40.00    5.30
  -6  -9   1   41.20    6.60
  -6  -9   1   38.30    5.60
   6  -9   1   39.40    6.30
  -6  -9  -1   51.09    5.80
   6  -9   1   53.19    6.00
  -6   9   1   43.50    6.20
   6  -9   1   41.60    4.10
   6   9  -1   40.70    5.90
  -6  -9  -1   39.40    5.40
  -6  -9  -1   36.60    4.90
  -6  -9  -1   45.60    6.60
  -6  -9  -1   43.00    6.60
   6  -9   1   41.90    6.40
   6  -9   1   33.00    4.90
   6   9  -1   41.80    6.10
  -6  -9  -1   40.50    6.20
   6  -9  -3   38.00    5.40
  -6   9  -3   33.80    5.00
   6   9   3   52.29    6.60
  -6  -9   3   35.80    4.50
   6  -9  -3   32.60    4.80
   6   9   3   46.90    6.60
  -6  -9   3   35.60    6.10
   6   9   3   41.00    5.20
  -6   9  -3   42.90    6.90
   6  -9  -3   34.20    4.90
  -6  -9   3   40.70    5.90
   6  -9  -3   43.30    6.10
  -6  -9   3   30.20    5.40
   6  -9  -3   34.80    4.50
  -6  -9   3   36.50    6.70
   6   9  -3   42.50    6.20
  -6  -9  -3   37.00    4.00
   6  -9   3   38.60    5.00
  -6  -9  -3   38.40    5.90
  -6  -9  -3   39.90    6.00
  -6  -9  -3   38.70    5.60
   6  -9   3   37.70    5.10
   6   9  -3   48.60    5.50
  -6  -9  -3   36.90    5.70
  -6  -9  -3   40.10    5.30
   6  -9   3   45.10    5.50
   6  -9   3   33.50    5.70
  -6   9   3   32.40    4.50
   6  -9  -5   10.20    4.60
  -6  -9   5   16.70    5.50
  -6  -9   5   17.10    5.40
  -6  -9   5   11.80    5.30
   6  -9  -5   11.00    5.20
  -6   9  -5   14.50    7.80
   6   9   5   30.40    6.80
   6  -9  -5   14.90    5.60
  -6  -9   5   16.80    5.80
   6   9   5   16.60    4.70
  -6   9  -5   13.70    5.60
   6  -9  -5   10.70    5.20
  -6   9   5   12.70    2.30
  -6  -9  -5   15.20    4.80
  -6   9   5   15.30    2.70
   6  -9   5   11.70    4.60
   6  -9   5   19.10    4.90
  -6  -9  -5   17.10    5.30
  -6  -9  -5   10.30    5.40
   6   9  -5   16.10    4.70
  -6  -9  -5   10.20    4.70
   6  -9   5   14.20    5.10
  -6   9   5    5.70    3.40
   6   9  -5   15.50    5.00
  -6  -9  -5   11.00    5.70
   6   9  -5   16.00    6.40
   6  -9   5   16.20    7.20
   6   9   7    8.50    5.40
  -6   9  -7   10.00    5.20
   6   9   7    4.30    3.60
  -6  -9   7    8.10    5.90
  -6   9  -7    3.70    6.00
   6  -9  -7    6.30    6.10
  -6   9  -7  -16.20    8.90
   6  -9  -7    3.60    5.10
   6   9   7    8.80    3.60
  -6  -9   7  -10.90    7.10
  -6  -9   7    1.40    7.80
   6   9  -7   -8.50    7.50
  -6  -9  -7    5.60    5.60
   6  -9   7    2.70    7.80
  -6  -9  -7    9.70    7.50
   6   9  -7   12.70    5.50
  -6   9   7    6.50    4.30
  -6   9   7    8.30    3.50
  -6  -9  -7    8.50    6.00
   6  -9   7    1.70    5.90
   6  -9   7    8.90    6.50
  -6   9   7   11.10    4.10
  -6  -9  -7   11.90    7.60
  -6 -10   0   78.69    8.30
   6 -10   0   71.09    7.10
   6 -10   0   48.50    3.70
   6 -10   0   50.59    7.10
   6  10   0   76.29    7.20
   6  10   0   58.19    6.80
  -6 -10   0   61.89    6.70
  -6 -10   0   49.80    6.90
  -6  10   0   48.20    6.20
   6 -10   0   68.59    7.60
  -6 -10   0   66.89    5.60
   6 -10   0   51.89    3.90
  -6 -10   0   54.79    6.70
  -6 -10   0   55.39    5.80
   6 -10   0   61.19    4.80
   6 -10   0   64.49    5.10
  -6 -10   2   69.49    7.60
  -6  10  -2  102.29    8.80
  -6 -10   2   82.49    7.50
  -6 -10   2   93.79    8.70
   6 -10  -2   81.39    5.90
  -6 -10   2   85.49    7.70
   6 -10  -2   79.29    7.50
  -6 -10   2   61.79    6.40
   6 -10  -2   58.79    6.80
   6  10   2   87.89    7.60
   6 -10  -2   86.69    7.80
  -6  10  -2   84.49    7.90
   6 -10   2   81.59    7.50
  -6 -10  -2  102.79    8.40
   6 -10   2   60.49    7.50
   6 -10   2   88.79    7.80
  -6 -10  -2   78.19    7.20
  -6 -10  -2   71.19    6.80
   6 -10   2   89.09    8.40
  -6 -10  -2   74.39    7.50
  -6  10   2   71.19    7.10
  -6  10   2   76.19    7.40
   6  10  -2   76.29    7.80
   6 -10   2   79.59    8.10
  -6 -10  -2   81.29    7.20
  -6 -10   4   22.90    5.60
  -6 -10   4   26.60    6.00
   6  10   4   36.90    5.50
   6 -10  -4   35.60    6.30
  -6  10  -4   27.40    7.90
   6  10   4   34.30    6.60
   6 -10  -4   32.20    5.80
   6 -10  -4   30.40    5.20
  -6 -10   4   31.50    5.40
  -6 -10   4   30.80    6.10
  -6 -10   4   31.70    6.30
   6 -10  -4   30.30    6.20
   6 -10  -4   31.90    5.90
  -6  10  -4   26.30    5.90
   6 -10   4   25.90    5.30
   6  10  -4   37.10    5.90
   6  10  -4   27.70    5.80
  -6 -10  -4   33.70    5.40
   6 -10   4   29.80    7.60
  -6 -10  -4   29.80    5.20
  -6 -10  -4   29.00    5.70
  -6 -10  -4   30.90    5.90
   6 -10   4   29.80    5.30
  -6 -10  -4   28.60    5.30
  -6  10   4   24.90    4.60
   6 -10   4   33.30    5.20
  -6  10  -6   53.19   10.40
   6 -10  -6   35.10    6.60
  -6  10  -6   27.60    5.10
   6  10   6   39.90    9.60
   6 -10  -6   29.50    6.20
  -6 -10   6   34.10    8.50
   6 -10  -6   35.60    7.60
  -6 -10   6   20.40    7.90
   6  10   6   31.00    5.80
  -6 -10   6   36.70    6.70
   6  10  -6   29.20    8.80
  -6  10   6   36.30    5.60
  -6 -10  -6   39.90    7.60
   6 -10   6   45.00    9.20
   6 -10   6   39.20    7.10
   6 -10   6   37.70    6.60
  -6 -10  -6   37.10    6.70
  -6 -10  -6   24.80    6.80
  -6  11  -1    8.20    5.40
  -6 -11   1   13.50    5.10
  -6 -11   1    3.30    3.60
   6 -11  -1   18.10    7.50
  -6 -11   1    9.10    4.70
  -6 -11   1    3.60    5.90
   6 -11  -1    9.20    4.20
   6 -11  -1   14.50    3.40
   6  11   1   20.00    6.40
  -6 -11   1   12.90    5.90
   6 -11  -1   15.40    5.40
  -6 -11   1    3.50    4.80
   6 -11  -1    8.60    4.40
   6 -11   1   16.50    5.60
   6 -11   1   11.20    3.10
  -6 -11  -1   11.00    4.50
   6  11  -1    8.10    7.10
  -6 -11  -1   16.20    5.30
  -6 -11  -1   16.40    5.20
  -6  11   1    6.20    4.30
   6  11  -1   10.00    3.70
   6 -11   1    7.10    7.70
   6 -11   1   13.70    4.70
  -6 -11  -1    4.30    4.20
  -6 -11  -1   13.80    3.50
  -6 -11   3   13.30    4.90
   6 -11  -3   15.30    6.00
  -6 -11   3   14.90    5.30
  -6  11  -3   10.60    6.40
   6  11   3   23.90    5.90
   6  11   3   13.30    4.90
   6 -11  -3   18.00    4.80
   6 -11  -3   15.60    5.30
  -6  11  -3   17.90    7.20
   6  11  -3   12.40    4.70
   6 -11   3   15.10    4.80
   6 -11   3    1.80    6.00
  -6 -11  -3   13.50    4.80
  -6  11   3   13.20    5.10
   6 -11   3   19.10    5.20
  -6 -11  -3    1.70    7.00
   6  11  -3   13.10    4.40
  -6 -11  -3   10.90    2.10
   6 -11   3   16.30    5.90
  -6 -11  -3   10.00    2.90
   6  11   5    2.90    5.20
  -6 -11   5    5.10    7.90
  -6 -11   5   -0.60    6.00
  -6  11  -5    0.20    5.70
   6 -11  -5   -0.20    5.20
  -6 -11   5   -5.80    6.70
   6  11   5  -16.50    8.30
   6 -11  -5    1.80    5.90
  -6  11  -5   -8.00    8.60
   6 -11  -5    0.30    5.30
  -6 -11   5  -14.40    7.00
   6 -11  -5    2.90    5.30
   6 -11   5   -1.40    6.10
  -6  11   5    2.00    6.40
   6 -11   5    9.20    8.70
   6 -11   5    4.10    6.20
  -6 -11  -5    1.50    5.60
   6  11  -5   -6.80    4.80
  -6 -11  -5   -1.30    6.50
   6 -11   5    2.20    6.30
   6  11  -5  -14.60    8.30
  -6  12   0   13.40    3.80
  -6 -12   0   15.80    4.70
  -6 -12   0   19.90    5.90
   6  12   0   16.80    7.70
   6 -12   0   21.30    4.90
   6 -12   0   24.30    5.70
  -6 -12   0   15.70    5.10
   6 -12   0   17.10    4.80
   6  12   0    5.50    7.00
  -6 -12   0   22.10    7.10
  -6 -12   0   21.80    7.00
  -6  12  -2   24.20    8.20
   6 -12  -2   23.80    5.20
  -6 -12   2   19.70    7.60
  -6 -12   2    5.40    6.10
   6 -12  -2   24.10    7.50
   6 -12  -2   13.70    8.70
  -6 -12   2   23.00    6.60
  -6 -12   2   22.20    5.60
   6  12   2   25.00    6.50
   6 -12  -2   21.10    6.00
  -6 -12  -2   25.70    5.40
   6 -12   2   26.70    5.60
  -6 -12  -2   21.80    7.10
   6 -12   2   30.80    6.30
  -6  12   2   17.80    4.40
   6 -12   2   26.30    5.80
  -6 -12  -2   25.60    7.00
   6 -12   2   24.90    8.20
   6  12  -2   19.10    6.40
   6 -12   2   24.20    5.70
   6 -12   2   19.90    4.20
  -6 -12  -2   21.80    5.90
  -6 -12   4   17.90    6.20
   6 -12  -4    4.70    5.60
  -6 -12   4    8.10    5.20
  -6  12  -4    5.90    5.70
  -6 -12   4   -1.40    8.30
   6 -12   4   22.80    5.90
  -6 -13   1    6.50    6.50
   6 -13  -1  -17.70    8.80
  -6 -13   1    3.00    6.10
   6 -13  -1   -4.30    5.20
  -6  13  -1    4.90    5.70
   6 -13   1   -0.40    9.30
  -6  13   1    0.50    6.20
  -6 -13  -1    3.30    5.60
   6 -13   1   13.10    6.80
  -6 -13  -1   12.40    8.50
   6 -13   1    4.10    5.60
   6  13  -1    7.10    6.20
   6  13  -1    6.20    8.10
  -6 -13   3   39.30   11.20
  -6 -13   3   -0.20    8.20
   6 -13  -3   37.20   12.00
  -6  13  -3    3.60    9.90
   6 -13   3   23.00   11.50
  -6 -13  -3    3.50    8.30
   7   0   0    0.30    2.60
  -7   0   0    0.90    1.90
   7   0   0   -0.10    1.70
  -7   0   0    0.10    1.90
   7   0   0   -0.60    1.80
   7   0   0   -0.10    2.80
  -7   0   0    0.80    2.60
  -7   0   0    0.80    1.30
  -7   0  -2   -0.70    1.90
  -7   0   2    2.10    1.70
  -7   0   2   -0.40    2.10
   7   0  -2   -0.60    2.70
   7   0   2    0.30    2.40
  -7   0  -2   -0.40    2.70
   7   0   2    0.30    2.00
  -7   0  -2   -0.60    1.80
  -7   0  -2   -1.50    1.60
  -7   0   2   -0.90    1.60
   7   0   2    0.20    2.70
   7   0  -2   -1.10    1.60
   7   0   2    0.10    2.30
   7   0  -2    0.20    1.80
   7   0  -2   -1.60    3.00
   7   0  -2   -1.80    1.40
  -7   0   2   -0.30    2.60
   7   0   2    0.30    1.50
   7   0  -4    1.40    3.10
  -7   0  -4    0.80    3.30
  -7   0   4    0.50    3.10
   7   0  -4    1.90    2.70
   7   0   4    0.40    2.20
  -7   0   4   -0.60    2.40
  -7   0  -4    0.70    2.80
   7   0   4   -2.70    2.40
   7   0  -4    5.80    2.70
   7   0  -4    1.80    2.20
   7   0   4    1.20    2.90
  -7   0   4    0.40    3.70
  -7   0   4    0.40    1.70
   7   0   4    0.90    1.80
  -7   0  -4    1.70    3.40
   7   0  -4    0.50    2.10
  -7   0  -4   -0.30    2.60
   7   0   4    1.60    3.00
  -7   0  -6    0.30    3.90
  -7   0  -6    4.30    6.30
  -7   0   6    1.00    3.80
   7   0   6    1.50    3.90
   7   0  -6   -0.30    3.50
   7   0  -6   -2.50    4.60
   7   0   6    0.00    5.90
   7   0  -6    0.10    3.10
   7   0   6    1.10    2.80
  -7   0  -6    0.50    3.70
  -7   0  -6    0.90    3.60
   7   0  -6    1.30    3.60
   7   0   6   -0.30    2.90
  -7   0   6    0.50    3.00
   7   0  -6   -1.60    3.60
  -7   0   6    6.20    4.30
   7   0   6   -0.10    3.00
   7   0  -8   15.70    5.60
  -7   0   8   -3.20    6.40
   7   0  -8    1.10    5.00
  -7   0  -8    3.50    4.90
  -7   0  -8   -0.80    5.20
  -7   0  -8   10.60    6.10
  -7   0   8    3.30    5.00
  -7   0   8   26.20    4.80
  -7   0 -10  -15.80    8.00
   7   0  10   -2.60    5.90
  -7   0  10    4.30    5.60
   7   0  10    4.40    8.80
  -7   0  10    3.30    8.80
  -7   0 -10   -2.00   10.10
   7   0 -10    0.50    7.50
  -7   0  10    1.80    6.90
  -7   0  10    6.80    8.10
  -7  -1   1  893.91   42.70
   7  -1  -1  851.31   43.00
   7  -1  -1  851.01   42.90
  -7   1  -1  851.91   42.90
   7   1   1  848.52   42.80
   7   1   1  849.61   42.60
  -7   1  -1  849.81   42.80
  -7  -1   1  849.12   43.00
   7   1   1  877.31   42.90
   7   1   1  886.91   43.00
  -7  -1   1  896.01   43.10
   7   1   1  857.51   43.00
   7   1   1  847.92   42.90
  -7   1  -1  910.41   43.10
  -7  -1   1  883.11   42.80
   7  -1  -1  903.81   43.10
   7  -1  -1  872.81   43.10
  -7   1  -1  884.11   42.40
   7  -1  -1  873.91   42.70
  -7  -1  -1  843.32   42.80
   7  -1   1  851.51   42.90
   7  -1   1  886.11   42.80
  -7  -1  -1  876.61   43.00
   7  -1   1  909.61   43.10
   7   1  -1  911.61   42.90
   7  -1   1  851.61   43.00
  -7  -1  -1  865.91   42.60
   7   1  -1  895.71   43.00
  -7   1   1  898.01   43.10
   7   1  -1  914.91   43.20
   7   1  -1  861.71   42.90
  -7   1   1  830.82   42.90
  -7   1   1  858.11   42.70
  -7  -1  -1  834.12   43.00
   7   1  -1  849.41   42.60
   7  -1  -3  423.56   20.50
  -7   1  -3  401.86   20.70
   7   1   3  433.26   21.10
   7  -1  -3  383.66   20.90
  -7  -1   3  407.66   21.00
  -7   1  -3  437.26   21.00
   7   1   3  395.86   20.80
  -7   1  -3  392.56   20.80
   7  -1  -3  402.36   20.30
   7   1   3  396.06   20.40
   7   1   3  417.36   20.70
  -7  -1   3  400.86   20.90
   7  -1  -3  436.96   21.20
  -7   1  -3  429.16   21.10
  -7  -1   3  400.66   21.00
  -7  -1   3  408.06   20.60
   7  -1  -3  404.76   20.90
   7   1   3  421.66   21.00
   7  -1   3  436.76   21.00
   7  -1   3  402.06   20.50
  -7  -1  -3  412.76   20.70
   7   1  -3  403.76   20.70
  -7   1   3  404.16   20.50
   7  -1   3  390.46   20.80
   7  -1   3  385.86   20.90
   7   1  -3  422.76   21.00
   7   1  -3  425.36   20.20
  -7  -1  -3  398.96   20.80
   7  -1   3  418.46   21.00
  -7  -1  -3  399.46   21.00
   7   1  -3  375.16   21.10
  -7   1   3  417.76   21.00
  -7   1   3  392.76   20.80
  -7   1   3  395.96   21.00
  -7  -1  -3  391.96   20.80
   7   1  -3  405.26   20.80
  -7   1  -5 1465.25   70.19
   7  -1  -5 1418.96   70.29
  -7  -1   5 1477.65   70.29
   7   1   5 1389.66   69.59
  -7  -1   5 1365.16   70.29
  -7   1  -5 1401.76   70.29
   7   1   5 1436.16   70.09
   7   1   5 1421.16   70.19
  -7   1  -5 1438.66   70.19
   7  -1  -5 1405.06   69.59
   7   1   5 1470.95   70.19
   7   1   5 1472.55   70.19
  -7   1  -5 1483.25   70.09
   7  -1  -5 1453.95   70.29
  -7  -1   5 1403.26   70.49
  -7  -1   5 1402.56   69.89
   7  -1  -5 1516.25   70.29
   7  -1  -5 1381.56   69.69
  -7   1   5 1517.85   70.29
   7  -1   5 1511.95   70.19
  -7  -1  -5 1378.66   70.29
   7   1  -5 1440.16   69.99
  -7  -1  -5 1523.85   70.29
  -7   1   5 1414.46   69.69
   7  -1   5 1472.05   70.19
   7   1  -5 1413.36   70.19
   7  -1   5 1370.46   69.39
  -7   1   5 1389.86   70.29
   7  -1   5 1410.46   70.29
  -7   1   5 1423.96   70.39
   7   1  -5 1456.25   70.29
   7   1  -5 1400.16   69.89
   7   1  -5 1461.55   70.09
   7  -1   5 1419.46   70.19
  -7  -1  -5 1233.68   69.99
  -7   1   5 1421.16   69.19
  -7  -1  -5 1371.66   70.19
  -7  -1   7  285.07   17.80
  -7  -1   7  314.67   17.70
   7   1   7  301.37   17.60
   7  -1  -7  325.67   17.90
  -7  -1   7  327.17   17.40
   7   1   7  319.37   17.80
   7  -1  -7  317.47   17.10
  -7   1  -7  315.47   17.60
   7  -1  -7  314.77   17.20
   7   1   7  317.77   17.30
  -7   1  -7  306.67   17.60
   7  -1  -7  336.97   17.90
  -7  -1   7  295.47   17.10
  -7   1  -7  302.37   17.70
  -7   1  -7  309.27   17.90
  -7  -1   7  345.37   18.20
   7   1   7  312.87   17.40
  -7  -1  -7  318.07   17.20
  -7   1   7  310.37   17.40
   7   1  -7  308.37   17.60
   7   1  -7  326.47   17.50
  -7   1   7  311.17   17.70
  -7   1   7  299.87   16.70
   7  -1   7  318.47   17.30
   7   1  -7  314.57   17.30
   7   1  -7  306.77   17.70
  -7  -1  -7  321.27   17.60
   7   1  -7  320.27   17.50
  -7  -1  -7  327.47   18.00
   7  -1   7  303.37   17.10
   7  -1   7  350.26   18.20
   7  -1   7  297.17   17.50
  -7  -1  -7  320.07   18.00
  -7   1   7  301.77   17.60
  -7   1  -9   91.19    8.10
   7  -1  -9   88.69    9.80
   7  -1  -9   91.19    9.30
   7   1   9   86.29   11.20
  -7  -1   9   69.89   10.90
  -7  -1   9  104.29    9.10
  -7  -1   9   91.09    9.20
   7  -1  -9   85.49   10.70
   7  -1   9   87.89   11.30
   7   1  -9   95.09    8.10
   7   1  -9   78.09    9.00
   7   1  -9   84.29    8.90
  -7   1   9   78.39   12.80
  -7   1   9   90.39    8.40
   7   1  -9   78.49   10.70
  -7  -1  -9   87.69    9.90
  -7   1   9   85.09    8.40
  -7  -1  -9   75.49   11.50
  -7  -2   0   30.60    3.10
   7  -2   0   29.00    4.10
   7   2   0   30.60    3.20
   7   2   0   29.00    3.70
  -7  -2   0   31.90    3.30
   7   2   0   32.00    3.90
  -7   2   0   27.80    3.30
   7  -2   0   28.10    2.80
  -7  -2   0   28.40    3.90
   7   2   0   28.30    2.30
   7   2   0   30.40    3.80
  -7   2   0   33.30    3.90
  -7  -2   0   32.50    4.30
   7   2   0   31.40    4.40
   7  -2   0   27.80    4.80
   7  -2   0   31.20    3.70
   7  -2   0   30.30    3.20
  -7  -2   2    5.80    1.80
  -7   2  -2    9.00    3.00
   7   2   2    8.70    3.10
   7   2   2    7.70    2.50
   7  -2  -2   15.90    3.30
  -7  -2   2    8.70    2.90
   7  -2  -2    8.60    1.20
  -7  -2   2   10.90    2.50
   7   2   2   16.30    2.90
   7   2  -2    8.80    2.60
   7   2  -2    7.30    2.60
   7  -2   2    8.30    2.70
  -7   2   2    9.50    2.60
  -7  -2  -2    9.10    2.20
   7  -2   2    7.20    2.50
  -7   2   2    8.50    1.40
  -7   2  -4  166.48    9.60
  -7   2  -4  163.38   10.10
   7   2   4  166.38    9.70
   7  -2  -4  160.28   10.00
  -7   2  -4  161.58    9.70
   7  -2  -4  172.68    9.90
  -7  -2   4  156.08    9.90
   7   2   4  158.48    9.10
   7  -2  -4  169.88    8.90
  -7  -2   4  167.98   10.30
   7   2   4  163.48    9.30
   7  -2  -4  162.58    9.70
   7  -2  -4  165.48    9.10
   7   2   4  152.68    9.80
  -7   2  -4  159.78    9.70
  -7  -2   4  142.39    9.20
  -7  -2   4  166.18   10.00
   7   2   4  169.78    9.90
   7   2  -4  159.68    9.30
   7  -2   4  163.38    9.90
  -7   2   4  182.08    9.00
   7   2  -4  148.59    9.60
  -7  -2  -4  157.38    9.90
   7   2  -4  163.48    9.10
  -7  -2  -4  168.78    9.60
  -7  -2  -4  168.08   10.00
   7  -2   4  160.38    9.80
  -7  -2  -4  150.38    9.80
  -7   2   4  165.98    9.80
   7  -2   4  167.18    9.60
   7  -2   4  176.18    8.70
   7  -2   4  158.78    9.80
   7   2  -4  161.98    9.50
  -7   2   4  176.18    8.80
   7   2  -4  157.28   10.30
  -7   2   4  164.58    9.70
   7  -2  -6   78.99    7.10
   7   2   6   87.99    5.60
  -7   2  -6   78.49    7.30
   7   2   6   88.49    7.50
   7   2   6   83.99    6.90
  -7  -2   6   84.79    7.10
   7  -2  -6   86.99    7.50
  -7   2  -6   83.89    6.70
  -7   2  -6   82.49    7.50
   7  -2  -6   79.69    6.80
   7   2   6   90.99    7.20
   7   2   6   68.49    7.40
   7  -2  -6   98.09    7.00
  -7  -2   6   94.39    7.10
  -7  -2   6   87.39    7.60
   7  -2   6   74.79    7.50
   7   2  -6   79.59    6.90
  -7   2   6   77.69    5.60
  -7  -2  -6   87.99    7.80
  -7   2   6   84.09    7.10
  -7   2   6   95.49    5.50
   7  -2   6   89.49    7.30
  -7   2   6  101.39    8.80
   7   2  -6   92.39    7.20
  -7  -2  -6   98.49    7.10
   7  -2   6  100.59    7.20
  -7  -2  -6   80.39    7.60
  -7   2   6   67.89    7.00
   7  -2   6   87.79    6.80
  -7  -2  -6   77.49    7.30
   7   2  -6   79.39    7.40
  -7   2  -8    4.40    4.80
   7   2   8    1.50    4.10
  -7  -2   8   -0.50    7.00
  -7   2  -8    5.20    5.50
   7   2   8    3.50    4.30
   7  -2  -8    7.60    6.00
  -7  -2   8    4.10    4.40
   7  -2  -8    6.40    4.20
  -7  -2   8    1.10    7.10
   7   2   8    2.00    4.30
  -7  -2   8    2.40    4.60
   7  -2  -8    3.60    4.30
   7  -2  -8   -0.40    4.70
  -7   2  -8    3.30    5.20
   7  -2  -8    4.80    4.50
  -7  -2   8    1.60    4.60
  -7   2  -8    4.80    4.30
  -7  -2  -8    5.70    5.60
  -7  -2  -8    3.30    7.20
   7  -2   8   -5.10    6.60
  -7   2   8    2.20    4.60
   7  -2   8    2.40    4.40
   7  -2   8    1.80    6.90
   7   2  -8    1.00    4.50
  -7  -2  -8    2.20    4.20
  -7   2   8    2.30    4.20
  -7   2   8    2.10    3.40
   7  -2   8    4.40    4.70
   7   2  -8    2.90    5.00
  -7   2   8   16.10    5.90
   7   2  -8    4.00    5.00
   7   2  -8   10.10    4.50
  -7  -2  -8    6.00    4.80
   7  -2   8    2.20    5.20
  -7   2 -10   14.20    9.30
   7   2  10   46.90    9.10
   7  -2 -10   39.00    9.60
  -7  -2  10   38.60   10.50
   7  -2  10   26.80   10.30
   7  -2  10    8.10   10.10
   7   2 -10   28.00    8.50
  -7   3  -1  658.53   34.60
   7  -3  -1  736.93   34.90
  -7  -3   1  726.13   34.70
   7   3   1  671.93   34.10
   7  -3  -1  755.02   35.10
  -7   3  -1  676.53   34.50
  -7  -3   1  703.93   34.90
   7  -3  -1  666.13   34.80
  -7   3  -1  712.23   34.70
   7   3   1  680.03   34.60
   7  -3  -1  701.13   34.30
   7   3   1  687.83   34.60
   7   3   1  700.23   34.70
  -7  -3   1  702.93   34.80
   7  -3  -1  666.83   34.70
   7   3   1  747.73   34.90
   7   3   1  738.03   34.80
  -7  -3   1  677.73   34.80
  -7  -3   1  707.23   34.70
   7   3  -1  654.53   34.10
  -7  -3  -1  693.23   34.80
   7   3  -1  691.83   34.70
   7  -3   1  707.43   34.80
  -7  -3  -1  703.83   34.80
  -7   3   1  704.43   34.70
  -7  -3  -1  705.83   34.80
   7  -3   1  702.33   34.50
   7   3  -1  714.03   35.00
   7  -3   1  723.33   34.90
   7   3  -1  692.33   34.60
   7  -3   1  695.43   34.90
   7   3  -1  712.33   34.80
  -7  -3  -1  704.33   34.70
  -7   3   1  660.03   34.20
   7   3  -1  699.33   34.70
  -7   3   1  701.63   34.70
   7   3   3  500.85   24.70
   7  -3  -3  504.35   25.10
  -7  -3   3  480.65   25.10
   7  -3  -3  470.75   24.30
  -7  -3   3  510.95   25.50
   7   3   3  483.35   24.80
  -7  -3   3  494.15   25.10
  -7   3  -3  486.45   25.40
   7  -3  -3  480.25   25.10
   7   3   3  505.55   25.20
  -7   3  -3  488.35   24.90
  -7   3  -3  507.35   25.30
   7   3   3  504.15   25.10
   7  -3  -3  488.65   25.10
   7   3   3  494.95   24.90
   7  -3  -3  414.76   25.20
  -7   3  -3  505.25   25.10
   7   3   3  494.45   24.80
  -7  -3   3  502.25   25.10
  -7  -3   3  537.15   25.30
  -7  -3  -3  476.65   25.10
   7   3  -3  508.75   25.40
   7   3  -3  493.05   24.90
  -7   3   3  486.65   25.00
   7  -3   3  494.95   25.30
   7  -3   3  511.05   25.10
  -7   3   3  495.75   24.90
  -7  -3  -3  495.45   24.70
   7  -3   3  488.25   25.10
   7  -3   3  523.95   25.20
   7   3  -3  515.55   25.10
  -7   3   3  466.65   24.30
  -7   3   3  526.55   25.20
  -7  -3  -3  496.55   25.10
   7   3  -3  488.35   25.00
   7   3  -3  509.25   24.50
  -7  -3  -3  472.45   25.20
   7   3   5  306.17   16.10
   7   3   5  292.17   15.50
   7   3   5  292.47   16.00
   7   3   5  272.47   15.50
  -7   3  -5  310.17   17.00
   7  -3  -5  291.47   16.20
  -7   3  -5  299.57   16.30
  -7  -3   5  313.67   16.70
   7  -3  -5  305.27   16.00
   7  -3  -5  296.87   16.10
   7   3   5  296.27   16.10
   7  -3  -5  294.37   16.50
  -7  -3   5  312.07   16.40
  -7   3  -5  291.57   16.10
  -7  -3   5  291.57   16.10
  -7   3  -5  276.47   15.80
   7  -3  -5  275.07   15.30
  -7  -3   5  297.87   16.10
  -7   3   5  337.77   15.60
  -7  -3  -5  298.57   16.40
  -7   3   5  304.67   16.00
   7   3  -5  294.67   16.20
   7  -3   5  308.17   16.50
  -7   3   5  291.67   16.20
   7  -3   5  296.77   16.10
   7  -3   5  310.07   16.60
   7   3  -5  270.07   15.60
   7  -3   5  258.27   14.80
   7  -3   5  300.27   16.10
  -7  -3  -5  306.07   16.40
   7   3  -5  296.97   15.60
   7   3  -5  290.27   16.00
  -7  -3  -5  287.47   15.90
   7   3  -5  295.97   16.20
  -7   3   5  276.67   14.90
  -7  -3  -5  299.87   16.00
  -7   3  -7  155.18   10.30
  -7   3  -7  134.79    9.90
  -7  -3   7  139.29   11.00
   7  -3  -7  142.89    9.80
   7  -3  -7  140.79   10.20
  -7   3  -7  140.19   10.50
   7   3   7  149.09   10.30
  -7  -3   7  132.99   10.00
   7   3   7  148.49   10.40
   7   3   7  133.99    9.90
   7  -3  -7  130.59    9.50
  -7  -3   7  139.59    9.90
   7   3   7  157.28   10.00
  -7  -3   7  167.18   11.00
   7  -3  -7  148.49   10.00
   7  -3  -7  137.69    9.80
  -7   3  -7  154.68    9.60
  -7  -3   7  142.79    9.90
  -7   3   7  139.49   10.50
   7  -3   7  159.28   11.00
   7   3  -7  130.79   10.20
   7   3  -7  131.79   10.20
   7  -3   7  161.78   10.50
  -7   3   7  130.59    8.30
  -7  -3  -7  137.29    9.90
   7   3  -7  138.19    9.90
   7  -3   7  140.79    9.90
  -7  -3  -7  144.79   10.60
   7   3  -7  139.99   10.10
   7   3  -7  153.68    9.50
   7  -3   7  151.58   10.10
  -7  -3  -7  142.99   10.20
  -7   3   7  144.19   10.10
  -7  -3  -7  145.09   10.50
  -7   3   7  137.69   10.40
   7  -3  -9   29.00    6.70
  -7  -3   9   32.20    8.70
  -7   3  -9   29.40    8.80
  -7   3  -9   34.80    8.20
   7  -3  -9   30.60    7.10
   7   3   9   26.40    5.30
  -7  -3   9   32.10    7.40
  -7   3  -9   28.60    5.80
  -7  -3   9   25.10    5.80
   7   3   9   27.20    5.30
  -7  -3   9   32.60    7.90
   7  -3  -9   26.40    6.70
  -7   3   9   21.60    3.30
   7   3  -9   34.60    8.10
  -7  -3  -9   25.30    7.30
   7  -3   9   24.60    8.10
  -7  -3  -9   23.40    7.30
   7  -3   9   27.80    7.30
  -7  -3  -9   30.80    7.70
   7   3  -9   23.80    5.50
   7  -3   9   34.70    7.80
  -7   3   9   48.00    8.50
  -7   3   9   22.60    5.10
   7   3  -9   33.60    6.30
  -7  -4   0   21.80    3.40
   7   4   0   39.00    4.50
   7   4   0   31.80    2.00
   7  -4   0   27.40    3.10
   7   4   0   27.20    4.10
  -7  -4   0   27.20    4.30
  -7  -4   0   25.10    3.70
  -7  -4   0   31.50    4.10
   7  -4   0   33.20    4.50
   7  -4   0   20.50    3.30
  -7   4   0   24.20    2.80
  -7  -4   0   28.80    3.70
   7   4   2   47.50    4.10
  -7  -4   2   47.00    4.40
  -7   4  -2   49.90    5.40
   7   4   2   48.10    4.80
  -7   4  -2   47.70    4.50
   7   4   2   44.60    3.10
  -7   4  -2   42.50    2.70
   7   4   2   44.00    4.50
   7  -4  -2   47.90    4.90
  -7   4  -2   46.30    4.10
   7  -4  -2   48.50    2.50
  -7  -4   2   33.60    4.30
  -7  -4   2   58.79    5.10
   7  -4  -2   49.20    5.00
  -7  -4   2   48.10    4.80
   7  -4  -2   34.90    4.90
   7   4   2   44.90    4.70
  -7  -4   2   51.39    5.30
  -7   4   2   46.90    5.00
   7  -4   2   52.39    4.20
   7   4  -2   43.30    2.90
  -7   4   2   45.50    4.10
   7   4  -2   49.50    5.20
  -7  -4  -2   50.89    5.00
   7   4  -2   53.59    4.10
   7  -4   2   55.49    5.10
   7   4  -2   47.10    3.90
   7  -4   2   36.30    4.30
   7   4  -2   53.19    4.80
   7   4  -2   42.40    2.80
  -7  -4  -2   43.40    3.20
  -7  -4  -2   44.00    5.00
   7  -4   2   45.10    4.90
   7   4  -2   49.40    3.00
  -7   4   2   43.20    2.90
   7   4  -2   46.90    4.40
  -7   4  -4   59.69    5.10
   7   4   4   41.70    5.50
   7   4   4   45.30    5.00
   7  -4  -4   55.59    5.80
   7  -4  -4   47.60    5.00
   7   4   4   47.10    4.50
   7  -4  -4   41.20    3.30
  -7   4  -4   49.00    5.70
   7   4   4   42.40    5.50
  -7   4  -4   48.50    7.70
   7   4   4   42.40    5.00
   7  -4  -4   42.30    5.40
  -7  -4   4   37.40    5.60
   7  -4  -4   41.00    4.60
  -7  -4   4   49.60    5.80
   7   4   4   46.50    4.30
  -7  -4   4   52.59    5.60
  -7   4   4   42.50    3.00
  -7   4   4   41.90    5.00
   7   4  -4   50.59    4.00
   7  -4   4   41.20    5.40
   7  -4   4   44.20    5.20
   7  -4   4   50.89    5.50
  -7  -4  -4   47.50    4.50
  -7  -4  -4   58.19    6.40
   7   4  -4   47.40    5.30
  -7  -4  -4   47.90    5.40
   7   4  -4   46.40    5.80
   7   4  -4   55.59    4.30
  -7  -4  -4   40.90    5.30
  -7   4   4   37.20    5.30
  -7   4   4   46.70    4.70
   7   4  -4   60.59    5.30
  -7  -4   6   45.30    6.50
   7  -4  -6   43.60    6.60
   7   4   6   47.10    6.60
  -7  -4   6   42.30    6.50
  -7   4  -6   41.30    5.70
   7   4   6   41.40    5.70
  -7   4  -6   45.00    6.50
  -7  -4   6   40.80    6.10
   7   4   6   46.30    5.00
   7  -4  -6   32.40    4.40
   7  -4  -6   44.50    6.30
  -7  -4   6   41.50    5.50
   7   4   6   42.60    4.60
   7   4   6   47.40    6.60
   7  -4  -6   41.70    6.00
  -7   4  -6   38.70    6.30
   7   4  -6   36.80    5.60
  -7   4   6   43.20    5.90
   7   4  -6   37.00    4.70
   7   4  -6   43.10    6.60
   7   4  -6   43.60    6.20
   7  -4   6   37.90    2.90
  -7  -4  -6   48.60    5.20
   7  -4   6   36.30    6.10
  -7   4   6   30.20    3.50
  -7  -4  -6   39.70    5.40
   7  -4   6   39.50    6.30
   7  -4   6   46.90    6.70
  -7  -4  -6   41.20    5.20
  -7  -4  -6   42.70    6.70
   7   4  -6   44.40    6.40
   7  -4   6   55.99    6.60
  -7  -4  -6   41.10    6.30
  -7   4   6   36.70    3.80
  -7   4  -8   28.30    6.00
   7   4   8   22.70    5.20
   7   4   8   37.20    6.30
   7  -4  -8   25.40    6.30
  -7  -4   8   28.60    5.80
  -7   4  -8   32.80    5.90
  -7   4  -8   29.50    8.40
  -7  -4   8   30.30    6.40
   7  -4  -8   34.40    5.60
  -7  -4   8   12.10    7.40
  -7  -4   8   29.40    6.30
   7   4   8   28.20    3.80
   7  -4  -8   21.70    5.70
  -7   4   8   26.80    3.40
  -7  -4  -8   26.00    6.10
   7   4  -8   28.10    5.60
  -7  -4  -8   29.50    5.90
   7  -4   8   31.00    6.00
   7  -4   8   21.90    8.80
   7  -4   8   17.50    5.70
   7  -4   8   19.60    5.40
   7   4  -8   24.90    5.20
   7   4  -8   23.90    5.80
  -7  -4  -8   28.90    5.40
   7   4  -8   29.00    8.30
   7  -4 -10    3.40    7.70
   7   4  10    1.70   15.40
   7   4  10   -9.80    8.50
  -7  -4  10   10.80    9.20
  -7  -4  10    5.20    9.70
  -7  -4  10   -1.90    7.80
   7  -4 -10    3.20    8.80
  -7   4 -10   -5.50    9.40
  -7  -4  10   12.90    6.80
  -7   4 -10    4.90    8.00
   7   4 -10    6.40    8.30
  -7  -4 -10   24.80    8.40
  -7   4  10  -14.50    8.00
  -7   4  10   -3.70    4.80
   7  -4  10    9.10   10.40
   7  -4  10   12.00    9.00
   7   4 -10    2.40    6.20
   7  -4  10  -16.20    9.20
   7   4 -10   35.20   11.80
  -7  -4 -10    4.80   13.20
  -7   5  -1  123.19    8.20
  -7  -5   1  133.19    7.60
   7   5   1  129.19    7.80
   7  -5  -1  130.59    6.90
   7   5   1  114.69    8.00
  -7   5  -1  129.29    7.40
   7  -5  -1  135.89    8.60
  -7  -5   1  138.69    8.20
  -7   5  -1  124.29    7.50
  -7  -5   1  129.99    8.50
   7   5   1  123.99    7.60
   7  -5  -1  126.99    8.80
  -7  -5   1  135.19    7.80
   7  -5  -1  133.69    8.40
   7   5   1  127.69    8.10
   7   5   1  132.19    7.40
   7  -5  -1  129.69    7.70
   7  -5   1  139.29    7.60
   7   5  -1  130.09    7.70
   7   5  -1  120.39    6.80
   7   5  -1  109.99    7.90
  -7  -5  -1  131.59    7.70
   7  -5   1  146.19    8.30
  -7   5   1  132.59    8.10
  -7  -5  -1  133.99    8.70
  -7  -5  -1  103.09    8.20
  -7  -5  -1  137.89    8.30
   7   5  -1  127.69    8.10
  -7   5   1  129.19    7.40
   7   5  -1  132.69    8.40
  -7   5   1  130.59    7.50
   7  -5   1  128.89    7.30
  -7   5   1  131.89    8.00
   7  -5   1  128.49    8.60
   7   5  -1  128.29    7.40
   7   5   3  345.07   16.70
   7   5   3  327.27   17.10
   7   5   3  340.97   17.40
   7   5   3  334.07   17.00
  -7   5  -3  318.27   16.70
  -7  -5   3  325.47   17.50
  -7  -5   3  325.67   17.30
  -7  -5   3  341.87   17.30
   7   5   3  312.97   17.10
  -7  -5   3  278.57   17.50
  -7   5  -3  278.17   18.00
   7  -5  -3  312.37   16.10
   7  -5  -3  332.87   17.30
  -7   5  -3  312.07   16.10
  -7  -5   3  327.27   17.50
  -7   5  -3  326.37   16.90
   7  -5  -3  327.47   17.40
   7  -5  -3  316.77   17.30
   7  -5  -3  324.87   17.40
   7   5   3  332.07   17.40
   7   5  -3  338.67   17.30
   7   5  -3  329.37   17.40
   7  -5   3  330.27   17.30
   7   5  -3  339.17   17.70
  -7  -5  -3  327.77   17.50
  -7  -5  -3  287.07   17.60
   7  -5   3  333.97   17.20
  -7  -5  -3  315.07   17.20
   7   5  -3  327.97   16.70
   7  -5   3  334.57   17.20
   7   5  -3  325.57   16.80
  -7   5   3  329.27   17.00
  -7  -5  -3  353.16   16.50
  -7   5   3  334.77   17.20
   7  -5   3  272.47   17.70
   7   5  -3  331.67   16.10
  -7   5   3  328.47   17.00
  -7   5   3  354.36   17.20
  -7   5  -5    8.10    3.90
  -7  -5   5   21.80    4.80
   7  -5  -5   11.50    4.30
   7   5   5    7.60    4.20
  -7   5  -5   14.10    4.30
   7   5   5    7.60    3.40
   7   5   5    8.80    4.00
   7  -5  -5   11.20    3.90
  -7   5  -5    8.70    3.20
  -7   5  -5    9.10    4.80
   7   5   5    8.50    2.70
   7  -5  -5   11.60    3.60
   7  -5  -5    6.80    3.70
   7   5   5   13.20    3.80
  -7   5  -5    9.20    2.80
  -7  -5  -5   10.30    3.60
   7  -5   5    8.00    4.80
  -7   5   5    2.20    2.90
  -7  -5  -5    8.00    3.70
   7   5  -5    3.10    2.80
   7   5  -5   15.80    4.30
   7  -5   5   21.60    4.50
  -7  -5  -5   10.40    3.70
  -7   5   5   15.50    2.70
  -7   5   5   12.50    2.10
   7   5  -5   16.70    4.60
  -7  -5  -5   11.00    3.70
  -7  -5  -5    8.50    4.40
   7  -5   5    8.10    1.80
  -7   5   5   11.50    4.10
   7  -5   5    9.50    4.10
   7  -5   5   12.70    4.00
   7   5  -5   14.60    2.80
  -7   5  -7   40.80    8.10
   7   5   7   23.50    8.30
   7  -5  -7   35.80    5.40
   7   5   7   46.80    4.80
  -7  -5   7   32.80    5.80
  -7   5  -7   39.40    5.60
  -7   5  -7   35.40    6.30
  -7   5  -7   36.40    6.10
   7   5   7   42.70    5.90
  -7  -5   7   38.70    5.90
   7  -5  -7   63.89    8.90
  -7  -5   7   54.29    8.50
   7  -5  -7   51.29    6.90
   7  -5  -7   44.80    6.40
  -7  -5   7   36.60    8.60
   7   5   7   39.40    6.60
  -7  -5  -7   59.89    9.20
  -7   5   7   38.50    4.60
   7  -5   7   38.00    8.60
   7   5  -7   39.40    6.40
  -7  -5  -7   41.30    5.90
  -7  -5  -7   38.40    5.90
   7  -5   7   59.19    8.10
   7   5  -7   40.10    6.40
   7   5  -7   45.50    5.90
  -7   5   7   40.40    6.10
   7  -5   7   33.20    5.70
   7   5  -7   38.50    5.60
  -7   5   7   36.90    4.60
   7  -5   7   35.10    5.60
  -7  -5  -7   62.29    8.10
   7  -5  -9   56.19    7.90
   7   5   9   59.39   10.90
   7  -5  -9   44.40    8.60
  -7  -5   9   52.69    9.10
  -7  -5   9   49.80    9.50
   7   5   9   49.70    4.80
  -7   5  -9   62.39    8.80
   7   5   9   54.39    8.30
  -7  -5   9   77.49   13.00
  -7  -5  -9   62.69    8.00
   7   5  -9   45.10    7.90
  -7  -5  -9   50.59    8.20
  -7   5   9   66.19    8.90
   7   5  -9   62.89    8.40
   7  -5   9   55.49   10.10
  -7  -5  -9   32.80    9.00
  -7  -5  -9   55.49    7.60
  -7   5   9   45.90    8.10
   7  -5   9   71.89   12.00
  -7   5   9   45.70    5.20
   7   6   0   79.69    5.10
  -7   6   0   70.29    6.30
   7  -6   0   78.49    5.10
   7  -6   0   81.79    6.80
   7   6   0   87.89    6.90
  -7  -6   0   93.59    6.60
   7  -6   0   78.99    5.70
  -7  -6   0   87.89    6.30
   7   6   0   90.99    5.60
  -7   6   0   88.39    5.30
  -7   6   0   84.79    5.70
  -7  -6   0   86.69    5.80
   7   6   0   85.19    6.70
   7  -6   0   62.59    7.10
  -7   6   0   82.69    7.50
  -7  -6   0   77.79    7.00
   7   6   2   40.80    6.20
  -7  -6   2   27.40    5.00
  -7  -6   2   46.20    5.80
   7   6   2   34.20    4.30
   7  -6  -2   24.80    5.00
   7  -6  -2   33.40    4.90
  -7  -6   2   34.40    4.80
   7  -6  -2   37.00    4.90
  -7   6  -2   33.30    4.60
  -7  -6   2   27.10    4.50
  -7   6  -2   31.50    4.70
   7  -6  -2   43.50    5.10
  -7  -6  -2   34.60    5.30
  -7  -6  -2   32.80    4.80
  -7  -6  -2   51.99    5.90
  -7  -6  -2   38.40    5.00
   7  -6   2   35.40    4.20
  -7   6   2   39.60    3.80
   7   6  -2   35.60    3.50
   7  -6   2   33.50    5.00
   7  -6   2   26.40    4.50
  -7  -6  -2   34.80    2.50
   7   6   4   10.00    3.80
   7  -6  -4   14.00    3.90
   7   6   4    8.40    4.10
  -7  -6   4   16.10    4.10
   7  -6  -4   15.20    4.30
  -7  -6   4   14.10    4.10
  -7  -6   4    8.60    3.90
   7   6   4   13.20    3.40
   7   6   4    9.80    2.70
  -7  -6   4   12.10    4.00
  -7   6  -4   17.90    4.70
  -7   6  -4   12.60    2.70
  -7   6  -4   10.80    2.30
   7  -6  -4   13.20    4.00
  -7   6  -4   11.70    3.00
   7  -6  -4   21.00    4.50
  -7  -6   4    8.30    3.60
  -7   6  -4   12.30    4.60
  -7  -6  -4   15.40    4.10
   7   6  -4   10.90    2.90
  -7  -6  -4    9.00    4.20
   7   6  -4   12.10    4.30
   7   6  -4   12.90    2.50
   7  -6   4   13.70    3.80
  -7  -6  -4   15.40    3.20
  -7   6   4   10.30    4.10
   7  -6   4   13.00    4.60
  -7   6   4   16.10    3.40
   7   6  -4   12.30    2.10
   7   6  -4   14.00    4.60
  -7  -6  -4   25.10    5.50
  -7   6   4   10.30    2.70
  -7  -6  -4   15.50    3.90
  -7   6   4   17.50    2.40
  -7   6  -6   18.70    4.30
  -7  -6   6   29.30    6.30
  -7  -6   6   18.70    5.00
  -7  -6   6   22.40    5.10
   7   6   6   14.40    2.00
   7   6   6   19.50    5.30
   7   6   6   26.50    5.00
   7   6   6   17.20    4.80
  -7   6  -6   18.10    4.30
  -7   6  -6   17.80    5.00
   7  -6  -6   15.80    4.80
  -7  -6   6   21.50    4.90
  -7  -6   6   24.70    5.50
   7   6   6   18.60    2.70
   7   6   6   19.00    4.40
   7  -6  -6   15.20    4.40
   7   6  -6   16.40    3.80
   7  -6   6   16.40    5.10
  -7  -6  -6   29.10    5.20
  -7  -6  -6   20.30    4.80
   7  -6   6   16.80    4.70
  -7   6   6   15.90    3.60
   7   6  -6   19.60    5.30
  -7  -6  -6   17.70    4.60
  -7   6   6   13.20    2.40
   7   6  -6   20.90    5.10
   7   6  -6   15.50    4.10
   7   6  -6   19.70    4.90
  -7  -6  -6   19.80    5.00
   7  -6   6   17.10    5.60
   7   6  -6   20.90    4.80
  -7  -6   8   20.10    7.90
  -7  -6   8   -7.40    6.70
   7  -6  -8    3.50    6.30
  -7  -6   8    4.10    5.50
  -7   6  -8    6.00    6.40
  -7   6  -8    3.80    4.80
  -7   6  -8    2.10    4.90
   7   6   8    3.40    4.20
   7  -6  -8    3.20    5.40
  -7   6  -8   -0.10    8.00
   7  -6  -8   -0.50    6.60
   7   6   8    4.00    7.90
  -7   6   8   -1.40    4.20
   7   6  -8   -2.30    4.60
   7   6  -8    1.80    4.20
  -7   6   8    1.60    1.60
  -7   6   8    8.50    3.70
   7  -6   8    0.00    7.30
  -7  -6  -8   -2.60    6.70
  -7  -6  -8    2.00    5.40
   7   6  -8    1.50    5.30
  -7  -6  -8   -4.60    4.50
   7   6  -8    3.10    5.10
   7  -6   8    8.90    7.90
   7   6  -8    0.00    7.50
  -7  -6  -8   12.40    7.20
  -7   7  -1   89.39    5.20
   7   7   1   82.99    6.00
   7  -7  -1   90.79    6.90
  -7  -7   1   96.99    6.80
   7   7   1   92.99    6.50
   7  -7  -1   84.79    6.30
  -7  -7   1   82.19    6.80
  -7   7  -1   72.29    5.00
  -7  -7   1   72.49    6.50
   7  -7  -1   88.49    7.10
   7  -7  -1   70.99    7.00
  -7  -7   1   74.49    6.70
   7   7   1   69.29    6.60
   7   7   1   91.89    5.30
   7   7   1   87.19    6.80
  -7   7  -1   85.59    6.50
   7   7   1   75.89    5.00
  -7   7  -1   73.79    6.90
   7  -7   1   87.19    5.30
   7  -7   1   72.59    7.00
   7   7  -1   83.29    4.90
   7   7  -1   91.19    4.90
   7  -7   1   65.09    6.00
  -7   7   1   79.49    5.00
  -7  -7  -1   89.69    6.70
   7  -7   1   79.69    6.80
  -7  -7  -1   95.19    7.10
   7   7  -1   80.39    4.60
   7   7  -1   81.59    7.00
  -7  -7  -1   79.09    5.80
  -7  -7   3   41.40    5.20
   7   7   3   32.70    4.10
  -7  -7   3   35.70    5.80
  -7   7  -3   30.20    5.20
   7   7   3   36.10    6.10
   7  -7  -3   33.00    5.40
   7   7   3   36.40    5.60
  -7  -7   3   38.70    5.50
   7  -7  -3   36.10    5.10
   7   7   3   29.90    4.90
  -7   7  -3   29.90    2.70
   7   7   3   33.90    3.90
   7  -7  -3   33.50    5.40
   7   7   3   42.80    5.10
   7  -7  -3   36.00    4.90
  -7  -7   3   42.40    5.10
  -7  -7  -3   43.40    5.10
  -7  -7  -3   32.80    5.40
   7   7  -3   27.60    3.20
   7  -7   3   31.90    5.60
  -7  -7  -3   33.10    4.90
   7   7  -3   32.40    5.30
  -7   7   3   34.50    4.20
  -7  -7  -3   43.80    5.60
   7   7  -3   35.20    5.50
  -7   7   3   34.10    4.20
   7   7  -3   50.49    5.70
   7  -7   3   38.70    5.80
  -7   7   3   31.50    4.60
  -7  -7  -3   32.40    4.70
   7  -7   3   38.30    5.00
  -7  -7  -3   31.00    3.20
  -7   7   3   38.50    6.00
  -7   7  -5   13.80    3.10
  -7  -7   5   24.10    5.80
  -7  -7   5   16.40    4.30
  -7   7  -5    7.50    3.40
   7   7   5   15.90    3.20
   7   7   5   11.20    3.70
  -7  -7   5   22.30    5.20
   7  -7  -5   11.40    4.70
   7  -7  -5   14.00    5.50
   7   7   5   14.40    5.70
  -7   7  -5   12.90    3.10
  -7   7  -5   19.00    6.20
  -7   7  -5   14.20    2.90
   7   7   5    7.60    4.50
   7  -7  -5   13.20    4.70
   7   7   5   14.40    2.00
  -7  -7   5   14.30    4.90
  -7   7  -5   18.70    5.00
  -7  -7   5   16.90    5.10
   7  -7  -5   14.10    4.90
  -7  -7   5   18.40    5.10
   7  -7   5   13.00    4.80
   7  -7   5   17.50    5.70
   7   7  -5   16.40    4.90
   7   7  -5   12.90    3.10
  -7   7   5   14.90    4.80
   7   7  -5   13.80    3.50
  -7  -7  -5   14.20    4.90
   7   7  -5   13.30    4.60
   7  -7   5   12.10    4.90
  -7  -7  -5   11.50    5.00
   7   7  -5   12.70    4.60
   7  -7   5   26.00    4.50
  -7  -7  -5   13.40    3.90
  -7  -7  -5   14.70    5.30
   7  -7  -7   40.80    6.10
  -7  -7   7   21.10    8.20
   7  -7  -7   28.30    6.00
  -7  -7   7   28.40    8.00
  -7  -7   7   25.40    7.50
  -7   7  -7   44.10    7.10
   7   7   7   35.70    5.50
  -7   7  -7   25.90    6.40
  -7  -7   7   25.00    6.00
   7   7   7   35.00    5.70
   7  -7  -7   19.70    5.50
  -7   7  -7   23.60    4.60
  -7  -7   7   34.50    6.60
  -7   7  -7   25.50    8.50
   7  -7  -7   29.20    6.40
  -7   7   7   34.80    5.70
   7  -7   7   24.10    6.10
  -7  -7  -7   36.00    5.70
  -7   7   7   32.90    6.50
   7   7  -7   17.60    4.20
  -7  -7  -7   29.60    6.80
  -7  -7  -7   32.50    6.00
   7  -7   7   27.00    8.10
   7  -7   7   29.60    6.20
   7   7  -7   30.00    5.10
  -7  -7  -7   29.30    6.50
  -7  -7  -7   35.30    6.00
   7  -7   7   27.50    8.90
   7  -7   7   28.60    7.70
  -7   7  -9    6.60    9.40
  -7   7  -9   17.30   12.70
   7   7  -9    3.10    9.70
   7   7  -9    8.10    5.30
  -7  -7  -9    4.50    7.40
   7  -8   0  147.99   10.00
   7   8   0  146.19   10.00
   7  -8   0  167.58    9.60
   7   8   0  158.58    9.70
  -7  -8   0  126.69    9.10
  -7  -8   0  154.18    9.70
   7   8   0  143.09    8.50
  -7   8   0  130.09    9.30
  -7  -8   0  146.89    9.40
   7  -8   0  140.89    9.00
   7  -8   0  141.69   10.10
   7  -8   0  146.19    7.80
  -7  -8   0  145.49   10.00
  -7  -8   0  158.08    8.80
   7   8   0  162.98    9.80
  -7   8   0  138.59    9.90
  -7   8  -2   32.80    6.00
   7   8   2   33.80    4.80
   7   8   2   32.60    5.00
   7  -8  -2   39.60    5.00
   7   8   2   37.40    5.40
   7   8   2   32.90    4.30
  -7   8  -2   35.00    5.40
  -7  -8   2   34.20    5.80
   7   8   2   29.20    2.50
   7  -8  -2   39.30    6.90
   7  -8  -2   31.60    2.60
   7   8   2   30.10    2.60
  -7  -8   2   31.60    5.60
  -7  -8   2   43.30    6.80
   7  -8  -2   32.30    4.60
   7  -8  -2   35.90    6.00
  -7  -8   2   34.00    4.30
   7  -8  -2   39.90    5.50
  -7   8   2   30.70    2.60
   7  -8   2   34.10    6.10
   7  -8   2   31.20    5.00
   7  -8   2   37.70    5.00
   7   8  -2   36.50    4.90
  -7  -8  -2   30.10    5.00
  -7  -8  -2   40.40    5.10
  -7  -8  -2   35.00    5.70
  -7  -8  -2   34.90    5.40
  -7  -8  -2   35.80    5.30
   7   8  -2   34.90    6.10
  -7   8   2   24.50    4.50
   7   8   4   16.70    4.60
  -7   8  -4   11.80    3.50
  -7   8  -4    9.50    3.30
  -7   8  -4   12.20    2.10
   7   8   4    9.20    5.00
  -7   8  -4   11.40    1.90
   7  -8  -4    9.30    4.50
   7  -8  -4    9.00    4.10
   7  -8  -4    8.80    4.60
  -7   8  -4   16.20    5.80
  -7  -8   4   11.60    5.20
  -7  -8   4   23.50    5.30
  -7  -8   4   10.80    4.40
   7  -8  -4   13.10    3.90
  -7  -8   4    9.70    4.30
   7   8   4   11.90    3.70
   7   8   4   13.10    2.30
  -7  -8  -4   11.40    2.80
  -7  -8  -4   10.30    4.10
  -7   8   4    8.90    3.30
  -7   8   4   11.60    4.40
   7  -8   4   23.90    5.00
   7   8  -4   17.10    5.60
  -7  -8  -4    8.10    4.00
   7   8  -4   18.30    5.40
  -7   8   4   14.60    3.60
   7  -8   4   17.50    5.60
  -7  -8  -4   20.50    4.70
   7  -8   4   11.90    4.30
   7   8  -4   10.80    4.70
  -7   8   4   11.10    2.80
   7  -8   4    9.70    4.20
  -7  -8   6   11.30    8.30
   7  -8  -6    1.70    5.70
   7  -8  -6   20.30    6.20
   7   8   6    6.20    3.20
   7   8   6    4.80    4.80
   7  -8  -6    4.70    5.30
  -7  -8   6   -0.70    5.00
  -7   8  -6    4.30    5.90
  -7  -8   6   14.30    5.80
  -7  -8   6    1.40    5.30
   7   8   6    6.20    6.80
  -7   8  -6    1.40    4.20
   7  -8  -6    0.90    4.50
  -7   8  -6    1.60    5.10
   7   8   6    4.60    5.40
  -7   8   6   16.80    4.90
   7   8  -6    4.90    5.00
   7   8  -6   12.20    3.10
   7  -8   6    4.90    4.90
   7  -8   6    1.70    5.30
  -7  -8  -6    5.80    5.20
   7   8  -6    5.50    4.90
  -7  -8  -6    4.30    4.90
  -7  -8  -6    2.60    7.30
  -7  -8  -6    3.60    5.30
   7  -8   6    6.10    4.90
  -7  -8   8   24.60    9.00
   7   8   8   16.60    5.10
  -7   8  -8   11.00    6.60
  -7  -8   8   18.60   11.20
  -7  -8   8   12.70   10.20
   7   8   8   13.80    5.70
  -7   8  -8   28.00   12.50
   7  -8  -8    5.90    7.20
  -7   8   8   11.60    5.70
  -7  -8  -8   -7.60    8.20
  -7  -8  -8   15.20    7.40
   7   8  -8   10.20    5.90
   7  -8   8   28.30    8.80
  -7   8   8   16.40    5.40
  -7   8   8   11.30    4.80
   7  -8   8   18.40   11.40
   7   8  -8   18.20   10.20
   7  -8   8   23.90   11.30
   7   9   1   32.60    5.60
   7   9   1   26.90    4.70
   7  -9  -1   29.20    5.40
  -7  -9   1   28.10    5.10
   7  -9  -1   41.40    5.90
  -7   9  -1   30.50    5.80
  -7   9  -1   23.80    4.30
  -7  -9   1   27.40    4.50
   7   9   1   31.60    4.80
   7  -9  -1   32.10    4.80
  -7  -9   1   35.40    5.60
   7  -9  -1   42.50    7.60
   7   9   1   31.70    4.90
   7  -9   1   29.00    4.70
   7  -9   1   39.60    6.80
  -7  -9  -1   28.50    5.00
  -7  -9  -1   27.90    5.00
   7  -9   1   38.70    5.90
  -7   9   1   23.60    4.10
   7  -9   1   28.90    3.70
  -7  -9  -1   34.00    5.00
  -7  -9  -1   20.10    5.00
  -7   9   1   29.50    5.50
   7   9  -1   22.00    5.80
  -7  -9   3   22.50    6.10
   7  -9  -3   25.50    4.50
  -7  -9   3   30.50    6.50
   7   9   3   22.10    5.50
  -7  -9   3   24.50    4.70
  -7  -9   3   25.30    5.20
   7   9   3   20.90    3.40
   7   9   3   22.10    4.90
  -7  -9   3   20.30    4.70
  -7   9  -3   24.40    6.00
   7  -9  -3   23.40    5.50
   7   9   3   32.60    6.70
   7  -9  -3   23.40    5.50
  -7   9  -3   19.90    5.10
  -7   9   3   17.80    3.80
   7  -9   3   22.50    4.80
  -7  -9  -3   19.40    5.00
   7  -9   3   17.20    4.70
  -7   9   3   26.00    5.00
  -7  -9  -3   26.50    4.80
  -7  -9  -3   22.90    5.10
  -7  -9  -3   20.70    2.30
  -7  -9  -3   22.30    5.00
   7   9  -3   27.80    5.40
   7  -9  -5   33.30    5.80
   7   9   5   37.00    5.90
   7   9   5   34.00    9.00
  -7  -9   5   35.40    8.10
   7  -9  -5   39.70    6.90
  -7  -9   5   39.10    6.50
  -7   9  -5   34.60    4.90
   7  -9  -5   38.80    6.40
   7   9   5   24.80    3.10
   7   9   5   30.40    3.60
  -7   9  -5   26.90    6.90
  -7  -9   5   19.20    6.50
  -7  -9   5   38.30    6.40
  -7  -9  -5   37.90    5.50
  -7  -9  -5   31.90    5.70
  -7  -9  -5   34.40    6.00
  -7   9   5   28.50    3.10
   7  -9   5   33.80    6.90
   7   9  -5   38.20    6.90
  -7   9   5   36.00    4.90
  -7  -9  -5   34.40    8.40
   7  -9   5   44.30    5.90
   7  -9   5   40.20    6.20
  -7   9  -7   22.70    6.10
   7  -9  -7   15.30    6.80
   7  -9  -7   21.00    7.40
  -7  -9   7   16.00    9.80
  -7  -9   7    9.70    7.40
  -7   9  -7   16.10    6.90
   7   9   7   -1.90    9.20
   7   9   7   18.10    4.30
  -7  -9  -7   19.90    8.00
  -7   9   7   13.40    5.40
   7  -9   7   42.60   10.60
   7  -9   7   31.10   11.10
  -7  -9  -7    3.60    6.90
  -7  -9  -7   14.60    8.20
  -7   9   7   20.80    4.30
   7 -10   0   26.70    7.90
  -7 -10   0   35.20    5.50
  -7  10   0   26.90    5.30
   7 -10   0   31.70    4.90
  -7 -10   0   32.90    5.60
   7  10   0   36.10    5.40
  -7 -10   0   57.59    8.10
  -7 -10   0   32.50    5.40
   7 -10   0   35.80    6.40
   7 -10   0   42.70    5.40
  -7  10   0   47.10    6.80
   7  10   0   33.60    7.00
  -7 -10   0   34.00    6.00
   7 -10  -2   43.40    6.80
   7 -10  -2   35.30    6.40
  -7 -10   2   40.50    5.80
  -7 -10   2   39.60    5.50
  -7 -10   2   39.10    7.50
  -7 -10   2   42.90    6.50
   7  10   2   42.90    6.70
  -7  10  -2   26.70    5.40
   7 -10  -2   40.80    7.80
   7 -10  -2   51.29    6.90
   7  10   2   48.10    6.70
   7  10   2   45.50    7.10
   7 -10  -2   38.30    6.30
   7 -10  -2   35.30    4.00
  -7  10  -2   42.90    7.70
  -7 -10   2   39.20    6.40
   7  10   2   38.60    5.10
   7 -10   2   39.90    7.00
   7 -10   2   43.60    5.80
   7 -10   2   43.50    6.80
   7 -10   2   45.30    8.20
   7  10  -2   59.49    6.60
  -7  10   2   33.60    4.90
  -7 -10  -2   45.80    6.20
  -7 -10  -2   47.90    6.50
  -7  10   2   48.10    6.30
   7 -10   2   43.70    6.80
  -7 -10  -2   35.50    5.30
   7 -10  -4    8.80    5.50
   7 -10  -4    4.50    3.90
  -7 -10   4    8.90    5.30
  -7 -10   4    3.00    7.30
   7 -10  -4    3.40    4.70
  -7 -10   4    4.10    5.30
  -7 -10   4   -9.30    6.10
   7  10   4    1.50    4.80
  -7  10  -4    2.70    5.90
   7  10   4   -1.20    6.70
   7 -10  -4    5.00    4.30
  -7  10   4    5.60    4.10
  -7 -10  -4    5.10    5.00
   7 -10   4    9.30    5.50
   7 -10   4    3.20    4.80
   7  10  -4   -0.10    5.00
  -7 -10  -4    4.10    7.10
   7  10  -4   24.30    7.20
  -7 -10  -4    6.30    5.40
  -7  10   4    4.40    3.20
   7 -10   4    5.80    4.70
   7 -10   4    7.00    5.50
   7 -10   4   13.30    7.40
   7 -10  -6    5.40    8.80
  -7 -10   6   34.70    9.70
  -7 -10   6    0.20    8.60
  -7 -10   6    5.40    6.50
  -7  10  -6   36.60   11.80
  -7  10  -6    6.90    6.30
   7 -10  -6   11.80    6.50
  -7 -10   6   10.50    9.00
   7 -10   6   12.20    9.70
   7  10  -6   -8.80    9.90
   7 -10   6   -0.50    9.10
   7 -10   6    8.80    6.30
  -7 -10  -6   24.10    8.70
   7 -10   6    0.80    6.70
  -7 -10  -6    0.10    7.90
  -7 -10  -6    7.90    6.40
  -7  10   6    7.30    6.50
   7 -11  -1   47.30    7.50
   7 -11  -1   54.39    7.50
  -7  11  -1   46.30    7.30
  -7 -11   1   62.59    7.60
  -7 -11   1   55.59    7.90
  -7 -11  -1   49.80    7.50
   7  11  -1   69.19    8.10
   7 -11   1   57.89    7.80
   7 -11   1   42.80    4.60
  -7  11   1   61.99    8.50
   7 -11   1   43.40    6.00
  -7 -11  -1   66.29    7.80
  -7  11   1   38.30    7.20
  -7 -11  -1   53.19    7.40
  -7  11  -3   23.90    5.80
   7 -11  -3   32.20    6.50
   7  11   3   33.80    5.90
   7 -11  -3   32.40    4.30
   7 -11  -3   34.80    7.20
   7 -11  -3   39.40    8.40
   7 -11  -3   34.40    6.30
  -7 -11   3   30.30    5.90
  -7 -11   3   33.60    7.90
  -7  11   3   31.90    6.00
   7 -11   3   50.99    7.90
   7  11  -3   38.50    7.80
   7  11  -3   28.20    6.00
  -7 -11  -3   29.70    5.80
   7 -11   3   35.40    5.90
   7 -11   3   29.70    8.00
  -7 -11  -3   31.90    6.50
  -7  11   3   22.60    7.60
   7 -11   3   36.60    6.10
   7 -11  -5   60.79    9.50
   7  11   5   87.29   11.90
  -7 -11   5   65.69   10.40
  -7 -11   5   87.69   11.90
  -7 -11   5  100.59   15.50
  -7  11  -5   47.80    8.00
  -7 -11   5   53.89    7.70
   7 -11  -5   59.39    9.00
   7 -11  -5   52.49    8.90
  -7 -11  -5   57.99    7.80
  -7 -11  -5   52.99    8.90
   7 -11   5   76.59   12.40
   7 -11   5   54.69    7.60
   7 -11   5   58.09    8.50
  -7 -11  -5   47.90   10.90
   7 -11   5   87.09   13.70
   7 -11   5   57.69    7.80
  -7  11   5   56.09    9.40
  -7 -12   0    2.30    7.60
  -7 -12   0    1.00    6.50
   7 -12   0    0.60    5.80
   7 -12   0   42.50    8.90
   7  12   2    2.40    7.50
  -7  12  -2    4.90    5.30
  -7 -12   2   15.20    7.70
  -7 -12   2    5.40    5.80
   7  12   2   12.40    7.10
  -7  12  -2  -15.60    8.50
   7 -12  -2    3.10    6.90
   7 -12  -2    3.20    5.20
   7 -12  -2    3.80    5.70
  -7 -12  -2   -7.30    7.50
  -7 -12  -2    1.50    5.80
   7 -12   2    8.20    6.10
  -7  12   2    2.80    6.30
   7  12  -2   18.30    7.80
  -7  12   2    3.50    5.80
   7 -12   2    9.60    5.40
   7 -12   2   -6.60    8.70
  -7 -12  -2    9.50    6.00
  -7 -12   4   18.30    9.40
  -7 -12   4   14.90    6.90
  -7 -12   4    2.70    9.70
  -7  12  -4    6.60    3.90
  -7  12  -4   44.90   12.50
   7 -12  -4    8.50   10.00
   7 -12  -4   11.60   10.60
   7  12   4   11.80    9.00
   7 -12  -4   11.10    6.00
   7 -12   4   26.60    7.40
   7  12  -4   21.50    8.70
   7 -12   4   12.40   11.40
  -7  12   4    9.50    7.20
  -7 -12  -4   10.60    6.10
   7 -12   4   32.80   11.60
  -7  13  -1   42.40    7.60
   7 -13  -1   45.50    6.50
  -7  13  -1   52.69   10.70
   7  13   1   38.80    9.10
  -7 -13   1   42.90    7.70
   7 -13  -1   51.19   12.70
  -7 -13  -1   20.20    9.40
   7 -13   1   54.29   12.20
  -7 -13  -1   42.40    7.10
  -7  13   1   40.60    6.00
   7 -13   1   50.59    7.90
   7 -13   1   47.10    6.90
   8   0   0  448.56   22.80
   8   0   0  432.56   22.50
   8   0   0  448.16   22.90
   8   0   0  467.35   22.70
  -8   0   0  460.95   22.10
  -8   0   0  453.45   22.50
  -8   0   0  437.16   22.80
  -8   0   0  441.06   22.80
   8   0   0  425.56   22.70
   8   0   2   30.20    3.40
   8   0   2   30.20    4.50
   8   0   2   43.80    5.10
   8   0  -2   28.40    4.00
   8   0  -2   33.50    4.20
  -8   0  -2   20.80    3.40
  -8   0   2   33.40    4.20
   8   0   2   27.20    3.80
   8   0  -2   25.90    2.80
  -8   0  -2   30.60    4.10
  -8   0   2   31.00    3.30
   8   0  -2   31.10    4.70
   8   0  -2   32.60    4.10
  -8   0   2   29.30    4.40
   8   0   2   41.20    4.70
  -8   0  -2   28.10    4.60
   8   0   2   25.70    4.20
  -8   0   4  421.16   23.60
   8   0   4  474.45   23.10
   8   0   4  420.06   23.30
  -8   0  -4  423.56   23.10
   8   0   4  438.86   22.40
   8   0  -4  461.35   23.30
   8   0   4  474.65   23.10
  -8   0  -4  432.56   23.50
  -8   0  -4  475.25   23.10
  -8   0   4  400.96   23.40
   8   0   4  438.06   22.90
  -8   0   4  463.95   23.00
  -8   0   4  447.76   22.70
   8   0  -4  444.36   22.50
   8   0  -4  475.15   23.00
   8   0  -4  491.75   22.30
  -8   0  -4  434.76   23.00
   8   0  -4  392.16   23.10
   8   0   6  338.07   18.10
  -8   0   6  328.87   17.70
   8   0  -6  305.27   17.50
  -8   0   6  318.57   17.70
   8   0   6  327.77   17.90
   8   0  -6  320.57   17.90
  -8   0  -6  338.57   17.90
  -8   0   6  316.77   17.30
   8   0   6  328.47   17.80
  -8   0  -6  318.57   17.70
  -8   0  -6  304.57   18.00
  -8   0  -6  323.87   17.70
   8   0   6  323.57   17.80
  -8   0   6  320.77   18.30
   8   0   6  321.47   16.60
   8   0  -6  320.77   17.80
   8   0  -6  330.07   18.30
   8   0  -8  189.68   12.10
   8   0  -8  209.18   12.80
  -8   0   8  174.98   11.60
  -8   0  -8  190.28   14.20
   8   0   8  183.68   14.80
   8   0   8  168.58   11.90
   8   0  -8  186.98   12.10
   8   0   8  183.98   12.10
  -8   0  -8  178.38   12.10
  -8   0   8  172.88   14.20
   8   0  -8  185.98   13.10
   8   0  -8  187.98   13.70
  -8   0   8  175.08   12.00
  -8   0   8  185.18   11.90
   8   0   8  206.88   13.50
  -8   0  -8  180.78   13.00
  -8   0  -8  173.58   12.80
   8   0 -10   17.20    9.40
   8   0  10    4.30    9.10
   8   0  10   38.80   11.10
  -8   0  10   -0.70    7.60
  -8   0 -10    9.20    9.70
  -8   0  10    9.00    8.40
  -8   0  10   -1.00    8.90
   8   1   1   32.20    3.80
  -8   1  -1   35.40    3.90
  -8  -1   1   27.50    4.10
   8  -1  -1   31.30    4.50
   8  -1  -1   32.20    3.60
   8   1   1   32.30    4.60
   8   1   1   21.00    3.80
  -8   1  -1   32.10    2.60
   8  -1  -1   29.40    3.40
  -8   1  -1   30.50    3.50
  -8  -1   1   31.30    4.30
   8   1   1   42.00    4.50
   8   1   1   37.30    4.40
  -8  -1   1   32.00    3.00
   8  -1  -1   30.90    4.10
  -8   1  -1   33.20    4.50
   8   1   1   31.60    3.80
   8  -1  -1   34.40    4.40
  -8  -1   1   35.30    4.20
   8   1  -1   28.40    4.50
  -8   1   1   33.50    3.40
   8   1  -1   30.20    4.30
   8  -1   1   34.60    3.60
  -8  -1  -1   30.80    3.10
   8  -1   1   34.40    4.40
   8  -1   1   29.30    4.60
  -8   1   1   32.20    3.70
   8  -1   1   30.50    4.00
   8   1  -1   31.80    3.70
   8  -1   1   29.40    4.30
  -8  -1  -1   34.30    4.10
  -8   1   1   28.30    4.20
  -8  -1  -1   33.90    4.30
   8   1  -1   31.60    4.40
  -8  -1  -1   42.20    3.70
  -8  -1   3  193.28   11.20
   8   1   3  208.18   11.10
   8   1   3  186.28   10.80
  -8  -1   3  190.98   11.50
   8  -1  -3  186.18   11.10
   8   1   3  166.98   10.70
   8   1   3  198.88   11.00
  -8   1  -3  197.38   11.20
   8   1   3  215.78   10.30
  -8  -1   3  194.58   11.20
   8  -1  -3  190.58   11.10
   8  -1  -3  185.78   10.30
  -8   1  -3  210.58   11.20
   8  -1  -3  183.08   11.20
   8   1   3  195.08   10.40
  -8   1  -3  175.18   10.60
  -8  -1   3  179.98   10.20
  -8   1  -3  193.78   10.70
   8  -1  -3  176.28    9.90
   8   1  -3  195.58    9.90
  -8   1   3  183.78   10.20
  -8   1   3  193.68   11.10
   8   1  -3  190.18   10.70
   8  -1   3  169.98   10.60
   8  -1   3  184.18   10.20
   8   1  -3  178.78   10.30
   8   1  -3  211.48   11.40
  -8  -1  -3  182.18   11.10
   8  -1   3  188.18   11.10
  -8   1   3  183.18   11.10
  -8  -1  -3  190.18   11.20
   8   1  -3  179.58   10.80
  -8  -1  -3  188.68   10.80
   8  -1   3  186.28   11.10
  -8  -1  -3  188.88   11.20
   8  -1   3  193.98   10.90
   8   1   5   30.10    5.50
  -8  -1   5   31.50    5.70
   8   1   5   32.30    5.00
   8   1   5   41.60    3.60
  -8   1  -5   41.30    5.90
   8  -1  -5   35.00    5.30
   8  -1  -5   32.60    4.80
  -8  -1   5   35.40    3.70
  -8   1  -5   32.20    5.80
  -8   1  -5   40.30    6.40
  -8   1  -5   31.10    5.10
  -8  -1   5   46.80    6.00
   8  -1  -5   30.00    3.90
   8  -1  -5   35.30    5.60
   8   1   5   33.40    5.40
  -8  -1   5   38.60    5.40
   8   1   5   35.30    5.10
  -8  -1   5   39.80    5.00
   8  -1   5   31.80    3.70
   8   1  -5   37.80    5.90
  -8   1   5   41.30    5.60
  -8  -1  -5   36.70    5.30
   8   1  -5   31.20    4.90
   8  -1   5   42.90    4.90
  -8   1   5   30.30    3.60
  -8  -1  -5   31.00    5.30
  -8  -1  -5   28.00    4.30
   8   1  -5   34.90    4.50
   8   1  -5   33.20    5.20
   8  -1   5   36.20    5.60
  -8  -1  -5   33.80    4.80
  -8   1   5   25.80    4.20
  -8   1   5   33.00    4.30
  -8   1   5   39.10    6.00
   8  -1  -7   32.00    6.10
   8   1   7   34.70    4.20
  -8   1  -7   27.20    5.10
  -8  -1   7   21.70    4.90
   8   1   7   24.30    4.50
  -8   1  -7   30.90    5.10
   8  -1  -7   29.20    5.80
   8   1   7   28.90    5.70
  -8  -1   7   40.70    6.60
  -8   1  -7   31.60    5.00
   8   1   7   29.00    5.10
   8   1   7   26.90    5.60
  -8  -1   7   33.70    6.40
   8  -1  -7   25.80    4.60
   8  -1   7   27.90    4.30
   8   1  -7   30.80    4.90
  -8   1   7   24.00    4.70
   8  -1   7   28.20    5.00
   8   1  -7   27.00    5.40
   8  -1   7   23.80    4.70
   8   1  -7   25.60    5.50
  -8   1   7   26.30    4.70
   8   1  -7   43.40    7.20
  -8  -1  -7   30.10    5.10
   8   1  -7   28.20    5.00
  -8  -1  -7   29.20    6.20
  -8  -1  -7   28.30    6.10
  -8  -1   9   34.70    7.90
   8   1   9   66.99   11.10
   8  -1   9   61.49   10.60
   8  -1   9   67.19   11.60
  -8   1   9   72.59   11.20
  -8  -1  -9   17.20    9.30
  -8   1   9   48.90    8.60
   8   2   0   26.50    4.40
  -8  -2   0   15.90    2.30
  -8  -2   0   15.80    3.30
  -8  -2   0   18.90    3.30
  -8   2   0   17.20    3.20
   8  -2   0   15.40    3.10
   8  -2   0   13.50    2.40
  -8   2   0   14.90    2.60
   8   2   0    9.90    2.10
   8  -2   0   15.60    3.30
   8  -2   0   16.30    3.60
   8   2   0   14.90    3.40
   8  -2   0   18.10    3.40
   8   2   0   15.20    3.30
   8   2   0   11.70    2.50
  -8  -2   2  654.83   32.80
   8   2   2  668.93   32.70
  -8  -2   2  645.84   32.60
  -8   2  -2  645.64   32.50
   8   2   2  625.54   32.40
   8   2   2  596.74   32.60
   8  -2  -2  653.93   32.90
  -8   2  -2  626.84   32.60
   8  -2  -2  640.14   32.80
  -8  -2   2  665.53   33.10
   8   2   2  644.14   32.60
   8   2   2  651.63   32.70
   8  -2  -2  659.23   32.70
   8   2   2  653.33   32.30
   8  -2  -2  653.23   32.20
  -8  -2   2  682.53   32.80
  -8  -2   2  677.93   32.50
   8  -2   2  668.03   32.70
   8   2  -2  656.33   32.40
   8   2  -2  673.53   32.90
   8  -2   2  683.23   32.70
  -8   2   2  647.14   32.20
   8   2  -2  653.93   32.60
  -8   2   2  626.54   32.60
   8  -2   2  628.74   32.60
   8   2  -2  648.44   32.70
  -8   2   2  683.33   32.80
  -8  -2  -2  643.84   32.80
   8  -2   2  659.73   32.80
  -8  -2  -2  657.73   32.70
  -8  -2  -2  641.14   32.80
   8   2   4  139.69    8.90
   8  -2  -4  138.09    9.10
   8  -2  -4  133.49    8.60
  -8   2  -4  129.39    9.10
   8  -2  -4  137.39    7.90
  -8  -2   4  129.89    8.80
   8   2   4  135.09    8.50
   8  -2  -4  130.59    8.40
  -8  -2   4  136.89    8.80
  -8   2  -4  140.69    8.90
   8   2   4  137.79    9.10
   8  -2  -4  161.88    9.70
   8   2   4  114.09    7.90
  -8   2  -4  132.39    9.10
   8   2   4  136.39    8.80
  -8   2  -4  153.88    9.90
  -8  -2   4  153.28   10.00
  -8  -2   4  156.48   10.20
  -8  -2  -4  133.59    9.10
   8  -2   4  125.79    7.70
  -8   2   4  134.69    8.80
   8  -2   4  133.79    9.20
  -8  -2  -4  150.68    9.70
   8   2  -4  128.19    8.80
   8  -2   4  134.49    8.70
   8   2  -4  137.89    8.80
   8   2  -4  111.79    8.30
  -8   2   4  128.59    8.20
   8  -2   4  140.99    9.40
  -8  -2  -4  134.79    8.70
   8  -2   4  140.09    9.10
   8   2  -4  140.69    9.20
  -8   2  -6   40.40    6.00
   8  -2  -6   55.89    7.10
   8   2   6   32.40    5.20
   8   2   6   31.80    5.00
   8  -2  -6   39.40    6.20
  -8   2  -6   40.00    5.50
   8   2   6   49.80    6.50
  -8  -2   6   34.90    5.50
  -8   2  -6   44.00    5.70
  -8  -2   6   44.30    7.10
   8   2   6   36.50    6.40
   8  -2  -6   33.10    6.30
   8  -2  -6   34.70    5.20
  -8   2   6   36.40    4.30
  -8   2   6   33.90    4.90
  -8   2   6   37.50    6.20
   8  -2   6   35.40    5.20
   8  -2   6   44.00    6.30
  -8  -2  -6   34.40    5.30
  -8   2   6   39.30    5.70
   8  -2   6   32.90    5.30
   8  -2   6   51.59    6.90
   8   2  -6   34.80    6.20
   8   2  -6   46.70    5.50
  -8  -2  -6   55.89    7.40
   8   2  -6   33.90    5.50
  -8  -2  -6   31.30    5.40
   8   2  -6   32.90    5.90
  -8  -2  -6   54.99    7.40
   8   2   8   64.79    6.50
   8  -2  -8   49.30    7.90
  -8  -2   8   48.70    7.40
  -8   2  -8   57.19    8.50
   8  -2  -8   56.69    7.20
   8   2   8   65.79    9.50
  -8  -2   8   68.09    7.90
  -8   2  -8   54.89   10.10
   8   2   8   47.80    7.10
   8   2   8   79.79    8.80
  -8  -2   8   61.89    7.70
  -8   2  -8   52.69    7.20
   8   2   8   60.49    7.40
  -8   2  -8   63.49    9.40
   8  -2  -8   51.59    8.80
   8  -2  -8   60.69    7.70
   8   2  -8   55.29    8.30
   8  -2   8   49.20    6.60
  -8   2   8   53.59    7.60
  -8  -2  -8   57.29    8.40
   8  -2   8   57.49    9.90
  -8   2   8   81.59   11.00
   8   2  -8   64.89    9.30
   8   2  -8   75.19    8.80
  -8  -2  -8   56.39    7.30
  -8   2   8   56.09    9.10
   8   2  -8   37.30    6.90
  -8   2   8   56.69    7.00
  -8   2   8   54.99    7.10
  -8   2 -10   36.00   10.10
   8   2  10   23.80    9.60
  -8   2 -10   44.30   11.30
  -8  -2  10   24.10    4.80
   8   2  10   27.40   10.60
   8  -2 -10   19.00    9.30
  -8  -2 -10   24.40    9.50
   8  -2  10   20.60    9.60
   8   2 -10   19.70    9.10
  -8   2  10   23.50   10.40
   8   2 -10   30.60    9.10
  -8   3  -1   51.49    3.90
   8  -3  -1   30.90    3.90
  -8  -3   1   39.00    5.00
  -8   3  -1   50.69    4.80
  -8  -3   1   37.90    4.80
  -8  -3   1   37.80    4.60
  -8  -3   1   31.10    4.50
   8   3   1   52.19    4.20
   8   3   1   32.60    4.30
  -8  -3   1   38.00    4.80
   8   3   1   52.49    4.70
   8  -3  -1   39.00    4.70
   8  -3  -1   43.20    4.80
   8   3   1   36.10    5.00
   8  -3  -1   36.90    3.30
   8   3  -1   38.50    5.40
  -8  -3  -1   34.80    5.00
   8  -3   1   39.40    4.00
   8   3  -1   46.70    5.20
   8  -3   1   43.90    4.80
   8  -3   1   39.10    4.70
  -8   3   1   46.80    3.50
  -8  -3  -1   38.10    5.30
   8  -3   1   31.40    4.30
   8   3  -1   39.50    4.50
   8   3  -1   39.30    2.80
   8   3  -1   51.19    4.10
  -8  -3  -1   47.20    4.60
  -8  -3  -1   36.90    4.60
   8  -3  -3  196.68   11.20
   8  -3  -3  189.18   11.10
  -8  -3   3  164.38   11.50
   8   3   3  197.18   10.90
  -8   3  -3  202.38   10.90
   8   3   3  190.98   11.00
  -8  -3   3  190.78   10.90
   8   3   3  199.28   11.20
   8  -3  -3  182.18    9.70
  -8  -3   3  201.98   11.20
   8   3   3  181.28   10.60
  -8   3  -3  190.68   11.30
   8   3   3  180.58   10.70
  -8   3  -3  195.08   11.10
   8  -3  -3  167.48   11.00
  -8  -3   3  205.98   11.30
   8  -3  -3  193.98   11.10
  -8  -3   3  205.28   11.10
  -8   3  -3  157.28   11.80
  -8   3   3  186.38    9.80
  -8   3   3  169.88   10.40
  -8  -3  -3  191.08   10.30
   8   3  -3  189.88   10.80
  -8   3   3  192.08   10.90
   8   3  -3  174.28   10.60
  -8  -3  -3  198.28   11.10
   8  -3   3  195.78   11.10
  -8   3   3  191.18   11.10
   8  -3   3  197.38   11.00
   8  -3   3  187.28   11.10
  -8  -3  -3  159.88   11.00
   8   3  -3  198.38   11.20
   8   3  -3  199.18   10.90
   8  -3   3  195.78   11.20
  -8   3  -5   72.09    7.40
   8   3   5   79.29    6.80
  -8   3  -5   79.79    6.70
   8  -3  -5   85.19    7.10
   8   3   5   77.59    7.40
  -8  -3   5   73.69    6.90
  -8  -3   5   89.69    7.00
   8   3   5   77.99    6.80
   8  -3  -5   76.29    5.50
  -8  -3   5   77.19    7.50
  -8   3  -5   83.89    6.80
   8  -3  -5   75.09    6.90
   8  -3  -5   73.09    7.20
   8   3   5   83.29    6.90
   8   3  -5   80.49    6.70
   8  -3   5   85.09    7.00
   8  -3   5   80.29    7.00
   8   3  -5   87.79    7.60
   8  -3   5   75.39    6.60
   8   3  -5   77.49    6.60
  -8   3   5   82.49    6.80
  -8   3   5   61.19    6.00
  -8  -3  -5   72.49    7.70
  -8  -3  -5   76.79    7.40
  -8  -3  -5   77.09    7.30
   8  -3   5   74.19    7.40
   8   3  -5   71.69    8.10
   8  -3   5   83.09    5.50
  -8  -3  -5   78.69    6.70
  -8  -3   7   62.19   10.60
  -8  -3   7   69.29   10.20
   8   3   7   70.89    7.60
  -8  -3   7   63.49    7.20
   8  -3  -7   62.99    7.20
   8  -3  -7   65.29    6.90
   8   3   7   77.79    8.30
  -8   3  -7   72.69    7.60
  -8   3  -7   93.19    9.30
   8  -3  -7   63.59    9.30
   8  -3  -7   58.09    6.60
   8   3   7   70.69    8.00
   8  -3  -7   65.79    7.10
   8   3   7   80.99    7.30
  -8   3  -7   64.29    8.20
  -8   3   7   79.79    7.50
  -8  -3  -7   84.69    8.00
   8   3  -7   72.49    7.50
  -8   3   7   67.09    7.80
   8   3  -7   82.19    8.30
   8  -3   7   95.09   10.30
   8   3  -7   64.79    7.60
   8  -3   7   68.39    7.70
   8  -3   7   66.59    7.50
   8  -3   7   64.09   10.30
  -8  -3  -7   74.79    7.10
  -8  -3  -7   64.79   10.50
   8   3  -7   71.19    7.50
  -8  -3  -7   63.39   10.10
  -8   3   7   69.29    5.60
  -8   3  -9   11.40    4.60
  -8  -3   9   18.40    6.70
  -8   3  -9   18.80    9.10
   8   3   9   13.70    5.80
   8  -3  -9   21.40    7.20
   8  -3  -9    9.60    7.00
  -8  -3   9   -1.30    8.90
   8   3   9   22.80    7.50
  -8  -3   9    6.00    8.40
  -8  -3  -9   12.40    8.80
  -8   3   9   14.70    5.10
  -8  -3  -9   12.70    7.30
  -8   3   9   19.40    7.80
   8  -3   9   -6.00    8.10
   8   3  -9   15.70    5.00
   8  -3   9   -6.50    8.00
   8   3  -9   17.30    6.10
   8   3  -9   21.30    8.30
   8  -4   0  589.84   29.80
  -8  -4   0  574.34   30.40
  -8  -4   0  619.54   30.50
   8   4   0  634.74   30.50
   8   4   0  606.24   30.10
   8   4   0  574.04   29.40
   8  -4   0  598.44   30.70
   8   4   0  604.64   30.40
  -8   4   0  580.34   30.10
   8   4   0  614.24   30.60
  -8   4   0  609.54   30.40
   8   4   0  607.44   30.40
  -8  -4   0  581.74   30.50
  -8  -4   0  641.24   30.40
   8  -4   0  590.84   30.50
  -8   4   0  615.94   29.80
   8  -4   0  622.54   30.50
  -8  -4   2  374.96   19.90
   8   4   2  388.96   19.80
   8   4   2  405.56   19.60
  -8   4  -2  369.96   19.40
   8   4   2  381.26   19.70
  -8   4  -2  397.86   19.60
  -8  -4   2  383.66   19.90
   8   4   2  395.96   19.70
  -8  -4   2  394.46   20.00
   8  -4  -2  391.96   19.90
   8  -4  -2  388.86   19.80
   8   4   2  365.76   18.70
   8  -4  -2  385.26   19.90
  -8  -4   2  386.56   19.90
   8   4   2  351.06   19.30
  -8   4  -2  368.16   20.00
   8   4  -2  361.16   19.90
   8  -4   2  379.26   20.00
  -8  -4  -2  338.87   20.10
   8   4  -2  393.56   18.60
   8   4  -2  335.27   19.70
   8  -4   2  390.06   19.90
  -8  -4  -2  395.36   19.90
   8   4  -2  375.66   18.60
  -8  -4  -2  390.26   19.90
  -8   4   2  381.66   19.60
  -8   4   2  358.46   18.70
  -8  -4  -2  318.97   19.60
   8   4  -2  385.36   19.50
   8   4  -2  391.16   19.40
   8  -4   2  381.46   19.60
  -8   4   2  355.46   19.40
   8  -4   2  387.06   19.90
   8   4  -2  358.36   18.50
  -8   4   2  397.56   19.70
   8  -4  -4   18.60    4.30
   8   4   4   23.30    4.00
   8  -4  -4   23.60    4.30
  -8  -4   4   22.70    3.90
  -8   4  -4   20.20    4.70
  -8  -4   4   24.80    4.40
   8  -4  -4   24.50    4.50
   8   4   4   18.80    4.50
   8   4   4   26.10    4.00
   8  -4  -4   22.20    4.50
   8   4   4   20.20    3.00
  -8   4  -4   21.80    3.70
  -8   4  -4   19.50    4.30
  -8   4  -4   25.90    5.30
   8   4   4   23.60    4.40
  -8  -4   4   23.00    4.70
   8  -4  -4   17.10    2.40
   8   4  -4   25.20    4.80
   8  -4   4   18.70    3.70
   8  -4   4   24.00    4.30
  -8   4   4   18.80    2.20
  -8   4   4   22.70    4.70
   8   4  -4   23.20    3.90
   8   4  -4   22.00    3.00
   8  -4   4   17.20    4.10
  -8  -4  -4   26.60    3.70
  -8   4   4   20.30    4.30
   8   4  -4   23.40    4.20
  -8  -4  -4   23.70    4.60
   8   4  -4   16.90    4.30
  -8  -4  -4   33.70    5.90
  -8  -4  -4   25.20    4.30
   8  -4  -6   90.19    8.40
  -8   4  -6   85.99    7.40
   8   4   6   84.29    8.10
   8   4   6   81.49    7.30
   8   4   6   84.39    7.60
  -8   4  -6   81.49    7.60
  -8  -4   6   85.29    7.90
   8   4   6   90.69    8.00
   8  -4  -6   92.69    7.70
  -8  -4   6   88.19    8.60
   8   4   6  101.49    7.40
  -8   4  -6   72.49    8.10
   8  -4  -6   90.49    6.20
   8  -4  -6   78.79    7.70
  -8   4  -6   76.19    8.10
   8  -4  -6   94.59    7.80
  -8  -4   6   80.49    7.90
   8   4  -6   74.79    7.20
  -8  -4  -6   80.79    8.30
  -8  -4  -6   93.89    7.70
   8   4  -6   78.49    7.90
   8   4  -6   80.49    8.20
  -8  -4  -6   81.59    8.40
  -8   4   6  105.09    7.80
   8   4  -6   80.39    7.60
  -8   4   6   79.29    7.70
   8  -4   6   84.89    7.80
  -8   4   6   74.49    5.10
   8  -4   6   76.59    8.50
  -8  -4  -6   86.99    8.60
   8   4  -6   82.09    7.60
  -8   4   6   85.79    8.30
   8  -4   6   84.89    7.70
   8   4   8   25.10    6.50
  -8  -4   8   24.10    8.30
  -8  -4   8   29.20    6.00
   8   4   8   24.30    5.60
  -8  -4   8   18.00    7.10
   8   4   8   28.40    7.40
   8   4   8   20.90    4.70
  -8  -4   8   22.30    6.40
   8  -4  -8   23.20    6.50
   8  -4  -8   24.00    5.90
  -8   4  -8   26.50    5.30
   8  -4  -8   23.30    7.10
   8   4   8   13.50    8.30
  -8   4   8   23.40    7.30
  -8   4   8   23.50    5.70
  -8   4   8   25.60    3.30
  -8  -4  -8   34.40    7.30
  -8  -4  -8   31.80    7.90
   8  -4   8    9.30    8.10
   8   4  -8   25.60    5.80
   8  -4   8   14.90    6.80
   8   4  -8   26.10    5.90
   8   4  -8   28.50    5.20
  -8   4   8   25.10    3.40
   8  -5  -1  192.38   11.10
  -8  -5   1  176.88   11.10
  -8  -5   1  174.38   10.80
   8   5   1  191.58   10.50
   8   5   1  183.18   10.60
   8  -5  -1  187.18   11.50
   8  -5  -1  182.68    9.90
   8  -5  -1  184.68   11.40
   8   5   1  205.28   11.10
  -8   5  -1  204.78   11.10
  -8   5  -1  184.38   11.40
   8   5   1  205.78   11.10
  -8   5  -1  184.48   10.70
  -8  -5   1  180.38   11.20
   8   5   1  202.38   12.00
  -8  -5   1  198.68   11.90
   8   5   1  202.68   11.40
  -8  -5   1  168.38   11.00
  -8   5   1  180.78   10.90
   8   5  -1  204.68   10.60
   8   5  -1  204.48   11.30
  -8   5   1  189.18   10.70
   8   5  -1  164.48    9.80
   8  -5   1  183.28   11.20
   8   5  -1  206.08   11.30
  -8  -5  -1  170.48   10.70
   8   5  -1  191.88   10.80
  -8  -5  -1  186.48   11.30
   8  -5   1  194.18   10.30
  -8   5   1  186.08   11.60
  -8  -5  -1  177.58   11.20
   8  -5   1  175.48   11.30
  -8  -5  -1  211.98   12.20
   8   5  -1  223.68   11.60
  -8   5   1  191.68   11.10
   8  -5  -3   93.69    7.60
   8   5   3   91.29    7.30
  -8   5  -3   74.59    6.30
  -8   5  -3   76.99    7.90
   8   5   3   94.99    7.30
  -8   5  -3  104.99    7.00
   8   5   3   95.19    6.60
  -8  -5   3   74.99    7.50
   8  -5  -3   94.69    7.30
  -8   5  -3   85.09    4.90
   8  -5  -3   90.99    7.00
   8  -5  -3  110.49    8.40
  -8  -5   3   90.19    7.20
   8   5   3   74.99    6.60
   8  -5  -3   87.49    5.00
  -8  -5   3  101.19    7.30
  -8  -5  -3   88.39    6.90
  -8  -5  -3  103.09    5.80
   8   5  -3   97.39    7.20
   8  -5   3   94.09    7.10
   8   5  -3  100.79    6.20
   8   5  -3   98.89    7.10
   8   5  -3   94.89    5.10
  -8  -5  -3   95.99    8.50
  -8   5   3   84.89    6.70
  -8   5   3   93.79    6.60
   8  -5   3   70.39    7.70
  -8  -5  -3   88.79    7.60
   8  -5   3   93.99    7.20
  -8   5   3   94.59    7.30
  -8   5  -5    8.20    3.00
   8  -5  -5    6.80    3.70
   8   5   5    6.20    4.00
   8   5   5    9.00    3.30
   8  -5  -5   11.80    4.50
  -8  -5   5   21.70    5.80
  -8  -5   5    5.70    4.70
   8  -5  -5    5.60    4.00
  -8  -5   5    9.10    4.50
  -8   5  -5    5.60    4.00
  -8   5  -5    4.50    3.90
   8  -5  -5    6.70    4.00
   8  -5  -5    5.30    3.90
  -8  -5   5    5.40    4.80
   8   5   5    8.30    4.40
   8   5   5    7.10    5.50
   8   5   5    6.10    2.90
   8   5   5   17.50    6.30
   8   5  -5    5.60    3.80
   8   5  -5    6.50    2.80
  -8  -5  -5    8.00    4.70
   8   5  -5    6.50    5.00
   8   5  -5   10.50    4.00
   8   5  -5   -0.90    3.00
   8  -5   5    8.40    4.80
   8  -5   5    6.20    4.50
  -8  -5  -5    7.30    4.60
   8  -5   5    5.60    4.50
   8  -5   5    4.10    2.10
   8   5  -5    8.00    3.80
  -8   5   5    5.50    3.80
  -8   5   5    7.70    3.80
  -8  -5  -5    9.10    4.20
  -8  -5   7   15.40    5.40
  -8  -5   7   16.40    6.60
   8  -5  -7   18.40    5.30
   8   5   7   14.40    4.50
  -8  -5   7   10.60    6.80
  -8   5  -7    9.90    5.20
   8  -5  -7   12.30    5.90
   8   5   7   11.70    6.80
   8   5   7   11.40    4.70
  -8   5  -7   14.30    5.70
   8   5   7   16.40    3.80
  -8  -5   7   17.50    5.20
   8   5   7   16.90    4.60
   8  -5  -7   14.50    5.00
  -8   5  -7   21.10    8.00
  -8   5   7   14.20    4.20
  -8  -5  -7   11.70    6.30
   8   5  -7   17.60    4.40
   8  -5   7   16.90    6.50
  -8  -5  -7   13.40    5.80
  -8  -5  -7   13.10    4.80
   8   5  -7   10.70    5.10
  -8   5   7   15.80    4.40
  -8  -5  -7   14.00    6.20
  -8   5   7   15.80    2.40
  -8   5   7   12.60    1.90
   8   5  -7   18.80    4.50
   8   5  -7    9.30    4.70
  -8   5   7   16.00    2.60
   8   5  -7   21.40    8.10
   8  -5   7   19.90    5.50
   8  -5   7   15.20    5.40
   8   5   9    5.60    7.80
  -8   5  -9   11.40    5.80
  -8   5  -9   15.70    8.60
   8   5   9   10.00   11.70
   8  -5  -9   12.80    7.90
  -8  -5   9    6.80    8.20
  -8   5  -9   29.40    9.00
  -8  -5   9   10.40   10.10
   8  -5  -9    9.60    8.90
   8  -5   9   19.00   10.40
  -8  -5  -9   10.40    7.70
  -8  -5  -9   13.60    7.50
  -8  -5  -9   14.70   10.60
   8   5  -9   10.00    5.30
   8   5  -9    9.00    5.90
   8  -5   9   38.90   10.40
   8   5  -9   17.00   10.50
   8  -5   9   16.30    8.80
   8   5  -9   12.70    7.90
  -8   5   9   -1.50    8.50
   8   5  -9   10.60    9.20
   8  -6   0 1578.14   78.19
   8   6   0 1655.33   78.19
   8  -6   0 1526.15   78.49
  -8   6   0 1588.44   77.69
  -8   6   0 1617.24   78.49
  -8   6   0 1554.64   77.69
   8  -6   0 1683.23   78.29
   8   6   0 1524.85   77.69
   8  -6   0 1569.84   77.39
  -8  -6   0 1675.83   78.39
  -8  -6   0 1570.74   78.09
   8   6   0 1673.63   78.39
  -8  -6   0 1553.64   78.19
  -8   6   0 1627.04   78.39
  -8  -6   0 1604.44   78.19
   8   6   0 1572.84   77.69
   8   6   0 1534.85   77.59
  -8   6  -2  126.39    7.70
  -8  -6   2  129.69    8.70
  -8  -6   2  128.79    8.90
  -8   6  -2  143.79    9.60
   8   6   2  111.49    8.20
   8  -6  -2  126.19    8.60
  -8   6  -2  131.89    8.10
   8  -6  -2  133.19    9.30
  -8  -6   2  126.19    9.00
   8   6   2  127.79    8.40
   8   6   2  140.99    8.80
   8  -6  -2  131.29    9.00
   8   6   2  131.19    8.00
  -8  -6   2  131.49    8.60
   8   6   2  133.49    8.80
   8   6   2  129.09    8.50
  -8  -6  -2  131.19    8.80
   8   6  -2  125.89    7.80
  -8   6   2  124.99    8.20
   8   6  -2  138.79    8.90
   8  -6   2  122.09    8.80
  -8  -6  -2  143.29    8.90
  -8   6   2  129.49    9.40
   8   6  -2  116.39    6.70
   8   6  -2  132.39    9.00
  -8  -6  -2  128.79    9.30
  -8   6   2  120.49    8.30
  -8   6   2  133.39    8.70
   8  -6   2  129.29    8.80
   8  -6   2  127.59    8.50
   8  -6   2  122.59    9.40
   8   6  -2  123.19    7.50
  -8   6  -4  236.28   13.20
  -8   6  -4  247.28   14.80
   8   6   4  247.88   13.00
   8   6   4  247.38   14.10
  -8  -6   4  249.08   14.40
   8  -6  -4  213.98   12.30
   8   6   4  210.28   14.30
   8   6   4  251.67   13.70
   8  -6  -4  249.18   14.20
   8  -6  -4  243.68   14.10
  -8  -6   4  252.57   14.10
  -8  -6   4  221.68   14.10
  -8   6  -4  206.88   12.50
   8   6   4  232.88   14.00
   8  -6  -4  260.07   14.30
  -8  -6   4  253.07   14.80
  -8   6  -4  238.88   13.70
   8  -6  -4  261.17   14.50
   8   6  -4  244.08   13.90
  -8   6   4  240.68   14.30
   8  -6   4  257.87   14.00
   8  -6   4  240.48   13.90
  -8   6   4  251.07   13.20
   8   6  -4  244.18   13.20
  -8   6   4  258.17   13.90
  -8   6   4  239.28   13.70
   8   6  -4  260.07   14.90
  -8  -6  -4  236.68   13.00
  -8  -6  -4  243.38   14.30
   8  -6   4  268.27   15.10
  -8  -6  -4  261.57   14.20
  -8  -6  -4  247.58   14.40
   8   6  -4  236.88   12.30
   8   6  -4  234.88   14.10
   8   6  -4  243.98   13.80
   8  -6   4  236.38   13.90
   8   6   6   65.09    7.20
   8  -6  -6   77.09   10.00
   8   6   6   68.59   10.70
  -8  -6   6   69.99   10.70
  -8   6  -6   70.29    9.30
  -8   6  -6   53.69    7.50
   8  -6  -6   61.29    8.50
  -8  -6   6   68.79    8.00
   8   6   6   67.99    7.60
   8  -6  -6   66.29    8.30
   8  -6  -6   63.99    7.50
   8   6   6   77.69    7.70
  -8   6  -6   76.29    5.60
  -8   6  -6   58.49    7.50
  -8  -6   6   61.09   10.60
   8  -6   6   68.89    7.80
   8  -6   6   64.49    9.10
  -8   6   6   64.19    7.40
  -8  -6  -6   88.09   11.00
   8   6  -6   72.49    7.70
   8   6  -6   66.09    7.50
   8   6  -6   54.89    5.90
   8   6  -6   89.09    8.10
  -8  -6  -6   85.39    9.50
   8   6  -6   70.09    6.20
  -8  -6  -6   63.49    6.40
   8   6  -6   61.79   10.30
  -8   6   6   69.79    7.60
  -8   6   6   62.79    7.60
   8  -6   6   59.29    4.10
  -8  -6  -6   73.29    7.90
   8  -6   6   71.09    7.90
  -8  -6   8   37.00    7.60
  -8   6  -8   29.00    6.10
  -8   6  -8   31.50    6.10
   8  -6  -8   27.80    7.30
   8   6   8   43.90    7.80
  -8  -6   8   15.10    9.50
  -8   6  -8   29.90    7.00
  -8   6  -8    2.10    9.20
   8   6   8    9.20    9.40
   8   6   8   29.80    6.20
   8  -6  -8    5.20    7.80
   8  -6  -8   22.20    6.90
   8   6  -8   21.20    5.70
   8  -6   8   17.70    8.70
   8   6  -8   23.80    5.80
   8  -6   8   25.80    8.80
  -8  -6  -8   15.50    8.30
  -8  -6  -8   22.40    7.30
  -8   6   8   26.00    8.30
  -8   6   8   20.50    5.90
  -8  -6  -8   43.00    8.50
   8   7   1   87.19    7.60
   8  -7  -1   98.59    7.60
  -8   7  -1   73.79    6.20
   8  -7  -1   87.69    7.70
   8   7   1   80.69    7.70
  -8  -7   1   87.49    7.80
  -8  -7   1   78.79    7.80
   8  -7  -1   79.09    7.10
   8   7   1   75.69    6.90
  -8  -7   1   76.89    7.20
   8   7   1   75.39    5.40
   8   7   1   79.79    6.20
   8  -7  -1   86.89    8.00
  -8  -7   1   98.09    7.20
  -8   7  -1   65.09    6.20
  -8   7  -1   80.69    5.40
   8   7   1   74.59    6.00
  -8  -7   1   82.69    6.90
  -8   7   1   79.09    7.60
  -8  -7  -1   81.59    7.10
   8  -7   1   78.89    5.60
  -8  -7  -1   70.69    7.30
  -8  -7  -1   95.59    7.00
  -8   7   1   80.69    5.70
   8   7  -1   83.29    5.30
   8   7  -1   77.49    7.00
   8   7  -1   73.89    4.80
   8  -7   1   75.09    7.10
  -8   7   1   70.69    6.90
   8   7  -1   70.69    7.60
   8  -7   1   73.89    7.10
  -8  -7  -1   74.29    7.30
   8  -7   1   73.19    7.90
  -8   7   1   76.49    6.30
  -8  -7   3    3.40    4.30
   8  -7  -3    7.20    4.50
  -8  -7   3    5.70    4.70
  -8   7  -3    6.20    2.90
  -8   7  -3    5.70    2.80
  -8   7  -3   -1.40    2.90
  -8   7  -3    6.10    4.90
   8  -7  -3    5.00    3.70
   8   7   3   20.40    6.40
   8   7   3    5.70    3.10
   8   7   3    4.70    3.50
   8   7   3    4.70    3.20
  -8  -7   3    5.10    3.90
   8   7   3    9.90    4.30
   8  -7  -3    3.90    4.00
   8  -7  -3    9.00    4.90
   8   7   3    5.10    2.70
  -8  -7  -3   10.90    4.60
   8   7  -3    7.60    4.00
   8  -7   3    4.20    3.90
  -8   7   3    5.40    3.80
  -8  -7  -3    8.40    4.30
  -8   7   3   -0.90    3.20
  -8   7   3    0.80    2.30
  -8  -7  -3    2.30    2.30
   8   7  -3    6.70    2.70
  -8  -7  -3    0.00    3.70
  -8   7   3    4.00    3.00
   8  -7   3    2.50    4.00
   8   7  -3    4.10    3.40
  -8  -7  -3    2.90    4.80
   8   7   5   42.50    6.90
   8   7   5   27.80    5.10
  -8   7  -5   28.90    7.90
  -8  -7   5   34.00    5.80
   8  -7  -5   32.70    5.60
   8   7   5   34.30    5.20
  -8  -7   5   28.10    5.50
  -8  -7   5   27.00    7.20
   8   7   5   29.40    4.80
  -8  -7   5   34.30    5.30
   8   7   5   34.00    5.30
  -8   7  -5   32.30    5.40
   8  -7  -5   29.60    6.00
   8  -7  -5   31.70    5.50
  -8   7  -5   31.10    4.00
   8  -7  -5   25.30    4.90
  -8   7  -5   29.00    4.50
  -8  -7   5   38.30    7.80
   8   7  -5   34.50    4.30
   8   7  -5   36.40    7.20
  -8  -7  -5   44.00    7.80
   8   7  -5   28.80    3.70
  -8  -7  -5   33.50    5.60
   8   7  -5   35.00    5.00
   8   7  -5   28.40    5.60
   8  -7   5   34.60    7.60
  -8   7   5   32.80    5.40
  -8  -7  -5   26.30    6.40
  -8  -7  -5   33.00    5.20
   8  -7   5   28.20    5.00
  -8  -7  -5   37.20    5.70
   8  -7   5   45.40    7.40
   8   7   7   45.30    7.50
   8   7   7   17.20    8.80
  -8   7   7   31.60    5.70
   8   7  -7   13.60    7.50
   8  -7   7   36.50    9.10
   8   8   0  153.08    9.20
   8   8   0  151.88    8.20
   8   8   0  193.18   11.30
  -8   8   0  141.49    8.30
   8   8   0  152.78    8.20
  -8  -8   0  158.28   10.60
   8  -8   0  151.88   10.30
  -8  -8   0  191.88   11.90
  -8   8   0  159.08    8.50
   8   8   0  158.68   10.50
   8  -8   0  157.78   10.50
  -8  -8   0  176.18   10.30
   8  -8   0  151.78    8.40
   8   8   0  162.78   10.30
  -8   8   0  159.38   10.50
   8  -8   0  174.98   11.30
  -8  -8   0  161.38   10.50
   8  -8  -2  271.87   15.60
   8  -8  -2  298.27   15.60
  -8  -8   2  256.57   15.70
  -8   8  -2  257.27   15.50
   8   8   2  262.67   15.30
   8  -8  -2  275.37   15.60
  -8  -8   2  255.47   15.80
   8  -8  -2  271.57   15.10
   8   8   2  241.48   13.60
  -8  -8   2  277.57   15.90
   8  -8  -2  262.47   15.80
  -8  -8   2  262.17   15.10
   8   8   2  275.67   15.40
  -8  -8   2  280.17   15.50
   8   8   2  271.57   14.80
  -8   8  -2  265.47   15.60
  -8   8  -2  263.37   13.50
   8   8   2  263.57   13.70
   8   8   2  255.17   15.10
   8   8  -2  247.88   13.20
   8   8  -2  257.77   13.20
  -8  -8  -2  276.47   15.20
   8  -8   2  292.47   15.80
   8  -8   2  253.17   14.70
  -8   8   2  258.67   15.10
   8  -8   2  257.17   16.20
   8   8  -2  269.47   15.40
  -8  -8  -2  301.37   15.80
   8  -8   2  270.97   15.10
  -8  -8  -2  273.77   15.50
  -8   8   2  266.47   15.40
   8   8  -2  297.57   15.50
  -8  -8  -2  270.77   15.50
  -8   8   2  250.27   13.60
   8   8   4   25.30    4.40
  -8  -8   4   30.80    6.90
   8  -8  -4   36.50    5.00
   8   8   4   28.00    4.90
   8  -8  -4   31.20    5.40
  -8   8  -4   31.70    8.80
  -8   8  -4   22.80    2.90
   8   8   4   30.30    5.20
  -8  -8   4   31.50    6.10
  -8  -8   4   30.10    5.70
   8   8   4   25.90    7.50
   8  -8  -4   30.40    5.60
  -8  -8   4   32.50    6.60
  -8   8  -4   22.30    5.50
  -8  -8   4   32.50    5.90
   8  -8  -4   25.10    6.10
   8   8   4   30.40    6.20
   8  -8   4   29.80    7.10
   8   8  -4   24.40    3.70
   8  -8   4   27.00    5.50
  -8  -8  -4   28.40    5.40
  -8  -8  -4   33.60    5.00
  -8  -8  -4   21.30    6.80
   8   8  -4   18.50    8.30
   8   8  -4   35.70    5.40
  -8   8   4   28.30    4.50
   8  -8   4   31.20    6.20
  -8  -8  -4   25.90    5.30
   8   8  -4   23.60    2.40
   8  -8   4   36.60    5.30
   8   8  -4   35.70    5.50
  -8  -8  -4   26.80    5.50
  -8   8   4   28.20    4.70
  -8   8  -6  119.79    9.80
   8  -8  -6  138.19   11.80
   8   8   6  102.39    9.20
  -8  -8   6  100.09   10.40
   8   8   6  106.49    9.70
  -8  -8   6   81.29   13.60
  -8  -8   6  105.89   12.90
  -8   8  -6  104.09    7.40
  -8   8  -6   94.89    7.70
   8  -8  -6  107.49    9.40
   8  -8  -6   93.29    9.30
   8  -8  -6  102.29    9.70
   8   8  -6  112.19    7.70
  -8  -8  -6  121.19   12.60
   8  -8   6  102.89   10.20
   8  -8   6   99.79   10.30
  -8  -8  -6  104.69    9.70
  -8   8   6  104.49    9.20
   8   8  -6  101.59    7.00
  -8  -8  -6  117.79   12.00
   8   8  -6   97.79   11.10
  -8   8   6  110.59    9.80
  -8  -8  -6  105.89    9.80
   8  -8   6  130.59   12.10
  -8  -9   1   39.90    6.00
   8  -9  -1   42.90    6.40
   8   9   1   42.00    6.50
  -8   9  -1   40.10    6.60
   8  -9  -1   39.50    8.80
   8   9   1   30.30    7.50
  -8  -9   1   40.10    5.50
   8  -9  -1   46.40    5.90
   8   9   1   38.40    5.80
  -8  -9   1   28.60    6.70
  -8   9  -1   31.30    5.50
   8  -9   1   35.70    4.20
   8  -9   1   39.40    6.70
   8   9  -1   31.80    5.90
  -8  -9  -1   37.30    6.50
  -8  -9  -1   34.00    6.00
   8  -9   1   39.30    6.30
   8   9  -1   36.00    5.40
   8   9  -1   56.49    7.30
  -8   9   1   34.20    6.10
   8  -9   1   27.40    8.20
  -8  -9   3   35.20    5.80
   8   9   3   30.30    4.50
   8   9   3   36.90    6.70
  -8  -9   3   36.60    6.90
  -8   9  -3   27.90    6.40
  -8  -9   3   42.50    7.30
   8  -9  -3   32.30    6.00
  -8   9  -3   34.10    9.30
   8   9   3   26.20    5.20
   8  -9  -3   35.70    6.60
  -8  -9   3   35.10    5.90
   8  -9  -3   33.90    6.80
   8  -9  -3   35.30    5.80
   8   9   3   35.20    6.20
  -8  -9  -3   28.40    5.80
   8  -9   3   33.70    7.10
   8   9  -3   38.40    5.70
  -8  -9  -3   25.80    5.80
   8  -9   3   38.40    5.70
   8  -9   3   42.10    6.20
  -8   9   3   22.30    4.40
  -8  -9  -3   38.20    7.50
  -8   9   3   35.40    5.30
   8  -9   3   34.00    5.30
   8   9  -3   42.70    7.10
  -8  -9  -3   37.50    6.10
  -8   9  -5   16.90    3.50
  -8   9  -5   23.70    8.10
   8   9   5   25.10    4.30
   8   9   5   16.40    7.50
   8  -9  -5   20.90    5.60
  -8   9  -5   17.60    4.70
   8   9   5   18.40    7.10
   8  -9  -5    9.60    7.70
   8  -9  -5   17.80    5.70
  -8  -9   5   13.90    5.90
  -8  -9   5   20.00    6.60
  -8  -9  -5   13.60    4.30
   8   9  -5   16.60    6.60
   8   9  -5   24.30    8.20
  -8  -9  -5   17.30    6.10
  -8   9   5   13.90    3.20
   8  -9   5   21.60    6.10
  -8   9   5   16.20    4.60
   8   9  -5   26.40    7.70
   8  -9   5   17.50    3.80
  -8  -9  -5    7.60    8.90
   8  -9   5   13.20    5.20
  -8  -9   7   20.40    9.50
   8  -9  -7    4.50    6.80
   8   9   7   40.00   12.30
   8  -9  -7   -0.90    8.20
  -8   9  -7    3.10    6.60
  -8  -9   7    3.40   10.90
   8   9  -7    3.70    8.10
  -8  -9  -7   20.90   10.80
  -8 -10   0   23.10    5.40
   8 -10   0   26.10    5.20
   8  10   0   25.20    5.70
  -8  10   0   26.80    6.60
  -8 -10   0   25.40    6.10
  -8 -10   0   27.20    6.80
   8 -10   0   22.80    5.20
  -8 -10   0   31.50    5.60
   8 -10   0   23.90    6.00
  -8  10   0   14.40    5.80
   8  10   2  145.09   11.00
  -8 -10   2  142.69   11.00
  -8 -10   2  154.58   11.70
   8 -10  -2  144.79   11.00
   8 -10  -2  149.88   12.60
   8  10   2  146.19   12.10
   8 -10  -2  152.58   11.40
  -8 -10   2  162.58   11.00
   8  10   2  146.99   10.60
   8  10   2  134.79    9.80
  -8  10  -2  147.69   13.20
   8 -10  -2  154.08   11.90
  -8  10  -2  138.89   14.20
   8 -10   2  160.98   11.20
   8  10  -2  163.48   12.90
   8 -10   2  139.49   11.00
  -8 -10  -2  152.18   11.40
  -8 -10  -2  147.99   11.10
   8 -10   2  141.79   10.50
  -8  10   2  146.09   12.20
  -8 -10  -2  192.18   13.50
   8 -10   2  185.48   13.10
   8  10  -2  158.38   11.80
  -8  10  -4   78.29   10.70
   8  10   4   50.89   10.70
  -8  10  -4   41.20    7.10
  -8 -10   4   54.19    7.40
  -8 -10   4   58.19    9.20
  -8 -10   4   67.19    8.80
   8 -10  -4   48.90    6.80
   8 -10  -4   49.00    7.70
   8 -10   4   54.59    8.00
   8  10  -4   52.09    8.20
  -8 -10  -4   44.20    8.10
  -8  10   4   44.70    6.80
   8 -10   4   60.39    7.50
   8 -10   4   61.19    8.60
  -8 -10  -4   51.29    8.10
  -8  10   4   49.70    7.50
  -8  10  -6   13.30    6.00
   8  10   6   16.30    9.90
   8 -10  -6    4.40    6.60
  -8  10  -6   30.40   14.20
  -8 -10  -6   12.00    8.90
   8  10  -6   20.30    8.60
  -8  10   6   14.80    7.30
   8 -10   6   18.70    7.40
   8 -10   6   14.10   15.60
   8  10  -6   19.90   12.80
  -8 -10  -6   32.10    9.20
  -8  11  -1   49.60   10.00
  -8 -11   1   48.00    7.00
   8  11   1   58.79    8.50
   8 -11  -1   47.50    7.20
  -8 -11   1   69.49   10.90
  -8 -11   1   41.00    6.70
  -8  11  -1   27.70    6.20
   8 -11  -1   38.90    6.30
  -8 -11   1   48.40    8.30
   8  11   1   50.09    8.70
   8 -11   1   42.40    6.00
   8  11  -1   54.99    8.60
  -8 -11  -1   38.70    6.20
  -8  11   1   48.00    7.90
  -8 -11  -1   34.70    8.70
   8  11  -1   46.20    7.80
  -8 -11  -1   43.30    7.00
   8 -11   1   51.59    7.60
   8 -11  -3   23.00    6.00
   8  11   3   24.00    8.70
   8  11   3   29.60    9.00
   8 -11  -3   24.70    7.40
   8 -11  -3   21.40    6.00
  -8 -11   3   17.60    8.40
   8 -11  -3   22.50    9.00
  -8 -11   3   27.20    5.80
  -8 -11   3   22.10    9.30
  -8 -11   3   28.40    6.60
  -8  11  -3   20.10    6.30
  -8 -11  -3   22.30    6.00
  -8  11   3   21.10    5.10
  -8 -11  -3   22.70    6.20
   8  11  -3   10.30    6.40
   8 -11   3   18.70    7.50
   8 -11   3   32.70    6.40
   8 -11   3   20.00    9.20
   8  11  -3   32.20    7.90
   8 -11   3   23.30    5.60
  -8  11   3   16.40    6.10
  -8 -12   0    9.20    6.00
  -8 -12   0   14.90    6.60
   8  12   0   34.70   10.00
  -8  12   0    7.20    6.20
   8 -12   0   12.80    5.60
  -8 -12   0    2.80    8.70
   8 -12   0   15.30    6.00
  -8  12   0   10.00    8.90
   8 -12  -2   27.30    6.30
  -8 -12   2   57.39   10.00
   8  12   2   24.30    9.10
   8 -12  -2   30.50    6.40
   8 -12  -2   31.90    8.20
  -8  12  -2   30.30    5.30
  -8 -12   2   30.60    6.00
  -8 -12   2   39.10   10.30
   8 -12  -2   24.40   10.90
   8  12  -2   42.30    9.90
   8 -12   2   38.80    7.00
   8  12  -2   36.30    7.00
   8 -12   2   21.80   10.80
  -8  12   2   40.00    7.10
  -8 -12  -2   18.60    8.90
   8 -12   2   40.70    7.00
  -8  12   2   19.00    6.70
  -8 -12  -2   25.50    6.40
  -9   0   0    1.90    3.60
  -9   0   0   -1.40    2.30
   9   0   0    0.70    3.40
   9   0   0   -2.30    3.80
   9   0   0    0.70    2.10
   9   0   0    1.90    3.00
   9   0   0    0.70    2.80
  -9   0   0    0.10    2.80
   9   0   2   -6.30    3.60
   9   0  -2   -2.00    3.10
   9   0  -2    0.00    3.30
   9   0   2    0.30    2.70
   9   0  -2   -0.30    2.40
   9   0   2    1.00    3.10
   9   0  -2    0.10    3.00
   9   0   2    0.30    3.30
  -9   0  -2   -2.00    3.30
  -9   0   2   -1.50    3.00
  -9   0  -2   -0.60    1.90
  -9   0  -2    0.00    3.10
   9   0   4   -0.10    3.40
   9   0  -4    2.20    2.80
  -9   0   4    1.40    4.20
  -9   0   4    5.30    3.10
  -9   0   4    0.00    3.60
   9   0  -4    1.90    2.30
   9   0  -4    0.90    2.30
   9   0  -4    0.00    3.60
   9   0   4    2.50    3.30
   9   0   4   -1.10    3.80
  -9   0  -4    1.80    3.80
   9   0   4    1.10    3.50
  -9   0  -4    0.20    4.00
   9   0  -4    7.30    3.50
  -9   0  -4   -1.30    3.00
   9   0   6   -1.80    4.50
  -9   0  -6    3.30    5.00
   9   0   6   -0.10    3.30
  -9   0   6    0.60    4.00
   9   0   6   -1.70    5.00
   9   0  -6    8.10    4.00
   9   0   6    3.00    4.00
   9   0   6    3.70    3.90
  -9   0   6    4.00    5.00
   9   0  -6    1.00    4.20
  -9   0   6    3.80    4.50
  -9   0  -6    1.80    4.10
  -9   0  -6   -1.80    4.60
   9   0  -6    0.90    4.00
   9   0  -6    0.50    4.70
  -9   0   6    3.30    3.90
  -9   0   8    7.80    7.20
   9   0   8   -2.50    6.20
  -9   0  -8    1.30    7.00
   9   0   8   -5.50    6.90
  -9   0   8    1.30    6.90
   9   0  -8   -0.40    4.90
   9   0  -8   -4.00    6.20
  -9   0   8    3.20    5.50
   9   0  -8    5.00    5.90
  -9   0  -8    0.60    6.50
  -9   0   8   -3.20    4.90
   9   1   1  462.85   23.80
   9  -1  -1  461.85   24.40
   9  -1  -1  491.75   24.40
   9   1   1  462.15   24.30
   9  -1  -1  470.15   24.00
   9   1   1  460.75   24.30
  -9  -1   1  476.75   23.70
   9   1   1  473.55   24.40
   9  -1  -1  474.55   24.10
  -9  -1   1  453.85   24.40
  -9  -1   1  501.45   24.50
   9   1   1  468.85   24.20
   9   1   1  486.05   24.20
  -9   1  -1  467.85   24.40
  -9  -1   1  446.96   24.10
  -9   1  -1  493.45   23.40
  -9   1  -1  476.15   24.40
  -9   1  -1  449.66   24.00
   9  -1  -1  460.65   24.50
  -9   1   1  477.15   24.00
   9   1  -1  475.35   23.90
   9  -1   1  485.75   24.50
  -9   1   1  474.65   24.40
   9   1  -1  472.55   24.30
   9   1  -1  488.75   24.40
  -9  -1  -1  456.75   24.30
   9   1  -1  493.65   24.60
   9  -1   1  454.65   24.50
  -9  -1  -1  505.35   24.50
  -9  -1  -1  434.26   24.40
  -9  -1  -1  466.95   23.70
   9  -1   1  482.75   24.00
   9  -1   1  491.45   24.40
  -9   1   1  491.05   24.40
   9  -1   1  498.05   24.20
  -9  -1   3   93.09    7.40
   9  -1  -3   84.59    5.00
   9  -1  -3   65.59    5.40
   9   1   3   65.79    5.40
  -9   1  -3   67.39    6.60
  -9  -1   3   72.19    6.10
  -9  -1   3   89.59    8.00
  -9   1  -3   66.19    5.90
   9   1   3   83.79    6.90
   9   1   3   71.89    6.30
   9   1   3   64.49    6.10
  -9  -1   3   71.29    6.00
   9  -1  -3   70.69    5.90
   9  -1  -3   69.59    6.60
   9   1   3   63.79    6.10
  -9   1  -3   68.99    6.50
   9   1   3   72.69    6.40
   9  -1  -3   87.39    6.80
   9   1  -3   68.59    6.20
   9  -1   3   83.69    7.00
  -9  -1  -3   91.59    7.90
   9   1  -3   65.79    5.30
  -9  -1  -3   68.79    6.00
  -9   1   3   91.99    7.30
   9  -1   3   66.79    6.60
  -9  -1  -3   66.79    6.70
   9  -1   3   65.99    6.10
  -9   1   3   68.39    6.10
   9   1  -3   71.39    6.10
  -9   1   3   63.39    5.30
   9  -1   3   70.99    6.30
  -9  -1  -3   89.19    7.50
   9   1  -3   85.69    7.30
  -9  -1   5  114.09    8.50
  -9  -1   5  116.39    9.00
  -9  -1   5  119.89    8.90
   9  -1  -5  125.99    8.70
   9   1   5  115.09    8.70
   9  -1  -5  115.79    7.90
   9  -1  -5  116.79    9.50
   9   1   5  118.79    8.70
   9  -1  -5  125.89    8.50
   9  -1  -5  118.89    7.40
  -9   1  -5  116.49    8.50
   9   1   5  121.09    9.10
  -9  -1   5  120.89    9.30
  -9   1  -5  120.39    9.10
   9   1   5  115.49    8.00
  -9   1  -5  121.19    9.00
   9  -1   5  125.59    8.70
   9  -1   5  126.29    8.80
  -9   1   5  101.89    7.30
   9  -1   5  116.39    9.00
   9   1  -5  122.39    8.80
   9   1  -5  119.59    8.50
  -9   1   5  118.79    7.50
  -9   1   5  114.59    9.50
  -9   1   5  120.99    8.90
   9   1  -5  115.49    6.60
  -9   1   5  125.19    9.30
   9  -1   5  122.79    9.30
  -9  -1  -5  118.79    9.20
  -9  -1  -5  119.69    8.60
   9   1  -5  116.29    8.90
   9  -1   5  113.59    7.50
  -9  -1  -5  110.19    8.90
  -9  -1  -5  124.89    8.80
   9   1  -5  136.19    9.00
   9  -1  -7    8.40    5.60
  -9   1  -7   13.20    5.80
  -9  -1   7   11.60    5.00
   9   1   7   12.50    4.80
   9  -1  -7    6.80    5.30
   9  -1  -7   10.60    4.40
   9   1   7   10.10    4.60
  -9  -1   7   10.90    5.60
  -9   1  -7   13.80    4.90
  -9   1  -7   10.90    7.40
  -9  -1   7   10.80    6.60
   9   1   7   12.20    4.80
   9   1   7   10.60    6.40
   9  -1  -7    9.40    4.40
  -9  -1   7   10.70    4.60
  -9   1  -7    6.70    7.80
  -9   1   7    7.80    4.50
  -9   1   7    7.90    8.70
  -9  -1  -7    8.20    5.70
   9   1  -7   11.80    7.80
   9  -1   7    8.20    3.20
   9  -1   7    6.20    5.00
  -9   1   7    7.20    4.30
   9   1  -7   10.40    5.50
  -9  -1  -7   12.80    5.10
   9  -1   7    8.40    5.60
  -9  -1  -7   18.60    6.70
   9   1  -7    5.70    4.30
  -9   1   7   12.50    6.60
   9   1  -7   12.30    6.00
  -9  -1  -7   10.80    4.80
   9  -1   7    9.50    4.50
   9   1   9   47.90    9.10
   9  -1  -9   56.19   10.20
  -9   1  -9   42.00    9.60
   9  -1  -9   37.00    9.40
  -9   1  -9   17.20    8.60
  -9  -1   9   61.89   10.50
  -9  -1   9   31.00    8.00
  -9  -1   9   27.10    9.90
   9   1   9   47.60   10.20
   9   1  -9   32.50    7.30
   9   1  -9   14.80    8.70
  -9   1   9   47.80    9.20
   9  -1   9   44.20    8.00
  -9   1   9   29.40    6.20
  -9  -1  -9   67.19   11.50
  -9   1   9   40.30   10.10
   9  -1   9   22.70    9.70
  -9   1   9   31.20    6.70
  -9   2   0  199.58   10.70
  -9   2   0  204.98   11.60
   9   2   0  201.28   11.50
   9   2   0  187.88   11.10
   9   2   0  196.48   11.40
   9   2   0  204.08   10.50
  -9  -2   0  207.48   11.00
   9  -2   0  213.68   11.40
   9  -2   0  211.48   11.70
  -9   2   0  188.28   11.40
  -9  -2   0  181.58   11.60
   9  -2   0  188.88   11.20
   9   2   0  189.38   11.20
  -9  -2   0  213.98   11.50
   9  -2   0  164.18   11.60
   9   2   0  197.38   11.60
  -9  -2   0  202.58   11.60
   9  -2   0  200.28   11.30
  -9  -2   2   94.79    7.20
  -9   2  -2  100.49    5.50
   9   2   2   93.79    7.10
   9   2   2   96.39    7.30
   9  -2  -2   98.59    7.50
  -9  -2   2   96.69    7.10
   9  -2  -2  105.49    7.20
   9   2   2   75.39    7.10
   9  -2  -2   93.49    6.30
   9   2   2   91.69    6.80
   9   2   2   96.49    7.30
   9  -2  -2  115.39    8.30
  -9  -2   2  109.79    8.20
   9   2   2   90.79    6.40
  -9   2  -2   84.59    6.80
  -9  -2   2   98.99    7.00
  -9   2  -2   97.09    7.00
  -9   2  -2   97.59    7.40
   9  -2   2   94.19    7.10
   9   2  -2  102.89    6.20
   9  -2   2   97.89    7.30
   9   2  -2   97.99    7.30
  -9   2   2  101.99    7.20
   9  -2   2   82.59    7.10
  -9  -2  -2   91.79    7.00
   9   2  -2   95.79    7.20
  -9   2   2   91.69    6.10
  -9  -2  -2  102.09    7.20
   9  -2   2  113.89    8.00
  -9  -2  -2  114.59    8.20
   9   2  -2   93.59    7.10
  -9   2  -4  257.97   14.60
   9   2   4  222.78   14.50
  -9  -2   4  273.47   14.70
  -9   2  -4  260.27   14.40
  -9  -2   4  248.08   14.90
   9   2   4  252.07   14.40
   9   2   4  271.67   14.60
   9  -2  -4  244.48   13.60
   9  -2  -4  264.37   14.50
  -9   2  -4  276.77   14.70
   9  -2  -4  253.47   14.60
   9  -2  -4  257.17   14.40
  -9  -2   4  261.57   14.80
   9   2   4  240.08   13.90
  -9  -2   4  211.78   14.60
   9   2   4  251.37   14.20
   9   2   4  261.57   14.40
  -9   2  -4  263.47   14.70
   9  -2  -4  271.07   14.70
   9  -2   4  264.17   14.50
   9  -2   4  288.67   15.30
  -9   2   4  247.28   14.50
  -9   2   4  257.17   13.80
  -9  -2  -4  274.27   14.60
  -9   2   4  252.17   13.40
   9  -2   4  242.28   13.80
   9   2  -4  269.07   14.90
   9   2  -4  276.37   14.70
   9  -2   4  267.67   14.50
   9  -2   4  253.67   14.60
  -9  -2  -4  250.57   14.60
   9   2  -4  239.68   12.60
   9   2  -4  254.57   14.30
   9   2  -4  245.78   14.20
  -9  -2  -4  251.57   14.70
  -9   2   4  268.17   14.70
  -9  -2  -4  270.77   14.40
   9  -2  -6   72.09    6.90
  -9   2  -6   54.09    6.60
  -9   2  -6   63.89    6.40
  -9   2  -6   66.69    8.50
   9  -2  -6   60.29    7.30
   9   2   6   71.79    6.80
   9  -2  -6   60.19    7.40
   9   2   6   63.29    7.00
  -9  -2   6   62.59    6.90
   9  -2  -6   51.19    6.50
  -9  -2   6   63.69    7.20
   9   2   6   68.99    7.70
   9   2   6   46.20    6.80
  -9   2   6   66.59    6.90
   9  -2   6   61.79    7.50
   9   2  -6   60.79    7.40
   9  -2   6   56.19    5.00
  -9   2   6   56.99    7.80
   9   2  -6   58.79    6.20
   9   2  -6   47.50    7.10
  -9   2   6   67.79    5.70
  -9  -2  -6   60.99    6.70
  -9  -2  -6   66.09    7.40
  -9   2   6   55.69    5.10
   9  -2   6   60.69    7.00
  -9  -2   8  112.59   11.10
   9   2   8   81.69   12.00
  -9   2  -8   91.39    8.50
  -9  -2   8  115.29   12.20
   9  -2  -8   74.49    9.40
   9  -2  -8  120.49   11.60
   9  -2  -8   87.89    9.50
  -9  -2   8  103.99   10.60
   9   2   8   87.19   11.60
   9  -2  -8   79.69    8.50
   9   2  -8   92.79    8.30
  -9  -2  -8   92.59   10.30
  -9   2   8   82.79   11.50
   9   2  -8   91.19    9.40
   9  -2   8   78.09   10.60
  -9   2   8   97.69    7.50
  -9  -2  -8   93.49   12.00
   9   2  -8   72.89   12.80
   9   3   1   45.10    5.20
  -9  -3   1   37.90    6.10
   9   3   1   48.60    5.70
   9  -3  -1   51.09    4.10
   9  -3  -1   49.60    5.20
   9   3   1   49.20    5.50
  -9  -3   1   50.19    5.20
   9  -3  -1   45.20    5.40
  -9   3  -1   49.90    5.60
   9  -3  -1   46.80    6.30
   9  -3  -1   49.60    5.70
  -9   3  -1   47.50    5.10
   9   3   1   42.60    3.40
  -9  -3   1   53.79    5.00
  -9  -3   1   53.49    5.20
  -9  -3  -1   54.19    5.30
   9   3  -1   46.20    5.90
  -9  -3  -1   52.09    6.60
   9  -3   1   46.90    5.60
   9   3  -1   44.30    5.00
  -9  -3  -1   45.80    5.00
   9  -3   1   49.90    5.40
   9  -3   1   41.00    5.70
  -9  -3  -1   45.60    6.30
   9   3  -1   52.29    5.60
   9   3  -1   52.89    5.40
   9  -3   1   41.10    6.70
  -9   3   1   45.20    4.60
  -9   3   1   48.90    5.70
  -9   3  -3  142.49   11.10
  -9   3  -3  184.68   10.60
   9   3   3  143.69   11.10
   9   3   3  173.18    9.80
   9   3   3  177.58   10.90
   9  -3  -3  188.08   10.90
   9   3   3  180.18   10.70
  -9  -3   3  185.08   10.80
   9  -3  -3  175.98   10.90
  -9  -3   3  150.58   11.30
   9   3   3  184.38   10.80
   9  -3  -3  185.78   10.90
  -9   3  -3  182.08   11.20
  -9  -3   3  179.48   10.50
   9  -3  -3  183.78   10.70
  -9  -3   3  165.28   11.00
  -9  -3   3  194.28   11.80
   9  -3  -3  159.28    9.00
  -9   3   3  177.88   10.50
   9  -3   3  187.48   10.70
  -9   3   3  186.18   10.80
  -9  -3  -3  177.98   10.00
  -9   3   3  182.48    9.80
  -9  -3  -3  166.28   10.70
   9  -3   3  166.88   10.70
  -9  -3  -3  195.28   10.90
  -9   3   3  174.48   11.60
   9  -3   3  208.38   11.80
   9   3  -3  153.38   10.70
  -9  -3  -3  174.38   10.90
   9   3  -3  183.58   10.50
   9   3  -3  184.58   10.90
   9   3  -3  179.38    8.70
   9  -3   3  147.09   10.50
   9   3  -3  180.58   10.80
  -9   3  -5   65.99    5.90
  -9   3  -5   48.60    7.00
   9  -3  -5   55.09    6.10
  -9   3  -5   42.20    6.70
  -9  -3   5   46.80    5.90
   9   3   5   42.50    6.60
   9   3   5   52.19    6.30
   9   3   5   56.59    7.00
   9  -3  -5   49.50    4.80
   9   3   5   52.59    5.90
   9   3   5   57.09    6.40
   9  -3  -5   44.30    6.40
  -9  -3   5   52.49    6.30
   9  -3  -5   44.20    6.80
   9   3  -5   49.40    6.20
  -9   3   5   53.29    6.80
  -9   3   5   52.09    6.80
   9  -3   5   49.50    6.10
   9  -3   5   47.20    4.50
  -9  -3  -5   51.89    6.60
  -9   3   5   49.10    5.50
   9  -3   5   47.30    6.30
  -9  -3  -5   40.40    5.90
   9  -3   5   55.99    7.10
   9   3  -5   54.49    6.90
   9   3  -5   53.89    6.30
  -9   3   5   50.79    6.10
   9   3   7   90.89    8.70
  -9  -3   7  111.49    8.80
   9  -3  -7   95.99    9.30
   9   3   7   95.89    8.60
  -9   3  -7   99.09   11.50
   9  -3  -7   76.89    8.30
  -9   3  -7  116.19    8.80
   9   3   7   77.89    8.90
   9   3   7  118.99    8.90
   9   3   7  110.69   12.00
   9  -3  -7   97.39    9.70
  -9   3  -7  101.39    9.80
   9   3   7  111.99    9.40
   9   3  -7  115.49    8.70
   9  -3   7  105.89    9.40
  -9   3   7  110.19    9.00
   9  -3   7   88.59    6.20
   9   3  -7  117.19   10.00
  -9   3   7   95.49   12.70
   9   3  -7  113.39    9.20
   9  -3   7  105.79   10.30
   9  -3   7   90.29    8.10
  -9  -3  -7  116.59   10.40
   9   3  -7   79.99    8.00
  -9  -3  -7   91.19    9.40
  -9   3   7   98.39    7.60
   9   3   9   11.60    9.20
   9  -3  -9   24.30    8.50
  -9  -3   9   16.90    9.50
  -9  -3   9   22.30    6.60
   9   3   9   20.20    8.60
  -9  -3   9   40.20    8.10
  -9   3  -9   18.80   10.30
   9  -3  -9   33.50    9.00
  -9  -3   9   22.50   10.90
   9   3  -9   21.90    6.40
  -9   3   9   21.70    8.70
  -9   3   9    7.70    5.20
   9  -3   9   46.70   11.00
  -9  -3  -9   29.30    9.70
   9  -3   9   20.50    9.40
   9  -4   0    3.00    2.40
   9  -4   0    2.70    3.40
   9   4   0    3.00    1.10
   9  -4   0    2.10    3.20
   9  -4   0   14.30    4.30
   9   4   0    5.80    3.10
   9  -4   0   -7.30    5.30
  -9   4   0    5.10    3.20
  -9   4   0    1.60    2.50
  -9  -4   0   10.00    4.90
   9   4   0   -1.70    2.40
  -9  -4   0    3.50    3.20
  -9  -4   0    3.80    3.40
   9   4   0    5.30    3.50
   9   4   0    2.20    3.40
  -9   4   0    3.50    3.40
  -9  -4   2  676.23   34.50
   9  -4  -2  658.43   34.70
   9   4   2  709.93   34.70
   9  -4  -2  675.83   35.00
  -9   4  -2  702.13   34.50
   9   4   2  701.13   34.70
  -9  -4   2  699.03   34.90
   9   4   2  680.63   34.70
   9   4   2  679.63   34.60
   9   4   2  674.63   34.50
  -9  -4   2  720.03   34.80
  -9  -4   2  710.13   35.20
  -9   4  -2  633.64   35.00
   9  -4  -2  678.33   34.80
   9  -4  -2  688.93   34.90
   9  -4  -2  705.93   34.80
  -9   4  -2  674.23   34.60
   9   4   2  665.93   33.80
  -9  -4   2  710.43   35.00
   9   4  -2  659.63   33.60
   9   4  -2  688.93   34.80
   9   4  -2  695.53   33.60
   9  -4   2  692.43   35.10
  -9   4   2  661.53   34.60
  -9  -4  -2  690.73   34.90
  -9   4   2  673.43   33.80
  -9   4   2  673.13   34.60
  -9  -4  -2  694.23   34.90
  -9   4   2  690.73   34.70
   9   4  -2  644.34   33.60
   9  -4   2  719.03   35.00
   9   4  -2  689.53   34.70
  -9  -4  -2  683.13   34.50
   9  -4   2  720.43   34.50
   9   4  -2  686.03   34.40
   9   4  -2  700.13   34.70
  -9  -4  -2  709.13   34.80
   9  -4   2  736.13   34.90
   9  -4  -4   43.30    6.10
  -9  -4   4   43.30    6.50
  -9   4  -4   51.49    7.40
   9  -4  -4   45.50    6.10
  -9   4  -4   44.10    5.70
  -9  -4   4   41.80    7.00
   9   4   4   53.39    6.00
  -9   4  -4   47.70    7.10
   9   4   4   44.30    4.60
  -9  -4   4   48.90    6.70
  -9  -4   4   44.40    7.00
   9  -4  -4   39.20    6.40
  -9  -4   4   50.79    5.80
   9   4   4   40.90    5.60
   9  -4  -4   47.70    6.30
   9   4   4   46.70    5.80
  -9  -4  -4   45.90    5.90
   9   4  -4   47.90    4.30
   9  -4   4   45.00    6.40
   9   4  -4   45.20    5.80
   9   4  -4   46.60    6.90
  -9  -4  -4   49.50    6.10
   9  -4   4   46.50    6.70
   9   4  -4   48.00    7.10
  -9  -4  -4   46.00    6.60
  -9   4   4   49.50    5.90
   9  -4   4   48.10    6.90
   9  -4   4   50.89    6.40
  -9  -4  -4   52.29    6.60
   9   4  -4   58.99    6.40
  -9   4   4   45.40    5.60
  -9  -4   6   55.99    7.30
   9  -4  -6   55.49    9.90
   9  -4  -6   59.79    8.10
  -9   4  -6   53.89    7.50
   9  -4  -6   56.89    6.90
  -9  -4   6   71.09    9.30
   9   4   6   50.29    7.20
  -9   4  -6   58.49    8.80
   9   4   6   53.49    6.50
  -9   4  -6   68.09    7.60
   9  -4  -6   57.19    7.30
   9   4   6   55.49    7.30
  -9  -4   6   53.29    7.30
   9  -4  -6   54.19    5.50
  -9  -4   6   57.39    8.40
  -9   4  -6   48.50    7.40
  -9   4   6   53.69    6.40
   9  -4   6   79.09   10.20
  -9   4   6   56.09    7.70
   9   4  -6   74.39    7.50
   9   4  -6   44.50    7.20
   9  -4   6   58.59    7.40
   9  -4   6   55.49    9.00
  -9  -4  -6   56.49    7.00
   9  -4   6   54.79    7.30
  -9  -4  -6   58.79    8.10
  -9   4   6   69.29    4.60
  -9  -4  -6   55.49    7.80
  -9  -4  -6   62.39    8.40
   9   4  -6   46.50    7.20
   9   4   8   47.80    6.80
  -9  -4   8   29.70    8.30
  -9  -4   8   22.20    7.70
   9   4   8   45.20    6.00
  -9   4  -8   45.10    6.60
   9  -4  -8   32.60    8.30
   9  -4  -8   45.60    8.00
   9   4   8   40.50    6.20
  -9  -4   8   45.00    7.30
   9  -4  -8   47.50    6.60
  -9  -4   8   34.10    9.60
   9   4  -8   41.50    7.60
   9  -4   8   31.60    8.70
  -9   4   8   37.70    5.10
  -9  -4  -8   47.60    7.90
   9   4  -8   45.00    8.70
   9   4  -8   43.10    6.50
   9  -4   8   38.20    9.10
  -9  -4  -8   21.00    9.10
  -9   4   8   24.40    7.00
  -9  -5   1   37.70    4.90
   9   5   1   31.50    4.90
  -9  -5   1   37.50    5.80
   9  -5  -1   40.20    5.80
   9   5   1   32.50    5.60
   9  -5  -1   32.50    3.60
   9   5   1   43.10    5.30
   9  -5  -1   31.50    4.70
   9  -5  -1   31.00    5.40
  -9   5  -1   31.70    5.00
   9   5   1   28.80    4.90
  -9  -5   1   29.30    5.20
   9   5   1   34.70    4.90
  -9  -5   1   20.40    5.10
  -9   5  -1   53.59    7.40
  -9   5  -1   32.40    5.70
   9   5   1   40.40    5.10
  -9  -5  -1   31.90    5.40
   9   5  -1   26.00    3.00
  -9  -5  -1   31.70    4.60
  -9   5   1   39.90    5.40
   9   5  -1   32.00    4.70
   9  -5   1   36.80    5.30
   9   5  -1   34.80    4.60
  -9   5   1   30.00    5.30
   9   5  -1   37.70    5.00
   9   5  -1   33.70    4.10
   9  -5   1   30.40    5.40
  -9   5   1   34.60    4.60
  -9  -5  -1   35.20    4.60
   9  -5   1   31.40    4.70
   9   5  -1   32.80    5.00
   9   5   3  232.68   12.90
   9   5   3  219.08   13.10
  -9  -5   3  219.98   13.20
  -9  -5   3  234.38   13.10
   9  -5  -3  231.78   13.10
   9   5   3  207.18   12.90
   9  -5  -3  244.68   13.50
   9   5   3  218.18   12.80
   9  -5  -3  217.28   13.00
  -9   5  -3  223.48   12.50
   9   5   3  215.98   12.70
  -9  -5   3  220.58   13.60
  -9   5  -3  210.68   12.80
  -9   5  -3  214.08   13.40
  -9  -5   3  213.78   13.00
  -9  -5   3  220.78   12.80
   9   5   3  211.28   11.50
   9  -5  -3  225.38   13.10
  -9   5   3  211.78   13.50
   9   5  -3  214.58   11.00
   9  -5   3  183.48   12.40
  -9   5   3  221.68   13.00
   9   5  -3  244.08   13.20
  -9  -5  -3  220.78   12.80
  -9   5   3  214.88   11.00
   9  -5   3  217.68   13.20
  -9  -5  -3  228.48   13.20
   9   5  -3  228.58   13.00
  -9   5   3  220.08   12.90
   9   5  -3  209.68   11.00
  -9  -5  -3  222.58   11.70
   9  -5   3  222.98   13.00
   9  -5   3  233.78   13.10
   9   5  -3  215.88   12.90
   9   5  -3  222.18   12.60
  -9  -5  -3  213.08   13.00
  -9  -5  -3  212.68   13.10
  -9   5  -5   85.29    7.10
  -9   5  -5   87.89    7.60
   9   5   5   90.29    8.30
   9   5   5   89.59    8.10
   9   5   5   88.39    8.80
   9  -5  -5   95.59    8.30
  -9  -5   5   83.89    8.20
  -9  -5   5   90.89    8.80
   9   5   5   83.49    8.00
   9  -5  -5   93.29    7.70
  -9   5  -5   92.99    8.40
  -9   5  -5   78.99   10.50
   9  -5  -5   94.89    7.90
   9  -5  -5  101.79    6.60
  -9  -5   5  116.09   10.20
   9   5   5   97.79    8.00
  -9  -5   5  104.49    9.00
   9   5  -5   86.89    8.10
  -9  -5  -5  113.79    9.40
   9  -5   5   86.09    6.90
   9   5  -5   91.09    7.70
   9   5  -5  120.59    9.60
  -9   5   5   86.69    8.00
  -9   5   5  100.89    7.80
  -9   5   5   90.89    7.60
  -9  -5  -5   96.69    9.80
   9  -5   5   86.69    8.20
   9  -5   5   93.29    8.40
  -9  -5  -5   88.09    7.80
   9  -5   5  116.29    9.80
  -9   5   5   86.19    5.10
   9   5  -5   92.19    6.50
   9  -5   5   85.09    8.80
   9  -5  -7   99.99   10.00
  -9   5  -7  104.29   12.60
  -9  -5   7  125.99   13.10
  -9  -5   7  105.29   12.10
   9  -5  -7   97.79    9.10
   9  -5  -7   99.99   11.20
   9  -5  -7  103.99   10.60
   9   5   7   96.59    9.10
  -9  -5   7   96.09    9.70
  -9   5  -7  105.99    9.20
   9   5   7   71.69   11.30
   9   5   7  126.19    9.90
   9   5   7  100.29    9.60
  -9   5  -7  101.59    8.60
   9   5  -7   97.79    8.80
  -9  -5  -7   90.49   12.00
  -9   5   7   90.39    5.70
   9   5  -7  100.09    9.50
  -9   5   7  103.79    6.40
   9  -5   7  107.59   11.90
  -9   5   7  122.29   12.10
   9  -5   7   99.29    9.10
   9   5  -7   84.99   11.80
  -9   5   7  108.59    9.50
  -9  -5  -7   98.29   11.60
   9  -5   7  103.09   11.80
  -9  -5  -7  125.09   10.30
   9   6   0  194.98   11.70
  -9  -6   0  197.98   12.00
   9   6   0  177.38   11.80
   9  -6   0  189.98   10.30
  -9  -6   0  197.58   11.60
  -9   6   0  188.48   10.70
   9   6   0  197.88   11.90
  -9   6   0  201.48   11.60
   9   6   0  183.48   11.50
   9  -6   0  196.98   11.80
  -9  -6   0  222.88   12.50
   9  -6   0  191.98   12.10
   9  -6   0  198.38   11.90
   9   6   0  187.18   10.60
  -9   6   0  184.18   11.80
  -9  -6   0  187.58   11.60
   9   6   0  186.78   10.70
   9  -6  -2   53.69    6.90
  -9  -6   2   47.00    6.40
   9  -6  -2   49.30    6.40
   9   6   2   49.90    5.00
   9   6   2   49.40    6.40
   9   6   2   61.69    6.60
  -9   6  -2   48.00    7.60
   9  -6  -2   59.39    5.80
  -9  -6   2   46.90    6.00
   9  -6  -2   43.70    6.40
   9  -6  -2   55.99    6.30
  -9  -6   2   47.30    6.10
  -9  -6   2   58.19    5.90
   9   6   2   50.79    6.00
   9   6   2   41.50    6.20
  -9   6  -2   39.40    4.40
  -9  -6   2   64.19    7.50
  -9  -6  -2   49.20    6.50
  -9   6   2   47.60    7.40
   9   6  -2   43.70    6.30
   9  -6   2   50.49    6.60
   9   6  -2   41.10    3.30
  -9  -6  -2   57.19    6.10
   9   6  -2   51.09    6.10
  -9   6   2   43.80    5.60
   9  -6   2   64.59    6.30
  -9   6   2   46.60    6.50
   9   6  -2   47.10    6.50
   9   6  -2   60.79    4.90
  -9  -6  -2   69.99    7.30
  -9   6   2   50.19    5.80
  -9  -6  -2   57.79    6.20
   9  -6   2   57.29    6.30
   9  -6   2   45.70    7.50
   9  -6  -4   35.40    5.40
   9  -6  -4   39.60    7.00
   9   6   4   37.00    5.40
  -9   6  -4   34.10    4.90
   9   6   4   31.60    4.80
  -9   6  -4   24.40    2.60
  -9  -6   4   38.70    5.90
   9   6   4   35.60    5.40
   9   6   4   30.30    6.20
  -9  -6   4   30.50    4.70
  -9  -6   4   33.60    5.90
  -9  -6   4   38.80    5.10
  -9   6  -4   37.70    5.30
   9   6   4   31.20    4.90
   9  -6  -4   35.80    6.10
   9  -6  -4   27.70    2.70
   9   6  -4   26.00    2.60
  -9   6   4   34.20    5.30
   9  -6   4   30.80    4.80
  -9   6   4   31.20    4.60
   9  -6   4   48.30    6.90
   9  -6   4   30.60    5.10
  -9  -6  -4   27.00    4.90
  -9  -6  -4   30.40    4.60
   9   6  -4   43.50    6.00
   9   6  -4   25.80    2.30
   9   6  -4   28.90    4.80
   9   6  -4   39.30    5.20
   9  -6  -6    4.50    5.50
  -9   6  -6    8.80    4.60
   9   6   6    0.80    4.80
  -9  -6   6    5.50    5.80
   9   6   6    0.60    6.70
   9   6   6    4.70    3.60
  -9   6  -6   -1.90    7.40
   9   6   6    5.80    6.60
  -9  -6   6   10.30    5.60
  -9   6  -6    5.30    4.40
   9  -6  -6    7.10    5.10
  -9  -6   6   16.80    7.30
   9   6   6   11.50    5.20
   9  -6  -6    2.70    5.20
   9  -6  -6    3.70    3.60
  -9   6   6    4.70    5.40
   9   6  -6    4.90    3.60
  -9   6   6    5.50    5.10
   9   6  -6    6.70    4.60
  -9   6   6    3.70    4.50
   9  -6   6    5.40    7.50
  -9  -6  -6  -11.80    6.20
   9  -6   6    3.50    5.40
   9   6  -6    2.90    6.00
  -9  -6  -6   24.50    7.10
  -9   6   6   10.10    5.90
   9  -6   6  -12.40    6.70
  -9  -6  -6    4.80    4.70
   9   6  -6   -5.10    6.70
   9  -6   6    0.70    5.40
   9  -6  -8   23.50    7.00
   9  -6  -8   29.60    7.30
  -9   6  -8   29.20   11.00
   9   6   8   21.30    6.30
  -9   6  -8   43.30    7.20
  -9  -6   8   14.80    9.70
  -9   6  -8   29.80    7.10
   9   6   8   19.80   12.20
  -9   6  -8   28.90    6.70
   9  -6  -8   28.20    9.70
  -9  -6   8   57.59   11.30
   9   6   8   23.90    8.10
   9   6  -8   34.10   10.60
  -9  -6  -8   29.30   11.30
  -9  -6  -8   19.20   11.20
   9  -6   8   42.40   11.40
   9   6  -8   22.80    5.10
  -9  -6  -8   22.30    7.20
   9  -6   8   29.00   10.50
   9   7   1  116.59    8.50
   9   7   1   84.59    7.00
   9  -7  -1  111.09    9.30
   9   7   1  105.79    6.90
  -9  -7   1   99.89    8.50
   9   7   1  107.49    8.30
  -9   7  -1  102.69    7.50
   9  -7  -1  101.69    8.20
  -9  -7   1  107.29    8.90
   9  -7  -1  127.59    8.80
   9  -7  -1   99.49    8.00
   9   7   1  105.59    7.60
   9  -7  -1  105.89    8.90
  -9   7  -1  103.79    6.90
  -9  -7   1  108.29    8.90
  -9  -7   1  115.49    8.20
  -9   7  -1   84.99    7.90
  -9   7  -1  104.19    9.20
   9   7   1  104.99    8.10
  -9   7   1   97.89    7.30
   9  -7   1  108.19    8.80
  -9  -7  -1  106.89    8.60
  -9   7   1  110.09    8.00
   9   7  -1  103.19    7.00
  -9  -7  -1  107.89    8.40
   9   7  -1  106.89    8.70
   9  -7   1  109.39    8.40
   9   7  -1   97.59    6.20
  -9  -7  -1  116.49    8.40
  -9  -7  -1   98.89    8.50
   9   7  -1   93.29    6.70
   9  -7   1  115.69    8.40
   9  -7   1  106.69    7.00
  -9   7   1  101.99    7.90
   9   7  -1  106.19    8.60
  -9   7  -3  183.78   12.30
   9   7   3  189.28   10.60
  -9   7  -3  151.38    9.80
   9  -7  -3  154.58   10.40
  -9  -7   3  148.79   11.00
  -9  -7   3  154.78   11.30
  -9   7  -3  154.28   11.50
  -9  -7   3  168.58   12.40
   9   7   3  154.18   10.90
   9   7   3  150.98   11.00
   9  -7  -3  152.98   10.70
  -9  -7   3  167.38   10.80
  -9  -7   3  183.18   12.30
  -9   7  -3  162.68   10.60
   9   7   3  165.78   11.10
   9  -7  -3  154.28   10.40
   9  -7  -3  165.38   11.10
  -9   7   3  162.68   11.00
  -9  -7  -3  182.28   12.40
   9   7  -3  151.28    9.40
   9  -7   3  149.69   10.90
  -9   7   3  130.29   10.00
  -9  -7  -3  152.78   11.20
   9   7  -3  151.98   10.10
   9  -7   3  165.68   13.10
  -9  -7  -3  153.98   10.70
  -9   7   3  141.19   11.10
  -9   7   3  185.68   10.80
   9   7  -3  157.58   10.60
  -9  -7  -3  169.98   11.00
   9  -7   3  152.98   11.10
   9   7  -3  170.58   11.00
  -9  -7   5   19.80    5.70
   9   7   5   21.10    4.80
   9   7   5   28.80    7.90
  -9  -7   5   30.60    8.10
   9  -7  -5   22.10    5.90
  -9   7  -5   26.10    5.50
   9  -7  -5   20.80    7.40
   9   7   5   27.20    5.20
   9   7   5   25.90    4.10
   9  -7  -5   18.00    5.50
   9  -7  -5   27.50    6.00
  -9  -7   5   27.00    5.90
   9  -7  -5   17.90    2.80
  -9  -7   5   29.40    7.20
   9   7   5   22.30    7.00
  -9  -7  -5   22.40    8.10
  -9  -7  -5   19.60    5.60
   9  -7   5   22.90    6.00
   9   7  -5   24.90    6.60
   9  -7   5   21.20    5.40
   9   7  -5   12.90    4.20
   9   7  -5   11.80    7.10
   9  -7   5   24.80    7.00
  -9  -7  -5   18.60    5.20
  -9   7   5   21.60    4.00
  -9   7   5   15.20    3.90
   9   7  -5   18.20    5.60
  -9   7   5   24.20    5.60
   9   7   7   62.29    8.70
  -9   7  -7   48.30    7.60
   9   7   7   32.80   10.90
   9  -7  -7   37.00    8.90
  -9  -7   7   78.99   13.20
  -9  -7   7   82.09   13.70
   9  -7  -7   48.40    8.20
   9  -7  -7   49.80    7.10
  -9   7  -7   47.70    8.10
   9  -7  -7   47.80    8.20
   9   7  -7   36.90    9.70
  -9   7   7   44.40    7.70
  -9  -7  -7   39.60   10.10
  -9  -7  -7   56.89    7.70
   9   7  -7   45.90    7.70
  -9  -7  -7   45.80    9.60
   9   8   0  176.28    9.90
   9  -8   0  182.08   14.50
   9  -8   0  191.78   12.30
   9   8   0  176.98   13.20
   9  -8   0  185.98    9.80
   9  -8   0  170.88   11.60
  -9  -8   0  198.68   12.00
   9  -8   0  191.78   12.40
  -9  -8   0  180.38   11.90
   9   8   0  193.28   12.00
  -9   8   0  199.78   10.20
   9   8   0  178.88   10.70
  -9  -8   0  191.58   12.10
  -9   8   0  180.08   11.90
  -9   8   0  188.68   12.50
   9   8   0  199.28   12.00
  -9  -8   0  174.48   13.40
  -9   8   0  195.98   10.40
   9  -8  -2   81.49   10.90
   9   8   2   84.19    6.70
   9  -8  -2   84.89    8.30
  -9   8  -2   93.09    5.80
   9  -8  -2   79.89    9.10
  -9   8  -2  100.49    9.00
   9   8   2   83.09    9.80
  -9  -8   2   80.39    8.20
   9   8   2   82.39    6.00
   9  -8  -2   79.39    7.80
   9   8   2   79.99    8.10
  -9   8  -2   79.99    9.50
  -9  -8   2   73.09    8.60
  -9  -8   2   73.59    9.70
  -9  -8   2   74.89    7.60
  -9  -8   2   77.29    8.80
   9  -8  -2   77.69    7.80
  -9   8   2   85.39    6.40
   9  -8   2   80.09    8.70
  -9   8   2   81.29    6.30
   9  -8   2   72.99   11.30
  -9   8   2   66.29    7.70
  -9  -8  -2   83.49    8.10
   9  -8   2   80.79    7.90
   9   8  -2   66.39    5.10
  -9  -8  -2   81.29    8.30
   9  -8   2   81.19    8.50
  -9  -8  -2   77.09    8.30
   9   8  -2   61.29    9.60
   9   8  -2   84.09    8.90
  -9  -8  -2   76.19   11.50
   9   8   4    9.60    3.70
   9  -8  -4    9.60    5.60
   9   8   4   10.50    5.30
   9   8   4    8.70    5.40
   9   8   4    7.70    3.60
   9  -8  -4    8.50    6.40
  -9  -8   4    3.30    8.40
   9  -8  -4    8.30    4.90
   9  -8  -4    7.40    5.30
  -9   8  -4    4.10    5.90
  -9  -8   4    8.80    5.00
  -9  -8   4   13.70    6.80
  -9   8  -4    6.70    3.30
  -9  -8   4    8.60    5.10
  -9  -8   4    4.50    5.30
   9   8   4    7.40    3.90
  -9   8  -4    8.10    3.90
  -9   8   4    0.80    4.00
  -9   8   4    8.50    3.50
  -9   8   4    5.40    3.40
   9   8  -4    6.00    7.20
   9  -8   4    9.10    5.50
   9   8  -4   14.60    5.70
  -9  -8  -4    6.20    2.90
  -9  -8  -4    4.70    4.80
   9  -8   4   13.50    7.50
  -9  -8  -4    1.80    4.80
   9  -8   4    5.30    5.30
   9   8  -4    9.80    2.80
   9  -8   4   10.80    5.00
   9   8   6   27.60    8.30
  -9   8  -6    1.70    4.10
  -9  -8   6    3.30    8.20
   9   8   6    5.20    8.20
  -9   8  -6    1.40    5.90
   9   8   6    1.70    5.40
   9  -8  -6    7.00    7.10
  -9   8  -6   12.80   11.00
   9  -8  -6   -0.10    4.90
   9   8   6  -10.90    7.10
   9  -8  -6   -3.40    6.60
  -9   8  -6    7.10    4.20
  -9  -8   6    8.50    7.70
   9   8  -6    2.10    3.50
  -9  -8  -6    4.80    7.30
  -9   8   6   -5.30    4.50
   9  -8   6    2.10   10.00
   9  -8   6   -3.10    6.40
   9  -8   6   -8.60    8.80
  -9   8   6   -0.10    5.20
   9   8  -6  -15.00    8.10
  -9  -9   1   75.49    8.80
  -9  -9   1   81.99    9.20
  -9  -9   1   78.79    8.60
   9  -9  -1   83.79    8.20
   9   9   1   80.19    8.20
  -9   9  -1   90.19   11.10
   9   9   1   63.99    7.80
   9   9   1   87.79    8.30
   9  -9  -1   75.29    7.90
   9  -9  -1   88.89    9.40
   9  -9  -1   89.09    8.40
  -9  -9   1   80.39    7.90
  -9  -9  -1   86.49    7.90
  -9  -9  -1   73.99    8.40
   9   9  -1   75.59    7.30
  -9  -9  -1   81.49    8.60
   9  -9   1   72.19    7.40
   9   9  -1  100.09    8.30
   9  -9   1   76.09    6.00
   9  -9   1   77.59    8.80
   9  -9   1   78.29    8.10
  -9   9   1   79.39    9.30
  -9   9   1   81.19    9.00
  -9  -9   3   40.80    6.40
   9   9   3   53.69    7.80
   9   9   3   50.59    8.20
   9   9   3   38.80    3.50
   9   9   3   40.10    4.00
   9  -9  -3   50.39    6.60
   9  -9  -3   36.10    6.10
  -9  -9   3   35.20    7.90
  -9   9  -3   37.20    5.60
   9  -9  -3   50.79    7.50
   9  -9  -3   51.19    8.80
   9   9   3   40.80    6.10
   9  -9   3   51.69    8.80
   9  -9   3   64.99    8.80
   9   9  -3   50.39    7.00
  -9   9   3   40.10    5.80
   9  -9   3   39.00    6.50
  -9  -9  -3   43.40    6.40
   9  -9   3   45.90    6.40
  -9  -9  -3   46.90    7.80
  -9   9   3   48.80    7.20
  -9  -9  -3   55.89    8.60
  -9   9  -5   24.70    9.70
  -9  -9   5   24.30    7.70
   9   9   5   23.50    4.10
  -9  -9   5   26.90    9.60
  -9   9  -5   19.10    6.50
   9   9   5   -1.30    8.40
  -9  -9   5   25.00    6.80
   9  -9  -5   24.30    7.60
   9  -9   5   32.10   10.50
  -9   9   5   24.30    4.10
   9  -9   5   27.20    6.60
   9  -9   5   23.90    7.20
  -9   9   5   22.70    5.30
  -9  -9  -5   12.20    8.10
  -9   9   5   25.80    4.20
  -9  10   0   17.60    4.80
  -9 -10   0   17.90    7.20
  -9 -10   0   27.50    6.20
   9  10   0   18.70    5.90
   9 -10   0   21.30    6.00
   9  10   0   26.00    7.40
  -9 -10   0   18.60    5.20
   9 -10   0   24.70    7.80
   9  10   2   19.60    6.60
  -9  10  -2   12.90    5.80
   9 -10  -2   21.60    7.50
   9 -10  -2   17.20    5.90
  -9 -10   2   15.40    5.90
   9  10   2   18.10    6.00
   9 -10  -2   39.80    8.30
   9 -10  -2   21.00    5.90
  -9 -10   2   19.60    7.00
  -9  10   2   19.90    6.20
  -9  10   2   13.00    7.10
   9  10  -2   20.70    7.30
   9 -10   2   24.30    6.20
   9  10  -2   28.30    6.20
  -9 -10  -2   19.80    5.70
  -9 -10  -2   25.90    8.10
   9 -10   2   19.50    5.60
   9 -10   2   17.90    5.80
  -9 -10  -2   16.20    5.90
  -9 -10   4   75.59   13.30
   9 -10  -4   71.59   11.00
   9  10   4  122.39   14.60
  -9 -10   4   78.19   10.40
  -9  10  -4   76.49   13.70
  -9 -10   4   73.79   13.00
  -9  10  -4   90.99   12.60
   9 -10  -4   55.09   10.20
   9  10   4  111.99   12.60
   9 -10   4   79.89   11.90
  -9  10   4   81.49    9.30
   9 -10   4   79.39   10.30
  -9 -10  -4   63.99   10.20
  -9 -10  -4   68.49   10.30
  -9  10   4   86.29   14.60
   9 -10   4  101.39    9.80
  -9  11  -1   22.60    7.20
  -9 -11   1   41.30   10.10
  -9 -11   1   28.60    6.40
  -9 -11   1   34.00    6.70
   9  11   1   22.90    7.00
   9  11   1   60.09   10.30
   9 -11  -1   29.40    6.60
   9  11   1   30.60    6.70
   9  11  -1   23.60    5.30
   9 -11   1   36.00    7.00
   9  11  -1   28.30    8.80
  -9 -11  -1   33.20    7.00
  -9 -11  -1   21.80    9.10
  -9 -11  -1   25.50    6.40
  -9  11   1   27.30    6.80
  -9 -11   3    4.80    6.30
  -9  11  -3   15.60   10.70
   9 -11  -3    1.20    9.00
   9  11   3    5.70    8.90
  -9 -11   3    6.20    9.30
   9  11   3    5.20    9.20
   9 -11  -3    7.70    7.40
   9 -11  -3    5.50    5.80
  -9 -11   3    0.10    9.60
  -9  11  -3    5.90    4.20
   9 -11   3    6.30    8.90
   9 -11   3    2.10    9.00
  -9 -11  -3    3.60    7.30
  -9  11   3    6.90    6.80
  -9 -11  -3    2.10    6.40
   9  11  -3   15.40    9.70
   9 -11   3    6.70    6.50
  -9  11   3   13.90    6.50
 -10   0   0  254.97   12.80
 -10   0   0  258.67   13.90
  10   0   0  268.57   14.00
  10   0   0  253.87   14.00
 -10   0   0  264.27   14.00
  10   0   0  262.77   13.30
  10   0   0  221.28   13.80
  10   0   0  231.08   13.70
 -10   0   0  211.58   14.00
 -10   0  -2  443.96   22.80
  10   0   2  456.35   23.00
  10   0   2  374.66   22.60
  10   0   2  456.15   22.90
 -10   0   2  459.65   22.90
 -10   0  -2  450.85   22.00
  10   0  -2  437.46   22.40
  10   0  -2  446.96   22.80
 -10   0   2  419.26   22.90
  10   0   2  427.96   22.60
 -10   0   2  433.46   22.60
  10   0  -2  430.46   23.00
  10   0  -2  443.36   23.10
 -10   0  -2  448.66   23.30
  10   0   2  430.06   22.90
  10   0   2  446.66   22.80
 -10   0  -2  433.66   23.10
  10   0  -2  443.56   22.60
  10   0   4  285.57   18.60
  10   0  -4  325.67   18.20
 -10   0   4  357.46   18.90
 -10   0  -4  345.97   18.80
  10   0  -4  335.87   17.30
 -10   0   4  335.17   18.00
  10   0   4  341.47   18.20
  10   0   4  338.57   18.70
  10   0  -4  341.17   18.20
  10   0   4  318.47   17.80
 -10   0  -4  333.67   18.60
  10   0   4  359.96   18.90
 -10   0  -4  351.36   18.40
  10   0  -4  333.87   18.40
  10   0  -4  330.27   17.70
 -10   0  -4  341.47   18.20
 -10   0   4  331.07   18.20
  10   0  -6  198.28   13.60
  10   0   6  205.98   13.10
  10   0   6  240.48   13.90
  10   0   6  213.28   14.10
  10   0   6  209.18   12.60
  10   0  -6  209.78   14.80
  10   0  -6  211.08   13.10
 -10   0   6  211.58   14.60
 -10   0   6  206.78   14.60
 -10   0  -6  212.88   13.20
 -10   0  -6  214.18   13.30
 -10   0   6  207.18   13.40
  10   0   6  202.98   13.40
 -10   0  -6  204.58   14.60
  10   0  -8   77.29    9.70
 -10   0  -8   67.39   11.80
  10   0   8   76.99   10.10
 -10   0   8   72.19   12.70
  10   0  -8   81.79   12.00
  10   0   8   62.89   11.30
 -10   0   8   75.39    9.40
 -10   0  -8   71.19   12.10
  10   1   1   92.69    7.50
 -10  -1   1  100.29    7.10
  10  -1  -1   91.49    7.40
  10  -1  -1   92.99    7.20
  10   1   1   91.29    7.20
 -10   1  -1   90.79    7.10
 -10   1  -1   88.89    7.30
  10  -1  -1   87.69    6.90
 -10   1  -1   89.39    5.70
  10   1   1   93.79    7.40
 -10   1  -1   98.29    7.80
  10   1   1   91.09    6.20
 -10  -1   1   92.69    6.10
  10  -1  -1   96.99    7.20
  10   1   1   95.39    7.20
  10  -1  -1   92.19    7.50
 -10  -1   1   87.29    7.40
 -10  -1   1   91.49    7.50
  10   1  -1   93.09    7.30
 -10  -1  -1   92.59    6.20
  10  -1   1   90.19    7.00
 -10  -1  -1   88.49    7.20
  10  -1   1   89.49    7.50
 -10   1   1   83.29    7.40
 -10   1   1   93.49    7.20
  10   1  -1   94.39    7.00
  10   1  -1   96.39    7.70
  10   1  -1   92.99    7.70
  10  -1   1   96.89    7.10
 -10  -1  -1  102.29    7.20
  10   1  -1   91.59    6.00
  10  -1   1   92.99    7.30
  10   1   3   64.99    6.10
  10   1   3   53.69    6.40
  10   1   3   55.89    6.40
 -10   1  -3   75.89    6.40
  10   1   3   65.89    6.50
 -10  -1   3   55.59    7.10
 -10  -1   3   54.09    6.20
  10  -1  -3   57.79    7.00
  10   1   3   52.49    7.20
  10   1   3   46.60    5.40
  10  -1  -3   61.89    6.50
  10  -1  -3   50.69    6.10
  10  -1  -3   57.19    6.70
 -10   1  -3   63.39    6.80
 -10  -1   3   56.49    6.80
  10   1  -3   56.19    6.20
  10  -1   3   52.09    5.70
 -10   1   3   51.19    6.70
  10  -1   3   58.89    6.50
 -10  -1  -3   57.39    6.40
  10  -1   3   59.39    6.30
  10  -1   3   55.59    6.10
 -10  -1  -3   57.49    6.60
  10  -1   3   64.49    6.20
  10   1  -3   54.99    6.70
 -10   1   3   62.89    6.70
  10  -1   3   57.69    6.60
  10   1  -3   56.69    4.50
 -10  -1  -3   53.79    6.80
  10  -1  -5   34.30    6.00
  10  -1  -5   33.90    5.30
  10  -1  -5   44.00    4.80
  10  -1  -5   35.80    6.00
 -10  -1   5   30.90    5.10
  10   1   5   32.80    5.00
  10   1   5   37.50    5.30
 -10   1  -5   36.30    6.00
  10   1   5   40.70    7.00
 -10   1  -5   41.70    6.20
 -10   1  -5   35.30    5.20
  10   1   5   38.30    5.50
 -10  -1  -5   41.80    5.50
 -10  -1  -5   52.79    7.70
  10   1  -5   31.30    3.50
  10   1  -5   34.70    6.10
  10  -1   5   33.90    6.10
  10   1  -5   40.20    5.40
  10  -1   5   39.40    5.80
  10   1  -5   36.00    5.00
 -10  -1  -5   26.50    5.50
  10  -1   5   35.90    5.50
 -10   1   5   37.10    6.30
  10  -1   5   41.50    6.40
  10   1  -5   33.10    6.10
 -10   1   5   33.10    4.60
 -10   1   5   51.49    7.50
 -10  -1   7    3.10    6.80
  10  -1  -7    3.60    5.10
 -10  -1   7    0.40    7.40
 -10   1  -7    4.10    3.70
  10   1   7   15.70    7.30
  10  -1  -7    1.80    5.00
 -10   1  -7   10.60    6.20
  10  -1  -7   -0.50    6.40
  10  -1   7    7.40    7.50
  10  -1   7    7.00    4.00
  10  -1   7    3.30    6.90
 -10   1   7   -3.10    6.60
  10   1  -7    8.00    5.80
 -10  -1  -7    4.90    6.70
 -10  -1  -7    2.40    7.30
  10   1  -7    4.50    3.80
  10   1  -7    6.90    6.40
 -10  -1  -7    8.80    6.20
 -10  -2   0  197.78   11.50
  10  -2   0  209.78   11.70
 -10   2   0  219.68   12.20
  10   2   0  201.18   11.70
  10   2   0  200.38   11.70
  10  -2   0  180.98   11.60
 -10   2   0  213.48   11.80
  10   2   0  186.98   11.10
 -10  -2   0  220.38   12.50
 -10  -2   0  205.88   11.50
  10   2   0  172.58   11.80
 -10   2   0  168.48   10.90
 -10  -2   0  191.58   11.90
  10   2   0  217.98   12.30
  10  -2   0  200.38   11.80
  10  -2   0  193.58   11.80
  10  -2   0  200.58   11.70
  10   2   0  191.48   11.70
 -10  -2   2  216.08   12.90
  10   2   2  241.18   12.70
  10   2   2  210.78   11.70
 -10   2  -2  215.38   12.50
  10   2   2  198.58   12.60
 -10  -2   2  214.68   12.30
 -10  -2   2  233.78   13.40
  10   2   2  227.38   12.60
  10  -2  -2  201.98   12.60
 -10   2  -2  217.18   12.70
 -10   2  -2  215.68   11.10
  10  -2  -2  225.78   12.80
 -10  -2   2  216.18   12.70
  10   2   2  218.98   12.60
  10   2   2  216.98   12.80
  10  -2  -2  208.98   12.90
  10  -2  -2  213.98   12.90
  10   2  -2  227.58   12.60
 -10  -2  -2  203.38   12.70
  10   2  -2  227.88   12.70
  10  -2   2  229.98   12.80
  10  -2   2  222.58   12.60
  10  -2   2  213.28   12.90
 -10   2   2  218.88   12.80
 -10   2   2  226.48   12.70
 -10   2   2  210.28   12.00
 -10  -2  -2  221.48   12.40
  10   2  -2  207.78   11.80
 -10  -2  -2  214.78   12.80
  10   2  -2  190.98   12.50
 -10  -2  -2  204.58   12.50
  10  -2   2  232.08   12.90
  10  -2  -4  255.57   15.10
 -10   2  -4  267.37   15.40
  10   2   4  262.67   15.00
  10   2   4  263.47   15.40
  10  -2  -4  259.27   15.10
 -10  -2   4  269.57   16.00
 -10   2  -4  254.67   15.20
  10   2   4  270.27   15.10
 -10  -2   4  271.77   15.40
 -10   2  -4  242.48   15.30
  10  -2  -4  251.47   14.30
 -10  -2   4  288.07   15.90
  10  -2  -4  293.87   15.90
  10  -2  -4  289.17   14.90
 -10   2  -4  285.97   15.60
  10   2   4  266.27   15.20
  10   2   4  291.67   15.20
 -10   2   4  275.47   14.20
  10  -2   4  270.77   15.30
  10   2  -4  266.57   15.30
 -10  -2  -4  262.07   14.90
  10  -2   4  250.57   14.50
 -10  -2  -4  273.57   15.30
 -10  -2  -4  279.77   15.60
  10  -2   4  275.67   15.40
 -10   2   4  275.27   15.60
  10   2  -4  269.77   15.40
 -10  -2  -4  286.47   16.00
  10   2  -4  244.58   13.20
  10  -2   4  259.77   15.30
 -10   2   4  244.88   14.30
  10   2  -4  250.97   15.20
 -10   2   4  251.07   15.30
  10  -2   4  279.77   15.70
  10   2  -4  254.97   14.90
 -10   2  -6  125.89   13.20
  10   2   6  149.79   10.80
  10  -2  -6  163.28   12.40
 -10  -2   6  160.68   12.20
 -10   2  -6  129.89   12.70
  10   2   6  123.99   10.30
 -10  -2   6  144.29   10.90
  10  -2  -6  153.48   10.60
 -10   2  -6  150.88   11.30
  10  -2  -6  180.28   10.50
  10  -2  -6  146.49   11.60
 -10  -2   6  159.78   11.00
  10   2   6  146.89   13.30
  10   2   6  134.19   10.50
  10  -2  -6  142.39   10.20
  10   2   6  147.69   10.70
  10   2   6  150.18   10.70
 -10   2  -6  144.79   10.50
 -10  -2   6  179.38   13.60
 -10   2   6  149.19   10.90
  10   2  -6  145.39   10.50
  10   2  -6  170.18   12.20
 -10  -2  -6  154.68   12.20
 -10   2   6  166.78   10.80
 -10   2   6  121.39    9.50
  10  -2   6  154.18    8.90
  10  -2   6  180.28   12.00
 -10   2   6  147.99   13.10
 -10  -2  -6  139.79   10.70
 -10  -2  -6  167.68   11.10
  10   2  -6  130.49   10.80
  10  -2   6  154.48   11.10
  10   2  -6  144.19   10.60
  10  -2   6  169.88   12.60
  10   2  -6  140.39   10.70
  10  -2   6  147.69   10.70
 -10  -2  -6  153.28   12.40
 -10  -2   8   79.99   11.70
  10  -2  -8  115.09   11.30
 -10   2  -8   94.79   12.80
  10   2   8  125.59   13.00
  10  -2  -8  128.89   14.60
 -10  -2   8  131.79   15.60
  10   2   8   86.09   13.10
 -10  -2   8   96.39   10.10
 -10  -2   8  125.89   15.30
 -10  -2  -8   86.99   11.60
  10   2  -8   97.99   10.80
  10   2  -8  118.09   12.40
 -10   2   8   69.19   13.00
  10   2  -8  113.69   13.20
 -10  -2  -8   90.29   13.40
  10  -2   8  139.39   15.90
 -10  -2  -8  117.19   15.00
  10  -2   8  142.49   13.50
  10  -3  -1  148.89    9.90
  10   3   1  140.39    9.30
  10  -3  -1  130.19    9.20
  10   3   1  141.69    8.90
 -10  -3   1  135.19    9.10
 -10  -3   1  132.89    9.20
  10  -3  -1  138.29    9.80
 -10   3  -1  132.39    8.90
  10   3   1  133.89    9.10
  10  -3  -1  140.69    9.40
  10   3   1  135.39    9.00
 -10  -3   1  112.29    8.80
  10  -3  -1  129.39    8.70
  10   3   1  154.08    7.70
  10   3  -1  120.39    7.30
 -10   3   1  126.49    8.00
  10  -3   1  147.89    9.40
 -10  -3  -1  127.99    9.00
  10   3  -1  134.19    9.20
 -10  -3  -1  146.99    9.30
  10  -3   1  155.18   10.20
  10   3  -1  130.19    9.00
  10   3  -1  126.69    9.20
  10   3  -1  140.09    9.00
  10  -3   1  131.39    8.90
  10  -3   1  128.89    9.10
  10  -3   1  129.89    9.40
 -10  -3  -1  133.59    9.40
 -10   3   1  138.99    9.10
  10   3   3  146.99    9.00
  10  -3  -3  130.99    9.00
 -10  -3   3  133.89    9.40
  10  -3  -3  134.99    9.90
 -10   3  -3  141.89    9.10
 -10  -3   3  127.19    9.40
 -10  -3   3  135.39    9.30
  10   3   3  126.99    9.00
 -10  -3   3  125.69    9.30
 -10  -3   3  136.69   10.10
  10  -3  -3  125.39    8.80
  10  -3  -3  135.89    9.40
  10   3   3  124.09    9.00
 -10   3  -3  125.39    9.40
  10   3   3  131.19    8.10
  10   3   3  130.19    8.90
  10   3   3  134.39    9.30
 -10   3  -3  129.49    7.20
 -10   3   3  151.18    9.10
 -10   3   3  130.09    9.30
  10   3  -3  136.39    9.60
 -10  -3  -3  129.99    9.10
  10   3  -3  126.59    8.40
 -10  -3  -3  124.49    9.20
 -10  -3  -3  126.89    9.70
  10  -3   3  134.49    9.50
  10  -3   3  139.39    9.30
  10  -3   3  135.19    9.70
  10  -3   3  144.79    9.20
 -10   3   3  127.89    7.90
  10   3  -3  133.59    9.20
 -10  -3  -3  144.19   10.20
  10   3  -3  137.39    9.00
 -10   3   3  128.99    8.70
  10   3  -3  130.39    7.00
  10  -3  -5   21.10    3.60
 -10   3  -5   26.50    5.70
  10   3   5   24.50    5.10
  10   3   5   18.30    4.60
 -10  -3   5   42.50    7.10
  10  -3  -5   22.80    5.00
 -10  -3   5   19.20    8.20
  10   3   5   22.10    4.90
  10   3   5   23.90    4.70
  10   3   5   23.50    4.90
 -10   3  -5   14.70    8.90
  10  -3  -5   19.60    5.30
  10  -3  -5   19.10    7.00
 -10  -3   5   14.20    6.40
  10   3   5   22.10    5.00
 -10   3  -5   19.90    4.00
 -10  -3   5   20.10    4.90
 -10   3   5   20.00    3.80
  10   3  -5   29.40    4.70
 -10  -3  -5   17.00    7.90
  10   3  -5   19.60    5.10
  10  -3   5   22.50    5.10
 -10  -3  -5   21.40    4.90
 -10   3   5   21.80    4.70
 -10  -3  -5   21.40    7.80
  10  -3   5   19.60    6.90
 -10   3   5   19.70    4.70
  10   3  -5   18.90    5.20
  10   3  -5   24.20    5.30
  10  -3   5   21.90    5.60
  10  -3   5   21.50    4.90
 -10  -3  -5   23.10    5.80
  10   3  -5   26.70    5.30
 -10   3   5   23.20    3.00
  10   3   7   18.80    4.90
 -10  -3   7   35.70    7.50
  10  -3  -7   27.50    6.00
 -10   3  -7   24.70    6.90
  10   3   7   24.70    6.00
  10   3   7   29.90    6.00
 -10   3  -7   37.90    6.20
 -10   3  -7   25.30    8.10
 -10  -3  -7   26.80    6.10
  10   3  -7   29.10    6.20
  10   3  -7   24.80    5.60
  10  -3   7   27.10    5.00
  10   3  -7   11.70    8.50
 -10   3   7   20.90    4.70
 -10   3   7   30.10    3.80
  10   3  -7   31.70    6.20
  10  -3   7   20.30    8.10
 -10   4   0   24.50    4.10
 -10  -4   0   30.80    4.90
 -10   4   0   44.70    6.30
 -10  -4   0   28.10    4.70
  10   4   0   30.30    4.70
  10  -4   0   31.40    4.80
 -10  -4   0   26.30    5.20
  10  -4   0   28.50    5.60
 -10   4   0   29.60    4.70
  10  -4   0   25.60    4.40
  10  -4   0   31.70    5.30
  10   4   0   31.80    4.60
  10  -4   0   27.40    4.70
  10   4   0   26.60    4.50
 -10  -4   0   23.30    4.90
  10   4   0   27.80    4.60
  10   4   2   70.79    6.50
  10   4   2   63.19    4.70
  10  -4  -2   65.39    6.60
  10   4   2   61.19    7.10
 -10  -4   2   68.29    7.20
 -10   4  -2   67.99    6.40
  10   4   2   68.69    6.50
  10  -4  -2   63.79    6.50
 -10  -4   2   62.39    7.80
  10  -4  -2   72.39    7.00
 -10  -4   2   69.39    6.50
 -10   4  -2   64.29    7.20
  10  -4  -2   64.09    6.90
 -10  -4   2   71.29    6.80
  10   4   2   64.99    6.70
 -10  -4   2   67.89    7.00
  10  -4  -2   68.39    6.90
  10   4  -2   60.59    4.00
 -10  -4  -2   66.19    7.00
 -10   4   2   62.39    6.00
  10   4  -2   61.99    4.00
 -10  -4  -2   70.59    6.60
  10  -4   2   73.69    7.50
  10   4  -2   84.29    7.50
 -10  -4  -2   69.79    7.00
  10  -4   2   56.19    6.20
 -10   4   2   67.99    6.40
 -10  -4  -2   64.69    7.00
  10  -4   2   63.69    7.30
  10   4  -2   68.19    6.40
  10  -4   2   58.49    6.50
  10   4   4  104.19    8.00
  10  -4  -4  110.19    9.10
  10  -4  -4  108.69    8.70
  10   4   4  104.19    8.50
  10   4   4  111.19    9.10
 -10   4  -4  129.59    8.30
 -10   4  -4  104.19    8.80
 -10  -4   4  127.39   10.00
  10  -4  -4  141.09   10.10
  10  -4  -4   93.09    6.20
 -10  -4   4  106.59    8.90
 -10  -4   4  120.59    9.80
  10  -4  -4  103.79    8.50
  10   4   4   88.19    8.60
 -10   4  -4  134.99   10.60
  10   4   4  118.19    8.80
  10   4   4  100.39    8.80
  10  -4   4  111.39    8.60
 -10   4   4  119.89    6.70
  10   4  -4  109.59    7.30
  10  -4   4  134.99    8.90
 -10  -4  -4  131.79   10.00
 -10   4   4  108.59    8.90
  10  -4   4  114.19    9.00
  10   4  -4  120.59    9.70
  10   4  -4  109.59    8.50
  10   4  -4  104.59    9.10
 -10  -4  -4  109.59    8.90
 -10  -4  -4  111.69    8.90
 -10   4   4  108.19    8.40
 -10   4   4  115.79    9.20
  10  -4   4  118.49    9.40
  10   4  -4  103.79    8.90
  10   4  -4  114.29    8.40
  10  -4  -6   86.49    8.40
 -10   4  -6   97.09    8.10
  10  -4  -6   73.09    7.60
  10   4   6   81.99    8.30
 -10   4  -6   97.99   11.00
 -10   4  -6   70.99    9.20
 -10  -4   6   78.19   10.80
  10  -4  -6  109.79   10.50
  10  -4  -6   76.79    9.60
  10   4   6  109.69   11.50
 -10  -4   6   82.59   10.90
  10   4  -6  115.09   10.00
 -10   4   6  101.49    6.80
 -10   4   6   81.19    8.50
  10  -4   6   81.09    9.20
  10   4  -6   85.99    8.10
 -10  -4  -6   92.99   10.80
  10   4  -6   86.79    9.00
 -10   4   6   74.29   11.20
 -10  -4  -6   72.39   10.40
  10  -4   6   78.99    6.30
  10   4  -6  105.39    9.10
 -10  -4  -6   90.69    9.00
 -10  -4   8   39.40   10.10
  10  -4  -8   21.20    8.90
 -10   4  -8   12.80    8.10
 -10  -4   8   53.19    8.40
  10  -4  -8   39.30    7.10
 -10   4  -8   49.50   12.80
 -10  -4   8   27.90    9.80
 -10  -4  -8   34.80   10.60
  10  -4   8   34.00    9.70
  10  -4   8   50.69   11.90
 -10  -4  -8   33.30    8.40
 -10  -5   1    3.90    3.90
 -10  -5   1    9.50    4.60
  10  -5  -1    3.50    2.60
  10  -5  -1    4.50    3.60
  10  -5  -1    3.90    3.80
 -10   5  -1    6.10    3.80
  10  -5  -1    9.90    4.10
 -10  -5   1    9.30    4.50
  10   5   1    7.50    4.50
  10   5   1    6.40    3.40
  10   5   1    9.60    3.70
  10  -5  -1    7.20    4.80
 -10   5  -1    7.80    5.20
 -10  -5   1    8.30    4.00
  10  -5   1    3.20    3.80
  10  -5   1    3.60    4.80
 -10   5   1    4.20    4.10
 -10   5   1    3.50    3.80
  10  -5   1    3.40    3.60
 -10  -5  -1    5.60    4.10
 -10  -5  -1    4.50    4.40
  10   5  -1   10.90    4.10
  10  -5   1    5.80    4.30
  10   5  -1    7.30    4.10
  10   5  -1    3.10    4.50
 -10  -5  -1    7.50    4.00
  10   5  -1    2.40    3.30
 -10   5  -3   12.10    4.30
  10   5   3   10.60    4.10
 -10  -5   3   13.60    4.80
 -10   5  -3   19.40    6.00
 -10  -5   3   21.60    4.60
  10   5   3   15.00    4.70
  10  -5  -3   12.20    5.30
  10  -5  -3   11.70    4.10
  10   5   3   14.30    4.50
  10   5   3   21.60    5.10
 -10  -5   3    9.80    4.10
 -10  -5   3   25.60    5.50
  10  -5  -3   14.60    4.60
  10  -5  -3   18.80    4.60
  10   5   3   12.20    4.30
  10   5  -3   13.60    1.80
  10  -5   3   11.00    4.30
  10   5  -3   16.60    4.50
 -10   5   3   10.50    1.80
 -10   5   3   10.20    4.20
  10  -5   3   10.60    5.00
  10   5  -3   12.70    1.90
 -10  -5  -3   11.20    4.70
  10   5  -3   22.00    5.60
 -10   5   3   12.40    4.00
 -10  -5  -3   17.10    4.70
 -10  -5  -3   15.50    4.60
  10  -5   3   11.30    4.60
  10   5  -3    9.10    4.10
 -10  -5   5   24.20    6.70
  10  -5  -5   23.80    6.00
 -10  -5   5   22.50    6.60
  10  -5  -5   26.50    3.10
  10  -5  -5   31.90    6.40
  10   5   5   47.20    8.20
 -10   5  -5   26.90    6.00
 -10  -5   5   27.10    5.70
  10   5   5   23.50    5.00
  10   5   5   20.80    5.40
  10  -5  -5   26.40    5.60
  10   5   5   32.10    5.90
  10   5  -5   36.50    8.10
  10  -5   5   22.50    5.50
  10   5  -5   29.50    4.00
  10  -5   5   28.00    5.80
 -10  -5  -5   26.40    5.70
  10   5  -5   28.50    5.20
 -10   5   5   22.40    2.90
 -10   5   5   25.10    5.50
 -10  -5  -5   22.50    5.40
  10   5  -5   26.90    6.20
 -10  -5  -5   28.90    6.80
  10  -5   5   32.30    6.80
  10  -5   5   29.30    4.90
 -10   5   5   27.70    5.10
  10  -5   5   37.60    7.20
  10  -5  -7   26.80    6.50
  10   5   7   41.20    9.80
 -10  -5   7   30.00   10.50
  10   5   7   28.00    6.20
 -10   5  -7   24.30    5.80
 -10   5  -7   11.10    8.30
  10  -5  -7   28.90    6.60
 -10  -5   7   -0.60    8.60
  10   5   7   24.10    6.20
 -10   5  -7   22.60    9.40
  10   5   7   39.50    8.60
  10   5   7   26.00    8.10
 -10   5  -7   21.20    5.80
  10  -5  -7   17.10    7.40
  10   5  -7   21.50    5.30
 -10  -5  -7   20.10    8.20
  10   5  -7   19.90    5.60
 -10  -5  -7   30.90    9.50
  10  -5   7    3.70    8.20
 -10  -5  -7   22.30    8.00
 -10   5   7   21.80    6.20
  10   5  -7   23.50    8.20
 -10   5   7   31.70    5.60
  10  -5   7   20.70    8.90
 -10  -6   0    7.40    5.20
  10   6   0    3.70    4.20
  10   6   0    9.30    4.10
 -10   6   0    3.60    5.50
  10  -6   0    1.90    4.20
 -10  -6   0    3.70    4.40
  10  -6   0    5.00    2.90
  10   6   0    4.60    4.10
  10   6   0    5.10    4.50
 -10  -6   0    3.70    4.10
  10   6   0    8.20    3.00
  10   6   0   21.80    5.60
  10  -6   0    6.50    4.10
 -10   6   0    5.20    3.30
 -10   6   0    4.40    3.90
  10  -6   0    7.90    4.40
  10  -6   0    5.50    4.40
 -10   6   0    5.30    3.90
 -10  -6   0   14.10    4.60
  10  -6  -2   34.20    5.80
 -10  -6   2   41.70    6.20
  10   6   2   38.00    5.90
 -10  -6   2   38.50    6.70
  10  -6  -2   33.30    5.40
  10  -6  -2   56.59    8.10
 -10   6  -2   35.00    4.80
  10   6   2   34.90    5.50
  10  -6  -2   39.30    5.90
 -10  -6   2   35.90    5.40
  10   6   2   31.20    6.30
 -10  -6   2   55.79    7.50
  10   6   2   28.80    5.10
 -10   6  -2   38.30    6.30
  10   6   2   34.10    5.20
 -10  -6  -2   32.50    6.40
  10  -6   2   36.10    5.50
 -10  -6  -2   40.20    5.80
  10  -6   2   55.59    7.80
 -10  -6  -2   39.90    6.30
  10   6  -2   33.20    4.90
  10   6  -2   26.70    2.90
 -10   6   2   37.90    5.00
  10   6  -2   37.70    5.20
  10  -6   2   35.00    5.00
  10   6  -2   41.60    6.40
  10   6   4   34.20    5.40
  10   6   4   35.80    6.20
 -10   6  -4   32.30    7.70
 -10  -6   4   36.10    6.00
  10  -6  -4   30.30    7.20
  10   6   4   39.50    5.90
  10   6   4   33.90    8.50
  10  -6  -4   32.70    6.10
 -10  -6   4   30.60    7.40
 -10  -6   4   38.90    6.90
 -10  -6   4   37.20    5.70
 -10  -6   4   41.90    9.00
  10  -6  -4   37.40    6.20
  10  -6  -4   39.70    6.90
 -10   6  -4   37.90    5.50
  10   6   4   34.70    5.00
  10   6  -4   36.00    7.40
 -10   6   4   35.10    4.30
 -10  -6  -4   30.10    5.10
  10   6  -4   35.10    5.50
  10  -6   4   43.50    7.30
  10  -6   4   36.60    6.60
  10  -6   4   28.30    6.90
  10  -6   4   35.40    6.10
  10   6  -4   32.50    6.00
 -10  -6  -4   39.20    8.70
 -10   6   4   36.80    5.90
  10   6  -4   38.10    7.50
 -10  -6  -4   38.90    5.70
 -10   6   4   39.60    6.00
 -10  -6  -4   27.80    5.80
 -10   6   4   38.40    6.80
  10   6   6   20.80    6.70
  10   6   6    1.00    8.60
  10   6   6   17.30    5.60
  10   6   6   20.60    6.30
  10  -6  -6   12.70    6.60
 -10   6  -6   20.90    5.30
 -10  -6   6   25.90    7.30
 -10   6  -6   19.00    3.60
  10  -6  -6   14.70    4.20
 -10   6  -6   -5.50    9.00
 -10  -6   6   12.30    7.40
  10  -6  -6   19.10    6.40
 -10   6  -6   22.70    5.90
 -10  -6  -6   24.90    7.90
  10   6  -6   12.50    5.90
 -10   6   6   20.30    5.30
 -10  -6  -6   21.20    6.10
  10   6  -6   25.00    4.50
 -10   6   6   23.30    6.40
 -10   6   6   17.10    6.20
  10  -6   6   30.80    8.40
  10  -6   6   11.80    7.80
 -10  -6  -6   25.30    8.30
  10  -6   6   13.80    6.00
 -10   6   6   22.00    6.40
  10   6  -6   17.00    7.80
 -10   7  -1   20.70    5.70
  10  -7  -1   16.30    5.60
  10  -7  -1   19.50    5.20
 -10  -7   1   15.10    4.70
 -10   7  -1   17.40    4.90
  10   7   1   19.00    4.70
 -10  -7   1   23.60    6.60
  10  -7  -1   22.40    5.50
 -10  -7   1   19.00    5.30
  10   7   1   18.80    5.20
  10  -7  -1   19.90    8.00
  10   7   1   20.00    5.00
 -10  -7   1   15.10    5.70
  10   7   1   18.90    6.60
  10   7  -1   22.20    5.10
 -10   7   1   16.90    4.40
  10   7  -1   17.30    6.80
 -10  -7  -1   24.20    5.30
 -10   7   1   19.00    5.20
  10   7  -1   21.60    3.60
 -10  -7  -1   19.30    7.00
 -10  -7  -1   18.10    5.20
  10  -7   1   17.70    4.10
 -10   7   1   22.90    5.60
  10   7  -1   28.80    3.50
 -10   7   1   20.90    4.30
  10   7  -1   26.50    5.40
  10  -7   1   20.30    8.00
 -10   7  -3    6.00    5.80
  10   7   3   -0.70    3.80
  10   7   3    9.10    4.10
  10  -7  -3    9.20    4.90
  10  -7  -3    9.30    7.00
 -10   7  -3    9.10    6.00
  10  -7  -3    7.30    6.20
 -10   7  -3   10.90    5.20
 -10  -7   3    4.30    4.80
  10  -7  -3    9.90    5.70
 -10  -7   3   20.90    7.60
  10   7   3   13.70    5.80
  10   7   3    8.20    5.30
 -10  -7   3    9.10    5.00
  10   7   3    6.50    5.40
  10  -7  -3   10.40    5.50
  10   7   3    5.30    4.40
 -10   7  -3    9.30    4.50
  10   7  -3   19.10    5.10
 -10  -7  -3    6.40    5.00
 -10   7   3   -9.50    8.60
  10  -7   3    8.80    5.10
 -10   7   3    6.50    5.50
  10   7  -3    4.40    3.70
  10  -7   3    9.80    4.90
 -10  -7  -3   25.70    6.80
 -10  -7  -3    7.50    5.00
 -10   7   3    5.70    4.80
  10   7  -3   13.10    5.80
  10   7  -3    6.00    5.30
 -10   7   3   11.00    3.80
  10  -7  -5   46.10    8.00
  10  -7  -5   46.30    7.90
  10   7   5   47.80    8.70
  10   7   5   49.60    6.70
  10  -7  -5   46.90    7.90
  10   7   5   48.70    6.50
  10   7   5   47.90    6.40
  10   7   5   44.90    8.00
 -10   7  -5   35.00    7.70
 -10  -7   5   51.09    9.00
 -10   7  -5   47.30    8.10
 -10  -7  -5   37.90    8.30
 -10  -7  -5   40.60    7.00
 -10   7   5   50.29    6.40
  10  -7   5   47.40    6.50
  10   7  -5   44.40    6.40
 -10   7   5   34.20    5.30
  10   7  -5   66.59   11.10
  10   7  -5   32.10    6.20
  10  -8   0   50.69    6.40
 -10   8   0   38.30    6.30
  10   8   0   42.60    5.20
  10   8   0   43.50    6.10
  10  -8   0   54.99    7.90
  10  -8   0   48.50    7.60
 -10   8   0   49.70    5.90
 -10   8   0   42.80    5.10
  10   8   0   46.50    5.60
 -10  -8   0   54.59    7.50
  10  -8   0   50.49    7.00
 -10  -8   0   46.70    7.50
  10   8   0   43.20    6.10
 -10  -8   0   67.19    8.30
  10   8   0   53.49    7.70
 -10   8  -2    6.90    7.30
 -10  -8   2    6.90    5.30
  10  -8  -2    9.50    6.10
  10  -8  -2    9.80    5.70
  10  -8  -2   14.10    6.90
 -10   8  -2    6.40    3.60
 -10  -8   2    9.30    5.20
  10  -8  -2    5.20    5.20
 -10   8  -2    4.60    7.00
  10   8   2    8.30    6.50
 -10  -8   2   -2.30    6.40
 -10  -8   2    7.40    6.10
 -10   8  -2    8.80    3.10
  10  -8  -2   21.00    6.50
  10   8   2    2.50    3.80
  10   8   2    5.20    4.50
  10  -8   2    9.60    7.60
 -10   8   2    6.30    4.00
 -10   8   2   11.90    3.20
 -10  -8  -2    2.50    4.80
  10  -8   2    3.60    5.30
 -10   8   2    9.90    6.00
 -10  -8  -2   12.90    7.20
 -10   8   2    6.30    5.50
  10   8  -2   -2.00    3.60
  10   8  -2   13.00    5.20
  10  -8   2    5.70    5.20
  10   8  -2    3.90    3.30
 -10  -8  -2    9.80    5.40
  10   8   4   20.40    7.40
  10   8   4    3.70    6.20
  10  -8  -4   12.90    7.20
 -10  -8   4    5.20    6.60
 -10  -8   4   27.60    8.60
  10   8   4    3.10    8.30
  10  -8  -4    8.90    6.70
 -10  -8   4   33.10    7.70
 -10  -8   4    8.30    6.00
 -10   8  -4    6.20    5.10
 -10   8  -4    6.20    5.70
  10   8   4    6.00    5.40
  10   8   4    7.90    5.10
  10  -8   4   20.30    7.90
  10   8  -4    6.30    4.10
  10   8  -4   -2.40    7.40
 -10   8   4    6.20    5.70
  10  -8   4    9.00    6.00
  10  -8   4   11.20    6.80
  10  -8   4    4.50    5.60
  10   8  -4    8.00    3.30
 -10   8   4    6.10    3.90
 -10   8   4    5.40    5.10
 -10   8   4    6.30    5.10
  10  -8  -6   30.50   10.40
  10   8   6   -6.70   10.10
 -10  -8   6    1.20   10.50
 -10   8  -6    2.20    3.90
 -10  -8   6   -2.40   11.50
  10   8   6    3.50    5.50
  10   8   6   14.70    9.90
 -10   8   6   -2.30    5.10
 -10  -8  -6   24.10   10.30
 -10  -8  -6    4.40    9.60
 -10   8   6    5.10    6.40
  10   8  -6   -6.30    8.40
  10   8  -6   30.50   11.50
  10   9   1   21.50    6.00
  10   9   1   15.80    5.60
 -10   9  -1   17.90    4.70
 -10   9  -1   19.90    8.10
  10   9   1   35.80    7.80
  10  -9  -1   18.10    6.30
  10  -9  -1   15.10    6.90
 -10  -9   1   19.80    5.70
  10  -9  -1    8.10    7.90
  10   9  -1   16.20    5.10
 -10  -9  -1   20.90    5.60
 -10   9   1   14.90    7.50
  10  -9   1   34.80    7.10
 -10  -9  -1   22.10    7.60
  10  -9   1   18.40    3.60
  10  -9   1   20.00    6.30
 -10  -9  -1   33.10    7.50
  10   9   3   65.59    8.80
 -10  -9   3   71.69    8.90
  10   9   3   48.60    8.70
 -10   9  -3   67.99   10.60
 -10  -9   3   63.59    9.60
  10  -9  -3   51.29    9.70
 -10  -9   3   64.59    9.60
  10   9   3   63.99    5.30
  10  -9  -3   60.69    9.80
  10  -9   3   65.09   10.40
 -10  -9  -3   47.50    9.40
 -10   9   3   58.29    6.50
  10   9  -3   62.79    8.90
  10  -9   3   64.39   10.70
  10  -9   3   59.19    9.10
 -10  -9  -3   54.59    8.60
 -10   9   3   49.90    7.80
  10  -9   3   64.39    8.50
 -10   9   3   64.89    9.70
 -10   9  -5   27.30   15.30
 -10   9  -5   17.90    5.20
  10   9   5   27.40   10.50
 -10  -9   5   41.20   12.50
  10  -9  -5   -0.10    7.90
  10  -9   5   11.70    6.20
 -10  -9  -5    9.60    9.80
  10   9  -5    4.40    8.70
 -10   9   5   17.00    7.20
 -10  -9  -5    3.10    9.30
  10 -10   0   29.10    6.90
  10 -10   0   28.00    8.30
 -10 -10   0   26.30    9.10
 -10 -10   0   21.70    9.50
  10  10   0   17.10    5.40
 -10 -10   0   28.70    6.70
  10  10   0   42.40    7.30
 -10  10   0   35.10    8.60
  10 -10   0   45.20   11.20
 -10  10   0   23.90    6.90
  10  10   0   35.20    9.70
  10  10   2   29.70    9.70
  10  10   2   10.80    6.50
 -10 -10   2   29.80    9.90
 -10 -10   2   15.80    7.30
 -10 -10   2   12.40    9.20
  10 -10  -2   29.70   10.40
 -10 -10   2   12.50    6.70
 -10  10  -2    7.60    6.40
  10  10  -2   18.60    9.40
 -10 -10  -2   35.60   10.20
  10  10  -2   19.30    7.10
  10 -10   2   12.70    6.70
  10 -10   2   10.00    7.00
 -10 -10  -2    7.30    6.00
 -10 -10  -2   27.30    8.10
  10 -10   2   25.00   11.10
 -10  10   2   10.20    5.80
 -11   0   0    1.50    3.70
  11   0   0    0.40    3.80
  11   0   0    2.60    4.00
 -11   0   0    1.10    2.20
 -11   0   0    1.30    4.00
  11   0   0    0.20    4.50
  11   0   0   -0.50    3.50
  11   0   0   -1.30    3.90
  11   0   2    2.40    4.20
 -11   0  -2    0.20    3.60
  11   0   2   21.50    5.30
  11   0   2    0.10    3.20
  11   0   2    2.80    5.10
 -11   0   2   -0.50    3.40
  11   0  -2    0.80    3.70
  11   0   2    9.10    4.00
  11   0  -2   23.80    5.50
  11   0   2   -0.20    3.70
 -11   0   2   23.20    5.50
 -11   0  -2   23.40    5.80
 -11   0  -4    0.50    3.90
  11   0  -4   -1.10    4.20
  11   0   4   -2.00    3.90
  11   0   4    3.40    4.40
 -11   0   4   -3.10    6.00
  11   0   4    3.20    4.00
  11   0   4   -1.30    5.70
 -11   0  -4    3.00    4.60
  11   0  -4    5.80    5.20
  11   0   4    7.10    4.40
  11   0  -4    1.40    3.80
 -11   0  -4    0.40    5.80
  11   0  -4   -2.30    3.00
 -11   0   4    3.20    4.20
  11   0   4    6.70    4.60
  11   0   6   20.60    6.60
  11   0  -8    1.40    8.20
 -11   0   8    2.00    9.50
 -11   0  -8   27.20   12.40
  11   0   8   -2.90    8.30
 -11   0  -8    5.10    8.80
  11   0  -8   -3.20   10.40
 -11   0   8    7.00   11.90
 -11  -1   1   27.60    4.90
 -11  -1   1   16.40    3.80
 -11   1  -1   12.60    4.40
 -11   1  -1   13.30    2.80
  11  -1  -1   14.80    4.20
  11   1   1   13.90    4.60
 -11  -1   1   12.70    3.50
  11  -1  -1   27.80    5.30
  11  -1  -1   15.20    4.50
  11  -1  -1   10.90    4.50
  11   1   1   13.80    4.40
  11   1   1   17.30    5.20
  11   1   1   14.80    3.50
  11   1   1   15.00    4.90
  11   1   1   26.60    4.50
 -11   1  -1   13.80    4.60
  11  -1  -1   10.10    3.40
  11  -1   1   25.50    5.10
  11   1  -1   11.60    4.60
 -11   1   1   12.80    4.60
  11   1  -1   10.20    3.00
 -11   1   1    9.90    3.70
  11  -1   1   13.20    4.90
  11   1  -1   15.70    4.90
 -11  -1  -1   15.50    3.70
  11  -1   1   16.40    4.30
 -11   1   1   12.80    4.50
 -11  -1  -1   14.60    3.90
  11   1  -1   12.10    4.10
  11   1  -1   10.30    3.80
  11  -1   1   17.90    4.20
  11  -1   1   14.30    3.60
 -11  -1  -1   10.60    4.00
 -11  -1   3  104.79    9.10
  11  -1  -3  111.79    9.00
  11   1   3   81.49    7.60
  11   1   3   91.69    8.40
 -11   1  -3   84.39    6.20
 -11   1  -3  109.39    9.00
 -11  -1   3   89.89    7.80
  11   1   3   81.39    7.20
 -11   1  -3   81.69    7.60
 -11  -1   3   86.49    7.70
  11  -1  -3   94.39    8.50
  11  -1  -3   83.79    7.80
  11   1   3   81.89    7.70
  11   1   3   83.49    7.60
  11  -1  -3   87.69    7.60
 -11   1  -3   80.49    8.30
  11  -1  -3  101.39    7.80
  11   1   3   85.39    7.70
  11   1  -3   82.49    6.30
 -11   1   3   83.79    7.70
  11   1  -3   91.69    8.00
  11  -1   3   91.69    8.20
 -11  -1  -3  109.69    7.60
  11  -1   3  100.79    8.30
  11   1  -3   90.49    7.60
  11   1  -3  108.49    8.60
 -11  -1  -3   80.99    7.20
 -11  -1  -3  111.09    9.40
  11  -1   3   83.89    8.60
 -11   1   3   77.29    8.00
 -11   1   3   86.99    7.90
  11  -1   3   85.59    7.40
  11  -1   3   85.49    7.70
  11   1   5   83.19    8.00
 -11  -1   5   79.29    8.20
 -11   1  -5   79.89    7.90
  11   1   5   81.29    8.40
  11  -1  -5   85.69    8.10
  11  -1  -5   76.69    8.50
  11  -1  -5  102.99   10.20
 -11  -1   5   84.59    8.50
 -11   1  -5   82.29    9.80
  11   1   5   80.49    8.70
 -11   1  -5   69.39   11.60
  11   1   5   88.09    9.50
 -11   1  -5   89.99    8.80
  11   1   5   85.59    8.90
  11  -1  -5   83.89    8.20
  11   1   5   87.69    8.00
 -11   1   5   79.49    8.30
 -11  -1  -5   82.89    7.80
 -11   1   5   90.69    8.00
  11  -1   5   86.59    8.30
  11  -1   5   97.99    8.90
 -11  -1  -5  108.79    8.90
  11   1  -5   80.49    5.30
 -11   1   5   79.89    9.60
  11   1  -5   81.99   10.00
  11   1  -5   86.29    8.10
 -11   1   5   87.49    7.00
  11   1  -5   73.39    8.00
 -11  -1  -5   86.99    9.90
  11  -1   5   86.99    8.90
  11   1   7   38.40    9.10
  11   1   7   47.80    6.60
 -11  -1   7   50.69    8.80
  11   1   7   53.19    9.30
  11  -1  -7   51.39    7.10
 -11   1  -7   73.49   11.90
  11  -1  -7   37.10    8.70
 -11   1  -7   82.39   12.60
 -11  -1   7   49.00   10.20
 -11  -1  -7   50.99    9.70
  11  -1   7   48.50    9.50
  11  -1   7   50.09    6.60
  11  -1   7   58.49    9.80
 -11  -1  -7   56.99   10.40
 -11  -1  -7   42.30    7.90
 -11   1   7   51.09    6.30
  11   1  -7   70.99    9.70
  11   1  -7   56.79    8.80
 -11  -2   0   89.69    6.90
 -11   2   0   76.29    7.00
  11   2   0   81.89    8.20
  11  -2   0   74.89    6.60
  11   2   0   75.99    7.60
  11   2   0   87.89    7.20
 -11  -2   0   74.89    7.60
 -11   2   0   75.09    7.70
  11  -2   0   75.69    7.10
  11   2   0   73.39    7.50
 -11   2   0   71.99    7.50
  11   2   0   74.49    5.50
  11   2   0   84.89    7.90
 -11  -2   0   76.19    6.80
  11   2   2    7.60    3.80
 -11   2  -2    1.40    2.10
 -11  -2   2   -1.90    3.80
 -11  -2   2    1.70    4.10
 -11  -2   2    2.30    3.50
  11  -2  -2    0.90    3.70
  11   2   2   -2.10    3.90
  11  -2  -2    4.50    4.00
 -11   2  -2    1.00    4.30
  11   2   2    2.80    3.90
 -11  -2   2    1.20    4.00
  11   2   2   -3.20    2.80
  11  -2  -2    5.00    4.40
  11   2   2    1.50    3.50
 -11   2  -2   10.20    4.90
 -11   2  -2    0.10    4.10
  11   2   2    0.60    4.00
  11   2  -2    1.70    4.00
 -11  -2  -2    1.10    4.00
  11  -2   2    5.70    3.90
  11  -2   2    1.10    4.10
  11   2  -2    0.30    3.90
  11   2  -2    2.90    2.70
  11   2  -2    2.60    4.40
 -11   2   2   -2.80    3.00
 -11  -2  -2   -0.70    3.70
 -11  -2  -2    0.00    3.80
 -11  -2  -2    1.00    4.30
  11  -2   2    3.10    4.00
 -11   2   2    3.10    3.70
  11  -2   2    1.10    3.70
  11  -2   2    0.70    3.80
 -11   2   2    6.60    4.60
  11   2   4    5.30    4.30
 -11  -2   4    3.20    7.20
 -11   2  -4    5.10    3.70
  11   2   4    3.60    4.00
  11  -2  -4    5.60    4.20
 -11  -2   4    0.00    3.90
 -11  -2   4    1.60    4.50
  11  -2  -4    5.60    4.90
  11   2   4    2.70    4.40
 -11  -2   4    1.70    6.60
  11  -2  -4    1.40    4.80
  11   2   4    2.50    5.00
  11  -2  -4    6.40    6.00
  11   2  -4    9.40    4.00
 -11  -2  -4    1.40    6.80
  11   2  -4    6.80    5.10
 -11   2   4    5.10    3.10
 -11  -2  -4    4.10    4.50
  11  -2   4   -2.10    6.20
 -11  -2  -4   -2.30    6.30
  11   2  -4    7.90    4.80
 -11   2   4    6.80    4.30
  11  -2   4   12.50    5.50
 -11   2   4   -1.20    3.50
  11   2  -4    4.70    2.10
  11  -2   4    3.90    4.20
  11  -2   4    4.60    4.40
 -11   2  -6    6.30    6.50
 -11   2  -6   -1.10    7.60
  11  -2  -6    7.40    6.60
  11  -2  -6    3.30    5.00
  11   2   6    0.20    5.60
  11   2   6   11.00    6.90
  11   2   6    3.80    5.40
  11  -2  -6    6.00    5.60
 -11  -2   6   11.30    7.20
 -11   2  -6   -2.10    4.30
 -11  -2   6   11.50    8.00
  11   2   6   -0.50    6.40
  11   2  -6    9.40    4.70
 -11  -2  -6   -1.00    6.50
  11   2  -6    5.40    5.50
  11  -2   6   -0.20    5.10
 -11  -2  -6   10.70    7.10
  11  -2   6    0.20    5.40
 -11   2   6   -0.30    6.90
  11  -2   6    6.20    6.20
  11  -2   6    6.60    6.30
 -11   2   6    0.10    4.70
  11   2  -6    4.80    5.90
  11   3   1  104.09    7.80
  11   3   1  129.09    9.00
  11  -3  -1  106.99    8.80
  11   3   1  122.89    8.70
 -11   3  -1  110.69    9.00
 -11  -3   1  113.59    8.70
  11   3   1  121.69    8.70
  11   3   1  125.09    8.90
  11  -3  -1  113.39    8.30
 -11   3  -1  112.79    8.70
 -11   3  -1  106.99    8.60
 -11  -3   1  106.89    8.80
  11   3   1  110.29    8.20
  11  -3  -1  110.39    8.60
 -11  -3   1   97.79    7.60
 -11  -3   1  124.29    9.30
  11  -3  -1  104.99    8.60
  11  -3  -1  116.89    8.80
 -11   3   1  119.99    9.00
  11   3  -1  118.79    8.80
  11   3  -1  128.29    7.00
 -11  -3  -1  137.29    9.80
  11   3  -1  107.79    9.20
  11  -3   1  107.09    8.90
  11  -3   1  105.29    8.70
 -11  -3  -1  114.79    9.20
 -11   3   1   96.59    7.20
 -11  -3  -1  101.19    8.50
 -11   3   1  106.89    9.10
  11  -3   1  111.89    8.70
  11   3  -1   99.49    8.90
  11   3  -1  115.59    9.30
  11   3  -1  124.99    8.70
  11  -3   1  110.19    8.80
  11  -3   1  105.39    9.00
 -11  -3  -1   94.49    7.70
 -11  -3   3   88.09    8.40
  11   3   3   89.09    8.50
  11   3   3  118.29    9.00
  11   3   3   82.29    6.90
 -11   3  -3   92.29    7.80
  11  -3  -3   90.29    8.00
  11  -3  -3   82.09    8.10
 -11  -3   3   87.69    7.60
  11   3   3   90.89    8.40
 -11  -3   3  104.99    9.90
  11  -3  -3   81.39    7.80
  11  -3  -3   92.39   10.10
  11   3   3   85.99    7.40
  11  -3  -3   93.19    8.70
 -11   3  -3   87.99    5.10
 -11   3   3   96.39    9.30
  11   3  -3   98.39    8.60
  11  -3   3   87.19    8.20
  11   3  -3   87.49    5.60
  11  -3   3  106.49   10.30
  11  -3   3  109.69    9.40
 -11   3   3  117.49    9.10
 -11  -3  -3  108.59   10.80
  11   3  -3   92.19    8.10
  11   3  -3   76.89   10.20
  11   3  -3   89.39    7.90
 -11  -3  -3   81.59    7.70
  11  -3   3  106.79    8.30
 -11  -3  -3  116.39    9.90
 -11   3   3   91.39    7.60
  11   3  -3   87.49    6.50
 -11   3   3   86.39    7.10
 -11  -3  -3   84.99    8.10
  11  -3  -5  106.69    9.20
  11   3   5  112.69    9.20
  11   3   5  103.99   12.40
 -11   3  -5  130.19   11.50
  11  -3  -5  106.99    9.80
 -11   3  -5   81.39   11.90
 -11   3  -5   97.89    8.90
  11  -3  -5   99.09    8.10
  11   3   5  120.09    9.40
  11   3   5  138.79    9.90
  11   3   5   93.89   11.30
  11  -3   5  110.09    9.80
  11  -3   5  104.09   12.00
 -11  -3  -5  109.89    9.40
 -11   3   5  108.39    9.50
 -11   3   5  102.59   11.70
  11   3  -5  137.39   11.20
  11   3  -5   99.09    8.90
 -11   3   5   97.49    8.10
 -11  -3  -5  131.19   11.40
  11  -3   5  102.09    8.80
 -11   3   5  105.89    9.30
  11   3  -5  122.99    9.70
  11   3  -5   95.89    9.50
 -11  -3   7   73.39   11.10
  11  -3  -7   54.09    7.90
 -11   3  -7   76.99   11.90
 -11   3  -7   97.39   15.10
 -11  -3   7   92.29   15.40
  11  -3  -7   98.89   14.40
  11   3   7   58.39   10.20
 -11   3   7   48.10    5.90
  11  -3   7   97.99   14.20
 -11  -3  -7  100.39   14.70
  11   3  -7   71.99   12.30
 -11  -3  -7   57.69    8.40
  11  -3   7   54.59   10.20
  11   3  -7   69.09    9.20
  11  -4   0   50.49    6.70
 -11  -4   0   39.90    6.00
  11  -4   0   36.80    6.30
  11   4   0   39.00    6.20
 -11   4   0   44.80    6.60
  11   4   0   37.60    6.30
  11  -4   0   42.30    5.80
 -11  -4   0   39.40    6.50
  11  -4   0   34.60    6.10
 -11  -4   0   42.50    5.50
 -11   4   0   33.30    4.20
  11  -4   0   40.90    6.90
 -11  -4   0   39.10    6.30
  11   4   0   54.19    6.10
  11   4   0   46.00    6.10
 -11  -4   2   40.80    6.80
 -11  -4   2   42.40    5.70
 -11   4  -2   59.29    6.70
  11   4   2   38.80    6.20
  11   4   2   52.19    6.90
  11   4   2   50.09    7.30
 -11   4  -2   43.70    6.10
 -11  -4   2   38.00    5.40
  11   4   2   37.30    6.20
  11  -4  -2   37.30    5.90
  11  -4  -2   42.00    6.50
  11   4   2   51.19    5.00
  11   4   2   37.60    5.30
  11  -4  -2   41.80    6.40
 -11   4   2   29.40    4.60
 -11   4   2   32.80    4.50
  11  -4   2   36.80    6.30
  11   4  -2   42.30    6.40
 -11  -4  -2   37.60    5.90
 -11  -4  -2   54.09    7.80
  11  -4   2   40.60    6.60
  11  -4   2   37.80    5.10
 -11   4   2   44.00    6.00
  11   4  -2   44.60    5.70
 -11  -4  -2   38.50    6.00
  11   4  -2   45.70    7.30
  11   4  -2   58.79    6.50
 -11   4   2   39.60    5.30
 -11   4  -4    9.90    3.80
  11   4   4   19.80    4.90
 -11  -4   4   11.70    4.80
  11   4   4    8.60    5.30
 -11  -4   4    6.70    5.20
  11   4   4    8.80    4.90
 -11   4  -4   10.80    2.40
  11  -4  -4   15.40    5.30
  11   4   4   14.40    3.90
 -11   4  -4   11.90    1.70
  11  -4  -4   15.30    6.60
 -11  -4   4   16.60    6.60
  11  -4  -4    5.00    5.60
 -11  -4   4   13.70    6.50
  11   4   4   13.70    5.00
  11  -4  -4    6.30    4.40
  11   4  -4   12.40    6.30
  11   4  -4   11.70    4.10
  11   4  -4   14.30    5.20
 -11   4   4   12.40    5.60
  11  -4   4   12.70    5.40
  11  -4   4    6.70    8.30
 -11  -4  -4   14.70    5.50
 -11  -4  -4   16.00    4.90
 -11   4   4   13.20    4.80
  11  -4   4   12.60    4.40
  11   4  -4   10.40    3.60
  11  -4   4    8.00    4.80
 -11  -4  -4   16.70    6.70
 -11   4   4    9.20    4.00
 -11   4   4   15.80    5.10
  11  -4   4    8.60    5.30
  11   4  -4    7.40    3.80
 -11   4  -6   23.60    5.80
  11  -4  -6   11.50    7.70
 -11  -4   6   42.90    8.00
  11   4   6   34.70    6.80
  11   4   6   28.00    9.00
  11   4   6   42.20    7.10
 -11   4  -6   28.80    5.30
 -11   4  -6   36.70    7.50
  11   4   6   34.50    6.00
  11  -4  -6   34.50    4.70
 -11   4   6   25.30    5.70
  11  -4   6   50.69    9.80
 -11   4   6   32.60    5.80
 -11  -4  -6   31.60    6.20
  11   4  -6   32.70    8.40
  11   4  -6   31.20    6.10
  11   4  -6   40.10    8.00
  11  -4   6   44.40    5.40
  11   4  -6   32.10    6.20
 -11   4   6   29.40    4.90
  11   4  -6   35.00    9.10
 -11  -5   1  135.69    9.10
  11   5   1  116.89    9.00
  11  -5  -1  108.69    7.80
  11   5   1  143.39    9.30
 -11  -5   1  112.39    9.10
  11  -5  -1  117.09    9.80
 -11   5  -1  118.39   10.50
 -11   5  -1  116.69    9.40
 -11  -5   1  120.39   11.20
  11  -5  -1  136.89   10.30
 -11   5  -1  127.99    9.20
  11   5   1  105.19    9.20
  11  -5  -1  119.09    9.60
  11   5   1   94.09   11.30
 -11  -5   1  142.99   10.90
  11   5   1  115.39    9.00
  11   5  -1  112.19    8.90
  11   5  -1  108.29   10.80
 -11  -5  -1  115.39   12.10
  11  -5   1  118.29    8.90
 -11   5   1  117.19    8.90
  11  -5   1  114.89    9.50
  11   5  -1  115.09    9.10
  11   5  -1  100.29    8.90
 -11  -5  -1  130.99    9.50
  11   5  -1  109.69    8.10
 -11   5   1  125.59    9.00
  11   5  -1  113.69    9.00
  11  -5   1  107.09    9.40
  11  -5   1  130.39   10.20
 -11   5   1  112.39    9.20
 -11  -5  -1  138.59    9.20
 -11  -5   3  145.39   10.90
  11   5   3  166.68    8.90
 -11  -5   3  141.59   12.00
 -11   5  -3  135.99   12.10
 -11  -5   3  142.69   10.20
  11  -5  -3  149.59   10.90
  11   5   3  140.29   12.10
  11  -5  -3  129.09   10.40
  11   5   3  138.59   10.70
  11  -5  -3  136.79   11.50
 -11   5  -3  136.69   10.40
  11   5   3  157.08   10.80
  11  -5  -3  142.89   11.70
 -11  -5   3  131.39   14.60
  11   5   3  161.88   10.90
 -11   5  -3  173.38   10.50
  11   5   3  151.68   10.40
 -11  -5   3  130.09   12.60
  11  -5  -3  129.99   12.20
 -11  -5  -3  145.49   10.80
 -11  -5  -3  134.69   10.20
  11  -5   3  148.09   10.40
  11   5  -3  144.09   11.30
  11  -5   3  147.89   12.40
 -11  -5  -3  174.08   13.00
  11  -5   3  145.49   10.90
  11  -5   3  133.79   12.30
  11   5  -3  158.28   11.00
 -11   5   3  147.59   10.70
  11   5  -3  165.38   10.10
 -11   5   3  117.49   10.80
 -11  -5  -3  141.19   12.10
 -11   5   3  129.99    8.10
 -11   5   3  158.68   11.20
  11   5  -3  132.79   10.50
 -11   5  -5  153.48   11.00
 -11  -5   5  179.08   13.70
  11  -5  -5  134.59    8.10
  11  -5  -5  145.19   10.80
 -11  -5   5  183.38   13.80
  11   5   5  150.48   12.90
 -11   5  -5  171.28   12.40
  11  -5  -5  167.38   13.30
 -11  -5   5  155.98   13.50
  11   5   5  163.28   11.70
  11   5   5  154.68   11.10
  11   5  -5  174.08   11.70
 -11   5   5  139.39    8.10
 -11   5   5  145.89   13.80
  11   5  -5  148.19    9.10
  11   5  -5  144.09   14.70
  11   5  -5  133.29   13.10
  11  -5   5  139.79   12.90
  11   5  -5  152.88   10.90
  11  -5   5  147.19   10.60
  11  -5   5  140.49   11.70
 -11   5   5  162.18   11.20
 -11  -5  -5  172.58   13.70
  11   5  -5  162.28    9.20
  11  -5   5  155.78   13.30
 -11  -5  -5  148.29   11.10
  11  -6   0   -0.70    5.80
  11   6   0    8.30    6.10
 -11  -6   0    8.90    4.20
 -11   6   0    5.20    3.70
  11   6   0    8.60    4.70
  11  -6   0    5.90    5.20
 -11   6   0    3.10    5.20
 -11   6   0    7.80    4.50
 -11  -6   0    5.90    4.70
  11  -6   0    6.10    4.10
  11  -6   0    8.10    7.50
  11   6   0   11.60    6.30
 -11  -6   0    9.70    5.30
  11   6   0    5.50    4.50
  11   6   0    6.80    4.40
  11  -6   0   10.40    5.00
 -11  -6   0   12.40    6.40
 -11  -6   2   28.70    8.30
  11   6   2   30.60    5.40
 -11  -6   2   42.80    6.80
  11   6   2   26.20    5.10
  11  -6  -2   31.10    5.80
  11  -6  -2   33.80    6.70
 -11   6  -2   41.70    7.10
  11  -6  -2   34.70    7.20
  11   6   2   32.60    5.10
 -11   6  -2   30.40    5.50
  11   6   2   40.40    7.50
 -11   6  -2   46.20    8.80
  11   6   2   31.30    5.10
  11  -6  -2   30.00    5.90
  11  -6  -2   34.10    7.00
 -11  -6   2   29.30    6.00
 -11  -6  -2   31.50    6.10
  11  -6   2   31.20    6.00
  11  -6   2   27.10    6.50
  11  -6   2   26.90    7.50
 -11   6   2   30.90    6.90
  11   6  -2   43.10    7.40
 -11   6   2   30.80    5.70
  11  -6   2   32.70    5.20
 -11  -6  -2   35.60    5.70
  11   6  -2   32.80    5.30
 -11   6   2   36.50    5.80
 -11  -6  -2   28.70    7.60
 -11  -6   4    1.30    6.80
 -11   6  -4   19.20    7.80
 -11  -6   4   16.90    8.30
  11  -6  -4   18.10    6.10
  11   6   4   20.50    6.00
 -11   6  -4   13.20    6.10
  11   6   4   22.10    6.10
  11  -6  -4   18.90    6.90
  11   6   4   16.80    6.30
 -11  -6   4   21.20    5.80
  11   6  -4   20.60    4.90
  11  -6   4   23.20    5.40
  11   6  -4   22.00    7.00
  11  -6   4   13.30    7.30
 -11  -6  -4   10.80    5.50
 -11  -6  -4   20.70    7.40
  11   6  -4   17.10    5.00
 -11  -6  -4   36.90    7.80
 -11   6   4   15.70    5.50
 -11  -6   6    5.00   11.00
 -11   6  -6    3.60   10.50
 -11  -6   6   22.90   10.50
 -11  -6   6   14.40   10.10
  11   6   6    4.60    7.90
  11  -6  -6    1.30    6.70
  11  -6  -6   14.20    9.70
  11   6   6    9.00    9.00
 -11   6  -6   20.80    5.70
  11  -6   6    4.90   10.50
 -11   6   6    2.40    6.80
 -11  -6  -6    2.30    9.50
 -11   6   6    2.40    6.60
 -11  -6  -6   25.20   10.80
 -11  -7   1   49.99    8.20
 -11  -7   1   48.30    7.50
  11   7   1   48.30    6.90
  11  -7  -1   50.99    7.50
  11   7   1   44.80    7.30
  11  -7  -1   44.80    7.80
  11   7   1   52.29    6.00
 -11  -7   1   52.79    8.10
 -11  -7   1   46.90    7.60
 -11   7  -1   43.30    6.10
 -11   7  -1   34.40    7.20
 -11   7  -1   41.00    6.60
 -11   7  -1   54.29    9.50
  11  -7  -1   45.00    6.70
  11   7   1   53.09    8.00
  11  -7   1   48.90    7.50
 -11   7   1   48.50    7.90
  11   7  -1   44.80    7.20
  11   7  -1   44.90    5.50
 -11  -7  -1   50.59    8.10
  11  -7   1   51.79    8.10
 -11  -7  -1   48.90    7.70
 -11   7   1   38.90    6.80
  11   7  -1   65.69    8.10
 -11  -7  -1   42.20    7.50
  11  -7   1   47.70    7.10
  11   7  -1   41.60    7.70
 -11  -7  -1   49.10    8.10
  11   7   3   95.99    9.60
 -11  -7   3   92.39    9.10
 -11   7  -3   99.19    9.90
 -11  -7   3   69.29   12.50
  11  -7  -3   95.29    9.80
  11  -7  -3  104.39   11.10
  11   7   3  104.69   11.30
 -11   7  -3  101.89    9.40
  11   7   3   97.79    9.30
 -11   7  -3   92.39   11.10
 -11   7   3  102.29   10.40
 -11   7   3   85.69    9.00
 -11   7   3  101.49    9.00
 -11  -7  -3   94.59    9.30
  11  -7   3   96.89    9.50
  11   7  -3   82.89    9.50
  11   7  -3   92.49    9.40
  11  -7   3  124.49   12.10
 -11   7   3   95.39    8.80
  11   7  -3  120.99   11.90
  11   7   5  151.58   11.40
 -11  -7   5  166.28   17.30
 -11   7  -5  150.08   11.10
 -11  -7   5  118.39   14.60
  11   7   5  132.49   13.60
 -11   7  -5  159.18   10.60
 -11   7  -5  183.38   17.30
  11   7   5  134.89   13.90
  11  -7  -5  136.29   14.70
  11   7  -5  153.68   11.20
 -11   7   5  144.39   11.00
 -11   7   5  165.58   11.50
 -11   7   5  120.59   11.20
  11   7  -5  142.19   10.50
  11  -7   5  128.69   12.20
  11  -7   5  100.69   13.80
  11  -7   5  128.19   14.00
 -11  -7  -5  120.49   15.70
 -11  -7  -5  168.38   16.50
  11   7  -5  108.69   12.50
 -11  -8   0   -2.50    6.00
 -11   8   0   14.30    5.50
 -11   8   0    1.10    5.80
 -11  -8   0    1.90    5.40
  11  -8   0   23.40    5.10
 -11   8   0   -2.50    8.80
  11  -8   0    3.20    6.50
  11  -8   0   -0.70    5.80
  11   8   0    2.30    5.10
  11   8   0   -2.10    5.70
  11   8   2   15.50    4.90
  11   8   2   18.00    6.10
 -11   8  -2    9.60    8.60
  11   8   2   23.70    5.70
  11   8   2   18.50    5.60
 -11  -8   2   24.60    8.80
  11  -8  -2   40.30    8.60
  11   8   2    7.90    7.60
 -11   8  -2   29.60    6.30
 -11   8  -2   15.60    6.00
  11  -8   2    8.70    7.90
  11   8  -2   25.30    6.20
  11   8  -2   18.70    5.90
 -11   8   2   17.80    5.60
 -11  -8  -2    0.60    7.70
  11  -8   2   15.80    5.00
 -11   8   2   14.90    6.50
  11   8  -2   33.30    7.60
 -11   8   2   24.80    5.70
  11  -8  -4   23.70    8.70
  11  -8  -4   40.70   10.80
 -11  -8   4   35.50   10.10
  11   8   4   41.20    9.10
 -11  -8   4   28.00    9.60
 -11   8  -4   25.60    6.10
  11   8   4   56.99   10.80
 -11   8   4   38.50    7.20
 -11   8   4   31.90    7.10
  11   8  -4   26.90    4.50
 -11  -8  -4   35.50   10.60
  11   8  -4   40.60   10.20
  11  -8   4   35.60    6.20
 -11  -8  -4   39.50    8.70
  11  -8   4   38.60   11.10
  11   9   1   59.79   10.10
  11   9   1   69.89   10.90
 -11  -9   1   56.79   10.40
  11  -9  -1   89.59   15.60
  11   9   1   63.79   11.00
 -11   9   1   33.50   10.80
  11  -9   1   88.99   15.30
 -11  -9  -1   60.99   10.50
 -11  -9  -1   74.49   11.90
  11   9  -1   65.79   10.90
  11  -9   1   71.89   11.80
  11   9   3   74.79   11.20
 -11   9  -3   84.49    9.80
  11  -9  -3   78.69   11.70
 -11  -9   3   59.79    9.90
  11   9   3   92.69   13.10
 -11  -9  -3   71.59   11.60
 -11   9   3   92.09   11.20
  11  -9   3   68.79   11.20
  12   0   0  577.24   29.80
  12   0   0  574.64   29.60
  12   0   0  554.34   29.20
 -12   0   0  559.74   28.30
 -12   0   0  581.14   29.60
  12   0   0  579.74   29.50
 -12   0   0  570.14   30.10
  12   0   0  574.34   30.20
 -12   0   0  548.05   29.30
 -12   0   2   84.69   11.00
  12   0   2   90.59    8.10
  12   0   2   75.19    9.80
  12   0   2   85.59    7.70
 -12   0  -2   77.29    7.90
  12   0  -2   87.89   10.80
 -12   0  -2   69.39   11.30
  12   0  -2   76.99    8.20
 -12   0  -2   86.79    6.50
  12   0  -2   90.09    8.00
 -12   0   2   85.79    8.00
  12   0   2   85.49    8.30
 -12   0   2   92.49    8.10
  12   0  -4  128.69   10.10
  12   0   4  150.98   11.20
  12   0  -4  150.08    9.80
 -12   0  -4  128.49   10.40
 -12   0   4  145.69   10.20
  12   0   4  146.79   10.50
 -12   0  -4  156.68   10.50
 -12   0  -4  150.18   12.40
  12   0   4  142.59   10.50
  12   0   4  136.19   10.90
  12   0  -4  142.39   10.40
  12   0   6   26.70    5.80
 -12   0  -6    6.70    7.60
  12   0   6   19.70    6.60
  12   0   6   27.30    7.70
  12   0  -6   20.60    5.90
 -12   0  -6   23.00    7.60
  12   0  -6    5.00    7.70
 -12   0   6   17.30    8.10
  12   0   6   22.20    8.10
  12  -1  -1   25.20    4.90
 -12  -1   1   28.60    5.10
  12  -1  -1   28.10    7.80
  12  -1  -1   27.20    5.80
  12   1   1   23.00    4.90
 -12   1  -1   26.60    4.90
 -12  -1   1   29.90    8.20
  12   1   1   27.90    5.80
  12   1   1   20.40    4.80
  12  -1  -1   24.80    4.90
 -12   1  -1   25.60    4.10
 -12  -1   1   26.70    4.70
 -12   1  -1   26.50    5.10
  12   1   1   29.90    5.20
  12   1   1   27.30    5.50
 -12  -1   1   28.50    5.00
 -12  -1  -1   27.20    5.10
  12   1  -1   33.70    5.30
  12  -1   1   41.10    6.60
 -12  -1  -1   21.00    8.10
  12  -1   1   25.10    5.40
 -12   1   1   29.30    6.70
 -12   1   1   25.60    5.20
  12  -1   1   23.80    5.00
 -12  -1  -1   24.00    5.00
  12   1  -1   23.20    5.40
  12   1  -1   31.50    6.00
  12  -1   1   25.80    5.60
  12   1  -1   25.50    4.50
  12  -1   1   25.30    7.60
  12  -1  -3   62.99    9.20
  12   1   3   59.29    7.30
 -12  -1   3   64.89    9.20
  12   1   3   48.20    8.00
  12  -1  -3   52.89    7.40
 -12   1  -3   62.09   10.20
 -12   1  -3   46.00    5.20
 -12   1  -3   47.50    8.20
  12  -1  -3   49.70    7.20
  12   1   3   50.49    8.70
  12  -1  -3   51.29    6.90
 -12   1  -3   46.20    7.10
 -12  -1   3   51.19    7.20
  12  -1  -3   43.30    7.00
 -12  -1   3   43.70    7.10
  12   1   3   63.89    7.60
  12  -1   3   66.69    9.20
  12  -1   3   50.59    7.40
 -12  -1  -3   40.80    7.20
 -12   1   3   50.99    8.70
  12   1  -3   51.99    7.10
  12  -1   3   50.09    7.60
 -12   1   3   50.59    7.50
  12  -1   3   55.49    7.40
  12   1  -3   60.49    7.20
  12   1  -3   55.99    9.40
  12   1  -3   52.29    5.80
 -12  -1  -3   55.89    8.50
 -12  -1  -3   70.49    9.50
 -12  -1  -3   49.30    7.10
  12   1  -3   52.29    7.00
  12  -1   3   50.39    7.60
  12  -1   3   51.99    7.20
  12  -1  -5    8.70    6.10
 -12  -1   5   11.40    4.80
  12  -1  -5   20.20    7.00
  12   1   5    2.80    5.70
 -12   1  -5    5.30    6.60
  12   1   5   19.00    6.00
  12   1   5    9.00    6.20
 -12   1   5    9.10    4.40
  12   1  -5    6.70    2.70
  12  -1   5    6.80    5.70
 -12  -1  -5   -0.40    7.00
  12  -1   5    7.50    5.50
  12   1  -5    0.70    6.30
 -12   1   5   10.50    6.90
  12  -1   5   -2.70    7.50
 -12   1  -7   -2.20   11.00
 -12  -1  -7   16.50   12.20
  12   1  -7   11.70   10.20
  12   2   0  170.48   11.20
 -12  -2   0  152.48   12.90
  12  -2   0  156.08   11.30
  12  -2   0  168.78   11.10
  12  -2   0  173.78   11.20
 -12   2   0  201.18   12.50
  12   2   0  152.18   12.40
 -12  -2   0  160.88   11.00
  12   2   0  159.28   10.30
 -12  -2   0  142.79   10.70
  12   2   0  196.98   12.00
 -12   2   0  178.88   11.00
 -12  -2   0  178.18   11.50
  12   2   0  167.98   10.90
  12   2   0  174.98   11.40
  12  -2   0  168.28   11.40
  12  -2   0  167.58   12.80
 -12   2  -2  262.77   15.20
 -12   2  -2  247.78   15.30
  12  -2  -2  258.27   15.40
  12  -2  -2  248.48   15.70
  12   2   2  269.27   15.50
 -12  -2   2  253.87   15.30
  12   2   2  265.07   16.30
 -12  -2   2  299.27   15.80
  12  -2  -2  262.07   14.90
  12   2   2  272.77   15.70
 -12   2  -2  250.77   12.80
  12   2   2  263.67   15.20
  12   2   2  235.78   14.40
  12  -2  -2  256.27   16.10
 -12  -2   2  250.17   16.10
 -12   2  -2  279.67   16.70
  12   2   2  290.97   15.90
 -12  -2   2  252.27   14.50
  12  -2  -2  243.68   15.20
  12   2  -2  263.17   15.10
  12   2  -2  246.98   15.30
  12  -2   2  257.87   15.30
 -12  -2  -2  237.78   14.40
 -12  -2  -2  259.77   16.40
 -12   2   2  245.08   17.10
 -12  -2  -2  252.57   15.30
  12  -2   2  250.07   15.10
 -12  -2  -2  259.97   16.50
 -12   2   2  253.87   15.30
  12   2  -2  301.77   16.60
 -12   2   2  253.87   14.80
  12  -2   2  256.67   15.50
  12   2  -2  242.58   14.00
  12  -2   2  256.07   16.00
  12  -2   2  268.77   15.70
  12  -2  -4   13.20    6.50
  12   2   4    6.80    4.70
 -12  -2   4   20.50    5.50
 -12   2  -4    0.00    7.70
  12   2   4   23.10    5.60
 -12   2  -4   15.00    3.50
 -12   2  -4   21.20    7.50
 -12   2  -4   11.60    5.00
 -12  -2   4    5.50    6.50
  12  -2  -4    3.80    6.00
 -12   2   4   11.00    4.70
  12  -2   4    7.90    5.20
 -12  -2  -4    4.90    6.70
  12  -2   4   12.30    5.30
  12   2  -4   20.30    5.00
 -12   2   4   14.20    4.80
 -12  -2  -4   11.40    5.10
  12   2  -4   13.30    2.50
  12  -2   4    7.00    5.90
  12   2  -4   14.90    5.80
 -12   2   4   12.20    5.60
  12  -2   4    9.70    5.30
  12   2  -4   15.10    5.10
  12   2   6   30.90    7.00
 -12  -2   6   28.10    6.90
 -12  -2   6   63.79   11.30
  12  -2  -6   44.60    7.60
  12   2   6   29.80    6.90
 -12  -2   6   59.59   10.10
  12  -2  -6   30.10    6.30
 -12   2  -6   40.60   11.20
  12  -2  -6   58.79   10.40
 -12  -2  -6   41.50   10.00
 -12  -2  -6   27.80    7.20
 -12   2   6   54.89    7.70
  12  -2   6   60.79    9.70
  12   2  -6   22.40    6.50
  12  -2   6   24.30    9.00
  12  -3  -1    5.80    4.60
 -12  -3   1   11.70    6.00
  12  -3  -1    4.80    4.90
  12   3   1    8.50    4.80
 -12  -3   1   12.20    4.70
  12   3   1   14.80    4.50
  12   3   1   15.40    5.20
 -12   3  -1    7.00    4.30
  12  -3  -1    7.30    5.20
  12   3   1   10.10    2.90
  12   3   1    5.50    7.30
 -12  -3   1   11.60    4.60
 -12  -3  -1    8.50    5.60
  12   3  -1    8.00    3.90
  12   3  -1   10.50    5.10
  12   3  -1   11.30    4.80
  12   3  -1   11.80    5.00
  12  -3   1   12.50    5.80
  12  -3   1    6.50    4.70
 -12  -3  -1   -2.70    6.40
 -12   3   1    9.80    4.30
 -12   3   1    6.90    4.50
  12   3  -1    8.20    5.80
  12  -3   1    7.10    4.60
  12  -3   1    4.60    5.00
 -12  -3  -1    7.50    4.40
 -12  -3  -1    6.10    4.70
  12   3   3   11.40    8.00
  12   3   3   16.30    5.30
  12  -3  -3   17.10    5.70
 -12   3  -3   13.60    4.70
 -12  -3   3    9.30    6.30
  12   3   3   13.10    4.60
  12  -3  -3   15.80    6.10
 -12   3  -3    1.00    7.60
  12   3   3   11.50    7.00
  12   3   3   16.70    5.00
  12  -3   3   15.80    4.70
 -12   3   3   15.50    7.20
 -12   3   3   14.30    4.90
  12  -3   3   34.60    7.10
  12   3  -3   16.90    4.70
  12   3  -3   19.60    5.30
 -12   3   3    5.50    3.80
  12  -3   3   16.50    5.20
 -12  -3  -3   19.10    5.20
  12   3  -3   14.20    2.90
  12   3  -3   16.80    6.80
  12   3  -3   15.90    3.20
 -12   3   3   10.80    3.70
  12   3   5    7.60    5.30
  12   3   5    1.70    5.30
  12   3   5    3.80    7.20
 -12  -3   5   14.10    7.50
  12   3   5   -2.80    6.80
 -12   3  -5    5.60    4.10
  12  -3  -5    6.30    5.40
  12  -3   5    5.90    5.20
  12   3  -5   -2.70    4.20
 -12  -3  -5    1.20    7.60
  12   3  -5    2.10    5.40
 -12   3   5   -3.60    7.00
  12  -3   5   12.40    7.50
 -12   3   5    4.20    4.90
  12   4   0  160.38   10.80
 -12  -4   0  151.88   10.90
 -12  -4   0  162.88   13.00
  12   4   0  158.98   10.60
 -12  -4   0  159.08   10.60
  12  -4   0  184.58   12.30
  12  -4   0  140.69   11.00
  12  -4   0  149.19   12.10
 -12   4   0  135.69   10.60
  12   4   0  173.48   12.20
 -12  -4   0  158.38   12.50
  12   4   0  172.08   11.60
  12  -4   0  140.99   11.20
 -12   4   0  152.18   11.30
 -12   4   0  159.48   10.90
 -12   4  -2  154.78   10.80
  12   4   2  144.79   11.80
  12   4   2  144.19    9.80
  12   4   2  153.98   10.70
 -12   4  -2  179.18   11.70
 -12  -4   2  148.39   12.30
  12  -4  -2  151.18   11.00
 -12  -4   2  172.98   10.60
  12   4   2  165.88   10.80
  12   4   2  181.98   11.60
  12   4   2  141.79   10.90
  12  -4  -2  163.48   12.70
 -12  -4  -2  177.98   10.70
  12  -4   2  117.49   10.80
 -12   4   2  152.68   10.50
  12   4  -2  123.49    8.40
  12   4  -2  168.28   10.60
 -12   4   2  143.89    9.40
  12   4  -2  139.49   11.20
  12   4  -2  150.18   11.20
  12  -4   2  165.98   10.80
  12  -4   2  139.59   13.20
 -12   4   2  142.89   10.70
  12  -4  -4   23.80    7.10
 -12  -4   4   17.10    7.00
 -12  -4   4   -1.90    7.80
  12  -4  -4    6.50    6.90
 -12   4  -4    0.90    7.10
  12  -4  -4   11.80    7.70
  12   4   4    3.80    6.70
  12   4   4    6.40    5.50
 -12   4  -4   40.70    9.10
  12  -4   4    1.60    5.60
  12   4  -4   -3.50    8.40
  12  -4   4   19.00    6.90
 -12  -4  -4   34.00    7.40
 -12   4   4    3.60    6.00
  12  -4  -6   12.30   10.60
  12   4   6   15.20    5.70
  12   4   6   15.80    8.20
 -12  -4   6   23.60    8.10
 -12  -4   6    7.20   10.10
  12   4   6    8.00    6.60
 -12   4  -6   13.20    8.60
  12  -4  -6   21.90    5.80
 -12  -4   6   11.80    9.10
 -12   4  -6    7.70   10.90
 -12  -4  -6    9.40    8.90
  12  -4   6   19.40   10.50
 -12  -4  -6   14.60    9.40
 -12   4   6   33.50    7.80
  12   4  -6    3.10    7.30
 -12   5  -1   60.59    8.80
  12   5   1   62.29    9.20
  12   5   1   63.49    8.90
 -12   5   1   42.90    8.40
  12   5  -1   64.39    8.60
 -12  -5  -1   53.59    9.20
 -12   5  -3    7.10    5.30
  12   5   3    3.60    6.70
 -12  -5   3    3.20    6.60
 -12   5  -3    1.20    7.70
  12  -5  -3    3.30    5.60
 -12  -5   3    6.80    4.80
  12   5   3    5.80    4.30
  12  -5  -3    4.00    6.30
  12   5   3    3.80    4.70
 -12  -5   3   -0.20    6.70
  12   5   3    6.40    6.90
 -12   5  -3    8.30    5.40
  12   5  -3    2.60    4.90
 -12  -5  -3    0.50    6.80
 -12  -5  -3   14.40    7.20
  12   5  -3   16.10    7.40
 -12   5   3    5.80    4.10
  12  -5   3    7.00    6.80
  12  -5   3    9.50    7.50
 -12  -5  -3    9.40    5.00
  12  -5   3    6.00    5.80
  12   5  -3    3.90    5.00
 -12   5   3   13.40    7.20
 -12   5   3   -0.80    4.70
  12  -5  -5   25.00    6.80
 -12   5  -5   17.70    7.20
  12   5   5   29.20    6.10
 -12  -5   5   16.30    8.30
  12   5   5   37.00    8.50
 -12   5  -5   21.10    6.20
 -12   5  -5   45.80   11.70
 -12  -5   5   49.80   10.30
 -12   5   5   24.00    5.80
  12   5  -5   20.90    6.20
  12   5  -5   40.20   10.30
 -12  -5  -5   18.00    5.50
  12  -5   5   24.20    7.30
 -12   5   5   15.70    5.90
  12   5  -5   29.70    8.40
  12  -5   5   16.80    8.90
 -12  -5  -5   30.00   10.60
 -12  -6   0  141.79   12.20
  12  -6   0  155.58   10.40
 -12  -6   0  137.59   10.50
  12  -6   0  149.69   12.30
 -12   6   0  136.19   13.30
 -12   6   0  147.09   11.60
  12   6   0  129.49   10.90
  12  -6   0  141.39   12.10
 -12   6   0  124.19   13.20
  12   6   0  138.39   10.80
 -12   6   0  138.59   11.40
  12   6   0  125.99    9.00
  12   6   0  166.88   11.00
 -12   6  -2   10.70    6.90
 -12  -6   2    7.30    5.10
  12  -6  -2    5.50    7.50
  12   6   2   27.40    7.70
  12   6   2   14.00    6.10
 -12   6  -2    6.10    8.30
  12  -6  -2    7.30    6.90
  12  -6  -2    4.50    5.90
  12   6   2    7.80    5.40
 -12   6  -2   15.80    5.90
  12   6   2    4.40    6.20
 -12  -6   2   18.40    7.20
 -12  -6   2    6.00    7.00
  12  -6   2   11.00    5.30
  12  -6   2    7.70    7.20
  12  -6   2    5.20    6.90
 -12  -6  -2    4.50    7.20
  12   6  -2    9.10    4.50
  12   6  -2   12.90    5.50
  12   6  -2   12.80    5.60
 -12   6   2    6.00    5.40
 -12  -6  -2    5.40    5.30
 -12   6   2    6.00    4.90
  12   6   4   32.80    8.50
 -12   6  -4   60.09   12.00
  12  -6  -4   33.40    8.40
  12   6   4   30.50    8.60
  12   6   4   32.40    6.40
 -12  -6   4   28.40    8.60
  12  -6  -4   30.40    7.20
 -12  -6   4   16.10    8.50
 -12   6  -4   35.70    6.10
 -12  -6   4    4.90   10.10
 -12   6   4   32.50    6.00
 -12   6   4   27.40    6.20
  12  -6   4   26.00    6.60
  12   6  -4   37.70    9.50
  12  -6   4   27.40    8.40
 -12  -6  -4   52.79    9.80
 -12  -6  -4   31.40    9.10
 -12   6   4   21.90   10.00
 -12   6   4   37.00    7.90
  12  -6   4   27.00    8.50
  12   6  -4   24.90    5.10
 -12   7  -1   14.20    9.00
 -12   7  -1   27.20    5.70
 -12  -7   1   19.00    5.40
  12   7   1   33.00    6.80
 -12  -7   1   26.70    7.70
  12   7   1   25.90    5.60
  12   7   1   12.60    8.40
  12   7   1   32.10    5.90
 -12   7  -1   27.80    6.10
 -12   7  -1   18.90    6.00
  12  -7  -1   25.80    7.60
 -12  -7   1    8.90    7.80
 -12   7   1   43.50    7.60
  12   7  -1   21.50    8.20
  12   7  -1   47.30    8.00
  12   7  -1   19.50    5.50
 -12  -7  -1   31.00    6.10
 -12  -7  -1   26.30    7.90
  12  -7   1   44.40    9.00
 -12   7   1   23.10    9.30
  12   7  -1   25.70    6.80
  12  -7   1   35.80    8.20
 -12  -7  -1   21.30    8.00
 -12   7   1   19.70    8.10
  12  -7   1   22.20    7.20
 -12   7   1   24.50    5.60
  12   7   3   19.90    6.30
 -12   7  -3   25.00   10.70
  12   7   3   34.70    7.20
 -12  -7   3    6.90    8.50
  12  -7  -3   11.50    8.10
  12  -7  -3   23.30    9.40
  12   7   3   37.00   10.30
 -12   7  -3   17.40    6.50
 -12   7  -3   17.70    6.70
  12  -7   3   16.60    7.00
 -12   7   3   23.10    7.30
  12   7  -3   21.00    5.60
 -12   7   3   13.80    6.10
 -12   7   3   14.80    6.30
  12   7  -3   19.90    5.70
  12  -7   3   38.10   10.40
 -12  -7  -3    3.90    8.70
 -12  -7  -3   20.40   10.10
 -12  -8   0    8.10    9.80
  12   8   0    3.00    5.50
  12   8   0   -2.80   10.10
  12   8   0    3.10    6.30
  12   8   0    2.00    3.90
 -12   8   0   -0.70    6.30
  12   8   2   60.19   10.30
  12   8   2   77.29    9.50
  12   8   2   64.39   10.90
 -12  -8   2   54.99   10.20
  12   8   2   62.39    9.10
 -12   8  -2   60.89    9.90
 -12   8  -2   40.50    7.60
  12  -8  -2   49.10    9.30
 -12  -8   2   43.80    9.80
 -12   8  -2   67.69   11.50
  12  -8  -2   58.19   11.50
 -12  -8  -2   42.90    9.30
 -12   8   2   67.89   11.30
  12   8  -2   71.19   10.40
 -12  -8  -2   42.30   10.60
  12   8  -2   60.69   10.20
  12  -8   2   55.29   10.90
 -12   8   2   57.49    9.80
  12  -8   2   37.40    9.10
  13   0   0    0.30    5.50
  13   0   0   -3.60    4.20
  13   0   0   -6.30    4.00
 -13   0   0    1.80    3.10
 -13   0   0   -2.40    4.10
  13   0   0   14.20    5.70
 -13   0  -2  -10.30    6.50
  13   0  -2  -10.80    6.00
 -13   0  -2   -0.70    3.70
  13   0   2    3.50    7.10
  13   0   2   -3.40    4.60
  13   0   2   -2.10    5.50
  13   0  -2    0.50    4.40
 -13   0  -2   -1.20    7.40
  13   0   2    1.00    4.80
  13   0   2   -0.70    6.00
  13   0  -4    2.30    6.20
  13   0   4    2.40    5.90
  13   0   4   -7.00    7.60
  13   0  -4    0.40    4.90
 -13   0  -4    0.80    5.30
 -13   0  -4  -14.40    7.70
 -13   0  -4   -4.30    7.10
  13   0  -4   -1.60    7.10
  13   1   1   83.59    8.30
  13  -1  -1   83.29    8.60
 -13   1  -1   71.09    7.90
  13  -1  -1   88.69   10.60
 -13  -1   1   75.09   10.80
  13   1   1   83.59    9.10
  13  -1  -1   79.49    9.80
  13   1   1   62.09    7.40
 -13   1  -1   92.09    8.90
  13   1   1   69.59    7.50
 -13   1   1   73.99    8.20
 -13  -1  -1   88.19    9.90
 -13   1   1   62.09    8.40
  13   1  -1   91.79    8.90
  13  -1   1   81.49    9.20
  13   1  -1   69.79    7.50
 -13  -1  -1   87.79   11.10
  13  -1   1   75.49    8.50
  13  -1   1   85.99   10.60
  13   1  -1   76.09    7.90
 -13  -1  -1   86.89    8.20
 -13   1  -3   19.70    6.00
  13  -1  -3   23.40    6.00
 -13   1  -3   22.00    3.80
  13   1   3   33.50    7.00
  13   1   3   29.70    7.40
  13   1   3   25.10    6.30
 -13   1  -3   22.90    7.70
  13   1   3   26.90    5.80
 -13   1   3   23.80    7.20
  13   1  -3   25.30    6.10
 -13  -1  -3   17.20    5.30
  13  -1   3   20.20    5.80
  13  -1   3   19.20    6.00
  13   1  -3   25.60    7.00
 -13   1   3   19.00    5.50
  13   1   5   16.30    8.00
 -13   1  -5   20.80    9.40
 -13  -1   5   15.40    7.50
 -13  -1   5    6.70    9.40
  13  -1  -5   24.30    9.30
  13   1   5   40.90    9.40
  13  -1   5   28.90    7.10
 -13  -1  -5   18.70    9.90
 -13  -1  -5   23.00    5.10
  13   1  -5   20.90    8.60
  13  -1   5   13.30    8.50
 -13   1   5   12.80    4.80
 -13  -1  -5   19.80    9.40
 -13   1   5    6.70    5.40
  13   1  -5   11.10    5.10
  13   2   0   70.39    7.70
  13   2   0   79.79    8.60
 -13  -2   0   83.89    9.50
  13  -2   0   69.59   10.60
  13  -2   0   74.49    9.30
 -13  -2   0   56.29    6.90
 -13   2   0   57.09    7.50
 -13  -2   0   67.39   10.70
 -13   2   0   67.99    8.10
  13   2   0   65.19    8.40
  13   2   2   21.90    5.60
  13   2   2   20.10    5.30
 -13   2  -2    9.40    4.20
  13  -2  -2   15.00    5.20
  13   2   2   17.60    6.10
 -13  -2   2   15.30    7.90
  13  -2  -2   21.80    7.20
 -13   2  -2   21.20    5.90
 -13  -2   2   19.10    7.10
  13   2  -2   18.60    7.80
 -13   2   2   16.80    4.90
  13  -2   2   14.50    5.60
  13   2  -2   10.90    4.30
  13   2  -2   15.80    4.70
  13  -2   2   -0.60    7.70
  13  -2   2   25.20    7.30
 -13  -2  -2   14.00    5.10
 -13  -2  -2   25.20    7.50
  13  -2  -4    9.90    8.10
  13  -2  -4   14.40    8.00
  13   2   4   12.40    5.60
 -13  -2   4   14.10    8.70
  13  -2  -4   14.90    5.80
 -13  -2   4    5.80    6.20
  13   2   4    9.70    6.20
  13  -2   4   20.30    8.50
  13   2  -4    3.60    5.20
 -13   2   4   11.50    4.00
 -13  -2  -4   26.00    5.40
  13   2  -4   19.90    7.30
  13  -2   4   10.80    7.90
  13  -2   4   11.80    6.30
 -13  -2  -4    5.30    8.00
 -13  -2  -4   13.30    9.00
 -13  -3   1   44.70    7.20
 -13   3  -1   46.30    7.60
 -13   3  -1   53.09    6.60
  13  -3  -1   53.69    8.40
  13  -3  -1   46.40    6.20
  13   3   1   42.90    7.60
  13   3   1   54.29    8.30
  13   3   1   43.90    7.80
 -13  -3   1   71.29   10.70
  13  -3  -1   64.19    9.30
  13   3   1   43.00    6.20
 -13  -3  -1   42.20    7.30
 -13  -3  -1   71.79   10.90
  13  -3   1   62.49    7.70
 -13   3   1   46.80    7.70
  13   3  -1   48.70    7.70
  13  -3   1   40.40    9.20
  13  -3   1   69.89   11.10
  13   3  -1   42.70    5.10
  13   3  -1   48.20    7.00
  13   3  -1   68.19    8.60
  13   3  -1   57.79    7.80
  13   3   3   74.09    8.70
 -13   3  -3   93.79   11.50
  13  -3  -3   89.19   10.40
  13   3   3   78.29   11.20
  13   3   3   62.49   10.60
  13   3   3   65.69    9.10
  13  -3  -3   62.79    9.10
  13  -3  -3   75.79   10.20
 -13   3  -3   69.19   10.60
 -13  -3   3   60.49    9.60
  13   3  -3   58.69    8.00
 -13   3   3   71.89    8.20
  13   3  -3   67.59    7.00
  13   3  -3   75.39   10.30
  13  -3   3   70.79    9.40
 -13   3   3   76.89    9.20
  13  -3   3   76.09    9.50
 -13   3   3   71.19    8.30
 -13  -3  -3   73.39   10.10
 -13  -3  -3   90.99    8.90
  13   3   5   22.10    7.10
  13   3   5   14.90    8.10
  13   3   5   11.50    6.40
  13   3   5   14.10    8.50
 -13  -3  -5   21.90    6.00
 -13   3   5   12.60    8.60
  13   3  -5   22.50    5.90
 -13  -3  -5    5.60    8.90
  13  -3   5   12.90    8.90
  13   3  -5    4.80    9.40
  13  -3   5   29.80    7.20
  13   3  -5   13.80    7.90
 -13   3   5   21.40    6.50
 -13   4   0   29.40    6.50
  13   4   0   26.30    6.00
 -13   4   0   24.30    5.70
  13   4   0   25.70    7.20
 -13  -4   0   30.70    7.80
 -13  -4   0   34.30    6.90
  13   4   0   27.00    6.20
  13  -4   0   30.90    5.90
  13  -4   0   31.80    7.70
 -13  -4   2   96.19   11.70
  13  -4  -2   61.09    9.10
  13   4   2   88.19    9.80
 -13   4  -2   90.69    8.90
  13   4   2   81.49    6.80
 -13  -4   2   93.69    9.90
  13   4   2   75.49    8.70
 -13  -4   2   79.89    8.50
  13  -4  -2   79.19    9.20
  13   4  -2   78.69    5.50
  13  -4   2   85.79   11.30
  13   4  -2   88.89   10.80
 -13  -4  -2   86.79   12.20
  13   4  -2   78.69   10.20
 -13   4   2   82.59    8.70
 -13   4   2   86.19    8.60
  13  -4   2   81.19    9.10
  13   4  -2   77.69    8.70
 -13   4   2   85.59    8.80
 -13  -4  -2   79.79    8.80
 -13   4  -4   31.20    8.20
  13   4   4   44.00    7.20
 -13   4  -4   43.50   12.50
  13  -4  -4   30.40    9.60
  13   4   4   44.30    6.90
 -13  -4   4   42.70    9.90
  13   4  -4   40.80    8.70
 -13  -4  -4   43.20    6.90
  13  -4   4   50.09    9.20
 -13   4   4   42.20    7.10
 -13   4   4   38.00    5.70
 -13  -4  -4   53.59   10.90
 -13  -4  -4   30.70   10.30
  13  -4   4   40.70   10.10
  13  -4   4   39.90    7.20
  13   4  -4   61.49   11.60
 -13   5  -1   53.19    8.90
  13  -5  -1   40.70    8.50
 -13   5  -1   69.79    9.40
  13  -5  -1   53.29    8.00
  13   5   1   39.70    9.40
 -13  -5   1   45.80    9.40
 -13  -5   1   65.99    8.00
  13  -5  -1   70.79    9.70
  13   5   1   57.09    8.80
  13   5   1   49.10    9.00
  13   5   1   57.29    8.80
  13   5  -1   62.29    8.60
 -13   5   1   61.99    8.70
  13  -5   1   57.59    9.60
  13   5  -1   55.59    9.50
  13  -5   1   59.79    9.10
 -13  -5  -1   45.60    9.40
 -13   5   1   46.00    7.70
 -13   5   1   59.59    8.50
  13  -5   1   56.49    8.80
  13   5  -1   56.89    5.50
  13   5  -1   69.49    9.00
 -13  -5  -1   41.80    9.10
 -13  -5  -1   58.79    8.30
 -13  -5   3   64.59    9.80
 -13  -5   3   57.99    8.60
  13   5   3   53.89    9.30
  13   5   3   61.69    9.60
  13  -5  -3   57.59    9.40
 -13   5  -3   63.39    9.20
  13   5   3   58.39    8.60
 -13   5   3   52.99    8.20
  13  -5   3   40.00    9.50
 -13  -5  -3   79.89   12.80
 -13  -5  -3   52.59    7.50
  13  -5   3   57.89    9.50
  13   5  -3   71.99   11.60
  13   5  -3   72.69    8.20
 -13   5   3   66.19    9.90
 -13  -5  -3   98.59   14.90
  13   5  -3   49.80    9.00
 -13   6   0    8.50    5.50
 -13  -6   0   10.40    6.00
  13  -6   0   10.40    8.50
 -13   6   0   16.30    9.10
  13   6   0    7.70    5.40
  13   6   0   13.50    5.30
  13   6   0   28.30   10.10
  13   6   0    9.20    5.60
 -13   6   0    7.10    5.50
 -13   6   0   15.40    7.50
 -13  -6   0    4.90    8.30
 -13  -6   2   15.60    5.40
  13   6   2   41.20   10.70
  13  -6  -2   15.60    8.80
  13   6   2   11.30    9.70
  13   6   2   17.90    6.50
 -13   6  -2   26.60   11.80
 -13   6  -2   16.40    5.80
  13   6   2   15.70    6.00
 -13   6  -2    0.60    8.90
  13   6  -2   15.70    5.40
 -13  -6  -2   16.20    8.80
 -13  -6  -2   19.40    5.60
 -13   6   2   16.90    8.50
 -13   6   2   27.20    8.40
 -13   6   2   17.50    5.90
  13  -6   2   24.50   10.00
  13   6  -2   13.10    9.10
 -13  -6  -2   45.80   10.30
 -13   7  -1   98.69   14.80
 -13   7   1   97.09   14.50
  14   0   0  196.58   12.90
  14   0   0  163.68   15.10
  14   0   0  205.88   13.90
 -14   0   0  168.38   15.80
 -14   0   0  200.78   14.10
 -14   0  -2  180.58   15.10
  14   0  -2  169.18   12.80
  14   0   2  195.98   15.80
 -14   0   2  158.58   15.50
 -14   0  -2  226.88   17.50
  14   0   2  223.48   13.90
  14   0   2  185.08   14.80
 -14   0   2  201.18   16.70
  14   0  -2  180.88   12.40
  14   0  -2  195.08   16.40
  14  -1  -1   27.50    5.80
  14  -1  -1   25.20    8.50
 -14   1  -1   20.60    7.20
 -14  -1   1   24.90    9.00
  14   1   1   20.60    5.30
  14  -1  -1   21.80    6.40
 -14   1  -1    1.30    8.20
  14  -1   1   30.20    8.40
  14   1  -1   13.10    9.20
 -14  -1  -1   11.60    7.20
  14   1  -1    1.20    8.00
 -14  -1  -1   34.50    9.30
  14  -1   1   19.60    6.70
 -14   1   1    2.60    8.20
  14   1  -1   18.00    6.50
  14  -1   1   30.20    8.80
  14   1   3   16.80    8.20
  14   1   3   16.30    6.40
 -14  -1   3    6.00    8.60
  14  -1  -3    5.30    9.30
  14   1   3   40.10    9.60
 -14   1  -3   12.90    7.80
  14  -1  -3   16.30    8.00
 -14   1  -3   45.40   10.70
 -14   1   3    4.60    5.60
  14  -1   3    5.90    8.00
  14  -1   3   14.20    8.50
  14   1  -3   29.10    9.70
  14   1  -3    6.60    5.50
  14  -1   3    2.80    7.30
 -14   1   3   32.70   10.30
 -14  -1  -3   14.90    9.50
 -14   2   0  154.58   11.80
  14   2   0  141.29   10.70
  14  -2   0  138.79   11.60
 -14  -2   0  122.19   13.00
 -14  -2   0  141.49   10.30
  14   2   0  111.39   13.30
 -14  -2   0  188.48   15.90
  14  -2   0  127.59   13.80
  14  -2  -2   51.09    7.80
  14  -2  -2   63.59    9.20
  14   2   2   43.60    8.60
  14   2   2   78.39   11.90
  14  -2  -2   84.49   13.00
 -14   2  -2   45.50    9.60
 -14   2  -2   76.09   11.80
 -14  -2   2   48.00    8.30
 -14  -2   2   86.29   14.40
 -14  -2  -2   34.90    9.00
 -14   2   2   54.69    8.60
 -14  -2  -2   49.20    7.20
  14  -2   2   48.90    9.50
  14  -2   2   61.19    8.20
 -14   2   2   48.10    9.40
  14   2  -2   51.99    8.20
 -14  -2  -2   68.39   12.10
  14   2  -2   30.60    8.80
  14  -2   2   79.99   13.50
  14   3   1   45.00    5.40
 -14  -3   1   39.50   10.50
  14   3   1   48.50    9.80
  14  -3  -1   40.50   10.10
  14  -3  -1   39.90    7.60
  14  -3   1   51.69   10.90
 -14  -3  -1   39.90   10.90
  14   3  -1   49.99    8.80
 -14  -3  -1   17.60    8.70
  14  -3   1   31.60    6.80
  14   3  -1   61.89   10.80
 -14   3   1   39.00    7.20
 -14  -4   0   21.00    9.70
  14   4   0   13.20    7.00
  14   4   0    6.10    9.40
 -14  -4   0    4.00    9.40
  14  -4   0   14.60    9.20
  14  -4   0   18.90    8.10
 -14  -4   0   11.60    5.30
 -14   4   0    4.10    6.50
 -14   4  -2   20.90   10.50
  14   4   2   35.50   11.00
 -14   4   2   16.70    8.40
   0   0   0    0.00    0.00

_computing_structure_solution     'SHELXT 2014/5 (Sheldrick, 2014)'
;
_shelx_hkl_checksum              1184
loop_
_space_group_symop_operation_xyz
'x, y, z'
'-x, -y, z'
'x+1/2, -y+1/2, z'
'-x+1/2, y+1/2, z'
'x, y+1/2, z+1/2'
'-x, -y+1/2, z+1/2'
'x+1/2, -y+1, z+1/2'
'-x+1/2, y+1, z+1/2'
loop_
_atom_site_label
_atom_site_type_symbol
_atom_site_fract_x
_atom_site_fract_y
_atom_site_fract_z
_atom_site_U_iso_or_equiv
_atom_site_adp_type
_atom_site_occupancy
_atom_site_site_symmetry_order
_atom_site_calc_flag
_atom_site_refinement_flags_posn
_atom_site_refinement_flags_adp
_atom_site_refinement_flags_occupancy
_atom_site_disorder_assembly
_atom_site_disorder_group
C1 C 0.6887(5) 0.4056(6) 0.4101(8) 0.0260(12) Uani 1 1 d . . . . .
C2 C 0.7045(5) 0.5570(5) 0.5950(10) 0.0291(12) Uani 1 1 d . . . . .
B1 B 0.5000 0.5000 0.5009(11) 0.0186(16) Uani 1 2 d S T P . .
K1 K 1.0000 0.5000 0.5984(3) 0.0290(5) Uani 1 2 d DS T P . .
O1 O 0.7588(4) 0.4743(4) 0.5022(5) 0.0247(9) Uani 1 1 d . . . . .
O2 O 0.5673(3) 0.4162(4) 0.4066(5) 0.0200(8) Uani 1 1 d . . . . .
O3 O 0.5823(3) 0.5694(3) 0.5969(5) 0.0214(8) Uani 1 1 d . . . . .
O4 O 0.7445(4) 0.3254(4) 0.3220(6) 0.0335(12) Uani 1 1 d . . . . .
O5 O 0.7815(4) 0.6204(5) 0.6780(6) 0.0374(13) Uani 1 1 d . . . . .
O6 O 0.9848(4) 0.3290(4) 0.3576(6) 0.0287(10) Uani 1 1 d D . . . .
H6A H 0.997(7) 0.258(3) 0.376(9) 0.034 Uiso 1 1 d D U . . .
H6B H 0.922(7) 0.327(8) 0.306(10) 0.16(8) Uiso 1 1 d D . . . .
loop_
_atom_site_aniso_label
_atom_site_aniso_U_11
_atom_site_aniso_U_22
_atom_site_aniso_U_33
_atom_site_aniso_U_23
_atom_site_aniso_U_13
_atom_site_aniso_U_12
C1 0.019(3) 0.026(3) 0.033(3) -0.003(2) 0.002(2) 0.001(2)
C2 0.022(3) 0.032(3) 0.033(3) -0.007(3) -0.001(3) 0.002(2)
B1 0.010(3) 0.021(4) 0.025(4) 0.000 0.000 0.005(3)
K1 0.0139(7) 0.0441(10) 0.0290(8) 0.000 0.000 0.0045(7)
O1 0.0097(17) 0.032(2) 0.033(2) -0.0183(18) -0.0009(17) 0.0028(15)
O2 0.0113(17) 0.0239(19) 0.0250(19) -0.0083(16) -0.0008(16) -0.0003(15)
O3 0.0112(15) 0.0276(18) 0.0256(19) -0.012(2) -0.0021(18) 0.0035(14)
O4 0.0191(19) 0.037(2) 0.044(3) -0.026(2) 0.000(2) 0.000(2)
O5 0.020(2) 0.044(3) 0.049(3) -0.034(2) -0.009(2) 0.005(2)
O6 0.018(2) 0.030(2) 0.038(3) 0.0012(19) 0.0078(18) 0.0040(17)
loop_
_atom_type_symbol
_atom_type_description
_atom_type_scat_dispersion_real
_atom_type_scat_dispersion_imag
_atom_type_scat_source
C C 0.0033 0.0016 'International Tables Vol C Tables 4.2.6.8 and 6.1.1.4'
H H 0.0000 0.0000 'International Tables Vol C Tables 4.2.6.8 and 6.1.1.4'
B B 0.0013 0.0007 'International Tables Vol C Tables 4.2.6.8 and 6.1.1.4'
K K 0.2009 0.2494 'International Tables Vol C Tables 4.2.6.8 and 6.1.1.4'
O O 0.0106 0.0060 'International Tables Vol C Tables 4.2.6.8 and 6.1.1.4'
loop_
_geom_angle_atom_site_label_1
_geom_angle_atom_site_label_2
_geom_angle_atom_site_label_3
_geom_angle
_geom_angle_site_symmetry_1
_geom_angle_site_symmetry_3
_geom_angle_publ_flag
O2 C1 O4 120.0(5) . . ?
O2 C1 O1 121.8(5) . . ?
O4 C1 O1 118.2(5) . . ?
O5 C2 O3 124.9(6) . . ?
O5 C2 O1 114.7(5) . . ?
O3 C2 O1 120.5(6) . . ?
O5 C2 K1 58.1(3) . . ?
O3 C2 K1 174.7(4) . . ?
O1 C2 K1 56.8(3) . . ?
O2 B1 O2 109.0(7) . 2_665 ?
O2 B1 O3 111.3(2) . . ?
O2 B1 O3 108.6(2) 2_665 . ?
O2 B1 O3 108.6(2) . 2_665 ?
O2 B1 O3 111.3(2) 2_665 2_665 ?
O3 B1 O3 107.9(7) . 2_665 ?
O1 K1 O1 144.0(2) 2_765 . ?
O1 K1 O5 47.64(11) 2_765 2_765 ?
O1 K1 O5 146.05(14) . 2_765 ?
O1 K1 O5 146.05(14) 2_765 . ?
O1 K1 O5 47.64(11) . . ?
O5 K1 O5 150.8(3) 2_765 . ?
O1 K1 O6 83.67(15) 2_765 . ?
O1 K1 O6 69.28(13) . . ?
O5 K1 O6 85.90(17) 2_765 . ?
O5 K1 O6 116.73(13) . . ?
O1 K1 O6 69.28(13) 2_765 2_765 ?
O1 K1 O6 83.67(15) . 2_765 ?
O5 K1 O6 116.73(13) 2_765 2_765 ?
O5 K1 O6 85.90(17) . 2_765 ?
O6 K1 O6 82.7(2) . 2_765 ?
O1 K1 O2 91.18(13) 2_765 7 ?
O1 K1 O2 123.19(13) . 7 ?
O5 K1 O2 72.91(15) 2_765 7 ?
O5 K1 O2 80.26(13) . 7 ?
O6 K1 O2 155.12(13) . 7 ?
O6 K1 O2 118.24(12) 2_765 7 ?
O1 K1 O2 123.19(13) 2_765 8_645 ?
O1 K1 O2 91.18(13) . 8_645 ?
O5 K1 O2 80.26(13) 2_765 8_645 ?
O5 K1 O2 72.91(15) . 8_645 ?
O6 K1 O2 118.24(12) . 8_645 ?
O6 K1 O2 155.12(13) 2_765 8_645 ?
O2 K1 O2 46.41(15) 7 8_645 ?
O1 K1 C2 154.92(17) 2_765 . ?
O1 K1 C2 24.28(15) . . ?
O5 K1 C2 157.27(16) 2_765 . ?
O5 K1 C2 23.43(15) . . ?
O6 K1 C2 93.54(16) . . ?
O6 K1 C2 85.65(17) 2_765 . ?
O2 K1 C2 100.99(17) 7 . ?
O2 K1 C2 80.02(17) 8_645 . ?
O1 K1 C2 24.28(15) 2_765 2_765 ?
O1 K1 C2 154.92(17) . 2_765 ?
O5 K1 C2 23.43(15) 2_765 2_765 ?
O5 K1 C2 157.26(16) . 2_765 ?
O6 K1 C2 85.65(17) . 2_765 ?
O6 K1 C2 93.54(16) 2_765 2_765 ?
O2 K1 C2 80.02(17) 7 2_765 ?
O2 K1 C2 100.99(17) 8_645 2_765 ?
C2 K1 C2 178.9(3) . 2_765 ?
C1 O1 C2 119.7(5) . . ?
C1 O1 K1 141.1(3) . . ?
C2 O1 K1 98.9(3) . . ?
C1 O2 B1 123.2(4) . . ?
C1 O2 K1 107.0(4) . 7_454 ?
B1 O2 K1 102.3(4) . 7_454 ?
C2 O3 B1 123.5(4) . . ?
C2 O5 K1 98.5(3) . . ?
K1 O6 H6A 118(6) . . ?
K1 O6 H6B 119(3) . . ?
H6A O6 H6B 103(4) . . ?
loop_
_geom_bond_atom_site_label_1
_geom_bond_atom_site_label_2
_geom_bond_distance
_geom_bond_site_symmetry_2
_geom_bond_publ_flag
C1 O2 1.348(7) . ?
C1 O4 1.349(8) . ?
C1 O1 1.372(8) . ?
C2 O5 1.338(8) . ?
C2 O3 1.359(7) . ?
C2 O1 1.386(8) . ?
C2 K1 3.329(6) . ?
B1 O2 1.469(7) . ?
B1 O2 1.469(7) 2_665 ?
B1 O3 1.478(7) . ?
B1 O3 1.478(7) 2_665 ?
K1 O1 2.820(4) 2_765 ?
K1 O1 2.820(4) . ?
K1 O5 2.857(4) 2_765 ?
K1 O5 2.857(4) . ?
K1 O6 2.903(5) . ?
K1 O6 2.903(5) 2_765 ?
K1 O2 3.035(5) 7 ?
K1 O2 3.035(5) 8_645 ?
K1 C2 3.329(6) 2_765 ?
O2 K1 3.035(5) 7_454 ?
O6 H6A 0.83(3) . ?
O6 H6B 0.83(3) . ?
loop_
_geom_hbond_atom_site_label_D
_geom_hbond_atom_site_label_H
_geom_hbond_atom_site_label_A
_geom_hbond_distance_DH
_geom_hbond_distance_HA
_geom_hbond_distance_DA
_geom_hbond_angle_DHA
_geom_hbond_site_symmetry_A
O6 H6A O2 0.83(3) 2.11(3) 2.921(6) 167(8) 3
O6 H6B O4 0.83(3) 1.97(8) 2.676(7) 142(10) .
loop_
_geom_torsion_atom_site_label_1
_geom_torsion_atom_site_label_2
_geom_torsion_atom_site_label_3
_geom_torsion_atom_site_label_4
_geom_torsion
_geom_torsion_site_symmetry_1
_geom_torsion_site_symmetry_2
_geom_torsion_site_symmetry_3
_geom_torsion_site_symmetry_4
_geom_torsion_publ_flag
O2 C1 O1 C2 0.2(10) . . . . ?
O4 C1 O1 C2 -179.5(6) . . . . ?
O2 C1 O1 K1 173.1(4) . . . . ?
O4 C1 O1 K1 -6.6(11) . . . . ?
O5 C2 O1 C1 -178.9(6) . . . . ?
O3 C2 O1 C1 0.9(10) . . . . ?
K1 C2 O1 C1 175.5(7) . . . . ?
O5 C2 O1 K1 5.6(7) . . . . ?
O3 C2 O1 K1 -174.6(6) . . . . ?
O4 C1 O2 B1 179.0(6) . . . . ?
O1 C1 O2 B1 -0.7(9) . . . . ?
O4 C1 O2 K1 -63.2(7) . . . 7_454 ?
O1 C1 O2 K1 117.1(6) . . . 7_454 ?
O2 B1 O2 C1 120.1(6) 2_665 . . . ?
O3 B1 O2 C1 0.2(8) . . . . ?
O3 B1 O2 C1 -118.5(5) 2_665 . . . ?
O2 B1 O2 K1 0.000(2) 2_665 . . 7_454 ?
O3 B1 O2 K1 -119.8(5) . . . 7_454 ?
O3 B1 O2 K1 121.5(4) 2_665 . . 7_454 ?
O5 C2 O3 B1 178.3(7) . . . . ?
O1 C2 O3 B1 -1.4(10) . . . . ?
O2 B1 O3 C2 0.8(8) . . . . ?
O2 B1 O3 C2 -119.2(6) 2_665 . . . ?
O3 B1 O3 C2 120.0(6) 2_665 . . . ?
O3 C2 O5 K1 174.7(6) . . . . ?
O1 C2 O5 K1 -5.5(7) . . . . ?
