#------------------------------------------------------------------------------
#$Date: 2024-04-05 03:18:32 +0300 (Fri, 05 Apr 2024) $
#$Revision: 291071 $
#$URL: file:///home/coder/svn-repositories/cod/cif/1/57/08/1570857.cif $
#------------------------------------------------------------------------------
#
# This file is available in the Crystallography Open Database (COD),
# http://www.crystallography.net/
#
# All data on this site have been placed in the public domain by the
# contributors.
#
data_1570857
loop_
_publ_author_name
'Shan, Si-Yi'
'Zhang, Wei'
'Cao, Qing'
'Ye, Yun-Cong'
'Cai, Zhongzheng'
'Zhu, Jian-Bo'
_publ_section_title
;
 cis-Fused cyclohexane promoted the chemical recycling of polycarbonate to
 monomer
;
_journal_issue                   11
_journal_name_full               'Polymer Chemistry'
_journal_page_first              1070
_journal_page_last               1076
_journal_paper_doi               10.1039/D4PY00005F
_journal_volume                  15
_journal_year                    2024
_chemical_absolute_configuration ad
_chemical_formula_moiety         'C9 H14 O3'
_chemical_formula_sum            'C9 H14 O3'
_chemical_formula_weight         170.20
_space_group_crystal_system      orthorhombic
_space_group_IT_number           19
_space_group_name_Hall           'P 2ac 2ab'
_space_group_name_H-M_alt        'P 21 21 21'
_atom_sites_solution_hydrogens   geom
_atom_sites_solution_primary     dual
_audit_creation_date             2023-10-10
_audit_creation_method
;
Olex2 1.3
(compiled 2020.11.12 svn.r5f609507 for OlexSys, GUI svn.r6408)
;
_audit_update_record
;
2023-10-15 deposited with the CCDC.	2024-01-31 downloaded from the CCDC.
;
_cell_angle_alpha                90
_cell_angle_beta                 90
_cell_angle_gamma                90
_cell_formula_units_Z            4
_cell_length_a                   5.3341(11)
_cell_length_b                   7.7048(16)
_cell_length_c                   20.413(4)
_cell_measurement_reflns_used    9671
_cell_measurement_temperature    150(2)
_cell_measurement_theta_max      68.487
_cell_measurement_theta_min      4.332
_cell_volume                     838.9(3)
_computing_cell_refinement       'SAINT V8.40B (?, 2016)'
_computing_data_reduction        'SAINT V8.40B (?, 2016)'
_computing_molecular_graphics    'Olex2 1.3 (Dolomanov et al., 2009)'
_computing_publication_material  'Olex2 1.3 (Dolomanov et al., 2009)'
_computing_structure_refinement  'SHELXL 2014/7 (Sheldrick, 2015)'
_computing_structure_solution    'SHELXT 2018/2 (Sheldrick, 2018)'
_diffrn_ambient_temperature      150.0
_diffrn_measured_fraction_theta_full 1.000
_diffrn_measured_fraction_theta_max 0.999
_diffrn_measurement_device_type  'Bruker APEX-II CCD'
_diffrn_measurement_method       '\f and \w scans'
_diffrn_radiation_type           CuK\a
_diffrn_radiation_wavelength     1.54178
_diffrn_reflns_av_R_equivalents  0.0712
_diffrn_reflns_av_unetI/netI     0.0318
_diffrn_reflns_Laue_measured_fraction_full 1.000
_diffrn_reflns_Laue_measured_fraction_max 0.999
_diffrn_reflns_limit_h_max       6
_diffrn_reflns_limit_h_min       -6
_diffrn_reflns_limit_k_max       9
_diffrn_reflns_limit_k_min       -9
_diffrn_reflns_limit_l_max       24
_diffrn_reflns_limit_l_min       -24
_diffrn_reflns_number            17245
_diffrn_reflns_point_group_measured_fraction_full 1.000
_diffrn_reflns_point_group_measured_fraction_max 0.996
_diffrn_reflns_theta_full        67.679
_diffrn_reflns_theta_max         68.606
_diffrn_reflns_theta_min         4.332
_diffrn_source_current           1.1
_diffrn_source_power             0.055
_diffrn_source_voltage           50.0
_diffrn_standards_number         0
_exptl_absorpt_coefficient_mu    0.825
_exptl_absorpt_correction_T_max  0.7531
_exptl_absorpt_correction_T_min  0.4586
_exptl_absorpt_correction_type   multi-scan
_exptl_absorpt_process_details
;
SADABS-2016/2 (Bruker,2016/2) was used for absorption correction.
wR2(int) was 0.1507 before and 0.0940 after correction.
The Ratio of minimum to maximum transmission is 0.6089.
The \l/2 correction factor is Not present.
;
_exptl_crystal_colour            'clear light colourless'
_exptl_crystal_colour_lustre     clear
_exptl_crystal_colour_modifier   light
_exptl_crystal_colour_primary    colourless
_exptl_crystal_density_diffrn    1.348
_exptl_crystal_description       block
_exptl_crystal_F_000             368
_exptl_crystal_size_max          0.5
_exptl_crystal_size_mid          0.45
_exptl_crystal_size_min          0.23
_refine_diff_density_max         0.136
_refine_diff_density_min         -0.191
_refine_diff_density_rms         0.051
_refine_ls_abs_structure_details
;
 Flack x determined using 600 quotients [(I+)-(I-)]/[(I+)+(I-)]
 (Parsons, Flack and Wagner, Acta Cryst. B69 (2013) 249-259).
;
_refine_ls_abs_structure_Flack   0.16(7)
_refine_ls_extinction_method     none
_refine_ls_goodness_of_fit_ref   1.096
_refine_ls_hydrogen_treatment    constr
_refine_ls_matrix_type           full
_refine_ls_number_parameters     109
_refine_ls_number_reflns         1555
_refine_ls_number_restraints     0
_refine_ls_restrained_S_all      1.096
_refine_ls_R_factor_all          0.0312
_refine_ls_R_factor_gt           0.0310
_refine_ls_shift/su_max          0.001
_refine_ls_shift/su_mean         0.000
_refine_ls_structure_factor_coef Fsqd
_refine_ls_weighting_details
'w=1/[\s^2^(Fo^2^)+(0.0402P)^2^+0.1664P] where P=(Fo^2^+2Fc^2^)/3'
_refine_ls_weighting_scheme      calc
_refine_ls_wR_factor_gt          0.0774
_refine_ls_wR_factor_ref         0.0775
_reflns_Friedel_coverage         0.642
_reflns_Friedel_fraction_full    1.000
_reflns_Friedel_fraction_max     0.990
_reflns_number_gt                1543
_reflns_number_total             1555
_reflns_threshold_expression     'I > 2\s(I)'
_cod_data_source_file            d4py00005f2.cif
_cod_data_source_block           cu_zjb__ssy_5_78_1_150k_0m_a
_cod_depositor_comments          'Adding full bibliography for 1570857.cif.'
_cod_database_code               1570857
_shelx_shelxl_version_number     2014/7
_shelx_space_group_comment
;
The symmetry employed for this shelxl refinement is uniquely defined
by the following loop, which should always be used as a source of
symmetry information in preference to the above space-group names.
They are only intended as comments.
;
_shelx_estimated_absorpt_t_max   0.833
_shelx_estimated_absorpt_t_min   0.683
_olex2_refinement_description
;
1. Fixed Uiso
 At 1.2 times of:
  All C(H) groups, All C(H,H) groups
2.a Ternary CH refined with riding coordinates:
 C3(H3), C7(H7)
2.b Secondary CH2 refined with riding coordinates:
 C1(H1A,H1B), C2(H2A,H2B), C4(H4A,H4B), C6(H6A,H6B), C8(H8A,H8B), C9(H9A,H9B)
;
_shelx_res_file
;
    cu_zjb__ssy_5_78_1_150k_0m_a.res created by SHELXL-2014/7

TITL cu_ZJB__SSY_5_78_1_150K_0m_a.res in P2(1)2(1)2(1)
CELL 1.54178 5.3341 7.7048 20.413 90 90 90
ZERR 4 0.0011 0.0016 0.004 0 0 0
LATT -1
SYMM 0.5+X,0.5-Y,-Z
SYMM -X,0.5+Y,0.5-Z
SYMM 0.5-X,-Y,0.5+Z
SFAC C H O
UNIT 36 56 12

L.S. 4
PLAN  5 0 0
SIZE 0.23 0.45 0.5
TEMP -123.15
CONF
HTAB
BOND $H
fmap 2
acta
MORE -1
REM <olex2.extras>
REM <HklSrc "%.\\cu_ZJB__SSY_5_78_1_150K_0m_a.hkl">
REM </olex2.extras>

WGHT    0.040200    0.166400
FVAR       1.06378
O1    3    0.469417    0.186912    0.580275    11.00000    0.02843    0.02218 =
         0.01971    0.00250    0.00403    0.00617
O2    3    0.704000    0.017898    0.642439    11.00000    0.02879    0.02605 =
         0.03427    0.00496    0.00161    0.00804
O3    3    0.413982    0.177659    0.691416    11.00000    0.03739    0.01662 =
         0.02015    0.00193    0.00380    0.00534
C1    1    0.197261    0.725474    0.580424    11.00000    0.04274    0.01680 =
         0.03330    0.00549   -0.00104    0.00077
AFIX  23
H1A   2    0.024868    0.748351    0.564669    11.00000   -1.20000
H1B   2    0.309510    0.814113    0.561125    11.00000   -1.20000
AFIX   0
C2    1    0.279837    0.545693    0.558029    11.00000    0.03596    0.01813 =
         0.02331    0.00386    0.00220    0.00084
AFIX  23
H2A   2    0.458561    0.528516    0.569387    11.00000   -1.20000
H2B   2    0.263804    0.537737    0.509805    11.00000   -1.20000
AFIX   0
C3    1    0.123013    0.401899    0.589861    11.00000    0.02263    0.01610 =
         0.02226   -0.00059   -0.00322    0.00069
AFIX  13
H3    2   -0.052782    0.418088    0.573977    11.00000   -1.20000
AFIX   0
C4    1    0.203146    0.222745    0.568171    11.00000    0.02816    0.01908 =
         0.02066   -0.00160   -0.00418    0.00065
AFIX  23
H4A   2    0.100856    0.135324    0.591598    11.00000   -1.20000
H4B   2    0.169044    0.210164    0.520735    11.00000   -1.20000
AFIX   0
C5    1    0.538385    0.121764    0.638304    11.00000    0.02244    0.01391 =
         0.02358    0.00133    0.00123   -0.00250
C6    1    0.358768    0.363466    0.696967    11.00000    0.03209    0.01470 =
         0.02094   -0.00317   -0.00259    0.00213
AFIX  23
H6A   2    0.497197    0.429983    0.676638    11.00000   -1.20000
H6B   2    0.352242    0.395226    0.743930    11.00000   -1.20000
AFIX   0
C7    1    0.113685    0.415830    0.664772    11.00000    0.02267    0.01396 =
         0.02264   -0.00065    0.00340   -0.00153
AFIX  13
H7    2   -0.019562    0.334971    0.680774    11.00000   -1.20000
AFIX   0
C8    1    0.203991    0.739765    0.655105    11.00000    0.03136    0.01332 =
         0.03560   -0.00465   -0.00110    0.00180
AFIX  23
H8A   2    0.378880    0.727067    0.670618    11.00000   -1.20000
H8B   2    0.142966    0.855756    0.668561    11.00000   -1.20000
AFIX   0
C9    1    0.041477    0.600468    0.686265    11.00000    0.02655    0.01794 =
         0.02974   -0.00530    0.00278    0.00325
AFIX  23
H9A   2   -0.135864    0.622008    0.674495    11.00000   -1.20000
H9B   2    0.056023    0.608940    0.734508    11.00000   -1.20000
AFIX   0
HKLF 4

REM  cu_ZJB__SSY_5_78_1_150K_0m_a.res in P2(1)2(1)2(1)
REM R1 =  0.0310 for    1543 Fo > 4sig(Fo)  and  0.0312 for all    1555 data
REM    109 parameters refined using      0 restraints

END

WGHT      0.0402      0.1664

REM Instructions for potential hydrogen bonds
EQIV $1 x-1, y, z
HTAB C4 O2_$1
EQIV $2 x-1/2, -y+1/2, -z+1
HTAB C4 O1_$2
EQIV $3 -x+1, y+1/2, -z+3/2
HTAB C6 O2_$3

REM Highest difference peak  0.136,  deepest hole -0.191,  1-sigma level  0.051
Q1    1  -0.2839  0.5514  0.6797  11.00000  0.05    0.14
Q2    1   0.1256  0.0802  0.5743  11.00000  0.05    0.14
Q3    1   0.0564  0.5108  0.6779  11.00000  0.05    0.13
Q4    1   0.7038  0.5108  0.5550  11.00000  0.05    0.13
Q5    1  -0.1979  0.3581  0.5642  11.00000  0.05    0.13
;
_shelx_res_checksum              77375
_shelx_hkl_file
;
  -1   0   0    0.10    0.50
  -1   0   0   -0.20    0.20
  -1   0   0    0.10    0.10
   1   0   0    0.10    1.80
   1   0   0    0.20    0.20
   1   0   0    0.80    0.30
   1   0   0   -0.10    0.20
  -2   0   0   20.20    1.80
  -2   0   0   26.90    2.90
  -2   0   0   22.80    2.50
  -2   0   0   22.30    1.90
   2   0   0   30.40    6.40
   2   0   0   26.80    1.90
   2   0   0   24.20    2.00
  -3   0   0    0.80    0.30
  -3   0   0   -0.20    1.50
  -3   0   0    0.50    0.20
  -3   0   0    0.10    0.30
  -3   0   0    0.40    2.50
  -3   0   0    0.00    0.40
   3   0   0    2.40   11.80
   3   0   0  -18.00   18.60
   3   0   0    0.00    0.50
  -4   0   0   24.00    2.60
  -4   0   0   28.10    2.30
  -4   0   0   27.00    2.40
  -4   0   0   27.60    2.30
  -4   0   0   26.70    2.80
   4   0   0   28.90    2.80
   4   0   0   30.30    3.10
   4   0   0   34.00    4.20
   4   0   0   27.90    5.40
  -5   0   0    0.00    0.60
  -5   0   0    0.40    0.40
  -5   0   0    0.30    0.40
   5   0   0    0.00    1.10
   5   0   0    0.40    1.50
   5   0   0    0.30    1.50
   5   0   0    0.30    2.80
   5   0   0   -0.50    1.70
   5   0   0   -0.50    1.10
  -6   0   0    1.20    0.70
  -6   0   0    0.30    0.40
  -6   0   0    0.80    0.40
   6   0   0    0.80    0.60
   6   0   0    0.90    1.40
   6   0   0   -0.60    2.20
   6  -1   0   28.20    2.60
   6  -1   0   33.60    4.00
   6  -1   0   25.40    3.80
  -6   1   0   31.60    2.50
  -6   1   0   33.40    2.50
   5  -1   0    0.50    1.50
   5  -1   0    0.70    2.80
   5  -1   0    0.70    1.40
   5  -1   0    1.00    1.30
   5  -1   0    1.10    1.80
   5  -1   0    0.40    0.70
  -5   1   0   -0.10    0.30
  -5   1   0    0.80    0.40
   4  -1   0   67.89    6.60
   4  -1   0   65.29    6.40
   4  -1   0   68.49    5.30
   4  -1   0   60.29    5.30
  -4   1   0   61.29    5.30
  -4   1   0   53.19    5.10
  -4   1   0   61.49    4.70
  -4   1   0   59.99    4.80
   3  -1   0   11.30    1.20
   3  -1   0    8.80    1.30
   3  -1   0   14.20   10.80
  -3   1   0    9.90    2.10
  -3   1   0    8.80    0.90
  -3   1   0    9.10    0.90
  -3   1   0    8.40    1.20
   2  -1   0  470.05   35.20
   2  -1   0  537.55   37.00
   2  -1   0  412.46   36.90
   2  -1   0  476.45   35.10
  -2   1   0  480.65   35.00
  -2   1   0  462.45   35.00
  -2   1   0  465.55   35.30
  -2   1   0  463.65   35.00
   0  -1   0    0.40    0.40
   0  -1   0    0.40    0.20
   0  -1   0    0.30    0.20
   0  -1   0    0.20    0.30
   0   1   0    0.30    0.20
   0   1   0    0.30    0.30
   0   1   0    0.40    1.30
   1   1   0 4891.81  375.56
   1   1   0 5154.68  375.76
  -2  -1   0  462.15   34.00
  -2  -1   0  483.35   35.00
  -2  -1   0  425.26   33.20
  -2  -1   0  394.16   34.00
  -2  -1   0  452.35   33.20
   2   1   0  411.76   42.20
   2   1   0  435.96   33.20
   2   1   0  509.25   39.30
  -3  -1   0    9.80    1.00
  -3  -1   0    8.80    0.90
  -3  -1   0    9.80    0.90
  -3  -1   0    8.80    1.30
  -3  -1   0    8.20    2.50
   3   1   0    9.80    1.20
   3   1   0    7.10   15.10
  -4  -1   0   62.19    5.00
  -4  -1   0   60.89    5.30
  -4  -1   0   53.99    5.00
  -4  -1   0   66.59    4.80
  -4  -1   0   63.09    4.90
   4   1   0   62.79    5.70
   4   1   0   61.49    5.20
   4   1   0   70.09    8.10
  -5  -1   0    0.20    0.40
  -5  -1   0    0.20    0.60
  -5  -1   0    0.20    0.40
   5   1   0    2.50    2.60
   5   1   0    0.00    1.50
   5   1   0    0.30    1.10
   5   1   0    1.50    1.70
   5   1   0    1.20    3.00
  -6  -1   0   37.60    2.80
  -6  -1   0   31.70    2.80
  -6  -1   0   33.50    2.70
   6   1   0   31.30    3.80
   6   1   0   32.10    2.80
   6  -2   0    7.90    2.10
   6  -2   0    7.70    2.00
   6  -2   0    7.10    2.90
  -6   2   0    9.50    0.90
   5  -2   0   48.90    5.60
   5  -2   0   42.30    3.70
  -5   2   0   45.90    3.50
  -5   2   0   42.90    3.50
   4  -2   0   18.30    4.20
   4  -2   0   10.40    1.50
   4  -2   0   11.20    2.90
   4  -2   0    8.50    1.60
   4  -2   0   15.20    4.60
  -4   2   0   10.60    1.00
  -4   2   0   12.60    1.90
  -4   2   0    8.60    1.00
   3  -2   0   77.79    6.10
   3  -2   0   77.99    6.20
   3  -2   0   81.99    8.00
   3  -2   0   68.59    7.00
  -3   2   0   75.69    5.90
  -3   2   0   84.59    5.80
  -3   2   0   71.29    6.20
   2  -2   0   84.99    6.50
   2  -2   0   86.89    6.50
  -2   2   0   77.39    6.30
  -2   2   0   85.59    6.50
   0  -2   0  954.90   68.59
   0  -2   0  859.31   68.39
   0  -2   0  914.91   68.19
   0  -2   0  992.90   68.59
   0   2   0 1015.10   68.19
   0   2   0  842.62   70.49
   0   2   0  832.02   70.69
  -1  -2   0 1789.62  126.19
  -1  -2   0 1792.82  126.29
  -1  -2   0 1643.14  125.99
   1   2   0 1828.32  125.39
   1   2   0 1696.33  125.39
   1   2   0 1441.36  129.49
   1   2   0 1615.94  129.99
  -2  -2   0   79.99    6.50
  -2  -2   0   80.09    7.70
  -2  -2   0   84.59    7.90
   2   2   0   66.49   14.10
   2   2   0   83.89    6.60
   2   2   0   98.49    6.50
   2   2   0   81.79    6.50
   2   2   0   89.09    6.40
  -3  -2   0   72.19    6.00
  -3  -2   0   78.59    5.90
  -3  -2   0   93.29   10.60
  -3  -2   0   74.99    5.70
  -3  -2   0   75.69    5.80
   3   2   0   47.90   25.30
   3   2   0   63.99    6.50
   3   2   0   79.09    5.90
  -4  -2   0   10.70    1.60
  -4  -2   0   11.80    1.20
  -4  -2   0   10.90    1.30
  -4  -2   0   11.80    1.40
  -4  -2   0    9.30    1.80
   4   2   0   11.50    1.70
   4   2   0   13.00    3.00
   4   2   0    6.60    3.70
  -5  -2   0   45.20    3.70
  -5  -2   0   43.30    3.80
  -5  -2   0   46.50    3.60
   5   2   0   49.70    5.30
   5   2   0   45.30    4.50
   5   2   0   33.30    6.50
  -6  -2   0    9.70    1.10
  -6  -2   0    8.30    1.20
  -6  -2   0   11.30    1.10
   6   2   0    7.50    2.00
   6   2   0   10.70    1.20
   6   2   0    2.50    4.20
   6  -3   0    0.10    1.90
   6  -3   0    0.30    0.80
   6  -3   0    0.90    1.20
   5  -3   0   78.99    7.60
   5  -3   0   73.99    8.70
   5  -3   0   71.89    6.20
   5  -3   0   79.49    7.60
  -5   3   0   86.59    6.00
  -5   3   0   78.29    6.00
   4  -3   0   15.30    3.60
   4  -3   0   14.40    3.00
   4  -3   0   11.40    2.30
   4  -3   0   13.10    3.00
   4  -3   0   14.80    1.70
   4  -3   0   15.50    2.30
  -4   3   0   11.80    2.20
  -4   3   0   15.30    1.30
   3  -3   0    2.30    1.70
   3  -3   0    3.60    1.10
   3  -3   0    5.10    0.90
   3  -3   0    2.50    2.30
   3  -3   0    3.40    1.00
   3  -3   0    4.40    1.70
  -3   3   0    4.60    0.90
  -3   3   0    3.10    0.90
   2  -3   0  748.03   57.99
   2  -3   0  832.32   57.99
  -2   3   0  789.42   58.09
  -2   3   0  720.83   57.69
  -2   3   0  825.02   57.99
  -2   3   0  749.53   57.99
   1  -3   0  975.20   73.69
   1  -3   0  954.30   73.49
   1  -3   0  989.90   73.69
   1  -3   0 1105.39   73.79
   1  -3   0  999.70   73.69
  -1   3   0  977.10   73.59
  -1   3   0  993.30   73.39
  -1   3   0  910.91   75.09
   0  -3   0   -0.30    0.40
   0  -3   0    0.50    0.70
   0  -3   0    0.70    0.80
   0  -3   0    0.60    1.40
   0  -3   0    0.10    0.80
   0   3   0   -0.70    4.90
   0   3   0   -0.10    5.30
   0   3   0    0.10    0.40
  -1  -3   0 1129.59   76.89
  -1  -3   0  901.11   76.49
  -1  -3   0 1088.49   76.99
  -1  -3   0  986.50   75.79
  -1  -3   0 1058.79   75.79
  -1  -3   0  910.81   75.69
   1   3   0 1109.09   75.89
   1   3   0  991.00   75.89
   1   3   0  987.70   82.69
   1   3   0 1029.10   75.69
  -2  -3   0  753.12   56.09
  -2  -3   0  728.83   57.79
  -2  -3   0  723.23   56.29
  -2  -3   0  719.43   57.79
  -2  -3   0  715.93   57.39
  -2  -3   0  777.12   56.19
  -2  -3   0  750.12   56.19
   2   3   0  805.32   56.39
   2   3   0  696.13   56.09
   2   3   0  864.11   56.29
   2   3   0  818.32   56.09
   2   3   0  676.43   68.79
  -3  -3   0    3.30    0.50
  -3  -3   0    3.80    4.70
  -3  -3   0    2.10    0.60
  -3  -3   0    2.90    0.80
  -3  -3   0    3.90    0.80
  -3  -3   0    3.60    3.10
  -3  -3   0    3.50    0.80
   3   3   0    3.50    0.80
   3   3   0    3.50    1.70
   3   3   0    4.70    0.90
  -4  -3   0   15.00    1.80
  -4  -3   0   13.10    1.50
  -4  -3   0   15.50    2.30
  -4  -3   0   12.50    2.00
  -4  -3   0   14.40    1.80
   4   3   0   14.30    1.80
   4   3   0   16.50    2.80
   4   3   0   13.30    4.80
  -5  -3   0   80.49    6.40
  -5  -3   0   90.29    6.60
  -5  -3   0   77.79    6.50
   5   3   0   89.89    7.40
   5   3   0   84.99    7.70
   5   3   0   71.09    9.90
  -6  -3   0    0.50    0.40
  -6  -3   0   -0.30    0.40
   6   3   0    0.50    0.40
   6   3   0   -0.30    1.10
   5  -4   0    9.20    2.50
   5  -4   0   11.80    2.60
   5  -4   0   16.20    3.90
   5  -4   0   12.90    2.80
   4  -4   0  262.67   20.80
   4  -4   0  282.87   19.70
   4  -4   0  300.37   21.20
   4  -4   0  229.88   21.00
   4  -4   0  262.07   20.10
   4  -4   0  225.28   20.60
   3  -4   0 1135.09   79.29
   3  -4   0  916.61   80.19
   3  -4   0 1167.48   80.39
   3  -4   0 1116.99   79.99
   3  -4   0  965.00   80.59
   3  -4   0 1015.70   79.99
   3  -4   0 1120.99   79.39
  -3   4   0 1068.19   80.39
  -3   4   0 1048.70   79.19
   2  -4   0 1827.22  143.89
   2  -4   0 1707.23  144.79
   2  -4   0 1946.21  144.09
   2  -4   0 2182.88  144.49
  -2   4   0 1959.30  143.79
  -2   4   0 2087.19  144.09
  -2   4   0 1868.21  143.99
  -2   4   0 1905.41  143.69
   1  -4   0  229.98   16.70
   1  -4   0  188.78   16.80
   1  -4   0  200.78   16.90
   1  -4   0  253.37   16.90
  -1   4   0  226.98   16.30
  -1   4   0  208.08   21.10
   0  -4   0   39.50    5.00
   0  -4   0   36.90    3.50
   0  -4   0   28.70    2.80
   0  -4   0   27.00    4.80
   0  -4   0   33.30    4.10
   0   4   0   26.90    2.60
   0   4   0   21.30   13.00
   0   4   0   31.30    2.60
   0   4   0   33.50    2.80
  -1  -4   0  219.18   18.90
  -1  -4   0  243.98   18.00
  -1  -4   0  249.58   19.80
  -1  -4   0  265.87   19.60
   1   4   0  229.28   18.10
   1   4   0  219.48   17.80
   1   4   0  239.58   17.80
   1   4   0  214.58   33.10
   1   4   0  249.97   18.10
  -2  -4   0 1637.94  144.99
  -2  -4   0 1994.10  145.19
  -2  -4   0 2106.29  146.79
  -2  -4   0 2063.29  145.19
  -2  -4   0 2082.99  145.19
   2   4   0 1970.90  145.29
   2   4   0 1937.71  144.99
   2   4   0 1929.71  164.18
   2   4   0 1888.61  166.28
   2   4   0 1791.22  145.19
   2   4   0 1879.21  145.29
   2   4   0 2136.39  145.09
  -3  -4   0 1193.88   81.29
  -3  -4   0 1062.29   81.19
  -3  -4   0 1007.20   81.09
  -3  -4   0 1048.00   83.59
  -3  -4   0 1135.99   81.39
  -3  -4   0 1105.79   81.49
   3   4   0 1076.99   82.19
   3   4   0 1098.09   81.39
  -4  -4   0  250.07   20.80
  -4  -4   0  255.47   20.90
  -4  -4   0  314.87   21.90
   4   4   0  296.17   21.00
   4   4   0  273.17   22.00
  -5  -4   0   20.00    1.80
  -5  -4   0   13.10    2.00
  -5  -4   0   13.60    1.50
   5   4   0   15.90    3.00
   5   4   0   16.50    2.50
   5  -5   0   19.30    2.80
   5  -5   0   27.30    3.30
   5  -5   0   22.80    2.90
   4  -5   0   -0.10    1.40
   4  -5   0   -0.10    1.60
   4  -5   0   -0.10    1.70
   4  -5   0   -0.20    1.50
   4  -5   0   -0.30    1.80
   3  -5   0  992.30   71.59
   3  -5   0  877.61   72.69
   3  -5   0  909.81   71.99
   3  -5   0  988.40   72.59
   3  -5   0 1083.49   73.59
   3  -5   0  943.91   72.49
   3  -5   0  931.91   72.69
   2  -5   0  355.96   26.40
   2  -5   0  339.57   26.10
   2  -5   0  313.77   27.10
   2  -5   0  332.67   27.00
   2  -5   0  364.06   25.80
  -2   5   0  322.37   26.00
  -2   5   0  334.87   25.50
  -2   5   0  372.56   26.10
   1  -5   0  129.39   11.00
   1  -5   0  127.69    9.90
   1  -5   0  148.09   10.20
  -1   5   0  110.39    9.90
  -1   5   0  120.49    9.80
  -1   5   0  126.49    9.40
  -1   5   0  114.99    9.40
   0  -5   0    0.40    0.60
   0  -5   0   -1.70    4.30
   0  -5   0   -0.90    1.30
   0  -5   0    0.30    1.00
   0  -5   0    2.60    1.60
   0   5   0   -0.70    0.80
   0   5   0    0.10    0.30
   0   5   0    0.50    0.30
   0   5   0   -0.30    0.60
  -1  -5   0  130.49    9.50
  -1  -5   0  108.09    9.80
  -1  -5   0  132.29   10.90
   1   5   0  114.59    9.70
   1   5   0  130.99    9.60
   1   5   0  128.49    9.30
   1   5   0  107.49    9.90
   1   5   0  121.79    9.20
  -2  -5   0  346.27   27.70
  -2  -5   0  299.07   26.30
  -2  -5   0  379.86   25.70
   2   5   0  366.66   25.60
   2   5   0  316.47   25.80
   2   5   0  328.77   25.60
   2   5   0  343.37   26.80
   2   5   0  355.96   26.00
  -3  -5   0 1015.80   75.79
  -3  -5   0  949.31   77.79
  -3  -5   0 1095.29   75.09
   3   5   0  947.71   75.99
   3   5   0  968.80   75.19
   3   5   0 1064.59   74.89
  -4  -5   0    0.60    0.60
  -4  -5   0   -0.60    1.20
   4   5   0    0.40    1.40
   4   5   0    1.00    0.70
  -5  -5   0   43.50    3.30
   5   5   0   36.40    3.90
   4  -6   0    2.10    1.80
   4  -6   0    0.40    2.20
   4  -6   0    2.30    1.50
   3  -6   0    7.00    2.20
   3  -6   0    6.60    2.80
   3  -6   0    8.30    2.90
   2  -6   0   54.59    5.20
   2  -6   0   57.59    6.30
   2  -6   0   59.09    6.50
  -2   6   0   60.19    6.40
  -2   6   0   54.99    4.50
  -2   6   0   62.89    4.50
   1  -6   0   80.19    7.40
   1  -6   0   68.29    5.90
   1  -6   0   67.09    6.10
  -1   6   0   72.09    5.50
  -1   6   0   65.99    5.40
  -1   6   0   70.09    6.00
   0  -6   0   55.69    5.80
   0  -6   0   57.99    4.80
   0   6   0   60.69    4.40
   0   6   0   52.39    4.30
   0   6   0   53.99    4.80
   0   6   0   48.20    4.60
  -1  -6   0   83.59    6.70
  -1  -6   0   84.59    7.20
  -1  -6   0   69.99    6.10
   1   6   0   68.29    6.30
   1   6   0   68.79    5.80
   1   6   0   69.59    6.20
   1   6   0   73.69    5.80
  -2  -6   0   71.79    6.10
  -2  -6   0   72.09   10.20
  -2  -6   0   63.29    5.20
   2   6   0   61.59    5.00
   2   6   0   65.79    6.80
   2   6   0   62.99    5.10
   2   6   0   63.09    5.40
   2   6   0   60.29    5.60
  -3  -6   0    8.80    9.10
  -3  -6   0   12.70    1.70
   3   6   0   11.70    3.00
   3   6   0    8.20    1.60
  -4  -6   0    2.60    0.70
  -4  -6   0    4.10    1.40
   4   6   0    3.10    1.50
   4   6   0    2.30    0.70
   4  -7   0  217.28   19.10
   4  -7   0  277.27   19.40
   3  -7   0    7.80    2.30
   3  -7   0    4.90    1.70
   2  -7   0   55.99    5.70
   2  -7   0   73.79    6.10
  -2   7   0   60.59    4.80
  -2   7   0   60.09    4.80
   1  -7   0   -0.30    1.10
   1  -7   0    0.50    1.00
   1  -7   0    1.10    1.20
   1  -7   0    0.50    1.50
  -1   7   0    0.70    0.40
  -1   7   0    0.60    0.40
   0  -7   0    1.30    1.20
   0  -7   0    1.30    2.30
   0  -7   0    0.20    1.20
   0  -7   0    2.30    1.00
   0  -7   0   -0.40    0.90
   0   7   0    0.90    0.50
   0   7   0    0.80    0.50
   0   7   0    0.20    0.70
  -1  -7   0    0.30    3.00
  -1  -7   0   -0.70    1.40
  -1  -7   0   -0.50    1.10
   1   7   0    0.60    0.70
   1   7   0    0.00    0.40
   1   7   0    0.40    0.60
  -2  -7   0   73.59   10.10
  -2  -7   0   75.49    6.10
   2   7   0   59.29    5.00
   2   7   0   58.19    5.00
   2   7   0   60.69    5.30
  -3  -7   0    4.30    1.40
   3   7   0    5.00    1.00
   3   7   0    7.20    3.30
   4   7   0  211.58   16.70
   4   7   0  222.28   16.30
   3  -8   0    7.00    1.90
   3  -8   0    5.70    1.40
   2  -8   0   78.29    7.00
   2  -8   0   92.69    7.60
  -2   8   0   75.69    6.20
  -2   8   0   80.19    6.30
   1  -8   0   11.80    2.60
   1  -8   0   13.80    2.30
  -1   8   0   14.90    1.30
  -1   8   0   13.40    1.30
   0  -8   0   38.90    4.20
   0  -8   0   40.70    3.90
   0   8   0   40.20    3.40
   0   8   0   39.30    3.20
   0   8   0   36.90    3.20
  -1  -8   0   15.90    2.20
  -1  -8   0   15.40    2.50
   1   8   0   13.70    1.40
   1   8   0   13.70    1.40
   1   8   0   13.60    1.70
   2   8   0   73.09    5.20
   2   8   0   53.09    5.00
   2   8   0   65.19    4.90
  -3  -8   0    6.50    1.20
   3   8   0    5.40    0.90
   1  -9   0   75.39    6.30
  -1   9   0   77.79    5.80
   0  -9   0   -0.40    1.00
   0  -9   0   -0.30    0.80
   0   9   0    0.60    0.50
   0   9   0    0.00    0.30
   0   9   0    0.50    0.40
  -1  -9   0   87.59    6.40
   1   9   0   68.89    5.90
   1   9   0   79.39    6.10
   1   9  -1   91.09    7.40
   1   9  -1  104.99    7.50
  -1  -9   1   99.69    7.80
   0   9  -1   93.29    7.10
   0   9  -1   79.49    7.10
   0   9  -1   95.89    7.10
   0  -9   1   90.59    7.50
   0  -9   1  108.59    8.20
  -1   9  -1  110.99    8.10
   1  -9   1  113.19    8.80
   1  -9   1  100.49    8.60
   3   8  -1   76.39    5.90
   2   8  -1   72.19    5.70
   2   8  -1   67.99    5.50
  -2  -8   1   75.59    6.00
   1   8  -1   24.40    2.40
   1   8  -1   24.30    2.00
   1   8  -1   21.00    2.10
  -1  -8   1   25.60    2.80
  -1  -8   1   25.00    3.20
   0   8  -1    0.30    0.40
   0   8  -1    0.10    0.60
   0   8  -1   -0.20    0.40
   0  -8   1    0.70    1.00
   0  -8   1    1.00    1.30
   0  -8   1    0.10    0.90
  -1   8  -1   23.40    2.00
  -1   8  -1   23.50    2.00
   1  -8   1   22.10    3.30
   1  -8   1   25.90    2.90
  -2   8  -1   72.59    5.60
  -2   8  -1   74.89    5.70
   2  -8   1   71.79    6.40
   4   7  -1   29.10    3.00
   4   7  -1   29.70    2.50
   3   7  -1   68.69    5.60
   2   7  -1  230.08   17.30
   2   7  -1  229.68   17.20
   2   7  -1  227.98   17.50
   1   7  -1   22.80    2.10
   1   7  -1   18.70    1.80
   1   7  -1   19.20    2.20
  -1  -7   1   21.00    3.00
  -1  -7   1   20.00    2.90
  -1  -7   1   27.20    6.00
   0   7  -1   11.00    1.20
   0   7  -1   10.00    1.60
   0   7  -1    8.70    1.10
   0  -7   1   14.00    3.20
   0  -7   1   11.40    2.00
   0  -7   1   11.30    2.30
   0  -7   1    9.00    2.70
  -1   7  -1   20.30    1.70
  -1   7  -1   17.40    1.60
   1  -7   1   16.60    2.60
   1  -7   1   17.70    3.30
   1  -7   1   19.50    2.70
   1  -7   1   13.00    2.20
  -2   7  -1  252.77   18.20
  -2   7  -1  268.77   18.20
   2  -7   1  231.98   19.70
   2  -7   1  220.48   19.00
   2  -7   1  240.08   19.20
  -3   7  -1   57.19    4.70
   3  -7   1   66.99    5.90
   3  -7   1   63.19    6.10
   3  -7   1   57.99    6.50
   4  -7   1   20.10    4.70
   4  -7   1   25.30    2.90
   4   6  -1   21.80    3.10
   4   6  -1   21.60    2.10
  -4  -6   1   22.00    2.10
   3   6  -1  102.29    9.20
   3   6  -1  115.39   10.40
  -3  -6   1  124.39   19.50
  -3  -6   1  115.59    8.90
   2   6  -1  479.85   36.40
   2   6  -1  487.65   37.60
   2   6  -1  472.55   36.70
   2   6  -1  469.45   36.90
   2   6  -1  506.25   36.50
  -2  -6   1  482.05   36.50
  -2  -6   1  517.05   37.30
   1   6  -1 1106.19   85.19
   1   6  -1 1059.69   84.79
   1   6  -1 1134.79   84.79
  -1  -6   1 1228.38   85.89
  -1  -6   1 1218.48   85.49
  -1  -6   1 1093.79   85.09
   0   6  -1  474.55   33.80
   0   6  -1  473.95   33.30
   0   6  -1  426.36   33.50
   0   6  -1  432.36   33.20
   0  -6   1  396.66   34.40
   0  -6   1  512.45   33.90
   0  -6   1  392.96   33.40
   0  -6   1  457.65   33.70
  -1   6  -1 1091.79   76.09
  -1   6  -1 1071.69   76.49
  -1   6  -1  981.70   75.99
   1  -6   1 1046.00   77.59
   1  -6   1  987.10   76.19
   1  -6   1  938.81   77.49
   1  -6   1 1041.00   76.59
  -2   6  -1  419.26   35.50
  -2   6  -1  476.15   36.20
  -2   6  -1  489.75   35.50
   2  -6   1  540.25   36.70
   2  -6   1  459.45   36.20
   3  -6   1   51.89    8.00
   3  -6   1   61.59    7.10
   4  -6   1   22.20    3.70
   4  -6   1   22.60    4.00
   4  -6   1   18.30    3.10
   5   5  -1   41.20    4.20
  -5  -5   1   47.20    3.60
   4   5  -1   48.40    4.00
   4   5  -1   48.00    5.10
  -4  -5   1   44.50    4.90
  -4  -5   1   49.30    4.00
   3   5  -1   20.90    3.50
   3   5  -1   15.60    1.70
   3   5  -1   15.60    2.00
  -3  -5   1   19.20    3.00
  -3  -5   1   19.20    1.90
  -3  -5   1   15.80    6.20
   2   5  -1    4.90    0.70
   2   5  -1    4.10    2.70
   2   5  -1    6.30    2.20
   2   5  -1    2.60    1.00
   2   5  -1    5.40    1.00
   2   5  -1    5.00    0.70
  -2  -5   1    3.30    1.60
  -2  -5   1    4.20    2.80
  -2  -5   1    5.70    0.90
   1   5  -1  505.75   37.60
   1   5  -1  451.35   38.00
   1   5  -1  521.65   38.00
   1   5  -1  476.85   37.60
  -1  -5   1  550.64   39.10
  -1  -5   1  480.35   38.10
  -1  -5   1  545.05   37.80
   0   5  -1  422.56   33.10
   0   5  -1  477.35   33.50
   0   5  -1  395.46   33.50
   0   5  -1  468.25   33.10
   0  -5   1  449.06   33.50
   0  -5   1  489.25   33.60
   0  -5   1  407.26   34.10
  -1   5  -1  497.05   35.30
  -1   5  -1  427.96   35.80
  -1   5  -1  572.94   54.49
  -1   5  -1  499.35   35.80
  -1   5  -1  476.65   35.30
   1  -5   1  503.35   36.10
   1  -5   1  479.55   35.80
   1  -5   1  398.06   36.40
  -2   5  -1    4.70    0.60
  -2   5  -1    2.70    1.80
  -2   5  -1    5.40    1.50
   2  -5   1    6.80    1.80
   2  -5   1    4.10    1.80
   2  -5   1    4.80    2.70
   2  -5   1    3.40    1.10
  -3   5  -1   14.40    3.10
   3  -5   1   16.50    3.10
   3  -5   1   17.20    3.50
   3  -5   1   17.00    3.30
   3  -5   1   13.20    2.20
   3  -5   1   14.00    3.80
   3  -5   1    8.80    4.00
   4  -5   1   45.00    4.90
   4  -5   1   42.40    5.60
   4  -5   1   43.00    4.80
   4  -5   1   35.40    4.50
   4  -5   1   41.40    4.70
   5  -5   1   20.30    2.80
   5  -5   1   24.30    3.80
   5   4  -1   11.00    2.80
   5   4  -1   12.50    2.30
  -5  -4   1    8.90    1.40
  -5  -4   1    8.70    1.10
  -5  -4   1   13.80    1.40
   4   4  -1  367.66   25.20
   4   4  -1  309.67   28.10
   4   4  -1  337.27   26.10
   4   4  -1  343.17   26.20
  -4  -4   1  303.17   25.00
  -4  -4   1  381.96   25.30
  -4  -4   1  337.57   25.20
  -4  -4   1  292.27   25.80
   3   4  -1  117.89    9.20
   3   4  -1  118.59   10.10
  -3  -4   1  121.29    9.20
  -3  -4   1  116.89    9.30
  -3  -4   1  114.59    8.90
  -3  -4   1  120.79    9.30
  -3  -4   1  110.59   12.90
  -3  -4   1  126.39    9.10
  -3  -4   1  105.59    9.80
   2   4  -1  151.18   11.00
   2   4  -1  143.79   10.60
   2   4  -1  141.39   11.00
   2   4  -1  147.49   39.70
   2   4  -1  128.29   10.80
   2   4  -1  154.18   10.70
   2   4  -1  124.19   36.70
  -2  -4   1  139.99   10.80
  -2  -4   1  149.59   10.80
  -2  -4   1  122.89   10.60
  -2  -4   1  142.49   12.50
  -2  -4   1  134.49   10.70
  -2  -4   1  130.29   14.20
  -2  -4   1  151.98   10.80
   1   4  -1  308.57   24.90
   1   4  -1  253.67   37.60
   1   4  -1  312.17   39.90
   1   4  -1  357.26   24.60
   1   4  -1  333.57   24.70
   1   4  -1  334.37   24.90
   1   4  -1  287.77   24.60
  -1  -4   1  348.07   24.80
  -1  -4   1  350.86   26.30
  -1  -4   1  348.17   25.80
  -1  -4   1  330.07   26.50
  -1  -4   1  344.67   24.80
   0   4  -1  625.14   50.59
   0   4  -1  652.73   57.49
   0   4  -1  700.73   50.89
   0   4  -1  760.02   50.79
   0  -4   1  729.93   52.09
   0  -4   1  605.84   51.69
   0  -4   1  689.33   50.89
  -1   4  -1  289.57   23.40
  -1   4  -1  308.57   23.00
   1  -4   1  304.27   23.70
   1  -4   1  311.47   23.40
   1  -4   1  335.37   25.00
  -2   4  -1  134.39   10.80
  -2   4  -1  146.59   11.00
  -2   4  -1  154.98   10.60
  -2   4  -1  136.69   10.40
   2  -4   1  129.29   13.00
   2  -4   1  140.29   11.00
   2  -4   1  133.09   11.70
  -3   4  -1  111.39    9.40
  -3   4  -1  144.69    9.90
   3  -4   1  130.89   10.60
   3  -4   1  119.49   10.50
   3  -4   1  105.29    9.40
   3  -4   1  108.79   10.80
   3  -4   1  138.39   11.50
   3  -4   1  112.99    9.60
  -4   4  -1  374.06   25.30
   4  -4   1  360.56   26.80
   4  -4   1  314.77   26.40
   4  -4   1  328.37   25.80
   4  -4   1  308.47   27.40
   5  -4   1    5.20    1.60
   5  -4   1    8.20    2.30
   5  -4   1    2.70    1.60
   6   3  -1   30.10    2.60
  -6  -3   1   36.90    2.60
  -6  -3   1   27.20    2.60
   5   3  -1  213.58   16.90
   5   3  -1  216.28   17.20
  -5  -3   1  200.58   16.00
  -5  -3   1  238.18   16.30
  -5  -3   1  199.18   16.10
   4   3  -1  165.98   14.20
   4   3  -1  128.19   11.60
   4   3  -1  145.49   10.80
  -4  -3   1  144.39   11.10
  -4  -3   1  126.69   10.80
  -4  -3   1  144.39   11.80
  -4  -3   1  145.99   10.90
  -4  -3   1  136.39   10.90
   3   3  -1  230.28   18.40
   3   3  -1  244.48   19.20
   3   3  -1  238.88   18.40
  -3  -3   1  229.08   18.60
  -3  -3   1  252.77   18.30
  -3  -3   1  259.77   18.50
  -3  -3   1  261.07   18.30
  -3  -3   1  234.88   18.40
   2   3  -1  227.18   16.30
   2   3  -1  186.58   34.50
   2   3  -1  206.88   16.30
   2   3  -1  215.28   16.50
   2   3  -1  202.98   16.30
   2   3  -1  241.58   16.40
   2   3  -1  195.68   31.70
  -2  -3   1  219.78   16.30
  -2  -3   1  209.48   16.20
  -2  -3   1  213.08   18.10
  -2  -3   1  246.68   18.10
  -2  -3   1  191.68   17.40
  -2  -3   1  227.48   16.40
   1   3  -1 1045.50   89.29
   1   3  -1 1211.38   96.79
  -1  -3   1 1090.29   82.79
  -1  -3   1 1142.39   82.79
  -1  -3   1 1193.38   82.79
  -1  -3   1 1076.99   83.89
  -1  -3   1 1111.49   83.69
  -1  -3   1 1057.39   83.49
   0   3  -1  360.36   33.60
   0   3  -1  352.06   32.60
   0   3  -1  374.06   28.40
   0   3  -1  404.06   28.60
   0  -3   1  391.66   29.20
   0  -3   1  384.76   28.60
   0  -3   1  414.06   29.00
   0  -3   1  360.56   29.30
  -1   3  -1 1193.48   76.99
  -1   3  -1  967.40   79.39
  -1   3  -1 1033.50   77.19
   1  -3   1 1102.09   77.19
   1  -3   1  880.51   77.29
  -2   3  -1  228.58   16.60
  -2   3  -1  200.68   16.30
   2  -3   1  229.38   16.60
   2  -3   1  219.78   16.70
  -3   3  -1  235.98   18.50
  -3   3  -1  235.28   18.70
   3  -3   1  262.97   18.70
   3  -3   1  232.48   20.10
   3  -3   1  242.78   18.70
   3  -3   1  265.07   20.40
   3  -3   1  231.28   19.40
   3  -3   1  254.47   19.30
  -4   3  -1  128.19   10.10
  -4   3  -1  142.99   10.90
   4  -3   1  137.29   11.70
   4  -3   1  131.29   11.90
   4  -3   1  126.19   12.60
   4  -3   1  144.69   11.00
   4  -3   1  129.49   11.50
   4  -3   1  142.39   10.70
  -5   3  -1  215.58   15.00
  -5   3  -1  193.28   14.90
   5  -3   1  184.38   16.30
   5  -3   1  205.38   17.60
   6  -3   1   22.70    2.90
   6  -3   1   26.80    3.20
   6  -3   1   20.90    3.80
   6   2  -1   32.20    2.70
   6   2  -1   27.30    3.30
   6   2  -1   28.00    5.30
  -6  -2   1   35.70    2.60
  -6  -2   1   27.30    2.70
  -6  -2   1   32.20    2.60
   5   2  -1  338.47   26.20
   5   2  -1  338.77   26.70
   5   2  -1  303.87   26.50
  -5  -2   1  356.86   25.50
  -5  -2   1  347.37   25.70
  -5  -2   1  359.36   25.60
   4   2  -1  601.94   44.60
   4   2  -1  564.44   43.30
  -4  -2   1  551.04   43.60
  -4  -2   1  559.44   43.20
  -4  -2   1  571.94   43.10
  -4  -2   1  618.94   43.10
   3   2  -1  362.16   30.20
   3   2  -1  380.86   56.69
   3   2  -1  393.26   29.70
  -3  -2   1  414.36   29.50
  -3  -2   1  400.56   29.60
  -3  -2   1  357.36   32.00
  -3  -2   1  448.76   29.70
   2   2  -1  459.05   34.40
   2   2  -1  449.16   43.00
   2   2  -1  477.35   34.50
   2   2  -1  423.16   42.60
  -2  -2   1  472.35   34.40
  -2  -2   1  459.25   35.60
  -2  -2   1  468.35   35.50
   1   2  -1  308.77   21.60
   1   2  -1  321.77   27.50
   1   2  -1  290.67   21.60
   1   2  -1  304.77   21.70
   1   2  -1  274.37   26.40
  -1  -2   1  272.47   22.20
  -1  -2   1  293.67   21.60
  -1  -2   1  300.67   21.60
  -1  -2   1  277.97   22.30
  -1  -2   1  260.77   22.30
   0   2  -1  858.41   66.69
   0   2  -1  891.61   67.09
   0   2  -1  867.91   69.19
   0   2  -1  950.80   66.79
   0  -2   1  844.62   70.89
   0  -2   1  869.31   66.59
   0  -2   1  993.90   66.99
  -1   2  -1  305.07   21.20
  -1   2  -1  312.57   21.30
  -1   2  -1  265.97   21.40
   1  -2   1  279.07   21.40
   1  -2   1  272.07   22.80
   1  -2   1  275.17   21.30
  -2   2  -1  442.46   34.10
  -2   2  -1  516.85   34.40
  -2   2  -1  403.16   34.20
   2  -2   1  470.35   34.40
   2  -2   1  464.25   34.30
  -3   2  -1  409.56   31.10
  -3   2  -1  390.16   30.80
  -3   2  -1  470.75   30.80
   3  -2   1  432.06   32.60
   3  -2   1  412.06   31.90
   3  -2   1  346.27   32.00
   3  -2   1  423.96   31.10
   3  -2   1  422.06   31.10
  -4   2  -1  593.74   44.20
  -4   2  -1  562.64   43.60
  -4   2  -1  521.25   43.60
   4  -2   1  653.73   47.20
   4  -2   1  689.53   43.90
   4  -2   1  500.35   45.30
   4  -2   1  586.34   44.10
  -5   2  -1  318.07   25.30
  -5   2  -1  340.57   25.40
   5  -2   1  389.66   27.20
   5  -2   1  307.57   25.50
   5  -2   1  345.17   25.90
   5  -2   1  340.77   28.20
  -6   2  -1   30.80    2.30
   6  -2   1   31.60    4.90
   6  -2   1   26.70    3.40
   6  -2   1   26.90    3.60
   6   1  -1   30.90    3.80
   6   1  -1   33.80    2.80
  -6  -1   1   38.30    2.80
  -6  -1   1   30.90    2.80
  -6  -1   1   32.60    2.70
   5   1  -1   37.80    4.70
   5   1  -1   35.40    5.20
   5   1  -1   46.40    5.10
  -5  -1   1   42.10    3.50
  -5  -1   1   47.60    3.50
  -5  -1   1   43.30    3.90
   4   1  -1  297.77   21.30
   4   1  -1  258.17   20.10
   4   1  -1  274.07   20.50
  -4  -1   1  257.77   20.30
  -4  -1   1  271.27   19.90
  -4  -1   1  246.38   20.00
  -4  -1   1  261.67   19.80
  -4  -1   1  253.07   20.00
   3   1  -1  464.55   48.60
   3   1  -1  461.05   35.20
  -3  -1   1  506.45   35.20
  -3  -1   1  447.96   35.00
  -3  -1   1  462.25   36.30
  -3  -1   1  478.65   35.10
   2   1  -1  909.11   72.19
   2   1  -1  887.01   66.59
  -2  -1   1  874.11   66.59
  -2  -1   1  939.41   67.39
  -2  -1   1  913.61   67.49
  -2  -1   1  854.51   66.49
   1   1  -1 1523.55  118.59
   1   1  -1 1619.64  118.99
  -1  -1   1 1629.74  116.09
  -1  -1   1 1461.95  115.99
   0   1  -1 1711.13  128.29
   1  -1   1 1579.54  110.29
   1  -1   1 1385.96  110.29
  -2   1  -1  968.30   66.89
  -2   1  -1  888.21   66.79
  -2   1  -1  865.71   66.99
   2  -1   1  874.91   66.89
   2  -1   1  901.41   66.99
  -3   1  -1  456.75   36.20
  -3   1  -1  480.95   36.20
  -3   1  -1  488.25   36.80
  -3   1  -1  485.75   36.50
   3  -1   1  518.25   36.40
   3  -1   1  488.65   36.40
  -4   1  -1  246.98   19.80
  -4   1  -1  259.67   19.80
  -4   1  -1  259.77   20.30
   4  -1   1  290.07   21.40
   4  -1   1  237.98   20.10
   4  -1   1  300.87   21.40
   4  -1   1  265.07   20.20
  -5   1  -1   41.60    3.60
  -5   1  -1   42.90    3.60
   5  -1   1   53.09    4.30
   5  -1   1   46.00    4.60
   5  -1   1   48.80    5.50
   5  -1   1   44.50    5.30
  -6   1  -1   30.20    2.30
  -6   1  -1   31.10    2.30
   6  -1   1   22.20    3.60
   6  -1   1   21.10    4.60
   6   0  -1   12.00    3.00
   6   0  -1   11.60    1.30
   6   0  -1    8.00    3.20
  -6   0   1   10.50    1.10
  -6   0   1    9.80    1.00
   5   0  -1    2.50    1.20
   5   0  -1    2.40    3.10
   5   0  -1    3.50    0.90
   5   0  -1    2.10    1.80
   5   0  -1   -0.80    1.80
   5   0  -1    1.30    1.60
  -5   0   1    1.80    0.60
  -5   0   1    1.50    0.90
  -5   0   1    2.10    0.50
   4   0  -1  295.17   22.30
   4   0  -1  308.47   23.20
   4   0  -1  286.47   22.20
  -4   0   1  284.17   22.30
  -4   0   1  310.47   21.90
  -4   0   1  291.37   21.80
  -4   0   1  265.27   22.00
  -4   0   1  294.27   21.90
   3   0  -1   63.59   14.80
   3   0  -1   50.79    4.00
  -3   0   1   48.30    5.10
  -3   0   1   47.40    3.70
  -3   0   1   49.30    3.90
  -3   0   1   46.10    3.70
   2   0  -1  779.02   69.49
   2   0  -1  924.31   68.29
   2   0  -1  868.41   64.49
  -2   0   1 1004.60   65.19
  -2   0   1  864.21   64.39
  -2   0   1  860.61   64.99
  -2   0   1  764.02   64.39
   1   0  -1  273.97   20.80
   1   0  -1  259.67   22.50
   1   0  -1  265.87   22.50
   1   0  -1  268.37   20.80
   1   0  -1  322.77   20.80
  -1   0   1  293.87   20.90
  -1   0   1  287.47   21.10
  -1   0   1  275.27   21.10
  -1   0   1  266.97   20.80
   0   0  -1    0.10    0.10
   0   0  -1    0.20    0.20
   0   0  -1    0.00    0.40
   0   0   1    0.00    0.10
   0   0   1    0.10    0.20
   0   0   1    0.10    0.10
   0   0   1    0.20    0.10
   0   0   1    0.20    0.50
  -1   0  -1  256.07   21.40
  -1   0  -1  295.67   21.40
  -1   0  -1  263.87   23.20
  -1   0  -1  291.87   21.80
   1   0   1  304.17   21.90
   1   0   1  318.27   21.40
   1   0   1  271.17   21.40
   1   0   1  312.57   21.80
   1   0   1  252.57   21.40
   1   0   1  313.37   23.40
  -2   0  -1  911.31   65.79
  -2   0  -1  848.32   64.89
   2   0   1  860.11   64.89
  -3   0  -1   48.40    7.20
  -3   0  -1   44.30    3.80
  -3   0  -1   48.90    3.80
  -3   0  -1   45.20    5.30
  -3   0  -1   50.59    3.80
  -3   0  -1   50.69    4.10
   3   0   1   55.39    4.10
   3   0   1   58.99   14.30
  -4   0  -1  260.97   21.70
  -4   0  -1  268.47   21.40
  -4   0  -1  278.97   21.20
  -4   0  -1  300.57   21.30
  -4   0  -1  281.67   21.30
   4   0   1  293.17   21.80
   4   0   1  305.07   21.60
   4   0   1  281.87   22.60
  -5   0  -1    1.60    0.40
  -5   0  -1    2.20    0.60
  -5   0  -1    2.00    0.70
   5   0   1    0.80    2.80
   5   0   1    3.20    1.30
   5   0   1   -1.00    1.60
   5   0   1    3.00    2.00
   5   0   1    2.10    1.60
   5   0   1    1.70    1.10
  -6   0  -1    9.30    1.40
  -6   0  -1   10.40    1.00
  -6   0  -1   10.40    1.10
   6   0   1   10.70    1.20
   6   0   1   11.80    2.60
   6  -1  -1   22.20    4.80
   6  -1  -1   29.50    4.00
   6  -1  -1   30.80    2.60
   6  -1  -1   30.70    3.70
  -6   1   1   31.00    2.40
  -6   1   1   33.20    2.60
   5  -1  -1   45.00    4.50
   5  -1  -1   47.20    5.40
   5  -1  -1   49.30    4.00
   5  -1  -1   52.99    7.10
   5  -1  -1   47.40    5.50
  -5   1   1   46.30    3.70
  -5   1   1   45.90    3.80
   4  -1  -1  295.27   21.80
   4  -1  -1  297.97   21.80
   4  -1  -1  276.77   20.80
   4  -1  -1  280.87   22.80
  -4   1   1  253.47   20.40
  -4   1   1  272.87   20.40
  -4   1   1  257.07   20.90
  -4   1   1  250.77   20.30
   3  -1  -1  591.44   39.20
   3  -1  -1  495.35   39.30
   3  -1  -1  493.85   43.60
  -3   1   1  488.45   39.00
  -3   1   1  479.25   39.10
  -3   1   1  596.24   39.50
   2  -1  -1  926.81   74.59
   2  -1  -1  993.50   73.09
   2  -1  -1 1071.89   74.49
   2  -1  -1 1016.00   73.09
  -2   1   1  980.90   73.09
  -2   1   1  891.91   72.99
  -2   1   1 1076.39   72.99
  -2   1   1  904.71   72.89
   0  -1  -1 1596.84  111.19
   0  -1  -1 1475.15  112.19
   0   1   1 1409.46  112.19
  -1  -1  -1 1521.15  124.69
   1   1   1 1689.43  122.39
   1   1   1 1708.73  124.89
  -2  -1  -1  885.31   65.99
  -2  -1  -1  844.92   65.99
  -2  -1  -1  860.81   68.29
  -2  -1  -1  870.71   66.79
   2   1   1  954.30   71.69
   2   1   1  876.31   73.89
   2   1   1  841.72   66.09
   2   1   1  981.20   65.99
  -3  -1  -1  477.25   35.40
  -3  -1  -1  442.66   36.70
  -3  -1  -1  473.65   35.30
  -3  -1  -1  479.25   35.30
  -3  -1  -1  458.65   35.60
   3   1   1  527.35   48.90
   3   1   1  488.35   35.50
  -4  -1  -1  232.68   19.10
  -4  -1  -1  239.58   19.30
  -4  -1  -1  262.67   19.00
  -4  -1  -1  265.27   18.90
   4   1   1  265.57   19.20
   4   1   1  247.58   19.70
  -5  -1  -1   44.20    3.60
  -5  -1  -1   43.20    3.70
  -5  -1  -1   46.20    4.10
   5   1   1   41.70    6.90
   5   1   1   50.59    4.60
   5   1   1   45.80    5.40
  -6  -1  -1   37.60    2.70
  -6  -1  -1   29.30    2.70
  -6  -1  -1   33.70    2.60
   6   1   1   24.80    4.90
   6   1   1   33.90    2.80
   6   1   1   30.40    3.70
   6  -2  -1   18.40    4.40
   6  -2  -1   24.80    2.40
   6  -2  -1   24.90    3.20
   6  -2  -1   22.70    3.30
  -6   2   1   30.40    2.10
   5  -2  -1  379.06   29.00
   5  -2  -1  330.27   27.80
   5  -2  -1  395.26   30.40
   5  -2  -1  375.76   29.00
  -5   2   1  360.36   27.30
  -5   2   1  356.56   27.30
   4  -2  -1  606.04   43.90
   4  -2  -1  536.65   44.60
   4  -2  -1  577.24   44.10
   4  -2  -1  626.74   47.10
   4  -2  -1  642.24   46.00
  -4   2   1  577.24   43.70
  -4   2   1  549.35   44.20
   3  -2  -1  428.46   32.90
   3  -2  -1  447.76   31.90
   3  -2  -1  413.16   33.20
   3  -2  -1  399.46   32.60
   3  -2  -1  447.06   31.90
  -3   2   1  400.26   31.60
  -3   2   1  420.96   31.70
  -3   2   1  440.96   32.00
   2  -2  -1  483.45   35.90
   2  -2  -1  504.35   35.90
  -2   2   1  459.35   35.70
  -2   2   1  474.15   35.80
   1  -2  -1  292.57   21.80
   1  -2  -1  304.87   21.90
  -1   2   1  279.77   21.90
   0  -2  -1  862.01   69.99
   0  -2  -1  855.01   70.09
   0  -2  -1 1051.79   70.29
   0  -2  -1 1005.70   70.19
   0   2   1  867.61   72.19
   0   2   1 1029.60   69.79
   0   2   1  893.31   72.29
  -1  -2  -1  291.47   20.90
  -1  -2  -1  250.47   21.50
  -1  -2  -1  269.87   20.90
  -1  -2  -1  319.07   21.80
  -1  -2  -1  241.28   21.50
   1   2   1  286.87   25.90
   1   2   1  266.47   20.80
   1   2   1  297.77   21.00
   1   2   1  265.07   26.20
   1   2   1  281.57   20.90
   1   2   1  308.37   21.00
  -2  -2  -1  492.25   37.70
  -2  -2  -1  471.05   37.10
  -2  -2  -1  457.05   36.00
  -2  -2  -1  428.96   36.00
   2   2   1  452.05   35.90
   2   2   1  529.15   35.90
   2   2   1  469.95   44.00
   2   2   1  535.55   36.00
   2   2   1  502.75   36.10
  -3  -2  -1  407.56   30.70
  -3  -2  -1  417.66   33.00
  -3  -2  -1  411.26   30.70
  -3  -2  -1  397.36   31.00
  -3  -2  -1  423.96   30.80
   3   2   1  393.06   31.50
   3   2   1  451.45   51.19
   3   2   1  421.26   30.80
  -4  -2  -1  555.84   40.30
  -4  -2  -1  587.04   40.20
  -4  -2  -1  600.34   40.30
  -4  -2  -1  542.25   40.70
  -4  -2  -1  535.15   40.80
   4   2   1  482.65   42.40
   4   2   1  481.35   41.30
   4   2   1  525.55   40.40
  -5  -2  -1  350.06   26.20
  -5  -2  -1  355.56   26.40
  -5  -2  -1  340.27   26.30
   5   2   1  353.46   27.60
   5   2   1  329.97   27.00
   5   2   1  375.16   27.40
  -6  -2  -1   31.20    2.90
  -6  -2  -1   34.10    2.70
  -6  -2  -1   32.80    2.60
   6   2   1   28.40    3.50
   6   2   1   33.00    2.70
   6  -3  -1   15.30    3.30
   6  -3  -1   12.90    2.40
   5  -3  -1  150.08   12.40
   5  -3  -1  140.49   13.60
   5  -3  -1  188.88   15.20
   5  -3  -1  177.08   13.90
   4  -3  -1  109.89   10.90
   4  -3  -1  132.09   10.20
   4  -3  -1  143.19   10.50
   4  -3  -1  146.89   11.60
  -4   3   1  109.59   11.00
  -4   3   1  128.69    9.60
  -4   3   1  122.99   10.30
   3  -3  -1  221.38   18.30
   3  -3  -1  251.17   17.60
   3  -3  -1  225.38   19.00
   3  -3  -1  204.58   18.40
   3  -3  -1  196.68   18.00
   3  -3  -1  258.07   17.50
   3  -3  -1  270.27   18.90
   3  -3  -1  257.87   17.60
  -3   3   1  208.68   17.40
  -3   3   1  205.58   17.20
  -3   3   1  243.78   17.70
   2  -3  -1  218.28   17.10
   2  -3  -1  218.48   17.20
  -2   3   1  232.18   16.90
  -2   3   1  241.88   17.10
  -2   3   1  244.38   17.20
  -2   3   1  205.38   17.10
   1  -3  -1 1155.88   86.49
   1  -3  -1 1291.57   86.39
  -1   3   1 1171.18   87.39
  -1   3   1 1134.39   86.29
  -1   3   1 1098.19   86.49
  -1   3   1 1121.19   86.39
   0  -3  -1  398.36   29.10
   0  -3  -1  399.86   28.60
   0  -3  -1  359.06   29.10
   0  -3  -1  362.96   29.20
   0  -3  -1  385.36   28.90
   0   3   1  340.77   32.70
   0   3   1  388.96   28.60
   0   3   1  409.16   28.50
   0   3   1  376.66   28.40
  -1  -3  -1  997.90   82.69
  -1  -3  -1 1135.49   81.89
  -1  -3  -1 1218.68   81.99
  -1  -3  -1 1046.90   83.09
   1   3   1 1124.69   82.09
   1   3   1 1174.48   82.09
   1   3   1 1001.70   90.39
   1   3   1 1102.59   93.69
  -2  -3  -1  212.98   15.80
  -2  -3  -1  207.28   15.70
  -2  -3  -1  220.68   15.70
  -2  -3  -1  197.18   17.00
  -2  -3  -1  209.58   15.80
  -2  -3  -1  202.88   17.60
   2   3   1  188.48   15.60
   2   3   1  187.38   15.70
   2   3   1  226.08   15.70
   2   3   1  221.18   15.90
   2   3   1  166.28   32.80
   2   3   1  236.08   15.90
   2   3   1  229.88   34.90
  -3  -3  -1  219.28   19.90
  -3  -3  -1  223.78   18.30
  -3  -3  -1  243.78   17.50
  -3  -3  -1  250.37   17.40
  -3  -3  -1  227.68   17.50
  -3  -3  -1  248.38   17.40
  -3  -3  -1  223.68   17.70
   3   3   1  224.88   17.40
   3   3   1  226.88   18.40
   3   3   1  226.08   17.60
  -4  -3  -1  137.29   10.40
  -4  -3  -1  131.89   10.80
  -4  -3  -1  140.59   10.40
  -4  -3  -1  131.69   10.20
  -4  -3  -1  137.99   10.90
   4   3   1  123.49   11.20
   4   3   1  135.89   10.30
  -5  -3  -1  204.38   15.70
  -5  -3  -1  197.48   15.80
  -5  -3  -1  219.68   15.90
   5   3   1  218.48   16.70
   5   3   1  202.58   16.90
  -6  -3  -1   25.60    2.20
   6   3   1   30.50    2.30
   6   3   1   26.00    2.90
   5  -4  -1    7.70    2.10
   5  -4  -1   12.70    2.80
   5  -4  -1   13.90    3.50
   4  -4  -1  259.37   21.60
   4  -4  -1  315.67   22.10
   4  -4  -1  276.87   23.60
   4  -4  -1  312.97   22.10
   4  -4  -1  275.77   22.80
   4  -4  -1  309.57   22.90
   4  -4  -1  271.77   22.60
   4  -4  -1  275.97   23.10
   3  -4  -1  127.59    9.20
   3  -4  -1   92.19   10.30
   3  -4  -1  121.79    9.20
   3  -4  -1  111.39   10.60
   3  -4  -1  116.99    9.00
   3  -4  -1  105.79   10.10
   3  -4  -1  125.59   10.10
  -3   4   1  133.59    9.30
  -3   4   1  103.09    9.30
   2  -4  -1  139.89   11.90
   2  -4  -1  131.09   10.80
   2  -4  -1  138.59   10.90
  -2   4   1  142.59   10.90
  -2   4   1  138.49   10.60
  -2   4   1  148.29   10.90
   1  -4  -1  325.37   24.90
  -1   4   1  365.16   27.80
  -1   4   1  316.47   24.50
  -1   4   1  368.46   27.80
  -1   4   1  310.57   24.80
  -1   4   1  308.77   24.90
   0  -4  -1  707.13   51.29
   0  -4  -1  607.04   52.19
   0  -4  -1  765.72   51.89
   0   4   1  699.53   51.29
   0   4   1  686.43   59.79
   0   4   1  655.43   51.39
  -1  -4  -1  332.07   27.60
  -1  -4  -1  340.57   24.30
  -1  -4  -1  308.27   26.00
  -1  -4  -1  349.27   25.40
   1   4   1  335.87   24.40
   1   4   1  312.77   24.10
   1   4   1  334.17   24.50
   1   4   1  327.07   40.80
   1   4   1  288.87   24.10
   1   4   1  283.97   39.70
  -2  -4  -1  121.79   11.10
  -2  -4  -1  145.69   12.40
  -2  -4  -1  148.59   10.60
  -2  -4  -1  141.59   14.20
  -2  -4  -1  146.79   10.60
  -2  -4  -1  121.69   10.40
  -2  -4  -1  140.49   10.60
  -2  -4  -1  142.29   14.20
   2   4   1  149.88   10.50
   2   4   1  149.29   10.70
   2   4   1  136.09   10.40
   2   4   1   95.19   38.50
   2   4   1  126.19   10.60
   2   4   1   85.59   30.70
  -3  -4  -1  114.49   13.00
  -3  -4  -1  121.59    8.90
  -3  -4  -1  110.99    8.70
  -3  -4  -1  114.29    9.70
  -3  -4  -1  113.59    8.80
  -3  -4  -1  106.69    9.00
  -3  -4  -1  119.19    8.90
   3   4   1  111.99    9.00
   3   4   1  116.49   10.00
  -4  -4  -1  320.27   25.00
  -4  -4  -1  286.97   24.10
  -4  -4  -1  354.66   24.30
  -4  -4  -1  285.27   24.20
   4   4   1  340.37   24.30
   4   4   1  344.57   25.40
  -5  -4  -1   12.40    1.40
  -5  -4  -1    8.80    1.70
  -5  -4  -1    9.40    1.10
   5   4   1   10.90    2.70
   5   4   1   10.80    2.30
   5  -5  -1   16.40    2.50
   5  -5  -1   23.70    3.10
   4  -5  -1   35.40    4.00
   4  -5  -1   27.80    4.20
   4  -5  -1   29.10    4.20
   3  -5  -1   18.50    3.80
   3  -5  -1   11.30    3.10
   3  -5  -1   12.20    2.70
   3  -5  -1   16.30    2.80
   3  -5  -1   11.60    2.80
   3  -5  -1   10.40    2.00
   2  -5  -1    4.20    2.40
   2  -5  -1    3.00    0.90
   2  -5  -1    5.30    1.30
   2  -5  -1    4.30    1.50
   2  -5  -1    4.60    1.90
  -2   5   1    4.40    0.50
  -2   5   1    3.60    1.10
  -2   5   1    3.00    1.40
   1  -5  -1  429.56   35.00
   1  -5  -1  457.15   34.00
   1  -5  -1  388.16   33.80
  -1   5   1  434.46   34.00
  -1   5   1  495.95   33.60
  -1   5   1  486.45   33.60
  -1   5   1  464.15   33.90
   0  -5  -1  442.86   33.20
   0  -5  -1  451.15   33.20
   0  -5  -1  434.26   34.10
   0  -5  -1  439.36   33.30
   0  -5  -1  400.76   35.90
   0   5   1  456.45   33.10
   0   5   1  438.56   32.90
   0   5   1  427.16   33.30
   0   5   1  472.55   32.90
  -1  -5  -1  533.25   37.80
  -1  -5  -1  558.04   39.10
  -1  -5  -1  475.05   38.10
   1   5   1  498.75   37.60
   1   5   1  477.25   38.00
   1   5   1  475.45   37.50
   1   5   1  510.15   37.80
  -2  -5  -1    4.00    1.70
  -2  -5  -1    5.00    3.00
  -2  -5  -1    4.60    0.80
   2   5   1    2.90    0.90
   2   5   1    4.00    0.70
   2   5   1    5.10    2.50
   2   5   1    5.20    2.50
   2   5   1    4.70    1.20
   2   5   1    4.00    0.70
  -3  -5  -1   13.40    2.80
  -3  -5  -1   15.40    1.70
  -3  -5  -1   12.80    6.10
   3   5   1   15.60    1.90
   3   5   1   12.50    1.40
   3   5   1   13.80    3.30
  -4  -5  -1   51.99    5.00
  -4  -5  -1   51.99    4.10
   4   5   1   46.10    5.20
   4   5   1   44.50    4.10
  -5  -5  -1   46.20    3.50
  -5  -5  -1   43.30    4.30
   5   5   1   40.00    4.20
   4  -6  -1   12.00    3.80
   3  -6  -1   75.89    8.20
   3  -6  -1   97.89    7.70
   3  -6  -1   79.89    6.70
   2  -6  -1  405.56   37.40
   2  -6  -1  439.36   36.50
   2  -6  -1  533.45   36.20
   2  -6  -1  543.95   37.10
   2  -6  -1  453.75   37.30
  -2   6   1  515.95   35.90
   1  -6  -1 1181.98   80.59
   1  -6  -1 1086.59   80.89
  -1   6   1 1059.69   80.69
  -1   6   1 1004.20   80.29
  -1   6   1 1070.59   80.29
   0  -6  -1  442.86   35.20
   0  -6  -1  496.55   34.40
   0  -6  -1  434.56   34.20
   0  -6  -1  505.85   34.20
   0   6   1  409.86   34.10
   0   6   1  441.96   34.20
   0   6   1  466.75   33.90
   0   6   1  431.16   33.90
  -1  -6  -1 1067.29   82.59
  -1  -6  -1 1262.37   83.49
  -1  -6  -1 1128.39   82.29
  -1  -6  -1 1094.29   81.89
   1   6   1 1118.69   81.99
   1   6   1 1011.00   81.59
   1   6   1 1116.19   81.69
   1   6   1  981.70   82.19
  -2  -6  -1  457.55   34.30
  -2  -6  -1  475.15   35.10
  -2  -6  -1  474.15   39.70
   2   6   1  450.45   35.40
   2   6   1  460.85   34.70
   2   6   1  448.56   34.20
   2   6   1  442.36   34.50
   2   6   1  458.95   34.30
  -3  -6  -1  116.39    8.70
  -3  -6  -1  100.79   19.80
   3   6   1  107.59   10.20
   3   6   1  103.79    9.20
  -4  -6  -1   23.20    3.00
  -4  -6  -1   21.30    2.00
   4   6   1   22.40    3.10
   4   6   1   19.00    2.00
   4  -7  -1   39.50    4.20
   4  -7  -1   28.40    3.40
   3  -7  -1   77.29    6.80
   3  -7  -1   74.39    7.20
   2  -7  -1  215.78   17.70
   2  -7  -1  250.67   18.10
   2  -7  -1  215.58   18.50
  -2   7   1  228.68   17.00
  -2   7   1  223.68   17.00
   1  -7  -1   19.80    3.40
   1  -7  -1   17.20    2.40
   1  -7  -1   18.30    2.60
   1  -7  -1   21.80    2.90
  -1   7   1   17.70    1.70
  -1   7   1   18.70    1.80
   0  -7  -1    9.60    2.40
   0  -7  -1    8.70    1.70
   0  -7  -1   13.00    1.90
   0  -7  -1    9.50    2.50
   0   7   1   10.20    1.20
   0   7   1    8.90    1.10
   0   7   1   10.50    1.70
  -1  -7  -1   20.50    2.90
  -1  -7  -1   22.80    3.10
  -1  -7  -1   29.40    5.60
   1   7   1   18.70    2.00
   1   7   1   17.10    1.80
   1   7   1   17.40    2.20
  -2  -7  -1  257.97   21.00
  -2  -7  -1  272.37   18.70
   2   7   1  220.98   18.10
   2   7   1  218.08   17.80
   2   7   1  219.98   17.80
  -3  -7  -1   81.29    7.20
   3   7   1   87.29    8.50
   4   7   1   32.60    3.30
   4   7   1   27.80    2.50
   3  -8  -1   97.49    7.90
   3  -8  -1   88.69    7.60
   2  -8  -1   69.19    6.70
   2  -8  -1   74.79    6.50
  -2   8   1   75.69    5.60
  -2   8   1   74.29    5.60
   1  -8  -1   23.40    2.80
   1  -8  -1   24.00    3.40
  -1   8   1   22.30    2.00
  -1   8   1   23.30    2.00
   0  -8  -1    0.80    1.30
   0  -8  -1    0.40    1.10
   0   8   1    0.50    0.40
   0   8   1    1.40    0.80
   0   8   1    0.40    0.40
  -1  -8  -1   21.90    3.90
  -1  -8  -1   24.00    2.70
   1   8   1   22.40    2.20
   1   8   1   20.60    2.00
   1   8   1   21.50    1.90
  -2  -8  -1   52.69    5.50
   2   8   1   67.19    4.90
   2   8   1   58.19    4.80
   2   8   1   61.29    4.60
  -3  -8  -1   78.09    5.80
   3   8   1   67.19    5.70
   1  -9  -1  105.99    8.30
   1  -9  -1  103.89    8.50
  -1   9   1  101.49    7.80
   0  -9  -1   96.39    7.60
   0  -9  -1  100.49    7.70
   0   9   1   85.69    7.00
   0   9   1   90.49    7.10
  -1  -9  -1  109.69    8.00
   1   9   1   91.69    7.50
   1   9   1   99.29    7.70
   1   9  -2   56.49    4.10
   1   9  -2   51.69    4.00
  -1  -9   2   48.40    4.30
   0   9  -2   32.40    2.70
   0   9  -2   33.90    2.50
   0   9  -2   33.80    2.60
   0  -9   2   29.20    3.50
   0  -9   2   30.40    3.00
  -1   9  -2   59.59    4.50
   1  -9   2   54.29    5.00
   1  -9   2   65.29    5.30
   3   8  -2   99.09    7.60
   2   8  -2    4.10    0.50
   2   8  -2    2.70    0.80
  -2  -8   2    3.50    1.10
   1   8  -2    6.90    0.90
   1   8  -2    5.80    1.00
   1   8  -2    5.90    0.70
  -1  -8   2    6.70    1.60
  -1  -8   2    5.80    2.00
   0   8  -2   41.20    3.70
   0   8  -2   43.40    3.50
   0   8  -2   42.30    3.50
   0  -8   2   42.70    4.20
   0  -8   2   47.40    3.90
   0  -8   2   46.80    4.60
  -1   8  -2    5.70    0.80
  -1   8  -2    6.20    0.80
   1  -8   2    6.70    1.90
   1  -8   2    5.40    1.40
  -2   8  -2    3.00    0.50
   2  -8   2    3.80    1.40
   2  -8   2    4.60    1.80
   3  -8   2  148.39   10.40
   3  -8   2  106.09   10.10
   4   7  -2    1.20    0.60
   4   7  -2    1.50    0.90
  -4  -7   2    3.70    1.20
   3   7  -2    5.80    1.00
  -3  -7   2    9.80    2.30
   2   7  -2    7.80    1.10
   2   7  -2    9.60    1.50
   2   7  -2   10.20    1.10
   2   7  -2    6.80    2.80
  -2  -7   2   12.10    5.80
   1   7  -2   32.40    3.30
   1   7  -2   33.50    3.00
   1   7  -2   35.90    3.00
  -1  -7   2   48.20    7.30
  -1  -7   2   33.20    3.80
  -1  -7   2   42.30    4.20
   0   7  -2  259.47   20.70
   0   7  -2  282.37   20.80
   0   7  -2  262.37   20.90
   0  -7   2  257.67   21.40
   0  -7   2  310.87   22.20
   0  -7   2  285.67   21.50
  -1   7  -2   35.90    2.70
  -1   7  -2   33.30    2.70
   1  -7   2   31.90    3.70
   1  -7   2   27.90    4.20
   1  -7   2   36.60    3.70
  -2   7  -2    9.70    0.90
  -2   7  -2    7.20    0.90
   2  -7   2   12.50    2.90
   2  -7   2    8.80    2.20
   2  -7   2    5.00    2.40
   2  -7   2    8.00    1.90
  -3   7  -2    7.70    0.80
  -3   7  -2    5.40    0.80
   3  -7   2    9.50    2.60
   3  -7   2    6.20    1.80
   3  -7   2    6.60    3.30
   4  -7   2    0.90    1.90
   4  -7   2    0.30    1.00
   4  -7   2    0.20    1.00
   4   6  -2  231.68   18.90
   4   6  -2  248.08   19.70
  -4  -6   2  235.98   18.90
  -4  -6   2  290.97   19.80
   3   6  -2  132.39   11.90
  -3  -6   2  131.69   11.00
  -3  -6   2  166.08   13.20
   2   6  -2   50.59    3.90
   2   6  -2   44.70    4.20
   2   6  -2   51.29    5.70
   2   6  -2   49.20    4.60
   2   6  -2   50.59    3.90
  -2  -6   2   46.60    4.10
   1   6  -2  470.25   35.90
   1   6  -2  461.75   36.40
   1   6  -2  454.75   35.90
   1   6  -2  453.75   36.40
  -1  -6   2  527.95   37.10
  -1  -6   2  441.76   36.20
  -1  -6   2  557.64   36.70
   0   6  -2   23.00    1.90
   0   6  -2   21.80    2.60
   0   6  -2   19.40    2.30
   0   6  -2   19.90    1.90
   0  -6   2   22.60    2.60
   0  -6   2   21.60    2.50
  -1   6  -2  452.75   32.30
  -1   6  -2  409.06   32.30
  -1   6  -2  448.16   32.90
   1  -6   2  423.66   32.90
   1  -6   2  477.75   33.90
   1  -6   2  384.86   34.00
  -2   6  -2   44.60    3.70
  -2   6  -2   50.09    4.80
   2  -6   2   46.80    5.50
   2  -6   2   43.60    4.50
   2  -6   2   54.39    5.00
  -3   6  -2  135.89    9.40
   3  -6   2  111.99   10.50
   3  -6   2  109.99   11.20
   3  -6   2  141.49   12.50
   3  -6   2  125.59   11.50
   4  -6   2  207.98   15.20
   4  -6   2  166.08   15.00
   4  -6   2  187.28   15.80
   5   5  -2   46.30    4.50
  -5  -5   2   52.99    4.00
   4   5  -2   49.80    4.40
   4   5  -2   48.80    5.40
  -4  -5   2   63.69    5.50
  -4  -5   2   54.09    4.50
   3   5  -2  103.69    9.40
   3   5  -2   96.09    8.80
   3   5  -2  101.69    8.40
  -3  -5   2  117.49   15.50
  -3  -5   2  106.49    9.10
  -3  -5   2  109.89    8.60
  -3  -5   2  115.99    8.40
   2   5  -2  102.69    8.00
   2   5  -2   95.89    8.20
   2   5  -2  106.39    8.50
   2   5  -2  108.29    8.00
   2   5  -2   98.19    9.20
  -2  -5   2  105.59   10.40
  -2  -5   2  106.79    8.30
  -2  -5   2  115.39    8.20
  -2  -5   2  104.59    8.90
   1   5  -2  270.37   21.80
   1   5  -2  255.67   22.30
   1   5  -2  286.87   21.90
   1   5  -2  295.07   22.30
   1   5  -2  268.37   22.10
  -1  -5   2  315.47   22.20
  -1  -5   2  294.07   22.50
  -1  -5   2  337.17   23.60
  -1  -5   2  309.97   23.20
   0   5  -2 1488.45  120.69
   0   5  -2 1640.94  121.09
   0   5  -2 1726.33  120.69
   0  -5   2 1636.14  121.09
   0  -5   2 1633.94  121.79
  -1   5  -2  252.77   19.60
  -1   5  -2  293.27   20.20
  -1   5  -2  279.47   19.60
   1  -5   2  253.67   20.90
   1  -5   2  226.28   22.40
   1  -5   2  259.07   20.70
   1  -5   2  269.87   20.20
  -2   5  -2   88.89    7.60
  -2   5  -2   93.39    6.90
  -2   5  -2  105.39    7.70
   2  -5   2   79.09    8.30
   2  -5   2   81.79    9.10
   2  -5   2  101.49    7.70
  -3   5  -2  118.09    9.20
   3  -5   2  105.29   10.40
   3  -5   2  118.49    9.50
   3  -5   2  100.09    9.50
   3  -5   2  102.79    9.60
   3  -5   2  101.69    8.80
   4  -5   2   46.70    5.20
   4  -5   2   47.30    5.10
   4  -5   2   38.00    5.60
   5  -5   2   24.10    3.10
   5  -5   2   26.20    4.10
   5   4  -2   61.59    4.90
  -5  -4   2   43.20    4.10
  -5  -4   2   45.50    3.90
   4   4  -2  209.78   17.10
   4   4  -2  237.88   16.20
  -4  -4   2  189.58   16.30
  -4  -4   2  189.88   16.00
  -4  -4   2  235.78   16.30
   3   4  -2  181.18   15.00
   3   4  -2  188.28   14.20
   3   4  -2  181.38   14.50
  -3  -4   2  190.98   14.30
  -3  -4   2  186.88   14.00
  -3  -4   2  171.78   14.30
  -3  -4   2  182.88   14.10
  -3  -4   2  199.98   14.20
   2   4  -2  -14.30   32.10
   2   4  -2  -18.00   32.40
   2   4  -2   16.30    1.60
   2   4  -2   20.00    2.10
   2   4  -2   14.10    1.90
   2   4  -2   18.40    2.10
   2   4  -2   15.60    1.50
   2   4  -2   21.00    1.60
  -2  -4   2   17.40    4.10
  -2  -4   2   20.60    1.90
  -2  -4   2   17.00    1.60
  -2  -4   2   17.90    1.70
  -2  -4   2   18.40    2.80
  -2  -4   2   18.20    1.80
  -2  -4   2   18.40    5.30
  -2  -4   2   18.10    5.60
  -2  -4   2   16.10    1.70
   1   4  -2  150.28   11.20
   1   4  -2  131.59   11.10
   1   4  -2  139.59   29.40
   1   4  -2  139.39   30.20
   1   4  -2  151.48   11.50
  -1  -4   2  154.28   11.30
  -1  -4   2  145.49   11.30
  -1  -4   2  150.78   12.30
  -1  -4   2  141.99   13.20
  -1  -4   2  167.88   13.10
   0   4  -2  890.71   71.09
   0   4  -2  994.90   78.19
   0   4  -2  989.30   71.09
   0   4  -2  966.90   71.39
   0  -4   2 1029.20   71.39
   0  -4   2  949.80   72.39
   0  -4   2  884.91   72.49
  -1   4  -2  136.59   11.00
  -1   4  -2  138.89   10.60
   1  -4   2  146.19   11.50
   1  -4   2  138.59   11.80
   1  -4   2  145.49   11.00
  -2   4  -2   17.20    1.60
  -2   4  -2   18.40    2.10
   2  -4   2   17.50    4.70
   2  -4   2   14.90    2.70
  -3   4  -2  217.58   15.30
  -3   4  -2  173.58   14.80
   3  -4   2  193.08   15.90
   3  -4   2  183.38   15.10
   3  -4   2  195.28   15.80
   3  -4   2  209.68   15.80
   3  -4   2  188.28   16.80
   4  -4   2  186.58   15.70
   4  -4   2  197.78   16.50
   4  -4   2  220.68   17.80
   4  -4   2  208.28   16.70
   4  -4   2  197.08   16.20
  -5   4  -2   50.89    4.20
   5  -4   2   48.80    5.40
   5  -4   2   61.49    6.70
   5  -4   2   47.60    5.50
   6   3  -2    7.30    1.00
  -6  -3   2    8.10    1.00
   5   3  -2   29.50    3.30
   5   3  -2   28.70    3.70
   5   3  -2   25.60    5.80
  -5  -3   2   28.60    2.40
  -5  -3   2   22.00    2.20
  -5  -3   2   22.00    2.30
   4   3  -2   45.60    4.30
   4   3  -2   48.50    5.00
   4   3  -2   50.59    5.50
   4   3  -2   36.70    7.40
   4   3  -2   52.19    4.00
  -4  -3   2   50.09    4.00
  -4  -3   2   45.20    4.10
  -4  -3   2   49.20    3.90
  -4  -3   2   49.99    3.80
  -4  -3   2   37.50    5.30
   3   3  -2  211.68   16.30
   3   3  -2  211.98   16.30
   3   3  -2  212.58   17.00
  -3  -3   2  233.68   16.40
  -3  -3   2  230.48   16.20
  -3  -3   2  215.68   16.40
  -3  -3   2  202.58   16.50
  -3  -3   2  217.78   16.30
  -3  -3   2  204.58   17.90
   2   3  -2 1000.70   73.29
   2   3  -2  981.60   73.09
   2   3  -2 1023.40   72.99
   2   3  -2  815.02   84.99
   2   3  -2  917.71   73.09
   2   3  -2  957.40   85.09
   2   3  -2 1052.89   73.19
  -2  -3   2 1051.09   73.19
  -2  -3   2 1093.79   73.09
  -2  -3   2  977.50   72.99
  -2  -3   2  905.71   74.09
  -2  -3   2 1017.00   74.59
  -2  -3   2  921.91   74.79
   1   3  -2  197.28   23.20
   1   3  -2  194.38   15.40
   1   3  -2  154.88   35.40
  -1  -3   2  217.28   16.30
  -1  -3   2  203.98   16.00
  -1  -3   2  201.78   15.30
  -1  -3   2  215.28   15.30
  -1  -3   2  197.88   16.40
   0   3  -2  171.38   13.20
   0   3  -2  157.28   18.10
   0   3  -2  170.08   13.50
   0  -3   2  177.78   13.40
   0  -3   2  178.88   13.30
   0  -3   2  198.88   13.90
  -1   3  -2  184.88   14.00
  -1   3  -2  191.38   14.20
  -1   3  -2  192.28   13.90
   1  -3   2  194.98   14.30
   1  -3   2  161.68   18.30
  -2   3  -2  952.40   74.29
  -2   3  -2 1008.50   74.49
   2  -3   2  977.70   74.59
   2  -3   2 1064.09   74.59
  -3   3  -2  226.68   16.80
  -3   3  -2  238.08   16.40
  -3   3  -2  221.98   16.70
   3  -3   2  207.08   18.10
   3  -3   2  200.78   17.60
   3  -3   2  223.88   17.80
   3  -3   2  216.78   16.80
   3  -3   2  222.78   18.60
   3  -3   2  222.88   17.50
   3  -3   2  216.28   17.70
  -4   3  -2   46.20    3.50
  -4   3  -2   38.20    3.50
   4  -3   2   46.10    5.30
   4  -3   2   38.50    4.10
   4  -3   2   47.60    5.70
   4  -3   2   49.99    6.40
   4  -3   2   48.00    4.30
   4  -3   2   45.20    4.20
  -5   3  -2   22.00    2.00
  -5   3  -2   23.30    2.00
   5  -3   2   30.50    3.90
   5  -3   2   23.30    4.70
   5  -3   2   24.20    3.70
   6  -3   2    5.30    2.50
   6  -3   2    4.60    1.80
   6  -3   2    6.50    1.80
   6   2  -2  125.69    9.40
   6   2  -2  126.39   12.20
  -6  -2   2  118.29    9.50
  -6  -2   2  107.89    9.20
  -6  -2   2  134.69    9.30
   5   2  -2   27.10    3.90
   5   2  -2   23.40    5.50
  -5  -2   2   31.50    2.70
  -5  -2   2   30.90    2.50
  -5  -2   2   30.10    2.60
   4   2  -2   50.79    4.90
   4   2  -2   52.19    7.80
   4   2  -2   48.00    5.40
   4   2  -2   47.70    4.20
  -4  -2   2   50.19    3.90
  -4  -2   2   51.19    3.90
  -4  -2   2   47.80    4.10
  -4  -2   2   44.30    4.40
  -4  -2   2   46.50    4.40
   3   2  -2  138.89   11.90
   3   2  -2  157.08   11.40
  -3  -2   2  156.68   11.40
  -3  -2   2  157.28   11.30
  -3  -2   2  125.49   11.70
  -3  -2   2  150.38   11.20
  -3  -2   2  158.98   13.80
   2   2  -2  160.28   11.90
   2   2  -2  173.78   11.90
   2   2  -2  146.99   22.40
   2   2  -2  150.18   21.40
  -2  -2   2  152.48   11.90
  -2  -2   2  165.28   13.10
  -2  -2   2  139.19   12.90
  -2  -2   2  161.78   13.20
  -2  -2   2  159.98   12.00
   1   2  -2 3005.10  224.28
  -1  -2   2 2932.01  220.28
  -1  -2   2 2942.11  220.18
   0   2  -2   76.99    6.30
   0   2  -2   74.79    6.10
   0   2  -2   86.69    9.40
   0   2  -2   77.09    6.70
   0  -2   2   84.69    6.10
   0  -2   2   89.69    6.20
   0  -2   2   82.39    6.20
  -1   2  -2 2946.91  231.88
   1  -2   2 3298.17  234.18
  -2   2  -2  163.38   12.40
  -2   2  -2  177.48   12.50
  -2   2  -2  126.39   15.80
   2  -2   2  178.78   12.40
   2  -2   2  165.78   16.10
   2  -2   2  154.38   12.40
  -3   2  -2  157.78   12.30
  -3   2  -2  175.28   11.90
  -3   2  -2  162.88   12.00
   3  -2   2  173.88   14.00
   3  -2   2  161.58   12.20
   3  -2   2  153.98   13.10
   3  -2   2  143.09   12.80
   3  -2   2  140.09   12.10
  -4   2  -2   49.90    4.30
  -4   2  -2   46.70    3.60
  -4   2  -2   45.00    3.60
   4  -2   2   51.79    6.60
   4  -2   2   39.20    5.50
   4  -2   2   48.90    4.20
   4  -2   2   46.10    3.90
   4  -2   2   57.79    8.20
   4  -2   2   42.00    5.30
  -5   2  -2   31.30    2.50
  -5   2  -2   28.50    2.40
   5  -2   2   32.30    5.50
   5  -2   2   31.10    4.40
   5  -2   2   30.80    4.30
  -6   2  -2  114.09    7.70
   6  -2   2   92.89    8.70
   6  -2   2   99.39    9.70
   6   1  -2    5.60    1.00
   6   1  -2    0.70    1.80
   6   1  -2    2.70    1.40
   6   1  -2    4.80    2.90
  -6  -1   2    4.50    0.60
  -6  -1   2    3.60    0.70
  -6  -1   2    3.70    0.70
   5   1  -2   62.59    7.30
   5   1  -2   69.79    7.10
  -5  -1   2   85.39    5.80
  -5  -1   2   62.89    6.30
  -5  -1   2   81.99    5.90
   4   1  -2  177.58   15.20
   4   1  -2  187.98   14.40
   4   1  -2  219.98   17.20
   4   1  -2  191.08   14.70
  -4  -1   2  182.28   14.10
  -4  -1   2  184.28   14.10
  -4  -1   2  183.88   14.20
  -4  -1   2  169.08   14.50
  -4  -1   2  194.18   14.30
   3   1  -2  234.48   18.20
   3   1  -2  224.98   35.70
  -3  -1   2  233.08   18.10
  -3  -1   2  232.38   18.00
  -3  -1   2  252.17   19.50
  -3  -1   2  260.17   18.20
   2   1  -2  673.93   55.49
   2   1  -2  626.94   49.50
   2   1  -2  626.74   54.79
   2   1  -2  657.83   49.40
  -2  -1   2  652.13   50.29
  -2  -1   2  633.74   50.29
  -2  -1   2  748.73   50.29
  -2  -1   2  712.43   49.50
  -2  -1   2  639.94   49.40
   1   1  -2 2484.35  185.08
   1   1  -2 2569.74  182.48
  -1  -1   2 2350.16  182.38
  -1  -1   2 2566.54  182.48
  -1  -1   2 2285.87  184.98
   0   1  -2  164.38   12.10
   0   1  -2  143.79   11.70
   0   1  -2  155.78   13.60
   0   1  -2  138.19   11.80
   0   1  -2  174.78   11.80
   0  -1   2  154.18   11.80
   0  -1   2  160.78   14.00
   0  -1   2  171.28   11.80
   1  -1   2 1653.93  118.09
   1  -1   2 1515.85  117.99
  -2   1  -2  682.03   50.19
  -2   1  -2  673.73   50.29
  -2   1  -2  666.03   50.39
  -2   1  -2  605.24   53.09
   2  -1   2  677.13   50.29
   2  -1   2  731.93   50.79
   2  -1   2  705.53   50.79
   2  -1   2  655.53   50.29
  -3   1  -2  235.48   18.10
  -3   1  -2  252.97   17.80
  -3   1  -2  218.48   18.50
  -3   1  -2  230.18   17.80
   3  -1   2  252.77   18.00
  -4   1  -2  175.18   13.30
  -4   1  -2  180.28   13.90
  -4   1  -2  171.88   13.40
   4  -1   2  178.68   13.80
   4  -1   2  173.08   14.80
   4  -1   2  187.88   13.80
  -5   1  -2   80.89    6.50
  -5   1  -2   78.39    6.50
   5  -1   2   88.79    8.30
   5  -1   2   94.89    8.30
  -6   1  -2    3.40    0.70
  -6   1  -2    3.20    0.60
   6  -1   2    2.60    2.60
   6  -1   2    1.60    1.60
   6  -1   2    3.40    1.50
   6   0  -2    2.80    1.60
   6   0  -2    5.30    1.00
   6   0  -2    2.40    2.70
   6   0  -2    4.00    1.50
  -6   0   2    4.40    0.70
  -6   0   2    5.80    0.70
   5   0  -2    4.10    1.00
   5   0  -2    2.10    3.00
   5   0  -2    0.50    1.10
   5   0  -2   -0.30    3.10
   5   0  -2    3.20    1.80
   5   0  -2    4.20    1.70
  -5   0   2    2.80    0.50
  -5   0   2    2.60    0.60
   4   0  -2  187.98   15.20
   4   0  -2  196.98   15.10
   4   0  -2  205.08   16.10
  -4   0   2  196.78   14.70
  -4   0   2  206.98   14.80
  -4   0   2  182.18   15.20
  -4   0   2  187.28   14.90
  -4   0   2  210.88   15.10
   3   0  -2  518.35   39.10
  -3   0   2  489.95   38.80
  -3   0   2  550.84   39.70
  -3   0   2  517.15   38.90
  -3   0   2  536.55   39.00
   2   0  -2  653.83   48.80
   2   0  -2  584.14   48.10
   2   0  -2  597.94   44.60
  -2   0   2  631.24   45.20
  -2   0   2  525.15   44.50
  -2   0   2  611.34   44.60
   1   0  -2 7003.10  493.35
  -1   0   2 6249.27  493.25
   0   0  -2  267.67   22.50
   0   0  -2  322.87   22.30
   0   0  -2  323.67   22.30
   0   0   2  284.57   22.30
  -1   0  -2 6910.01  514.85
  -2   0  -2  557.54   46.80
  -2   0  -2  626.74   46.90
  -2   0  -2  568.24   50.99
  -2   0  -2  687.43   46.90
  -2   0  -2  611.44   47.00
   2   0   2  607.74   47.00
   2   0   2  729.93   51.49
   2   0   2  595.24   46.90
   2   0   2  654.33   47.70
   2   0   2  678.23   47.80
  -3   0  -2  481.75   37.40
  -3   0  -2  480.35   38.50
  -3   0  -2  491.65   37.50
  -3   0  -2  535.75   37.50
  -3   0  -2  524.05   37.80
   3   0   2  506.25   37.60
  -4   0  -2  186.08   14.60
  -4   0  -2  190.08   14.10
  -4   0  -2  184.68   14.20
  -4   0  -2  194.08   14.20
  -4   0  -2  179.08   14.30
   4   0   2  188.58   15.60
   4   0   2  189.98   14.80
   4   0   2  194.68   14.50
  -5   0  -2    2.50    0.60
  -5   0  -2    1.60    1.00
  -5   0  -2    3.30    0.50
   5   0   2    1.30    1.20
   5   0   2    2.60    1.40
   5   0   2    2.80    1.80
   5   0   2    5.60    2.30
   5   0   2   -0.10    1.60
   5   0   2   -0.80    2.60
  -6   0  -2    4.30    0.60
  -6   0  -2    5.30    0.70
  -6   0  -2    4.80    1.00
   6   0   2    4.00    1.90
   6   0   2    3.70    1.60
   6   0   2    1.00    2.70
   6   0   2    5.00    0.90
   6  -1  -2    3.40    0.70
   6  -1  -2    3.30    1.50
   6  -1  -2    1.30    1.40
   6  -1  -2    4.80    3.00
  -6   1   2    3.20    0.50
   5  -1  -2   87.09    8.20
   5  -1  -2   79.59    9.60
   5  -1  -2   86.49    7.50
   5  -1  -2   99.29    7.10
  -5   1   2   84.19    6.60
  -5   1   2   81.29    6.60
   4  -1  -2  182.38   14.30
   4  -1  -2  182.98   15.20
   4  -1  -2  203.18   14.20
   4  -1  -2  206.98   15.30
  -4   1   2  178.28   14.40
  -4   1   2  175.58   14.00
  -4   1   2  165.28   13.80
  -4   1   2  185.58   13.90
   3  -1  -2  246.98   18.50
  -3   1   2  234.08   18.20
  -3   1   2  250.47   18.30
   2  -1  -2  779.92   54.99
   2  -1  -2  797.42   56.69
   2  -1  -2  848.82   56.59
   2  -1  -2  670.73   54.99
  -2   1   2  667.33   54.89
  -2   1   2  683.03   54.89
  -2   1   2  736.23   55.19
   0  -1  -2  167.48   12.80
   0  -1  -2  178.28   12.80
   0  -1  -2  184.38   12.80
   0  -1  -2  168.68   14.50
   0  -1  -2  157.28   12.80
   0  -1  -2  175.28   12.90
   0   1   2  196.78   13.20
   0   1   2  152.38   14.20
   0   1   2  164.68   13.20
   0   1   2  169.98   12.80
   0   1   2  178.18   12.80
   0   1   2  163.88   12.80
  -1  -1  -2 2544.55  192.58
   1   1   2 2550.84  192.08
  -2  -1  -2  652.43   50.69
  -2  -1  -2  655.13   51.99
  -2  -1  -2  625.54   56.29
  -2  -1  -2  647.44   50.49
   2   1   2  721.03   56.19
   2   1   2  671.83   50.59
   2   1   2  730.23   50.49
   2   1   2  731.73   51.69
  -3  -1  -2  237.98   17.30
  -3  -1  -2  206.08   18.80
  -3  -1  -2  227.78   17.20
  -3  -1  -2  227.08   17.20
  -3  -1  -2  234.38   17.50
   3   1   2  244.48   17.40
  -4  -1  -2  180.98   13.20
  -4  -1  -2  173.78   13.60
  -4  -1  -2  158.88   13.30
  -4  -1  -2  177.38   13.10
  -4  -1  -2  182.08   13.30
   4   1   2  167.18   13.90
   4   1   2  178.98   13.40
  -5  -1  -2   70.39    6.90
  -5  -1  -2   83.29    6.40
  -5  -1  -2   86.49    6.50
   5   1   2   90.59    7.40
   5   1   2   87.49    9.00
   5   1   2   78.59    7.30
   5   1   2   88.49    8.20
  -6  -1  -2    3.10    0.60
  -6  -1  -2    3.80    0.50
  -6  -1  -2    3.60    0.60
   6   1   2    2.70    1.40
   6   1   2    0.70    2.30
   6   1   2    3.30    0.70
   6   1   2    2.50    3.30
   6  -2  -2   64.99    5.20
   6  -2  -2   67.99    7.40
   5  -2  -2   28.90    3.30
   5  -2  -2   25.20    4.00
   5  -2  -2   26.90    5.50
   5  -2  -2   28.50    2.70
   5  -2  -2   30.80    4.20
  -5   2   2   31.70    2.40
  -5   2   2   31.20    2.40
   4  -2  -2   47.50    5.20
   4  -2  -2   42.50    4.20
   4  -2  -2   52.49    5.60
  -4   2   2   46.80    4.30
  -4   2   2   47.10    3.60
   3  -2  -2  174.38   11.90
   3  -2  -2  161.18   11.90
   3  -2  -2  153.68   12.70
   3  -2  -2  140.29   13.20
   3  -2  -2  147.69   12.70
  -3   2   2  157.48   12.00
  -3   2   2  152.88   11.50
  -3   2   2  148.99   11.70
   2  -2  -2  170.68   12.80
   2  -2  -2  172.38   12.70
  -2   2   2  160.68   12.60
  -2   2   2  169.38   12.70
   0  -2  -2   78.49   10.00
   0  -2  -2   81.69    7.30
   0  -2  -2   91.49    6.90
   0  -2  -2   88.19    6.80
   0  -2  -2   87.39    7.30
   0   2   2   92.19    9.80
   0   2   2   90.89    6.70
   0   2   2   93.89    6.80
   0   2   2   94.29    7.30
  -1  -2  -2 2917.31  238.28
   1   2   2 3430.66  234.68
   1   2   2 3085.59  238.08
  -2  -2  -2  148.59   11.40
  -2  -2  -2  147.99   11.60
  -2  -2  -2  135.89   13.20
  -2  -2  -2  154.18   11.50
  -2  -2  -2  143.89   12.70
  -2  -2  -2  135.49   12.60
   2   2   2  158.18   11.50
   2   2   2  172.38   11.60
   2   2   2  170.78   11.50
   2   2   2  162.28   21.20
  -3  -2  -2  151.58   11.20
  -3  -2  -2  149.49   11.10
  -3  -2  -2  148.89   14.20
  -3  -2  -2  143.39   11.40
  -3  -2  -2  134.09   11.30
  -3  -2  -2  154.98   11.10
   3   2   2  149.99   11.20
   3   2   2  149.19   29.60
  -4  -2  -2   43.40    4.20
  -4  -2  -2   43.60    4.40
  -4  -2  -2   47.30    3.90
  -4  -2  -2   48.20    3.80
  -4  -2  -2   45.40    3.70
   4   2   2   45.60    4.00
   4   2   2   56.29    5.90
   4   2   2   47.10    5.00
  -5  -2  -2   33.00    2.50
  -5  -2  -2   29.40    2.50
  -5  -2  -2   29.30    2.70
   5   2   2   22.10    4.20
   5   2   2   31.80    4.40
   5   2   2   27.10    3.50
  -6  -2  -2  114.19    8.80
  -6  -2  -2  132.59    8.90
   6   2   2  105.19    8.90
   6   2   2  113.69    9.70
   6  -3  -2    3.80    1.30
   6  -3  -2    3.00    1.40
   6  -3  -2    2.80    2.00
   5  -3  -2   21.60    2.20
   5  -3  -2   21.80    3.70
   5  -3  -2   21.50    3.50
   4  -3  -2   53.09    5.60
   4  -3  -2   53.59    4.70
   4  -3  -2   51.19    4.30
   4  -3  -2   61.89    6.80
   4  -3  -2   49.99    5.30
   4  -3  -2   49.40    5.80
  -4   3   2   53.29    5.00
  -4   3   2   46.90    3.90
   3  -3  -2  199.58   17.60
   3  -3  -2  224.48   17.20
   3  -3  -2  244.28   17.20
   3  -3  -2  244.58   18.60
   3  -3  -2  210.68   17.80
   3  -3  -2  235.28   18.20
  -3   3   2  234.78   17.20
  -3   3   2  204.58   16.80
   2  -3  -2  999.50   77.89
   2  -3  -2  979.60   77.79
  -2   3   2 1093.79   77.79
  -2   3   2 1064.79   77.79
  -2   3   2 1087.59   77.79
   1  -3  -2  203.18   15.40
   1  -3  -2  213.48   15.50
  -1   3   2  199.18   15.50
  -1   3   2  194.78   15.40
  -1   3   2  214.38   15.30
  -1   3   2  204.28   15.30
   0  -3  -2  178.48   13.50
   0  -3  -2  175.08   12.90
   0  -3  -2  148.89   13.60
   0  -3  -2  165.88   13.60
   0  -3  -2  161.08   13.30
   0   3   2  154.88   17.50
   0   3   2  172.78   12.70
   0   3   2  184.48   13.00
   0   3   2  185.08   12.90
  -1  -3  -2  179.88   16.50
  -1  -3  -2  225.38   15.80
  -1  -3  -2  232.38   17.10
  -1  -3  -2  192.98   16.90
  -1  -3  -2  206.88   15.70
   1   3   2  211.08   15.80
   1   3   2  210.48   24.20
   1   3   2  220.78   15.90
  -2  -3  -2  988.00   74.09
  -2  -3  -2  993.40   72.39
  -2  -3  -2  918.61   72.29
  -2  -3  -2  942.91   74.19
  -2  -3  -2  946.51   72.39
  -2  -3  -2  947.81   72.49
  -2  -3  -2  899.21   73.59
   2   3   2 1091.69   88.59
   2   3   2 1017.90   72.59
   2   3   2 1071.29   72.59
   2   3   2 1006.10   72.39
   2   3   2 1002.70   84.09
   2   3   2  884.11   72.29
  -3  -3  -2  207.78   15.60
  -3  -3  -2  215.08   15.60
  -3  -3  -2  209.78   15.70
  -3  -3  -2  214.28   15.50
  -3  -3  -2  185.28   16.30
  -3  -3  -2  222.38   15.40
  -3  -3  -2  184.28   20.30
   3   3   2  194.28   15.60
   3   3   2  208.18   16.50
  -4  -3  -2   47.70    3.90
  -4  -3  -2   35.60    4.80
  -4  -3  -2   43.60    3.70
  -4  -3  -2   47.20    3.70
   4   3   2   49.50    3.90
   4   3   2   47.30    5.00
  -5  -3  -2   25.60    2.30
  -5  -3  -2   23.20    2.10
  -5  -3  -2   22.50    2.20
   5   3   2   23.40    3.70
   5   3   2   24.90    3.20
  -6  -3  -2    9.20    0.90
   6   3   2    6.70    1.30
   6   3   2    5.00    1.40
   6   3   2    7.60    1.20
   5  -4  -2   38.20    5.70
   5  -4  -2   43.50    4.90
   5  -4  -2   47.00    3.80
   5  -4  -2   49.20    5.00
   4  -4  -2  196.08   15.80
   4  -4  -2  160.68   15.30
   4  -4  -2  218.38   15.00
   4  -4  -2  165.98   15.80
   4  -4  -2  207.48   15.00
   4  -4  -2  197.68   14.60
   3  -4  -2  186.18   15.30
   3  -4  -2  176.18   14.60
   3  -4  -2  176.58   13.80
   3  -4  -2  169.58   13.60
   3  -4  -2  198.98   14.50
   3  -4  -2  151.18   14.90
   3  -4  -2  163.18   14.80
   3  -4  -2  183.18   13.80
  -3   4   2  201.98   13.90
   2  -4  -2   15.70    2.40
   2  -4  -2   13.60    3.00
   2  -4  -2   17.00    2.10
   2  -4  -2   16.60    1.80
  -2   4   2   14.70    1.70
  -2   4   2   15.70    1.40
  -2   4   2   14.40    1.80
   1  -4  -2  141.99   10.90
  -1   4   2  146.59   10.50
  -1   4   2  136.19   10.90
  -1   4   2  138.99   10.80
   0  -4  -2  991.00   72.09
   0  -4  -2  883.41   73.29
   0  -4  -2 1054.59   72.69
   0   4   2  950.60   71.99
   0   4   2  933.11   80.09
   0   4   2 1018.30   72.09
   0   4   2  967.20   79.69
   0   4   2  906.11   71.89
   0   4   2  993.50   72.19
  -1  -4  -2  152.58   10.80
  -1  -4  -2  145.29   12.00
   1   4   2  136.39   10.70
   1   4   2  185.68   33.60
   1   4   2  145.19   11.00
   1   4   2  139.29   10.80
   1   4   2  110.59   28.10
   1   4   2  131.39   10.60
  -2  -4  -2   12.40    2.70
  -2  -4  -2   19.00    1.80
  -2  -4  -2   16.60    1.50
  -2  -4  -2    9.50    4.90
  -2  -4  -2   17.10    1.60
  -2  -4  -2   16.80    4.00
  -2  -4  -2   23.40    5.50
   2   4   2   16.50    1.60
   2   4   2   19.10    1.90
   2   4   2   17.60    1.90
   2   4   2   21.60   39.30
   2   4   2   16.60    1.50
   2   4   2   16.10    2.30
   2   4   2    0.20   26.60
  -3  -4  -2  174.88   13.50
  -3  -4  -2  187.18   17.50
  -3  -4  -2  171.68   14.50
  -3  -4  -2  169.38   13.60
  -3  -4  -2  180.88   13.90
  -3  -4  -2  196.08   13.80
   3   4   2  189.28   13.50
   3   4   2  177.78   14.90
   3   4   2  175.68   13.90
  -4  -4  -2  209.28   15.90
  -4  -4  -2  232.58   16.70
  -4  -4  -2  198.48   15.60
   4   4   2  192.78   16.80
   4   4   2  206.88   15.90
  -5  -4  -2   50.19    4.00
   5   4   2   55.79    5.50
   5   4   2   47.00    4.90
   5  -5  -2   33.60    4.10
   5  -5  -2   40.10    5.00
   5  -5  -2   35.80    3.80
   4  -5  -2   37.30    4.30
   4  -5  -2   33.90    4.60
   4  -5  -2   44.00    4.80
   4  -5  -2   32.10    3.40
   4  -5  -2   45.50    5.40
   3  -5  -2   94.59    7.70
   3  -5  -2   87.69    8.50
   3  -5  -2   80.89    8.80
   3  -5  -2  100.89    8.40
   3  -5  -2   94.39    9.00
   3  -5  -2   87.09    7.40
   3  -5  -2  108.79    9.10
   2  -5  -2   96.29    7.80
   2  -5  -2   94.99    7.30
   2  -5  -2   78.29    7.10
   2  -5  -2  101.29    8.70
   2  -5  -2   86.79    8.50
   2  -5  -2   75.29    8.20
  -2   5   2   81.59    7.30
  -2   5   2   96.49    7.10
  -2   5   2   92.79    6.70
   1  -5  -2  281.07   20.40
   1  -5  -2  242.48   20.60
   1  -5  -2  252.47   21.40
   1  -5  -2  288.37   20.80
  -1   5   2  274.97   20.00
  -1   5   2  255.17   20.40
  -1   5   2  265.57   20.20
  -1   5   2  275.77   20.00
   0  -5  -2 1689.63  116.59
   0  -5  -2 1436.86  116.79
   0  -5  -2 1583.44  116.69
   0   5   2 1644.54  116.39
   0   5   2 1534.15  116.39
   0   5   2 1483.75  116.79
   0   5   2 1595.14  116.59
  -1  -5  -2  277.87   21.50
  -1  -5  -2  264.57   21.80
  -1  -5  -2  317.17   22.90
  -1  -5  -2  294.77   21.40
   1   5   2  266.67   21.20
   1   5   2  268.67   21.60
   1   5   2  293.97   21.30
   1   5   2  287.87   21.50
  -2  -5  -2  102.79    7.40
  -2  -5  -2   91.49    8.20
  -2  -5  -2   88.49    9.80
   2   5   2   89.09    7.30
   2   5   2   99.39    7.70
   2   5   2   90.09    7.60
   2   5   2   96.09    8.90
   2   5   2   94.89    7.80
   2   5   2   98.89    7.30
  -3  -5  -2  105.69    7.80
  -3  -5  -2  103.89   13.40
   3   5   2   91.79    7.90
   3   5   2   94.29    8.90
   3   5   2   99.19    7.50
  -4  -5  -2   48.70    4.70
  -4  -5  -2   49.20    3.80
   4   5   2   40.70    4.90
   4   5   2   41.30    3.80
  -5  -5  -2   50.29    3.60
   5   5   2   38.20    4.20
   4  -6  -2  214.38   18.20
   4  -6  -2  229.98   17.60
   3  -6  -2  122.79   10.10
   3  -6  -2  106.39    9.20
   3  -6  -2  101.29    8.60
   2  -6  -2   49.90    4.80
   2  -6  -2   45.00    4.30
   2  -6  -2   46.00    4.10
   2  -6  -2   40.40    5.40
  -2   6   2   49.80    3.60
   1  -6  -2  448.46   32.30
   1  -6  -2  378.66   32.10
   1  -6  -2  475.35   33.60
  -1   6   2  425.46   31.80
  -1   6   2  416.56   31.70
  -1   6   2  409.66   32.00
   0  -6  -2   20.10    3.50
   0  -6  -2   20.20    2.60
   0  -6  -2   20.50    2.40
   0   6   2   22.60    1.90
   0   6   2   20.40    1.80
   0   6   2   21.40    2.40
   0   6   2   21.00    2.30
  -1  -6  -2  470.95   35.10
  -1  -6  -2  519.55   34.50
  -1  -6  -2  460.55   35.70
  -1  -6  -2  454.95   34.70
   1   6   2  433.76   34.00
   1   6   2  438.06   34.30
   1   6   2  409.06   34.00
  -2  -6  -2   49.50    4.70
  -2  -6  -2   46.50    3.70
   2   6   2   37.60    4.10
   2   6   2   43.60    5.60
   2   6   2   42.30    3.90
   2   6   2   41.00    3.50
   2   6   2   43.60    3.60
  -3  -6  -2  122.49    8.90
  -3  -6  -2  111.19   11.00
  -3  -6  -2  108.89   16.30
   3   6   2  112.59    8.70
   3   6   2  115.69   10.20
  -4  -6  -2  245.88   18.00
  -4  -6  -2  250.47   17.30
   4   6   2  212.08   18.10
   4   6   2  209.78   17.30
   4  -7  -2    0.70    1.10
   4  -7  -2    0.60    1.60
   3  -7  -2    8.20    2.10
   2  -7  -2   10.30    1.80
   2  -7  -2    9.40    1.90
   2  -7  -2    9.30    2.20
   2  -7  -2    5.60    2.00
  -2   7   2    7.80    1.10
  -2   7   2    7.50    0.90
   1  -7  -2   30.50    3.50
   1  -7  -2   40.70    3.90
   1  -7  -2   35.00    3.40
   1  -7  -2   34.20    4.50
  -1   7   2   31.40    2.80
  -1   7   2   34.10    2.80
   0  -7  -2  251.67   19.20
   0  -7  -2  257.17   19.50
   0  -7  -2  258.67   20.10
   0  -7  -2  241.38   18.90
   0   7   2  238.98   18.90
   0   7   2  235.08   18.60
   0   7   2  255.37   18.70
  -1  -7  -2   39.80    3.70
  -1  -7  -2   37.50    6.00
  -1  -7  -2   38.30    4.10
   1   7   2   30.40    2.90
   1   7   2   28.30    2.80
   1   7   2   31.60    3.20
  -2  -7  -2    9.90    4.80
  -2  -7  -2    9.80    2.10
   2   7   2    6.90    1.00
   2   7   2    6.70    1.00
   2   7   2    6.60    1.20
  -3  -7  -2    7.30    1.70
   3   7   2    5.60    2.20
  -4  -7  -2   -0.70    0.80
   4   7   2    0.10    0.40
   3  -8  -2  113.99    9.30
   3  -8  -2  118.79    9.60
   2  -8  -2    2.80    1.50
   2  -8  -2    1.90    1.20
  -2   8   2    2.80    0.60
  -2   8   2    2.90    0.50
   1  -8  -2    7.90    1.80
   1  -8  -2    8.00    2.30
  -1   8   2    4.90    0.70
  -1   8   2    5.50    0.90
   0  -8  -2   43.40    4.00
   0  -8  -2   45.90    4.50
   0   8   2   36.90    3.20
   0   8   2   36.70    3.50
   0   8   2   35.80    3.20
  -1  -8  -2    5.80    1.50
   1   8   2    4.60    0.70
   1   8   2    4.50    0.70
   1   8   2    5.70    1.00
  -2  -8  -2    4.40    1.20
   2   8   2    2.50    1.00
   2   8   2    2.20    0.50
   2   8   2    2.90    0.70
   3   8   2   86.99    6.70
   1  -9  -2   58.09    4.90
   1  -9  -2   52.49    4.70
  -1   9   2   53.99    4.20
   0  -9  -2   32.80    3.00
   0   9   2   31.00    2.60
   0   9   2   30.00    2.60
   0   9   2   28.60    2.40
  -1  -9  -2   60.19    4.60
   1   9   2   52.09    4.40
   1   9   2   48.30    4.10
   1   9  -3  110.49    8.30
   1   9  -3  113.79    8.40
  -1  -9   3  108.79    8.60
   0   9  -3    1.70    0.50
   0   9  -3    1.60    0.30
   0  -9   3    0.90    0.80
   0  -9   3    0.70    0.90
  -1   9  -3  123.79    9.60
   1  -9   3  114.29   10.00
   1  -9   3  146.69   10.30
   3   8  -3   53.09    4.20
   2   8  -3   30.90    2.70
   2   8  -3   38.10    3.00
  -2  -8   3   33.20    3.10
   1   8  -3   31.50    2.30
   1   8  -3   30.60    2.60
   1   8  -3   25.60    2.50
  -1  -8   3   27.60    2.90
  -1  -8   3   23.10    3.20
   0   8  -3    7.50    1.20
   0   8  -3    6.60    0.90
   0   8  -3    6.50    0.90
   0  -8   3    7.50    1.80
   0  -8   3    8.30    2.10
   0  -8   3    5.00    1.30
  -1   8  -3   33.60    2.80
  -1   8  -3   32.00    2.50
   1  -8   3   31.10    3.30
   1  -8   3   28.40    3.70
  -2   8  -3   37.20    3.10
  -2   8  -3   38.20    3.00
   2  -8   3   44.00    4.40
   2  -8   3   37.30    4.00
   4   7  -3   33.90    2.80
   4   7  -3   38.30    3.40
   3   7  -3   44.00    3.60
  -3  -7   3   40.30    3.80
   2   7  -3   58.09    4.20
   2   7  -3   53.29    4.30
   2   7  -3   56.49    4.60
   2   7  -3   53.69    5.70
  -2  -7   3   47.10    4.80
   1   7  -3   75.89    6.00
   1   7  -3   75.49    6.30
   1   7  -3   76.99    6.00
  -1  -7   3   70.49    6.60
  -1  -7   3   88.09    7.30
   0   7  -3  295.67   22.00
   0   7  -3  268.97   22.00
   0   7  -3  270.07   21.80
   0  -7   3  314.57   22.60
   0  -7   3  321.47   23.20
   0  -7   3  324.17   23.80
   0  -7   3  244.78   22.40
  -1   7  -3   71.59    6.00
  -1   7  -3   77.09    5.70
  -1   7  -3   73.49    5.70
   1  -7   3   76.49    7.30
   1  -7   3   69.69    8.00
   1  -7   3   72.49    6.70
   1  -7   3   76.39    6.60
  -2   7  -3   53.59    4.10
  -2   7  -3   55.09    4.10
   2  -7   3   47.60    5.50
   2  -7   3   52.59    6.30
   2  -7   3   56.09    5.20
   2  -7   3   51.09    6.00
   3  -7   3   57.69    5.40
   3  -7   3   45.00    5.10
   4  -7   3   28.20    2.90
   4  -7   3   18.40    3.20
   4   6  -3   97.49    8.40
   4   6  -3  114.79    9.10
  -4  -6   3  110.39    8.30
   3   6  -3  166.28   12.40
   3   6  -3  146.99   13.10
  -3  -6   3  140.39   12.20
  -3  -6   3  184.38   13.20
   2   6  -3  375.16   28.10
   2   6  -3  341.17   28.30
   2   6  -3  384.96   28.10
   2   6  -3  360.66   29.20
  -2  -6   3  409.66   29.00
  -2  -6   3  441.46   33.90
  -2  -6   3  334.57   28.20
   1   6  -3   83.49    7.00
   1   6  -3   88.19    7.10
   1   6  -3   82.19    7.60
   1   6  -3   80.19    7.30
  -1  -6   3   81.59    7.40
  -1  -6   3  110.09    9.80
  -1  -6   3  106.79    8.60
  -1  -6   3  107.49    8.10
   0   6  -3  500.75   36.50
   0   6  -3  501.85   36.00
   0   6  -3  467.95   35.90
   0   6  -3  451.35   36.10
   0  -6   3  501.65   36.80
   0  -6   3  468.45   36.50
  -1   6  -3   86.39    6.50
  -1   6  -3   78.69    6.40
  -1   6  -3   80.09    7.10
   1  -6   3   91.39    7.30
   1  -6   3   80.59    7.20
   1  -6   3   97.99    7.40
   1  -6   3   75.29    7.90
  -2   6  -3  373.26   28.20
  -2   6  -3  343.87   27.30
  -2   6  -3  359.86   27.30
   2  -6   3  413.66   28.40
   2  -6   3  341.47   28.10
  -3   6  -3  167.78   11.30
  -3   6  -3  156.28   11.30
   3  -6   3  131.79   12.50
   3  -6   3  126.79   12.10
   3  -6   3  165.38   12.70
   4  -6   3   79.99    7.90
   4  -6   3   93.09    8.00
   4  -6   3   92.69    8.70
   5   5  -3   39.40    3.90
  -5  -5   3   41.90    3.40
   4   5  -3   70.49    6.70
   4   5  -3   70.69    5.70
  -4  -5   3   76.19    5.80
   3   5  -3  197.58   16.30
   3   5  -3  208.68   16.90
   3   5  -3  209.18   17.30
  -3  -5   3  232.88   17.10
  -3  -5   3  201.98   16.60
  -3  -5   3  234.18   16.40
   2   5  -3   83.09    8.10
   2   5  -3   83.59    7.30
   2   5  -3   88.69    7.70
   2   5  -3   82.39    7.10
   2   5  -3   91.29    6.80
   2   5  -3   94.69    6.90
  -2  -5   3   90.09    7.20
  -2  -5   3   99.09    9.60
  -2  -5   3   98.89    7.10
  -2  -5   3   82.69    7.70
   1   5  -3   66.89    5.20
   1   5  -3   60.99    5.50
   1   5  -3   69.99    5.30
   1   5  -3   67.09    5.70
   1   5  -3   59.59    5.80
  -1  -5   3   69.99    5.50
  -1  -5   3   72.99    5.60
  -1  -5   3   78.49    6.10
   0   5  -3  161.58   12.30
   0   5  -3  160.88   12.70
   0   5  -3  164.38   12.30
   0  -5   3  164.88   12.70
  -1   5  -3   64.49    5.60
  -1   5  -3   62.49    5.00
  -1   5  -3   70.29    5.00
   1  -5   3   60.69    6.80
   1  -5   3   60.19    6.50
   1  -5   3   68.89    5.70
   1  -5   3   69.39    6.50
  -2   5  -3   83.49    6.50
  -2   5  -3   64.89    5.90
   2  -5   3   70.49    7.20
   2  -5   3   82.89    6.60
   2  -5   3   77.69    8.50
  -3   5  -3  205.18   16.40
  -3   5  -3  223.08   15.50
   3  -5   3  208.18   17.10
   3  -5   3  222.28   17.00
   3  -5   3  189.88   16.30
   3  -5   3  193.28   17.80
  -4   5  -3   64.59    5.20
   4  -5   3   73.19    6.50
   4  -5   3   66.09    6.80
   4  -5   3   69.29    7.70
   5  -5   3   23.30    3.00
   5  -5   3   16.60    2.80
   5   4  -3   74.79    5.90
  -5  -4   3   53.69    5.20
  -5  -4   3   54.69    5.00
  -5  -4   3   74.89    5.20
   4   4  -3  321.27   25.60
   4   4  -3  340.67   24.70
  -4  -4   3  348.67   25.50
  -4  -4   3  353.66   24.90
  -4  -4   3  286.27   24.60
  -4  -4   3  323.27   24.90
   3   4  -3   80.59    6.30
   3   4  -3   76.89    6.70
   3   4  -3   80.49    7.30
  -3  -4   3   82.89    7.10
  -3  -4   3   75.29    6.10
  -3  -4   3   78.69    6.40
  -3  -4   3   70.29    7.40
  -3  -4   3   73.09    6.20
  -3  -4   3   92.59    6.40
   2   4  -3  162.38   14.20
   2   4  -3  178.98   13.40
   2   4  -3  123.99   37.70
   2   4  -3  197.28   13.40
   2   4  -3  185.28   13.30
   2   4  -3  178.48   13.70
   2   4  -3  186.08   13.70
   2   4  -3  150.98   41.60
  -2  -4   3  186.18   16.80
  -2  -4   3  161.68   13.30
  -2  -4   3  189.68   13.60
  -2  -4   3  164.78   17.60
  -2  -4   3  191.68   15.30
  -2  -4   3  158.58   14.00
   1   4  -3  506.75   38.00
   1   4  -3  478.65   68.79
   1   4  -3  447.76   51.89
   1   4  -3  499.35   38.30
   1   4  -3  461.65   38.00
  -1  -4   3  535.85   38.10
  -1  -4   3  583.84   41.00
  -1  -4   3  549.05   39.20
  -1  -4   3  493.65   40.00
  -1  -4   3  499.55   38.20
   0   4  -3  377.36   43.90
   0   4  -3  461.85   32.90
   0   4  -3  464.25   33.00
   0   4  -3  448.96   33.20
   0   4  -3  426.76   40.90
   0  -4   3  410.36   34.70
   0  -4   3  449.26   34.40
   0  -4   3  455.75   33.20
  -1   4  -3  505.95   36.80
  -1   4  -3  455.65   37.20
   1  -4   3  504.95   37.90
   1  -4   3  548.65   37.90
   1  -4   3  455.25   37.70
   1  -4   3  500.55   37.30
  -2   4  -3  202.98   13.70
  -2   4  -3  180.48   13.50
  -2   4  -3  180.18   14.00
   2  -4   3  152.98   15.50
   2  -4   3  188.78   14.80
   2  -4   3  171.48   14.20
  -3   4  -3   80.79    6.90
  -3   4  -3   80.09    6.50
   3  -4   3   77.99    7.70
   3  -4   3   67.99    8.10
   3  -4   3   75.79    7.40
   3  -4   3   93.69    7.70
   3  -4   3   82.39    8.80
   3  -4   3   81.49    6.80
  -4   4  -3  283.57   20.80
   4  -4   3  267.27   21.50
   4  -4   3  272.17   23.30
   4  -4   3  280.07   22.30
   4  -4   3  296.17   22.40
   4  -4   3  267.97   22.10
  -5   4  -3   57.99    4.20
   5  -4   3   51.29    5.50
   5  -4   3   61.59    6.70
   5  -4   3   47.80    5.50
   6   3  -3    6.20    0.90
  -6  -3   3    4.40    0.70
  -6  -3   3    6.50    0.90
   5   3  -3   72.29    6.50
   5   3  -3   64.29    8.40
   5   3  -3   67.39    6.00
  -5  -3   3   54.89    5.30
  -5  -3   3   78.79    5.50
  -5  -3   3   64.09    5.30
   4   3  -3   35.10    4.20
   4   3  -3   40.40    3.80
   4   3  -3   32.40    4.40
   4   3  -3   42.60    3.40
  -4  -3   3   41.00    3.40
  -4  -3   3   39.80    3.50
  -4  -3   3   39.70    3.30
  -4  -3   3   36.10    3.90
  -4  -3   3   38.80    3.20
   3   3  -3  348.57   25.50
   3   3  -3  339.67   25.50
   3   3  -3  303.37   26.10
   3   3  -3  314.07   25.70
  -3  -3   3  350.86   25.40
  -3  -3   3  350.36   26.20
  -3  -3   3  345.57   25.50
  -3  -3   3  362.36   25.40
   2   3  -3  530.45   64.39
   2   3  -3  600.44   43.70
   2   3  -3  549.65   43.70
   2   3  -3  490.15   55.79
   2   3  -3  579.54   43.60
  -2  -3   3  582.74   43.50
  -2  -3   3  636.04   43.70
  -2  -3   3  560.64   44.70
  -2  -3   3  585.64   43.50
  -2  -3   3  648.04   45.30
  -2  -3   3  593.94   45.50
   1   3  -3  254.37   27.80
   1   3  -3  258.87   20.20
  -1  -3   3  280.57   20.10
  -1  -3   3  275.67   20.10
  -1  -3   3  277.47   20.90
  -1  -3   3  253.67   20.10
   0   3  -3 1990.40  156.38
   0  -3   3 2106.39  152.18
  -1   3  -3  227.78   18.80
  -1   3  -3  265.27   18.80
  -1   3  -3  251.77   19.10
   1  -3   3  263.07   19.10
   1  -3   3  255.87   24.90
  -2   3  -3  576.94   43.20
  -2   3  -3  593.14   43.50
   2  -3   3  576.84   43.70
  -3   3  -3  372.86   25.20
  -3   3  -3  350.56   25.60
   3  -3   3  363.26   25.80
   3  -3   3  359.46   27.50
   3  -3   3  310.47   25.50
   3  -3   3  311.37   26.70
   3  -3   3  295.07   26.10
   3  -3   3  337.97   26.50
  -4   3  -3   44.00    4.20
  -4   3  -3   40.20    3.10
  -4   3  -3   41.20    3.10
   4  -3   3   33.10    3.90
   4  -3   3   35.20    4.70
   4  -3   3   39.90    5.00
   4  -3   3   50.19    6.20
   4  -3   3   36.80    5.10
  -5   3  -3   67.49    5.20
  -5   3  -3   66.69    5.20
   5  -3   3   65.09    6.70
   5  -3   3   72.69    6.90
   6  -3   3    2.70    1.10
   6  -3   3    4.10    2.10
   6  -3   3    2.60    1.20
   6   2  -3   16.40    2.60
   6   2  -3   13.70    4.00
   6   2  -3   19.40    1.80
  -6  -2   3   23.00    1.80
  -6  -2   3   17.80    1.60
   5   2  -3  150.98   11.40
   5   2  -3  131.59   11.90
   5   2  -3  135.49   11.80
   5   2  -3  128.29   13.50
  -5  -2   3  144.49   10.80
  -5  -2   3  146.19   10.70
  -5  -2   3  146.99   10.90
   4   2  -3  171.18   15.50
   4   2  -3  183.38   14.10
   4   2  -3  169.88   20.30
   4   2  -3  172.68   13.60
  -4  -2   3  182.38   13.40
  -4  -2   3  183.08   13.60
  -4  -2   3  184.48   13.80
  -4  -2   3  160.18   13.80
  -4  -2   3  178.58   13.30
   3   2  -3  637.54   46.90
   3   2  -3  585.44   47.30
   3   2  -3  671.33   76.89
  -3  -2   3  607.24   49.50
  -3  -2   3  668.93   47.00
  -3  -2   3  668.13   46.80
  -3  -2   3  540.95   46.90
  -3  -2   3  674.13   46.80
   2   2  -3  718.93   63.89
   2   2  -3  687.63   55.59
   2   2  -3  701.03   55.79
   2   2  -3  760.32   65.79
   2   2  -3  736.33   55.69
  -2  -2   3  743.53   56.99
  -2  -2   3  708.53   56.59
  -2  -2   3  811.52   55.79
  -2  -2   3  783.82   55.69
  -2  -2   3  823.02   56.89
  -2  -2   3  753.82   55.59
   1   2  -3  577.84   44.90
   1   2  -3  598.34   45.70
   1   2  -3  566.14   49.40
  -1  -2   3  593.14   45.40
  -1  -2   3  635.94   44.80
  -1  -2   3  618.54   45.60
  -1  -2   3  519.05   49.80
  -1  -2   3  602.84   44.80
  -1  -2   3  687.03   44.90
   0   2  -3  636.74   50.79
   0   2  -3  686.03   50.69
   0   2  -3  659.73   51.29
   0   2  -3  597.14   50.59
   0   2  -3  703.83   53.79
   0  -2   3  671.13   54.89
   0  -2   3  740.13   50.69
   0  -2   3  704.63   50.79
   0  -2   3  737.03   50.69
  -1   2  -3  617.04   45.80
  -1   2  -3  643.64   46.30
   1  -2   3  581.84   49.70
   1  -2   3  613.64   45.90
  -2   2  -3  854.31   59.79
  -2   2  -3  793.42   62.89
  -2   2  -3  793.12   59.89
   2  -2   3  784.62   60.19
   2  -2   3  777.72   59.99
   2  -2   3  784.52   64.19
   2  -2   3  826.42   59.89
   2  -2   3  813.82   60.29
  -3   2  -3  761.32   52.39
  -3   2  -3  734.33   52.39
  -3   2  -3  678.03   52.79
   3  -2   3  663.03   52.69
   3  -2   3  683.23   53.49
   3  -2   3  654.33   52.79
   3  -2   3  760.02   54.49
  -4   2  -3  173.48   14.30
  -4   2  -3  179.18   13.70
  -4   2  -3  180.78   13.80
   4  -2   3  162.98   13.90
   4  -2   3  199.98   15.50
   4  -2   3  205.08   16.50
   4  -2   3  194.18   15.60
   4  -2   3  179.78   14.20
  -5   2  -3  139.69   11.10
  -5   2  -3  143.89   11.20
   5  -2   3  170.18   14.10
   5  -2   3  144.79   12.80
   5  -2   3  146.49   12.70
   6  -2   3   11.30    2.50
   6  -2   3   13.70    3.60
   6   1  -3   86.49    7.70
   6   1  -3   82.29    8.80
  -6  -1   3   88.19    6.90
  -6  -1   3   96.49    6.80
   5   1  -3   21.40    3.80
   5   1  -3   17.80    2.80
  -5  -1   3   18.60    2.10
  -5  -1   3   19.30    1.80
  -5  -1   3   20.30    1.90
   4   1  -3  105.89    9.10
   4   1  -3   92.39    8.40
   4   1  -3  101.49    8.20
   4   1  -3  114.69   11.10
  -4  -1   3  102.99    7.80
  -4  -1   3  100.09    8.00
  -4  -1   3  100.29    8.30
  -4  -1   3   97.59    7.90
  -4  -1   3  110.79    7.90
   3   1  -3   59.69   21.90
   3   1  -3   77.49    6.00
  -3  -1   3   78.29    7.70
  -3  -1   3   67.59    5.70
  -3  -1   3   76.19    5.80
  -3  -1   3   82.19    6.00
   2   1  -3  371.66   29.00
   2   1  -3  371.36   34.60
   2   1  -3  402.86   36.40
   2   1  -3  408.36   29.20
  -2  -1   3  406.86   29.00
  -2  -1   3  381.16   28.90
  -2  -1   3  399.66   29.90
  -2  -1   3  366.56   29.80
   1   1  -3 2387.46  176.78
   1   1  -3 2300.17  179.28
  -1  -1   3 2166.58  179.58
  -1  -1   3 2717.73  176.78
  -1  -1   3 2288.07  176.58
   0   1  -3  553.84   42.60
   0   1  -3  521.25   42.70
   0   1  -3  506.85   42.70
   0   1  -3  583.04   43.10
   0  -1   3  632.74   42.80
   0  -1   3  586.94   45.60
   0  -1   3  635.14   42.60
  -1   1  -3 2504.35  187.98
  -2   1  -3  398.86   29.80
  -2   1  -3  350.26   33.50
  -2   1  -3  413.36   29.60
  -2   1  -3  411.16   29.70
   2  -1   3  403.76   29.80
   2  -1   3  398.46   29.70
  -3   1  -3   83.09    6.00
  -3   1  -3   80.99    6.00
  -3   1  -3   84.29    6.10
  -3   1  -3   74.79    6.40
   3  -1   3   78.59    6.30
   3  -1   3  113.29   25.10
   3  -1   3   74.59    6.30
  -4   1  -3   92.09    7.80
  -4   1  -3  104.09    7.40
  -4   1  -3   97.99    7.30
   4  -1   3  104.29    7.80
   4  -1   3   84.89    7.90
  -5   1  -3   19.60    1.60
  -5   1  -3   15.10    2.00
  -5   1  -3   20.20    1.70
   5  -1   3   21.40    3.80
   5  -1   3   15.50    4.70
   5  -1   3   19.80    2.00
   5  -1   3   20.20    4.00
  -6   1  -3   93.09    6.90
  -6   1  -3   98.49    6.70
   6  -1   3   74.59    7.70
   6  -1   3   75.99    8.60
   6  -1   3   96.29    7.90
   6   0  -3  128.89   11.60
   6   0  -3  147.09   11.70
   6   0  -3  122.09   12.70
  -6   0   3  149.39   10.60
  -6   0   3  155.38   10.70
   5   0  -3   91.19    7.60
   5   0  -3  100.29    8.30
   5   0  -3   76.49    9.80
   5   0  -3   86.69    6.90
  -5   0   3   89.29    6.60
  -5   0   3   82.49    6.90
  -5   0   3   81.19    6.70
   4   0  -3   28.90    4.00
   4   0  -3   30.30    6.10
   4   0  -3   30.80    4.00
   4   0  -3   30.80    3.00
   4   0  -3   32.60    3.10
  -4   0   3   28.90    2.40
  -4   0   3   28.90    2.60
  -4   0   3   23.30    2.60
  -4   0   3   29.60    2.40
  -4   0   3   28.60    3.00
   3   0  -3 1309.87  101.39
   3   0  -3 1491.95  109.79
  -3   0   3 1339.67  101.19
  -3   0   3 1416.26  101.39
  -3   0   3 1278.97  101.19
   2   0  -3  251.37   23.50
   2   0  -3  240.18   18.50
   2   0  -3  258.17   22.70
  -2   0   3  241.48   18.50
  -2   0   3  244.38   19.00
  -2   0   3  284.27   19.50
  -2   0   3  215.68   18.40
   1   0  -3    8.30    2.90
   1   0  -3    6.60    1.30
   1   0  -3    7.50    0.80
   1   0  -3    6.90    0.70
   1   0  -3    6.20    1.40
   1   0  -3    8.70    0.70
  -1   0   3    4.80    3.00
  -1   0   3    6.80    0.70
  -1   0   3    6.70    0.70
   0   0  -3    0.70    1.60
   0   0  -3    0.70    0.30
   0   0  -3    0.70    0.30
   0   0   3    0.20    0.20
   0   0   3    1.40    0.30
   0   0   3    1.40    0.70
   0   0   3    1.30    0.80
   0   0   3    1.10    1.50
  -1   0  -3    6.50    0.80
  -1   0  -3    6.80    3.20
  -1   0  -3    8.00    0.90
   1   0   3    6.80    0.80
   1   0   3    6.10    3.00
   1   0   3    6.60    0.60
   1   0   3    8.00    1.80
   1   0   3    6.90    1.70
  -2   0  -3  279.17   19.10
  -2   0  -3  254.67   19.10
  -2   0  -3  227.58   19.20
  -2   0  -3  223.58   19.10
  -2   0  -3  217.28   24.40
   2   0   3  302.17   24.60
   2   0   3  263.27   19.20
   2   0   3  249.97   19.20
   2   0   3  261.57   20.00
   2   0   3  286.27   20.20
  -3   0  -3 1266.47   99.19
  -3   0  -3 1291.07   99.29
  -3   0  -3 1481.15   99.59
  -3   0  -3 1196.78  100.39
  -3   0  -3 1359.76   99.29
   3   0   3 1394.86   99.39
   3   0   3 1365.76   99.49
  -4   0  -3   27.40    2.60
  -4   0  -3   28.00    2.30
  -4   0  -3   28.40    2.80
  -4   0  -3   28.50    2.20
   4   0   3   28.50    4.30
   4   0   3   27.40    2.70
   4   0   3   24.80    3.30
  -5   0  -3   86.69    6.90
  -5   0  -3   84.39    7.00
   5   0   3  104.19   10.20
   5   0   3   94.79    8.70
   5   0   3   86.59    8.70
  -6   0  -3  163.48   12.60
  -6   0  -3  188.18   12.80
  -6   0  -3  170.38   12.60
   6   0   3  142.59   13.50
   6   0   3  173.48   13.90
   6  -1  -3  101.99    7.30
   6  -1  -3   88.49    8.20
  -6   1   3   88.69    7.30
  -6   1   3   99.99    7.20
   5  -1  -3   22.40    3.80
   5  -1  -3   17.70    3.40
   5  -1  -3   16.20    4.70
  -5   1   3   19.70    1.70
  -5   1   3   17.80    1.60
   4  -1  -3   99.69    8.20
   4  -1  -3  111.79    9.20
   4  -1  -3  112.79    8.00
  -4   1   3  102.79    7.70
  -4   1   3  100.19    8.20
  -4   1   3   90.89    8.20
  -4   1   3   91.79    7.60
   3  -1  -3   77.79    6.00
  -3   1   3   71.59    5.80
   2  -1  -3  437.16   35.30
   2  -1  -3  511.65   35.30
   2  -1  -3  461.35   37.20
  -2   1   3  523.75   35.50
  -2   1   3  430.86   35.20
   1  -1  -3 2601.94  195.08
   1  -1  -3 2912.31  195.18
  -1   1   3 2365.96  196.08
   0  -1  -3  661.83   50.19
   0  -1  -3  621.14   48.10
   0  -1  -3  680.03   48.20
   0   1   3  670.63   48.20
   0   1   3  691.93   49.99
   0   1   3  603.64   48.20
   0   1   3  616.74   48.60
   0   1   3  644.64   48.10
   1   1   3 2435.76  196.78
   1   1   3 2781.22  194.58
  -2  -1  -3  382.76   37.20
  -2  -1  -3  393.06   30.30
  -2  -1  -3  369.46   30.50
   2   1   3  372.56   30.40
   2   1   3  433.36   30.40
   2   1   3  474.05   32.80
   2   1   3  432.16   36.50
  -3  -1  -3   67.89    5.70
  -3  -1  -3   68.89    8.20
  -3  -1  -3   74.79    5.70
  -3  -1  -3   75.39    5.70
  -3  -1  -3   81.49    6.10
   3   1   3  130.79   28.00
   3   1   3   75.79    5.90
  -4  -1  -3  101.69    7.80
  -4  -1  -3   96.89    8.00
  -4  -1  -3   99.69    7.80
  -4  -1  -3   95.29    8.20
   4   1   3  112.69   10.50
   4   1   3   98.09    8.70
   4   1   3  101.79    8.10
   4   1   3  116.89    9.60
  -5  -1  -3   18.60    1.90
  -5  -1  -3   19.70    1.80
  -5  -1  -3   18.60    2.40
   5   1   3   24.70    5.90
   5   1   3   24.10    4.20
  -6  -1  -3  105.69    7.50
  -6  -1  -3  101.19    7.50
  -6  -1  -3  106.49    7.40
   6   1   3   85.69    7.60
   6   1   3   88.49    9.60
   6   1   3   94.29    8.50
   6  -2  -3    9.60    3.10
   6  -2  -3   12.90    2.40
   6  -2  -3   12.70    2.50
   6  -2  -3   15.10    1.70
  -6   2   3   16.20    1.30
   5  -2  -3  127.29   13.30
   5  -2  -3  146.99   11.40
   5  -2  -3  123.29   10.80
   5  -2  -3  142.39   12.20
  -5   2   3  144.49   10.70
  -5   2   3  160.28   10.70
   4  -2  -3  220.98   17.40
   4  -2  -3  212.78   15.30
   4  -2  -3  229.28   16.40
   4  -2  -3  195.38   16.20
   4  -2  -3  178.68   15.20
  -4   2   3  173.58   15.30
  -4   2   3  175.78   14.70
   3  -2  -3  639.94   51.19
   3  -2  -3  741.23   50.49
   3  -2  -3  675.93   50.49
   3  -2  -3  778.52   51.99
   3  -2  -3  624.44   51.19
   3  -2  -3  708.33   50.49
  -3   2   3  630.34   50.29
  -3   2   3  609.14   50.09
   2  -2  -3  789.92   62.49
   2  -2  -3  876.21   62.59
  -2   2   3  822.62   62.39
  -2   2   3  869.71   62.49
   1  -2  -3  656.63   48.10
   1  -2  -3  630.74   48.00
   1  -2  -3  708.93   48.00
  -1   2   3  611.64   48.00
  -1   2   3  617.04   48.00
   0  -2  -3  748.13   53.39
   0  -2  -3  687.23   53.29
   0  -2  -3  776.62   56.89
   0  -2  -3  650.93   53.39
   0   2   3  740.03   53.29
   0   2   3  689.13   53.29
   0   2   3  707.83   55.89
   0   2   3  748.33   53.39
  -1  -2  -3  634.04   52.39
  -1  -2  -3  562.44   47.50
  -1  -2  -3  587.94   46.60
   1   2   3  571.34   50.99
   1   2   3  654.73   46.70
   1   2   3  676.83   47.80
   1   2   3  637.74   46.60
   1   2   3  681.23   46.70
  -2  -2  -3  662.03   54.29
  -2  -2  -3  766.82   54.39
  -2  -2  -3  674.93   55.69
  -2  -2  -3  724.13   54.29
  -2  -2  -3  709.53   54.39
   2   2   3  789.82   54.29
   2   2   3  799.82   62.79
   2   2   3  757.72   54.49
   2   2   3  707.33   54.29
  -3  -2  -3  632.64   46.90
  -3  -2  -3  638.74   47.00
  -3  -2  -3  580.24   47.10
  -3  -2  -3  596.84   47.20
  -3  -2  -3  590.94   49.40
  -3  -2  -3  594.14   46.90
   3   2   3  716.33   47.00
   3   2   3  649.43   67.29
   3   2   3  681.93   46.90
  -4  -2  -3  165.58   12.80
  -4  -2  -3  171.68   13.00
  -4  -2  -3  172.38   12.80
  -4  -2  -3  164.78   13.20
   4   2   3  160.48   13.00
   4   2   3  161.28   13.80
   4   2   3  190.38   14.30
  -5  -2  -3  141.49   10.30
  -5  -2  -3  138.49   10.20
  -5  -2  -3  140.59   10.40
   5   2   3  116.99   11.00
  -6  -2  -3   22.60    1.80
  -6  -2  -3   20.60    1.70
   6   2   3   18.00    2.80
   6   2   3   18.90    1.90
   6  -3  -3    4.50    2.60
   6  -3  -3    4.20    1.20
   5  -3  -3   69.19    7.70
   5  -3  -3   61.09    5.10
   5  -3  -3   51.99    6.20
   5  -3  -3   65.29    6.40
  -5   3   3   66.19    4.90
   4  -3  -3   32.80    4.20
   4  -3  -3   37.90    4.90
   4  -3  -3   43.80    3.40
   4  -3  -3   43.00    4.70
   4  -3  -3   39.80    5.70
   4  -3  -3   39.10    3.70
   4  -3  -3   32.40    5.20
  -4   3   3   37.10    4.30
  -4   3   3   36.70    3.10
   3  -3  -3  362.16   27.10
   3  -3  -3  401.76   27.00
   3  -3  -3  341.87   27.90
   3  -3  -3  394.56   27.90
  -3   3   3  342.57   27.10
  -3   3   3  353.76   27.00
  -3   3   3  313.67   26.80
   2  -3  -3  589.24   45.00
   2  -3  -3  599.84   45.10
  -2   3   3  621.94   45.00
  -2   3   3  599.34   45.00
   1  -3  -3  282.47   21.30
   1  -3  -3  282.97   21.20
  -1   3   3  267.97   21.20
  -1   3   3  315.57   21.20
  -1   3   3  266.77   21.30
   0  -3  -3 2084.49  138.59
   0  -3  -3 1661.63  138.69
   0   3   3 1925.11  137.89
   0   3   3 1927.31  143.49
   0   3   3 1688.73  141.49
  -1  -3  -3  237.58   20.60
  -1  -3  -3  250.67   19.70
  -1  -3  -3  283.27   21.00
  -1  -3  -3  250.97   21.00
   1   3   3  264.57   28.00
   1   3   3  284.37   19.80
   1   3   3  245.88   19.70
   1   3   3  289.87   19.90
  -2  -3  -3  493.95   42.50
  -2  -3  -3  532.55   40.60
  -2  -3  -3  522.55   42.00
  -2  -3  -3  537.75   40.70
  -2  -3  -3  585.34   42.70
  -2  -3  -3  520.05   40.60
   2   3   3  596.24   40.80
   2   3   3  501.65   40.60
   2   3   3  537.75   53.19
   2   3   3  606.54   40.70
   2   3   3  575.84   59.89
   2   3   3  549.95   40.80
  -3  -3  -3  323.77   23.90
  -3  -3  -3  308.47   24.00
  -3  -3  -3  322.17   23.80
  -3  -3  -3  355.56   25.20
  -3  -3  -3  318.37   24.10
  -3  -3  -3  289.57   26.40
   3   3   3  326.57   25.00
   3   3   3  306.27   24.10
  -4  -3  -3   36.70    3.10
  -4  -3  -3   37.20    3.80
  -4  -3  -3   37.40    5.10
  -4  -3  -3   37.40    3.00
  -4  -3  -3   39.70    3.30
   4   3   3   36.80    3.40
   4   3   3   34.90    4.50
  -5  -3  -3   72.69    5.30
  -5  -3  -3   72.89    5.30
  -5  -3  -3   64.19    5.20
   5   3   3   53.59    6.00
  -6  -3  -3    6.30    0.80
   6   3   3    7.00    1.20
   6   3   3    6.50    0.80
   6   3   3    4.00    1.20
   5  -4  -3   48.00    5.30
   5  -4  -3   51.99    4.30
   5  -4  -3   56.59    5.70
   4  -4  -3  272.37   22.00
   4  -4  -3  279.67   21.60
   4  -4  -3  307.27   22.60
   4  -4  -3  252.77   22.30
   4  -4  -3  291.57   21.30
   3  -4  -3   81.09    6.60
   3  -4  -3   82.69    6.50
   3  -4  -3   82.79    7.50
   3  -4  -3   69.49    7.90
   3  -4  -3   70.09    6.50
   3  -4  -3   95.29    8.30
   3  -4  -3   70.89    7.10
   3  -4  -3   93.59    8.10
   2  -4  -3  152.38   12.50
   2  -4  -3  170.68   13.00
   2  -4  -3  156.78   13.10
  -2   4   3  172.08   12.50
  -2   4   3  167.48   12.40
  -2   4   3  160.98   12.60
   1  -4  -3  501.15   37.00
  -1   4   3  471.25   36.90
  -1   4   3  480.95   36.70
  -1   4   3  521.85   37.30
   0  -4  -3  445.16   34.30
   0  -4  -3  497.55   33.70
   0   4   3  443.26   33.50
   0   4   3  381.76   40.00
   0   4   3  449.06   33.60
   0   4   3  444.76   33.50
   0   4   3  421.56   43.30
   0   4   3  477.25   33.80
  -1  -4  -3  402.96   37.70
  -1  -4  -3  492.25   36.90
  -1  -4  -3  557.84   37.70
   1   4   3  453.05   35.60
   1   4   3  501.15   48.20
   1   4   3  466.15   55.29
   1   4   3  504.55   35.80
   1   4   3  471.15   35.60
   1   4   3  460.15   36.00
  -2  -4  -3  150.98   17.00
  -2  -4  -3  173.38   13.00
  -2  -4  -3  156.88   13.00
  -2  -4  -3  183.78   15.00
   2   4   3  180.18   13.20
   2   4   3  180.18   13.20
   2   4   3  177.78   13.00
   2   4   3  132.29   50.89
   2   4   3  157.08   12.90
   2   4   3  181.68   13.40
  -3  -4  -3   73.99   11.60
  -3  -4  -3   66.49    6.80
  -3  -4  -3   72.59    6.00
  -3  -4  -3   74.39    5.70
  -3  -4  -3   78.39    5.70
  -3  -4  -3   73.89    5.90
   3   4   3   76.09    5.60
   3   4   3   71.29    6.00
   3   4   3   70.99    7.10
  -4  -4  -3  295.17   22.00
  -4  -4  -3  282.27   21.90
  -4  -4  -3  307.07   21.70
   4   4   3  279.07   21.90
   4   4   3  283.07   22.90
  -5  -4  -3   58.59    4.80
  -5  -4  -3   69.99    5.00
   5   4   3   57.49    5.70
   5   4   3   62.29    6.40
   5  -5  -3   30.20    3.50
   5  -5  -3   28.40    3.10
   5  -5  -3   25.70    4.00
   4  -5  -3   47.90    5.80
   4  -5  -3   60.29    5.70
   4  -5  -3   52.99    6.00
   4  -5  -3   51.89    6.50
   4  -5  -3   63.69    6.10
   4  -5  -3   68.09    4.90
   3  -5  -3  207.38   16.00
   3  -5  -3  195.38   16.30
   3  -5  -3  201.78   16.60
   3  -5  -3  189.68   15.40
   2  -5  -3   86.79    6.90
   2  -5  -3   76.29    7.90
   2  -5  -3   84.79    6.40
   2  -5  -3   64.79    6.20
  -2   5   3   76.69    5.80
  -2   5   3   73.49    6.20
  -2   5   3   74.19    6.40
   1  -5  -3   58.99    6.50
   1  -5  -3   57.49    5.20
   1  -5  -3   61.09    5.20
  -1   5   3   65.69    4.80
  -1   5   3   60.59    5.30
  -1   5   3   65.59    4.80
  -1   5   3   66.49    5.00
   0  -5  -3  159.08   12.20
   0  -5  -3  167.58   12.10
   0  -5  -3  142.99   12.90
   0   5   3  151.18   11.70
   0   5   3  146.59   11.50
   0   5   3  146.49   12.00
   0   5   3  160.48   11.60
  -1  -5  -3   60.19    5.90
  -1  -5  -3   66.69    5.40
   1   5   3   67.89    5.60
   1   5   3   69.09    5.40
   1   5   3   65.39    5.10
   1   5   3   68.79    5.10
   1   5   3   61.69    5.50
  -2  -5  -3   76.29    8.90
  -2  -5  -3   77.99    6.20
   2   5   3   81.19    6.20
   2   5   3   80.79    7.90
   2   5   3   74.79    6.10
   2   5   3   81.79    6.50
   2   5   3   78.99    6.50
   2   5   3   81.79    6.70
  -3  -5  -3  194.28   14.90
  -3  -5  -3  172.08   18.50
  -3  -5  -3  193.18   14.00
   3   5   3  172.08   14.10
   3   5   3  181.58   15.20
  -4  -5  -3   65.39    4.90
  -4  -5  -3   58.99    5.70
   4   5   3   56.99    5.90
   4   5   3   56.69    4.90
  -5  -5  -3   38.30    3.10
   3  -6  -3  125.39   10.80
   3  -6  -3  141.49   11.50
   3  -6  -3  129.99   10.40
   3  -6  -3  118.09   10.00
   2  -6  -3  359.36   26.10
   2  -6  -3  336.57   25.70
   2  -6  -3  292.87   26.70
  -2   6   3  354.96   25.10
   1  -6  -3   63.79    6.40
   1  -6  -3   87.79    7.90
   1  -6  -3   78.09    6.40
  -1   6   3   81.99    5.80
  -1   6   3   64.29    6.50
  -1   6   3   73.39    5.80
   0  -6  -3  464.05   33.30
   0  -6  -3  390.36   34.20
   0  -6  -3  441.36   33.40
   0  -6  -3  407.76   33.20
   0   6   3  455.65   33.10
   0   6   3  461.55   32.90
   0   6   3  444.46   33.20
   0   6   3  459.55   32.90
  -1  -6  -3   84.39    8.40
  -1  -6  -3   77.79    7.30
  -1  -6  -3   79.09    6.40
   1   6   3   72.49    6.00
   1   6   3   78.99    6.60
   1   6   3   78.49    6.40
   1   6   3   76.29    6.10
  -2  -6  -3  306.87   26.60
  -2  -6  -3  338.87   23.30
   2   6   3  289.57   23.20
   2   6   3  309.87   23.30
   2   6   3  301.17   23.90
   2   6   3  317.07   24.60
   2   6   3  306.87   23.60
  -3  -6  -3  147.19   10.50
  -3  -6  -3  141.39   11.50
  -3  -6  -3  129.49   16.80
   3   6   3  129.49   10.30
   3   6   3  135.79   10.80
   3   6   3  131.89   11.60
  -4  -6  -3  113.59    8.00
  -4  -6  -3  108.39    8.70
   4   6   3   95.59    8.80
   4   6   3   95.29    8.00
   4  -7  -3   31.60    3.50
   3  -7  -3   45.80    4.40
   3  -7  -3   38.50    4.70
   2  -7  -3   62.89    4.90
   2  -7  -3   62.09    5.40
   2  -7  -3   52.59    6.30
  -2   7   3   50.69    4.30
  -2   7   3   51.29    4.40
   1  -7  -3   63.09    6.00
   1  -7  -3   76.39    6.40
   1  -7  -3   72.79    7.10
   1  -7  -3   63.69    5.80
  -1   7   3   65.59    5.40
  -1   7   3   74.09    5.40
   0  -7  -3  215.58   19.10
   0  -7  -3  285.27   20.30
   0  -7  -3  254.47   19.00
   0   7   3  250.37   18.80
   0   7   3  253.67   19.00
   0   7   3  239.38   19.00
  -1  -7  -3   61.69    7.00
  -1  -7  -3   72.99    5.70
  -1  -7  -3   79.19    6.10
  -1  -7  -3   76.99    8.00
   1   7   3   60.99    5.30
   1   7   3   61.19    5.30
   1   7   3   65.19    5.60
  -2  -7  -3   54.09    4.60
  -2  -7  -3   53.69    9.00
   2   7   3   43.80    4.00
   2   7   3   39.10    3.70
   2   7   3   43.00    3.60
   3   7   3   34.70    4.40
   3   7   3   33.10    3.00
   4   7   3   32.60    3.30
   4   7   3   33.10    2.80
   3  -8  -3   60.39    5.30
   3  -8  -3   54.19    4.90
   2  -8  -3   30.80    3.90
   2  -8  -3   36.40    3.60
  -2   8   3   33.60    2.70
  -2   8   3   36.10    2.80
   1  -8  -3   26.40    3.10
   1  -8  -3   27.40    3.60
  -1   8   3   27.20    2.20
  -1   8   3   27.70    2.40
   0  -8  -3    6.10    2.10
   0  -8  -3    7.40    1.80
   0   8   3    4.40    0.80
   0   8   3    6.10    0.80
   0   8   3    6.80    1.10
  -1  -8  -3   26.80    3.00
   1   8   3   24.30    2.40
   1   8   3   25.10    2.10
   1   8   3   21.00    2.30
   2   8   3   26.40    2.50
   2   8   3   30.50    2.60
   2   8   3   27.20    2.30
  -3  -8  -3   45.30    3.80
   3   8   3   41.90    3.50
   1  -9  -3  124.09    9.70
   1  -9  -3  134.49    9.90
  -1   9   3  106.59    9.10
   0  -9  -3    0.60    0.80
   0  -9  -3    1.80    1.10
   0   9   3    0.40    0.30
   0   9   3    0.70    0.70
  -1  -9  -3  118.19    8.70
   1   9   3   96.19    8.20
   1   9   3  114.39    8.40
   1   9  -4   82.39    6.30
   1   9  -4   83.59    6.40
   0   9  -4   74.19    4.90
   0   9  -4   67.69    5.00
   0  -9   4   58.19    5.20
   0  -9   4   57.29    5.40
  -1   9  -4   82.69    6.40
   1  -9   4   87.19    7.10
   3   8  -4   22.00    1.90
   2   8  -4   27.90    2.40
   2   8  -4   32.00    2.80
  -2  -8   4   32.30    3.30
   1   8  -4   12.70    1.30
   1   8  -4   12.90    1.60
   1   8  -4   14.30    1.20
  -1  -8   4   14.10    2.00
  -1  -8   4   11.30    2.30
   0   8  -4   92.59    7.40
   0   8  -4  101.79    7.40
   0   8  -4   97.29    7.50
   0  -8   4  109.99    8.50
   0  -8   4   82.99    7.70
   0  -8   4   97.59    8.00
  -1   8  -4   15.00    1.30
  -1   8  -4   13.60    1.60
  -1   8  -4   14.30    1.40
   1  -8   4   13.90    2.20
   1  -8   4   17.00    2.80
  -2   8  -4   31.80    2.30
  -2   8  -4   26.50    2.20
   2  -8   4   22.40    3.80
   3  -8   4   31.40    3.20
   4   7  -4   74.79    5.70
   3   7  -4   69.09    5.30
   3   7  -4   63.69    6.00
   2   7  -4   27.10    4.40
   2   7  -4   32.30    3.00
   2   7  -4   33.20    2.60
   2   7  -4   30.90    2.70
  -2  -7   4   34.30    3.40
   1   7  -4   59.89    4.70
   1   7  -4   54.79    4.90
   1   7  -4   59.19    4.60
  -1  -7   4   62.19    5.50
   0   7  -4   29.70    2.60
   0   7  -4   30.50    2.50
   0   7  -4   29.40    2.80
   0  -7   4   29.40    3.30
   0  -7   4   32.10    6.00
   0  -7   4   35.80    4.00
   0  -7   4   22.30    3.50
  -1   7  -4   57.49    4.40
  -1   7  -4   53.59    4.40
   1  -7   4   46.70    5.50
   1  -7   4   61.29    5.30
   1  -7   4   45.90    9.00
   1  -7   4   64.99    6.10
  -2   7  -4   33.50    2.70
   2  -7   4   32.40    3.80
   2  -7   4   27.20    4.70
   2  -7   4   39.20    4.50
  -3   7  -4   65.29    5.10
   3  -7   4   69.49    6.30
   4  -7   4   78.49    6.60
   4  -7   4   74.59    6.90
   4   6  -4   36.10    3.80
   4   6  -4   33.50    2.80
  -4  -6   4   33.60    3.00
   3   6  -4    2.60    1.70
   3   6  -4    1.50    0.70
  -3  -6   4    0.40    1.40
  -3  -6   4    1.20    0.70
   2   6  -4  158.88   11.60
   2   6  -4  163.68   11.50
   2   6  -4  141.29   12.70
   2   6  -4  150.28   11.80
  -2  -6   4  170.48   15.40
  -2  -6   4  137.59   11.70
   1   6  -4   61.29    5.60
   1   6  -4   64.39    5.30
   1   6  -4   67.09    5.10
   1   6  -4   68.39    5.00
  -1  -6   4   65.79    6.00
  -1  -6   4   58.49    5.50
   0   6  -4   56.19    4.10
   0   6  -4   52.19    4.10
   0   6  -4   49.00    4.30
   0   6  -4   51.79    4.80
   0  -6   4   48.80    4.80
  -1   6  -4   63.79    4.80
  -1   6  -4   61.29    5.50
  -1   6  -4   59.29    4.80
  -1   6  -4   59.39    5.00
   1  -6   4   72.49    7.00
   1  -6   4   49.10    7.20
   1  -6   4   63.29    5.60
   1  -6   4   64.19    6.50
   1  -6   4   62.79    5.70
  -2   6  -4  157.18   11.80
  -2   6  -4  149.19   11.80
   2  -6   4  173.98   13.40
   2  -6   4  175.48   12.90
   2  -6   4  143.39   12.70
   2  -6   4  138.89   14.00
  -3   6  -4    2.10    0.40
  -3   6  -4    1.80    0.40
   3  -6   4    1.90    1.60
   3  -6   4    2.00    1.60
   3  -6   4    0.10    1.40
   3  -6   4    1.90    2.10
   4  -6   4   28.50    3.70
   4  -6   4   23.90    3.80
   4  -6   4   30.40    4.30
   5   5  -4  157.18   12.50
  -5  -5   4  160.88   12.10
   4   5  -4   37.10    3.20
   4   5  -4   34.90    4.20
  -4  -5   4   37.70    3.30
  -4  -5   4   42.10    4.30
   3   5  -4  184.18   15.40
   3   5  -4  183.48   14.50
  -3  -5   4  184.98   15.20
  -3  -5   4  206.48   14.60
   2   5  -4    9.10    2.30
   2   5  -4   10.80    1.20
   2   5  -4    9.80    1.50
   2   5  -4   10.90    1.90
   2   5  -4   12.30    2.50
   2   5  -4   10.40    1.10
  -2  -5   4   11.40    1.70
  -2  -5   4   11.10    3.70
  -2  -5   4   14.50    1.60
  -2  -5   4   12.40    2.50
   1   5  -4  100.99    7.40
   1   5  -4   91.09    7.30
   1   5  -4   89.89    7.60
  -1  -5   4   94.99    7.60
  -1  -5   4  109.59    8.20
  -1  -5   4   94.09    7.70
   0   5  -4  126.19    9.70
   0   5  -4  126.79    9.50
   0   5  -4  131.99    9.50
   0   5  -4  132.89   10.00
   0  -5   4  110.69   10.50
  -1   5  -4   92.89    7.20
  -1   5  -4   89.89    7.70
   1  -5   4  102.69    9.50
   1  -5   4   80.59    8.40
   1  -5   4   95.59    7.90
   1  -5   4  108.59    8.00
  -2   5  -4   10.70    1.00
  -2   5  -4   11.40    1.00
  -2   5  -4   14.70    2.10
   2  -5   4    8.70    2.40
   2  -5   4   10.90    2.40
   2  -5   4    8.00    1.80
   2  -5   4   10.90    3.50
   2  -5   4    7.80    3.10
  -3   5  -4  181.98   13.00
  -3   5  -4  177.28   12.90
   3  -5   4  192.18   14.30
   3  -5   4  161.18   15.30
   3  -5   4  164.98   14.50
   3  -5   4  166.98   14.20
   3  -5   4  156.68   13.70
  -4   5  -4   33.80    2.50
  -4   5  -4   34.40    2.60
   4  -5   4   26.50    4.90
   4  -5   4   32.50    4.30
   4  -5   4   28.20    4.20
   5  -5   4   82.19    7.90
   5  -5   4  105.99    8.30
   5   4  -4    4.20    1.30
  -5  -4   4    4.20    0.80
  -5  -4   4    3.20    0.60
  -5  -4   4    3.10    1.20
   4   4  -4   43.40    7.50
   4   4  -4   51.39    3.90
   4   4  -4   45.90    4.80
  -4  -4   4   45.40    3.90
  -4  -4   4   50.89    4.00
  -4  -4   4   41.20    3.70
   3   4  -4  117.09    8.90
   3   4  -4  110.49    9.20
   3   4  -4  101.69    8.80
   3   4  -4  135.19   10.60
   3   4  -4  123.49   12.40
  -3  -4   4  115.99    9.30
  -3  -4   4   98.79    9.10
  -3  -4   4  120.59    9.60
  -3  -4   4  112.29    9.00
  -3  -4   4  116.99    8.80
  -3  -4   4  109.49    8.70
   2   4  -4  675.23   53.59
   2   4  -4  633.74   53.89
   2   4  -4  755.92   53.39
   2   4  -4  659.83   87.99
   2   4  -4  722.23   53.59
   2   4  -4  528.85   90.09
   2   4  -4  780.62   53.19
   2   4  -4  656.83   53.39
   2   4  -4  799.52   53.29
  -2  -4   4  708.73   53.29
  -2  -4   4  722.23   55.89
  -2  -4   4  693.23   56.79
  -2  -4   4  728.73   53.49
  -2  -4   4  783.22   54.99
  -2  -4   4  660.33   53.19
  -2  -4   4  776.72   53.39
   1   4  -4  668.53   50.49
   1   4  -4  711.83   50.19
   1   4  -4  658.83   50.19
   1   4  -4  608.74   63.19
  -1  -4   4  668.63   50.39
  -1  -4   4  683.73   52.59
  -1  -4   4  698.03   50.39
   0   4  -4   74.19    5.40
   0   4  -4   69.89    5.70
   0   4  -4   65.69    5.40
   0   4  -4   79.89   14.60
   0  -4   4   71.59    5.80
  -1   4  -4  643.34   50.29
  -1   4  -4  617.74   49.90
  -1   4  -4  720.93   49.90
   1  -4   4  696.83   51.09
   1  -4   4  675.93   50.29
  -2   4  -4  713.73   53.69
  -2   4  -4  723.93   54.19
  -2   4  -4  700.43   53.69
  -2   4  -4  757.02   53.89
   2  -4   4  720.33   54.29
  -3   4  -4  124.19    8.30
  -3   4  -4  110.09    8.70
  -3   4  -4  125.39    9.10
   3  -4   4  103.49   14.00
   3  -4   4   92.39    9.80
   3  -4   4   94.19   10.30
   3  -4   4  107.89    9.00
   3  -4   4  115.39   10.40
  -4   4  -4   44.00    3.40
  -4   4  -4   45.90    3.40
   4  -4   4   45.90    5.20
   4  -4   4   43.80    5.20
   4  -4   4   48.80    6.40
   4  -4   4   40.30    4.60
   4  -4   4   39.70    5.20
  -5   4  -4    3.50    0.60
  -5   4  -4    3.90    0.50
   5  -4   4    1.60    1.40
   5  -4   4    2.30    2.10
   5  -4   4    3.20    1.60
   5  -4   4    1.70    1.60
   5   3  -4   15.50    2.40
   5   3  -4   15.50    4.30
   5   3  -4   13.80    2.90
  -5  -3   4   14.30    1.60
  -5  -3   4   12.70    1.50
  -5  -3   4   17.00    1.70
   4   3  -4  104.79   11.50
   4   3  -4  103.39    9.30
   4   3  -4  104.19    9.10
  -4  -3   4  111.79    8.40
  -4  -3   4  114.09    8.40
  -4  -3   4  105.99    9.00
  -4  -3   4  104.19    8.60
  -4  -3   4  113.49    8.30
   3   3  -4   77.79    6.30
   3   3  -4   74.99    7.00
   3   3  -4   72.99    6.50
   3   3  -4   80.49    6.20
  -3  -3   4   78.19    7.20
  -3  -3   4   87.99    6.50
  -3  -3   4   79.39    6.20
  -3  -3   4   78.49    6.10
  -3  -3   4   78.99    6.20
   2   3  -4  724.03   54.49
   2   3  -4  727.03   54.49
   2   3  -4  732.13   54.59
   2   3  -4  727.73   68.49
   2   3  -4  702.03   54.69
  -2  -3   4  829.42   56.69
  -2  -3   4  759.92   54.49
  -2  -3   4  703.13   55.69
  -2  -3   4  659.83   56.39
  -2  -3   4  731.33   54.49
  -2  -3   4  761.52   54.69
   1   3  -4 1019.60   71.79
   1   3  -4  921.91   78.99
   1   3  -4  906.21   73.19
   1   3  -4  902.41   71.99
   1   3  -4  922.21   71.69
  -1  -3   4  952.10   71.79
  -1  -3   4  884.41   80.69
  -1  -3   4 1084.59   72.79
  -1  -3   4  987.40   71.89
  -1  -3   4 1052.09   71.89
   0   3  -4 1137.59   85.49
   0   3  -4 1020.60   81.49
   0   3  -4 1129.79   80.49
   0   3  -4 1061.79   80.69
   0  -3   4 1122.09   80.69
   0  -3   4 1011.60   87.69
   0  -3   4 1097.19   80.49
  -1   3  -4  919.91   72.79
  -1   3  -4 1005.10   71.99
  -1   3  -4 1117.09   72.09
  -1   3  -4  871.71   72.29
   1  -3   4  909.41   72.29
   1  -3   4  998.80   78.99
  -2   3  -4  731.03   51.89
  -2   3  -4  702.83   52.59
  -2   3  -4  703.83   56.29
  -2   3  -4  702.03   52.19
   2  -3   4  675.13   52.59
   2  -3   4  689.43   52.79
   2  -3   4  689.03   52.39
  -3   3  -4   79.49    6.70
  -3   3  -4   89.29    6.30
   3  -3   4   90.99    9.10
   3  -3   4   83.69    6.90
   3  -3   4   77.19    7.90
   3  -3   4   76.89    7.50
   3  -3   4   87.69    7.70
  -4   3  -4  108.79    9.20
  -4   3  -4  123.49    8.60
   4  -3   4  110.09   10.30
   4  -3   4  122.19   10.40
   4  -3   4  101.49   11.10
  -5   3  -4   13.30    1.30
  -5   3  -4   12.80    1.20
   5  -3   4   19.50    4.30
   5  -3   4   13.30    3.00
   5  -3   4   14.80    3.00
   6   2  -4   22.60    4.40
   6   2  -4   29.60    2.30
   6   2  -4   23.20    2.90
  -6  -2   4   24.90    2.10
   5   2  -4    4.10    1.70
   5   2  -4    3.30    1.20
   5   2  -4    3.20    3.20
   5   2  -4    1.90    2.10
  -5  -2   4    3.50    0.70
  -5  -2   4    4.30    0.80
  -5  -2   4    3.00    0.70
   4   2  -4   27.70    4.80
   4   2  -4   36.40    3.70
   4   2  -4   30.70    6.60
   4   2  -4   35.60    3.30
  -4  -2   4   32.90    3.00
  -4  -2   4   33.80    3.10
  -4  -2   4   33.30    2.80
  -4  -2   4   33.80    2.90
   3   2  -4    9.70    1.30
   3   2  -4    7.30    2.30
   3   2  -4    9.40    3.70
  -3  -2   4    7.00    1.20
  -3  -2   4    8.90    1.00
   2   2  -4   35.40    2.90
   2   2  -4   32.90    2.80
   2   2  -4   33.80    3.00
   2   2  -4   27.50   14.60
   2   2  -4   28.10   12.10
  -2  -2   4   40.30    4.80
  -2  -2   4   34.70    4.40
  -2  -2   4   35.40    3.10
  -2  -2   4   36.40    2.80
  -2  -2   4   42.50    4.50
   1   2  -4 1268.07   94.19
   1   2  -4 1069.49   93.19
   1   2  -4 1158.48   93.29
   1   2  -4 1174.88   93.29
   1   2  -4 1205.38   97.99
  -1  -2   4 1346.07   93.19
  -1  -2   4 1348.47   93.89
  -1  -2   4 1232.88   93.29
  -1  -2   4 1326.67   99.89
  -1  -2   4 1426.66   94.09
   0   2  -4    1.70    0.30
   0   2  -4    1.00    0.50
   0   2  -4    0.70    3.50
   0   2  -4    1.10    0.90
   0   2  -4    0.90    0.20
   0  -2   4    3.90    5.30
  -1   2  -4 1329.77   98.09
  -1   2  -4 1327.27   98.79
   1  -2   4 1306.67  103.19
  -2   2  -4   28.10    8.40
  -2   2  -4   35.20    3.10
   2  -2   4   36.30    3.20
   2  -2   4   44.10   11.20
   2  -2   4   41.20    3.20
   2  -2   4   37.00    4.30
   2  -2   4   36.30    3.90
  -3   2  -4   10.50    1.50
  -3   2  -4   12.10    0.90
  -3   2  -4   10.70    1.00
   3  -2   4   11.30    1.80
   3  -2   4    9.10    1.60
   3  -2   4   10.60    3.90
  -4   2  -4   34.50    3.40
  -4   2  -4   39.00    2.80
  -4   2  -4   35.70    2.80
   4  -2   4   35.00    5.00
   4  -2   4   33.90    4.70
   4  -2   4   39.70    5.80
   4  -2   4   28.00    4.50
  -5   2  -4    2.20    0.50
  -5   2  -4    2.60    0.40
   5  -2   4   -0.30    1.60
   5  -2   4    2.10    2.20
   5  -2   4    2.30    1.70
   5  -2   4    4.70    2.00
  -6   2  -4   33.60    2.60
   6  -2   4   34.10    3.90
   6  -2   4   30.70    3.60
   6   1  -4   28.10    3.30
   6   1  -4   31.00    2.50
   6   1  -4   30.10    5.00
  -6  -1   4   27.00    2.40
  -6  -1   4   32.60    2.70
  -6  -1   4   22.80    2.50
   5   1  -4    0.40    3.80
   5   1  -4    3.30    1.60
   5   1  -4    4.80    1.20
   5   1  -4    3.00    2.00
   5   1  -4    1.00    1.90
  -5  -1   4    3.50    0.70
  -5  -1   4    3.80    0.60
  -5  -1   4    4.10    0.80
   4   1  -4   62.19    5.20
   4   1  -4   60.59    5.40
   4   1  -4   65.19    6.50
   4   1  -4   48.00    8.30
   4   1  -4   65.69    6.10
  -4  -1   4   60.19    4.80
  -4  -1   4   55.79    4.80
  -4  -1   4   61.79    5.00
  -4  -1   4   59.79    4.70
   3   1  -4  434.96   54.39
   3   1  -4  447.46   34.30
  -3  -1   4  490.25   34.30
  -3  -1   4  463.55   34.10
  -3  -1   4  436.26   34.00
   2   1  -4  713.53   52.89
   2   1  -4  729.03   58.79
   2   1  -4  707.43   52.79
   2   1  -4  664.63   52.89
  -2  -1   4  692.83   52.79
  -2  -1   4  749.42   53.69
  -2  -1   4  721.43   52.89
   1   1  -4 1476.45  107.79
   1   1  -4 1301.37  106.99
   1   1  -4 1436.96  110.39
  -1  -1   4 1353.06  106.99
  -1  -1   4 1411.16  111.39
  -1  -1   4 1667.63  107.59
   0   1  -4   11.40    1.10
   0   1  -4   13.60    1.10
   0   1  -4   19.00    4.10
   0   1  -4   11.30    1.10
   0   1  -4   10.60    1.80
   0  -1   4   11.10    1.20
   0  -1   4    6.80    4.00
   0  -1   4   10.60    1.00
  -1   1  -4 1578.44  131.59
  -1   1  -4 1894.61  129.79
  -2   1  -4  797.22   55.49
  -2   1  -4  668.03   56.19
  -2   1  -4  673.03   60.49
  -2   1  -4  763.12   55.59
   2  -1   4  752.12   55.49
   2  -1   4  805.12   55.59
  -3   1  -4  478.35   34.40
  -3   1  -4  471.25   34.30
  -3   1  -4  444.06   34.70
   3  -1   4  454.75   34.60
   3  -1   4  459.45   34.60
  -4   1  -4   64.69    4.50
  -4   1  -4   65.19    4.60
  -4   1  -4   52.39    4.80
  -4   1  -4   57.99    5.10
   4  -1   4   55.39    5.00
   4  -1   4   47.70    5.20
   4  -1   4   65.79    7.30
   4  -1   4   64.09    6.90
  -5   1  -4    3.90    0.60
  -5   1  -4    3.20    0.80
  -5   1  -4    3.70    0.50
   5  -1   4    3.20    3.30
   5  -1   4    1.50    1.80
   5  -1   4    0.90    3.50
   5  -1   4    3.20    2.40
  -6   1  -4   32.60    2.50
  -6   1  -4   30.20    2.40
   6  -1   4   22.70    4.40
   6  -1   4   27.30    3.60
   6  -1   4   33.20    3.70
   6   0  -4    3.70    1.40
   6   0  -4    2.20    2.70
   6   0  -4    4.90    0.90
   6   0  -4    3.60    1.60
  -6   0   4    4.30    0.80
  -6   0   4    3.00    0.70
   5   0  -4   31.20    4.90
   5   0  -4   27.30    3.40
   5   0  -4   31.50    2.80
   5   0  -4   24.80    6.40
   5   0  -4   21.70    4.40
  -5   0   4   30.00    2.60
  -5   0   4   27.10    2.40
  -5   0   4   27.90    2.30
   4   0  -4   31.30    3.00
   4   0  -4   24.50    3.90
   4   0  -4   24.30    3.90
   4   0  -4   33.70    3.10
   4   0  -4   37.20    6.30
  -4   0   4   30.90    2.70
  -4   0   4   29.30    2.40
  -4   0   4   29.90    2.40
  -4   0   4   25.60    2.70
   3   0  -4 1199.68   92.89
   3   0  -4 1050.49   83.09
  -3   0   4 1148.09   82.99
  -3   0   4 1117.69   82.89
  -3   0   4 1077.99   82.79
  -2   0   4   16.40    2.60
  -2   0   4   11.90    1.00
  -2   0   4   12.10    1.20
   1   0  -4  844.32   58.09
   1   0  -4  805.72   58.59
   1   0  -4  711.63   57.99
   1   0  -4  845.02   60.69
   1   0  -4  773.62   58.09
  -1   0   4  739.93   60.99
  -1   0   4  753.42   58.09
   0   0   4 9999.00  743.73
  -1   0  -4  767.52   59.29
  -1   0  -4  812.22   55.99
   1   0   4  692.23   55.89
   1   0   4  666.83   56.69
   1   0   4  825.92   55.99
  -2   0  -4   12.00    7.50
  -2   0  -4   12.10    1.40
  -2   0  -4   15.70    1.20
  -2   0  -4   14.60    1.30
   2   0   4   17.00    1.50
   2   0   4   14.20    2.70
   2   0   4   15.00    1.40
   2   0   4   16.00    2.90
  -3   0  -4 1096.59   81.49
  -3   0  -4 1070.49   81.89
  -3   0  -4 1088.59   81.49
   3   0   4 1119.79   81.69
   3   0   4 1112.19   81.69
  -4   0  -4   27.40    2.90
  -4   0  -4   29.70    2.40
  -4   0  -4   25.90    2.70
  -4   0  -4   29.20    2.40
   4   0   4   29.30    2.90
   4   0   4   30.80    4.50
   4   0   4   38.90    5.50
  -5   0  -4   27.80    2.80
  -5   0  -4   31.90    2.60
  -5   0  -4   32.50    2.50
   5   0   4   31.90    4.90
   5   0   4   33.10    2.90
   5   0   4   26.50    4.50
  -6   0  -4    4.10    0.50
  -6   0  -4    5.10    0.80
  -6   0  -4    4.70    0.70
   6   0   4    4.00    1.60
   6   0   4    1.50    2.60
   6   0   4    3.10    1.50
   6  -1  -4   28.20    3.70
   6  -1  -4   22.80    3.30
   6  -1  -4   32.40    2.50
   6  -1  -4   21.00    5.00
  -6   1   4   30.20    2.40
  -6   1   4   30.70    2.30
   5  -1  -4    6.00    3.40
   5  -1  -4    4.20    3.80
   5  -1  -4    3.20    1.30
   5  -1  -4    6.40    2.90
  -5   1   4    3.40    0.50
  -5   1   4    3.30    0.60
   4  -1  -4   56.29    7.40
   4  -1  -4   59.99    5.10
   4  -1  -4   55.99    5.10
   4  -1  -4   70.79    6.80
  -4   1   4   56.69    4.50
  -4   1   4   51.69    4.50
  -4   1   4   61.69    4.80
   3  -1  -4  439.76   35.00
   3  -1  -4  464.65   33.70
  -3   1   4  445.26   33.60
  -3   1   4  447.66   33.40
   2  -1  -4  902.51   61.99
   2  -1  -4  807.82   61.79
   2  -1  -4  762.22   59.29
  -2   1   4  796.42   59.69
  -2   1   4  841.72   59.59
  -2   1   4  722.63   59.19
  -2   1   4  753.72   59.19
   1  -1  -4 1721.33  118.59
  -1   1   4 1468.05  120.29
   0  -1  -4   11.40    1.00
   0  -1  -4    5.70    3.10
   0  -1  -4   14.30    1.10
   0  -1  -4   12.00    1.20
   0   1   4    8.00    2.10
   0   1   4   14.00    1.20
   0   1   4   13.60    3.30
   0   1   4   10.10    1.90
   0   1   4   10.20    1.10
  -1  -1  -4 1461.95  120.59
   1   1   4 1684.23  117.49
   1   1   4 1553.44  120.09
  -2  -1  -4  724.13   64.29
  -2  -1  -4  764.42   56.79
  -2  -1  -4  722.63   56.99
  -2  -1  -4  783.72   56.89
   2   1   4  743.33   56.89
   2   1   4  821.12   58.39
   2   1   4  687.23   56.89
   2   1   4  863.71   58.29
  -3  -1  -4  434.26   33.30
  -3  -1  -4  424.16   33.30
  -3  -1  -4  468.75   33.40
  -3  -1  -4  446.56   33.60
   3   1   4  449.16   33.50
   3   1   4  480.55   48.90
  -4  -1  -4   62.79    4.80
  -4  -1  -4   55.19    5.00
  -4  -1  -4   60.39    4.90
  -4  -1  -4   55.69    5.30
   4   1   4   66.09    5.20
   4   1   4   62.59    7.60
   4   1   4   74.59    6.80
  -5  -1  -4    3.10    0.70
  -5  -1  -4    2.30    0.70
  -5  -1  -4    4.00    0.60
   5   1   4    3.20    1.50
   5   1   4    2.40    1.80
   5   1   4    2.60    3.40
  -6  -1  -4   30.10    2.60
  -6  -1  -4   34.20    2.60
  -6  -1  -4   32.90    2.50
   6   1   4   31.50    3.80
   6   1   4   28.70    2.60
   6  -2  -4   25.90    3.00
   6  -2  -4   18.30    4.20
   6  -2  -4   23.40    3.10
   5  -2  -4    3.90    0.90
   5  -2  -4    3.50    3.00
   5  -2  -4    3.10    1.80
   5  -2  -4    2.80    1.70
   5  -2  -4    0.80    2.50
  -5   2   4    4.40    0.80
  -5   2   4    2.10    0.50
   4  -2  -4   33.70    4.50
   4  -2  -4   34.40    3.50
   4  -2  -4   33.70    4.40
   4  -2  -4   40.90    3.20
   4  -2  -4   44.40    6.10
  -4   2   4   30.90    3.10
  -4   2   4   35.00    2.80
  -4   2   4   32.90    3.50
   3  -2  -4   12.50    2.80
   3  -2  -4   14.80    3.50
  -3   2   4    8.80    1.20
  -3   2   4   11.90    0.90
   2  -2  -4   38.70    3.10
   2  -2  -4   38.00    3.10
  -2   2   4   33.80    2.90
  -2   2   4   38.30    3.00
   1  -2  -4 1630.94  111.79
   1  -2  -4 1308.37  113.09
   1  -2  -4 1480.55  111.59
   1  -2  -4 1581.64  111.79
  -1   2   4 1414.26  111.59
  -1   2   4 1692.93  113.69
  -1   2   4 1307.27  111.49
  -1   2   4 1606.64  111.89
   0  -2  -4    0.30    3.90
   0   2   4    3.00    3.50
   0   2   4    3.20    0.50
  -1  -2  -4 1192.88  100.59
  -1  -2  -4 1143.39   95.79
   1   2   4 1413.76   94.99
   1   2   4 1340.77   94.89
   1   2   4 1164.18   99.29
   1   2   4 1212.28   94.79
   1   2   4 1454.25   96.19
  -2  -2  -4   35.40    3.20
  -2  -2  -4   44.70    3.00
  -2  -2  -4   35.90   13.50
  -2  -2  -4   32.80    3.00
   2   2   4   49.30   12.30
   2   2   4   46.40    5.30
   2   2   4   42.10    5.60
   2   2   4   37.70    3.10
   2   2   4   40.40    3.20
  -3  -2  -4   11.60    1.40
  -3  -2  -4   10.40    1.40
  -3  -2  -4    8.80    1.20
  -3  -2  -4    9.00    1.10
   3   2   4   10.80    1.30
   3   2   4    9.70    1.20
   3   2   4    8.00    1.30
   3   2   4  -11.40   29.80
   3   2   4   10.10    3.60
  -4  -2  -4   33.50    2.70
  -4  -2  -4   30.30    3.00
  -4  -2  -4   34.20    2.80
  -4  -2  -4   30.90    3.20
   4   2   4   37.60    4.90
   4   2   4   30.30    4.10
   4   2   4   28.30    7.20
  -5  -2  -4    2.90    0.70
  -5  -2  -4    2.50    0.70
  -5  -2  -4    4.30    0.60
   5   2   4    3.80    2.20
   5   2   4    6.40    6.00
   5   2   4    1.90    1.20
  -6  -2  -4   35.80    2.70
  -6  -2  -4   30.50    2.50
   6   2   4   30.90    3.50
   6   2   4   30.70    2.60
   5  -3  -4   10.40    3.50
   5  -3  -4   11.50    1.50
   5  -3  -4   12.50    2.80
   5  -3  -4   13.60    2.90
  -5   3   4   12.90    1.30
   4  -3  -4  100.39    9.00
   4  -3  -4  111.99    8.60
   4  -3  -4  109.49    9.70
   4  -3  -4   94.89   10.20
  -4   3   4  110.89    8.00
  -4   3   4  106.29    8.80
   3  -3  -4   83.49    6.20
   3  -3  -4   78.49    7.50
   3  -3  -4   74.09    6.70
   3  -3  -4   71.19    6.10
   3  -3  -4   67.89    7.10
   3  -3  -4   83.69    6.20
   3  -3  -4   72.99    7.00
   3  -3  -4   79.09    7.70
  -3   3   4   70.79    6.10
  -3   3   4   81.39    6.00
  -3   3   4   65.39    5.80
   2  -3  -4  768.92   56.79
   2  -3  -4  802.42   56.89
  -2   3   4  727.53   56.79
  -2   3   4  749.62   56.69
   1  -3  -4  989.90   72.09
   1  -3  -4 1051.79   72.49
   1  -3  -4  909.91   72.29
   1  -3  -4  861.11   72.29
  -1   3   4  999.80   72.09
  -1   3   4  964.90   76.69
  -1   3   4 1014.30   72.29
   0  -3  -4 1106.29   82.89
   0   3   4 1157.68   82.69
   0   3   4 1053.39   86.59
   0   3   4 1220.08   82.99
   0   3   4 1025.70   82.79
  -1  -3  -4  996.90   70.89
   1   3   4  963.70   78.09
   1   3   4  892.31   70.79
   1   3   4  967.40   70.89
   1   3   4  923.81   70.79
   1   3   4  975.80   70.99
  -2  -3  -4  681.03   50.59
  -2  -3  -4  664.03   48.40
  -2  -3  -4  557.94   50.39
  -2  -3  -4  685.13   48.60
  -2  -3  -4  624.94   48.40
   2   3   4  627.54   61.19
   2   3   4  610.24   48.40
   2   3   4  669.33   48.60
   2   3   4  708.03   69.79
   2   3   4  700.83   48.50
  -3  -3  -4   72.99    9.50
  -3  -3  -4   71.49    5.50
  -3  -3  -4   74.49    7.70
  -3  -3  -4   73.59    5.50
  -3  -3  -4   69.39    5.70
  -3  -3  -4   76.39    5.80
   3   3   4   66.99    6.00
   3   3   4   66.29    5.80
  -4  -3  -4   96.19    8.40
  -4  -3  -4  110.79    8.10
  -4  -3  -4  115.09    7.90
  -4  -3  -4  101.29    7.90
  -4  -3  -4   89.29    9.10
   4   3   4  105.89    9.30
   4   3   4  100.89    8.10
  -5  -3  -4   12.40    1.50
  -5  -3  -4   13.00    1.50
  -5  -3  -4   12.10    1.20
   5   3   4   11.60    2.40
   5  -4  -4    1.50    2.10
   5  -4  -4    2.60    0.90
   5  -4  -4    2.10    1.60
   5  -4  -4    1.70    1.80
   5  -4  -4    3.70    1.70
   4  -4  -4   31.80    4.80
   4  -4  -4   36.00    4.20
   4  -4  -4   46.40    5.70
   4  -4  -4   34.70    3.50
   4  -4  -4   41.30    3.90
   4  -4  -4   44.00    5.00
   3  -4  -4   99.29    9.50
   3  -4  -4  113.79    8.80
   3  -4  -4   96.39    9.50
   3  -4  -4  113.59    8.20
   3  -4  -4  108.49    8.30
   3  -4  -4   91.39    9.00
   3  -4  -4  105.99    8.30
  -3   4   4   95.49    7.90
   2  -4  -4  637.14   49.70
   2  -4  -4  629.44   48.90
   2  -4  -4  665.03   48.30
   2  -4  -4  696.63   48.50
   2  -4  -4  552.44   49.10
  -2   4   4  673.33   48.30
  -2   4   4  648.34   48.40
  -2   4   4  674.13   48.20
   1  -4  -4  699.73   49.70
   1  -4  -4  669.03   49.90
   1  -4  -4  596.34   49.50
  -1   4   4  640.84   49.40
  -1   4   4  685.83   49.70
  -1   4   4  695.53   49.50
   0  -4  -4   73.49    5.40
   0  -4  -4   69.09    6.90
   0  -4  -4   68.49    6.10
   0   4   4   83.59   17.50
   0   4   4   54.99    5.80
   0   4   4   66.29    5.10
   0   4   4   66.79    5.10
   0   4   4   71.19    5.30
   0   4   4   45.20   16.20
  -1  -4  -4  573.84   49.40
  -1  -4  -4  638.34   48.60
  -1  -4  -4  649.74   49.20
   1   4   4  667.13   47.60
   1   4   4  729.33   69.19
   1   4   4  634.64   47.30
   1   4   4  628.44   47.30
   1   4   4  660.53   47.40
   1   4   4  562.14   58.29
  -2  -4  -4  697.83   50.89
  -2  -4  -4  609.24   49.20
  -2  -4  -4  703.33   49.00
  -2  -4  -4  702.33   49.80
  -2  -4  -4  624.84   49.10
   2   4   4  614.84   49.10
   2   4   4  659.33   49.10
   2   4   4  599.24   48.80
   2   4   4  679.53   49.20
   2   4   4  672.33   48.90
  -3  -4  -4  118.19    8.30
  -3  -4  -4  106.19    8.70
  -3  -4  -4  121.39    8.40
  -3  -4  -4  114.39    9.50
   3   4   4  103.99    8.30
   3   4   4   88.09    9.00
   3   4   4  106.59    9.80
  -4  -4  -4   42.30    3.50
  -4  -4  -4   40.40    3.50
  -4  -4  -4   43.10    4.80
  -4  -4  -4   42.40    3.30
   4   4   4   38.30    4.70
   4   4   4   37.80    3.60
  -5  -4  -4    2.60    0.70
  -5  -4  -4    3.20    2.20
   5   4   4    2.80    1.30
   5   4   4    3.10    2.00
   5  -5  -4   86.79    7.70
   5  -5  -4   91.79    8.40
   4  -5  -4   33.10    4.50
   4  -5  -4   30.50    2.60
   4  -5  -4   26.20    3.30
   4  -5  -4   20.50    3.70
   4  -5  -4   21.80    3.80
   4  -5  -4   23.40    3.70
   3  -5  -4  159.68   12.60
   3  -5  -4  145.59   13.30
   3  -5  -4  175.48   13.20
   3  -5  -4  160.28   13.90
   3  -5  -4  158.08   12.40
   2  -5  -4    9.90    2.50
   2  -5  -4   10.90    1.70
   2  -5  -4   11.00    3.20
   2  -5  -4   10.50    2.20
   2  -5  -4    8.70    1.70
  -2   5   4    8.60    0.90
  -2   5   4    7.70    1.90
   1  -5  -4   80.29    7.70
   1  -5  -4   71.49    7.90
   1  -5  -4   87.99    6.90
   1  -5  -4   74.19    6.70
  -1   5   4   93.19    6.60
  -1   5   4   91.39    6.40
  -1   5   4   83.89    6.40
  -1   5   4   89.59    7.00
   0  -5  -4  123.49    9.70
   0   5   4  123.19    9.40
   0   5   4  126.29    9.80
   0   5   4  128.09    9.50
   0   5   4  116.99    9.30
  -1  -5  -4   92.39    8.60
  -1  -5  -4   77.99    6.80
  -1  -5  -4   85.49    7.40
   1   5   4   81.49    7.00
   1   5   4   87.99    6.70
   1   5   4   89.69    6.70
   1   5   4   82.39    6.90
   1   5   4   84.69    6.50
  -2  -5  -4   12.00    1.80
  -2  -5  -4    8.30    3.30
  -2  -5  -4    9.10    1.30
  -2  -5  -4   12.10    2.40
   2   5   4    8.90    1.50
   2   5   4    7.40    2.50
   2   5   4   10.10    1.20
   2   5   4    8.30    1.20
   2   5   4   12.90    2.30
  -3  -5  -4  146.19   12.60
  -3  -5  -4  154.78   11.70
   3   5   4  144.29   11.90
   3   5   4  154.58   12.90
   3   5   4  160.98   11.50
  -4  -5  -4   30.60    2.60
  -4  -5  -4   27.70    3.50
   4   5   4   28.00    3.70
   4   5   4   26.80    2.70
  -5  -5  -4  160.28   12.00
  -5  -5  -4  164.88   11.50
   5   5   4  127.59   12.00
   4  -6  -4   23.00    2.60
   4  -6  -4   26.70    4.40
   4  -6  -4   27.00    3.20
   4  -6  -4   35.10    3.50
   3  -6  -4    1.30    1.60
   3  -6  -4    0.60    1.00
   3  -6  -4    0.70    1.30
   3  -6  -4    1.00    2.80
   3  -6  -4    0.30    1.70
   2  -6  -4  159.38   11.80
   2  -6  -4  149.88   11.60
   2  -6  -4  121.69   11.10
   2  -6  -4  125.09   10.90
  -2   6   4  146.79   10.60
   1  -6  -4   60.79    6.50
   1  -6  -4   56.29    4.90
   1  -6  -4   60.89    5.60
   1  -6  -4   60.39    5.10
  -1   6   4   57.99    4.50
  -1   6   4   53.29    4.50
   0  -6  -4   55.09    5.50
   0  -6  -4   50.79    4.40
   0   6   4   49.30    3.90
   0   6   4   46.00    3.90
   0   6   4   45.40    4.20
   0   6   4   52.19    4.40
  -1  -6  -4   50.89    5.80
  -1  -6  -4   54.09    4.70
  -1  -6  -4   63.29    6.90
  -1  -6  -4   58.69    5.30
   1   6   4   51.59    4.70
   1   6   4   52.09    4.30
   1   6   4   55.59    4.40
   1   6   4   57.29    4.70
  -2  -6  -4  145.89   13.10
  -2  -6  -4  139.69   11.00
  -2  -6  -4  147.29   10.10
   2   6   4  125.59   10.30
   2   6   4  116.09   10.00
   2   6   4  125.89   11.60
   2   6   4  121.69   10.00
  -3  -6  -4    1.40    0.60
  -3  -6  -4    2.20    1.50
   3   6   4    1.50    1.80
   3   6   4    2.10    0.80
   3   6   4    1.50    0.60
  -4  -6  -4   38.20    3.40
  -4  -6  -4   45.20    4.50
   4   6   4   33.00    3.30
   4  -7  -4   67.69    5.60
   3  -7  -4   52.79    5.00
   3  -7  -4   70.39    5.60
   3  -7  -4   57.69    6.00
   2  -7  -4   31.60    3.40
   2  -7  -4   25.70    3.90
  -2   7   4   26.60    2.40
  -2   7   4   29.90    2.30
   1  -7  -4   48.60    4.70
   1  -7  -4   45.50    5.40
  -1   7   4   49.10    3.90
  -1   7   4   50.99    3.80
   0  -7  -4   29.20    2.80
   0  -7  -4   21.40    3.50
   0  -7  -4   25.50    2.70
   0   7   4   24.30    2.20
   0   7   4   24.70    2.10
   0   7   4   23.50    2.60
  -1  -7  -4   49.00    4.60
  -1  -7  -4   57.49    6.80
  -1  -7  -4   49.30    4.20
   1   7   4   44.00    3.90
   1   7   4   46.00    4.20
   1   7   4   44.30    3.80
  -2  -7  -4   26.70    3.00
   2   7   4   22.30    2.10
   2   7   4   21.50    2.00
   2   7   4   23.80    2.40
  -3  -7  -4   59.49    5.10
   3   7   4   46.00    4.50
   3   7   4   59.49    5.60
   4   7   4   85.49    6.50
   4   7   4   81.59    6.90
   3  -8  -4   22.50    2.80
   3  -8  -4   24.20    2.80
   2  -8  -4   28.70    2.60
   2  -8  -4   32.60    4.00
   2  -8  -4   27.50    3.80
  -2   8   4   25.70    2.20
  -2   8   4   25.80    2.30
   1  -8  -4   12.60    2.60
   1  -8  -4   11.20    1.80
   1  -8  -4   15.60    2.20
  -1   8   4   11.00    1.20
  -1   8   4   11.20    1.20
   0  -8  -4   70.99    6.00
   0  -8  -4   76.79    6.80
   0   8   4   71.19    5.70
   0   8   4   75.69    6.20
   0   8   4   76.59    5.80
  -1  -8  -4   11.70    2.10
   1   8   4   10.30    1.20
   1   8   4   10.40    1.50
   1   8   4   10.00    1.10
   2   8   4   22.90    1.70
   2   8   4   17.50    1.90
  -3  -8  -4   27.10    2.50
   3   8   4   19.60    2.00
   1  -9  -4   81.79    6.20
   1  -9  -4   71.79    7.20
  -1   9   4   68.19    5.70
   0  -9  -4   77.09    5.80
   0   9   4   61.59    5.20
  -1  -9  -4   84.39    6.10
   1   9   4   65.89    5.60
   1   9   4   73.79    5.80
   0   9  -5   47.70    3.70
   0   9  -5   51.99    3.70
   0  -9   5   44.00    4.10
   3   8  -5   36.30    2.90
   2   8  -5   53.99    4.50
   1   8  -5   91.89    6.90
   1   8  -5   91.59    6.70
  -1  -8   5   81.69    7.10
   0   8  -5   30.40    2.40
   0   8  -5   30.40    2.60
   0   8  -5   32.60    2.60
   0  -8   5   28.70    3.40
   0  -8   5   27.10    3.10
  -1   8  -5   87.59    7.10
  -1   8  -5   88.89    7.00
   1  -8   5   85.99    7.70
   1  -8   5  106.89    8.30
  -2   8  -5   41.70    3.30
  -2   8  -5   39.20    3.30
   2  -8   5   43.20    4.00
   4   7  -5   32.60    3.20
   3   7  -5   18.80    1.80
   3   7  -5   15.80    2.60
   2   7  -5  133.09   10.20
   2   7  -5  124.79   11.00
   2   7  -5  134.29   10.10
  -2  -7   5  134.09   10.40
   1   7  -5   55.39    4.40
   1   7  -5   55.29    4.30
   1   7  -5   62.19    5.00
  -1  -7   5   60.49    8.70
  -1  -7   5   47.20    5.00
   0   7  -5  116.59    8.50
   0   7  -5  119.39    8.50
   0   7  -5  111.79    8.70
   0  -7   5   92.59   11.00
   0  -7   5   94.19    9.30
   0  -7   5  117.59    9.80
   0  -7   5  120.79    9.20
  -1   7  -5   52.59    4.10
  -1   7  -5   49.99    4.30
  -1   7  -5   53.49    4.10
   1  -7   5   48.60    7.50
   1  -7   5   57.29    7.60
  -2   7  -5  128.39    9.80
   2  -7   5  105.29   11.30
   2  -7   5  130.19   10.50
   2  -7   5  142.09   11.10
  -3   7  -5   15.70    1.80
  -3   7  -5   15.50    1.50
  -3   7  -5   16.40    1.40
   3  -7   5   20.90    3.00
   3  -7   5   14.40    3.80
   3  -7   5   17.10    2.70
   4  -7   5   19.50    3.00
   4   6  -5   65.89    5.80
   4   6  -5   58.99    4.60
  -4  -6   5   51.99    5.00
   3   6  -5   83.29    6.30
   3   6  -5   80.79    7.20
  -3  -6   5   71.99    6.30
   2   6  -5   55.49    3.90
   2   6  -5   47.10    4.30
   2   6  -5   44.60    5.30
   2   6  -5   52.19    4.00
  -2  -6   5   45.50    4.20
  -2  -6   5   64.49    9.40
   1   6  -5   17.50    1.60
   1   6  -5   14.70    2.90
   1   6  -5   18.30    1.60
   1   6  -5   17.50    2.00
  -1  -6   5   25.20    5.90
  -1  -6   5   14.50    2.50
  -1  -6   5   14.50    2.40
   0   6  -5  282.97   23.70
   0   6  -5  309.67   23.20
   0   6  -5  301.87   23.20
   0  -6   5  349.17   24.60
   0  -6   5  267.67   23.80
   0  -6   5  348.57   24.00
  -1   6  -5   19.10    1.60
  -1   6  -5   14.50    1.50
  -1   6  -5   15.60    2.60
   1  -6   5   12.90    4.60
   1  -6   5   19.00    2.50
   1  -6   5   20.30    2.90
   1  -6   5   14.90    2.80
   1  -6   5   20.60    3.50
  -2   6  -5   48.30    3.80
  -2   6  -5   50.39    3.80
   2  -6   5   41.90    4.90
   2  -6   5   42.90    6.60
   2  -6   5   53.09    5.60
   2  -6   5   54.29    5.00
  -3   6  -5   74.99    6.00
   3  -6   5   86.59    7.50
   3  -6   5   73.49    7.20
   3  -6   5   84.29    8.40
   4  -6   5   36.70    4.90
   4  -6   5   28.60    4.30
   4  -6   5   45.80    4.40
   5   5  -5   77.09    6.60
  -5  -5   5   80.09    6.10
   4   5  -5   48.70    5.10
   4   5  -5   51.59    4.20
  -4  -5   5   54.69    4.30
   3   5  -5  151.28   13.00
   3   5  -5  156.18   12.10
  -3  -5   5  166.18   12.20
   2   5  -5   36.80    2.80
   2   5  -5   32.80    4.10
   2   5  -5   35.20    3.50
   2   5  -5   29.80    4.30
   2   5  -5   34.90    3.80
   2   5  -5   36.00    2.90
  -2  -5   5   42.10    7.50
  -2  -5   5   34.30    3.20
  -2  -5   5   30.50    3.30
  -2  -5   5   43.80    5.20
   1   5  -5   20.50    2.40
   1   5  -5   19.50    2.10
   1   5  -5   17.90    2.20
   1   5  -5   20.70    1.80
  -1  -5   5   17.80    2.30
  -1  -5   5   25.00    3.20
  -1  -5   5   20.00    2.10
  -1  -5   5   19.00    2.30
  -1  -5   5   26.40    3.10
  -1  -5   5   25.10    4.90
   0   5  -5   33.70    3.30
   0   5  -5   34.70    2.80
   0   5  -5   32.50    3.20
   0   5  -5   34.70    2.70
   0  -5   5   37.30    4.10
   0  -5   5   33.40    3.40
  -1   5  -5   22.20    2.30
  -1   5  -5   20.80    1.80
  -1   5  -5   18.50    2.40
  -1   5  -5   19.70    1.70
   1  -5   5   21.60    2.70
   1  -5   5   14.60    4.50
   1  -5   5   19.70    2.60
  -2   5  -5   32.00    2.50
  -2   5  -5   32.40    2.50
  -2   5  -5   27.00    3.30
   2  -5   5   26.60    5.50
   2  -5   5   32.10    3.50
   2  -5   5   28.10    5.70
   2  -5   5   34.20    5.70
  -3   5  -5  161.18   11.20
  -3   5  -5  151.58   11.20
   3  -5   5  134.69   12.00
   3  -5   5  172.38   12.70
   3  -5   5  124.69   13.60
   3  -5   5  141.49   12.80
   3  -5   5  148.89   12.50
  -4   5  -5   49.60    3.60
  -4   5  -5   46.20    3.50
   4  -5   5   37.40    4.90
   4  -5   5   46.90    5.30
   4  -5   5   44.10    6.00
   5  -5   5   54.59    5.60
   5  -5   5   44.10    4.70
   5   4  -5    4.60    1.30
  -5  -4   5    3.00    0.60
  -5  -4   5    2.20    1.70
  -5  -4   5    4.60    0.80
   4   4  -5   59.89    8.50
   4   4  -5   61.09    5.60
   4   4  -5   55.79    5.10
  -4  -4   5   63.29    4.80
  -4  -4   5   53.69    4.70
  -4  -4   5   53.79    4.50
   3   4  -5  111.19   12.70
   3   4  -5  114.79    9.70
   3   4  -5  138.79   10.10
   3   4  -5  117.09    9.90
   3   4  -5  128.49   10.90
  -3  -4   5  141.19    9.70
  -3  -4   5  142.59   10.50
  -3  -4   5  121.09    9.60
  -3  -4   5  111.89    9.80
  -3  -4   5  115.89    9.50
   2   4  -5   78.29    5.60
   2   4  -5   68.49    5.80
   2   4  -5   68.89   53.89
   2   4  -5   73.19    6.00
   2   4  -5   71.59    5.80
   2   4  -5   78.49    5.60
  -2  -4   5   68.59    6.50
  -2  -4   5   82.59    8.50
  -2  -4   5   64.19   13.90
  -2  -4   5   69.79    5.70
  -2  -4   5   72.99    5.90
  -2  -4   5   65.39    5.60
  -2  -4   5   77.19    5.80
   1   4  -5   28.30    2.30
   1   4  -5   27.80    2.30
   1   4  -5   15.80   18.80
   1   4  -5   26.50    2.70
  -1  -4   5   33.50    4.20
  -1  -4   5   34.20    5.60
  -1  -4   5   27.10    2.60
  -1  -4   5   24.70    6.60
  -1  -4   5   29.30    2.50
   0   4  -5   21.80    1.70
   0   4  -5   31.60   13.20
   0   4  -5   23.50    2.20
   0   4  -5   14.10    3.50
   0   4  -5   20.00    1.70
   0  -4   5   19.80    2.20
  -1   4  -5   26.90    2.20
  -1   4  -5   27.70    2.10
  -1   4  -5   36.80   12.40
  -1   4  -5   27.10    2.70
  -1   4  -5   26.10    2.10
   1  -4   5    5.50   20.80
   1  -4   5   28.60    2.80
   1  -4   5   22.30    4.00
  -2   4  -5   79.09    5.90
  -2   4  -5   72.79    6.20
  -2   4  -5   66.99    5.60
  -2   4  -5   72.89    5.60
   2  -4   5   63.59    6.30
   2  -4   5   71.79    6.30
   2  -4   5   83.79    7.10
   2  -4   5   78.29    6.60
  -3   4  -5  122.89   10.10
  -3   4  -5  136.39   10.50
  -3   4  -5  129.69    9.80
   3  -4   5  115.89   12.40
   3  -4   5  143.89   11.10
   3  -4   5  122.99   10.50
   3  -4   5  123.59   12.90
   3  -4   5  140.59   11.20
  -4   4  -5   57.89    4.50
  -4   4  -5   58.99    4.40
   4  -4   5   64.09    7.40
   4  -4   5   55.99    6.20
   4  -4   5   56.89    6.60
   4  -4   5   51.39    6.00
   4  -4   5   65.09    8.00
  -5   4  -5    2.80    0.60
  -5   4  -5    3.70    0.50
   5  -4   5    3.60    1.50
   5  -4   5    3.40    1.90
   5  -4   5    2.60    2.00
   5  -4   5    1.10    1.50
   5   3  -5   29.50    3.10
   5   3  -5   30.70    5.80
  -5  -3   5   24.00    2.30
  -5  -3   5   27.80    2.50
  -5  -3   5   23.70    2.40
   4   3  -5  118.19    9.20
   4   3  -5  110.09    8.80
   4   3  -5  100.19    9.30
  -4  -3   5  105.39    9.60
  -4  -3   5  115.09    8.50
  -4  -3   5  108.89    8.30
  -4  -3   5  104.79    8.40
   3   3  -5   48.40    4.90
   3   3  -5   53.49    4.30
   3   3  -5   49.20    5.10
   3   3  -5   50.79    4.10
   3   3  -5   40.00    7.40
  -3  -3   5   53.19    4.00
  -3  -3   5   47.20    4.30
  -3  -3   5   54.89    4.20
   2   3  -5   53.19    3.90
   2   3  -5   49.70    4.10
   2   3  -5   58.19   21.90
   2   3  -5   57.69    3.80
   2   3  -5   27.00   26.20
   2   3  -5   49.40    4.20
  -2  -3   5   49.99    4.10
  -2  -3   5   49.10    5.90
  -2  -3   5   48.40    4.00
  -2  -3   5   38.00    7.40
  -2  -3   5   46.90    3.90
   1   3  -5  377.76   38.30
   1   3  -5  348.57   31.10
   1   3  -5  372.06   29.90
   1   3  -5  432.96   29.60
   1   3  -5  400.76   29.60
  -1  -3   5  433.66   29.80
  -1  -3   5  385.96   29.80
  -1  -3   5  343.77   41.90
  -1  -3   5  462.65   30.80
  -1  -3   5  381.86   29.80
   0   3  -5  262.07   19.80
   0   3  -5  278.97   25.90
   0   3  -5  280.67   19.50
   0   3  -5  231.18   20.70
   0  -3   5  272.87   19.60
   0  -3   5  233.68   30.30
   0  -3   5  264.17   19.80
  -1   3  -5  368.76   30.70
  -1   3  -5  447.16   30.50
  -1   3  -5  396.46   31.40
  -1   3  -5  413.26   30.30
   1  -3   5  374.86   46.90
   1  -3   5  421.86   30.70
  -2   3  -5   52.99    4.60
  -2   3  -5   43.30   12.00
   2  -3   5   56.79    4.40
   2  -3   5   42.20    4.90
   2  -3   5   25.60   18.20
  -3   3  -5   54.79    4.80
  -3   3  -5   59.09    4.30
  -3   3  -5   54.09    4.70
  -3   3  -5   61.99    4.40
   3  -3   5   52.79    5.00
   3  -3   5   56.39    7.30
   3  -3   5   59.39    5.80
  -4   3  -5  114.59    8.10
  -4   3  -5  108.39    8.90
  -4   3  -5  116.69    8.00
   4  -3   5  100.19    9.70
   4  -3   5   93.09    8.80
   4  -3   5  113.99   10.00
   4  -3   5  107.89   10.80
   4  -3   5   94.29    9.50
  -5   3  -5   27.80    2.40
  -5   3  -5   26.90    2.20
   5  -3   5   29.20    3.70
   5  -3   5   29.20    4.90
   5  -3   5   22.50    3.80
   6   2  -5    2.30    0.60
   6   2  -5    1.60    1.20
   6   2  -5    3.60    2.60
  -6  -2   5    1.50    0.60
  -6  -2   5    1.30    0.40
   5   2  -5   69.59    6.50
   5   2  -5   64.79    5.90
  -5  -2   5   69.99    5.50
  -5  -2   5   76.89    5.60
  -5  -2   5   64.99    5.40
   4   2  -5    7.40    1.40
   4   2  -5    8.20    2.00
   4   2  -5    3.10    3.80
   4   2  -5    7.10    2.10
  -4  -2   5    7.10    1.00
  -4  -2   5    5.40    0.80
  -4  -2   5    5.80    0.90
   3   2  -5  135.39   10.60
   3   2  -5  125.79   10.20
  -3  -2   5  128.79    9.90
  -3  -2   5  137.39   10.20
  -3  -2   5  134.59   10.00
  -3  -2   5  127.39   10.20
   2   2  -5  225.28   29.40
   2   2  -5  246.18   17.60
   2   2  -5  238.68   17.70
   2   2  -5  215.98   17.50
  -2  -2   5  228.48   17.50
  -2  -2   5  239.98   17.70
  -2  -2   5  237.88   17.50
   1   2  -5    6.40    1.80
   1   2  -5    8.00    0.70
   1   2  -5    6.60    1.00
   1   2  -5    8.00    0.80
   1   2  -5    8.80    6.30
  -1  -2   5   -2.00    8.20
  -1  -2   5    7.60    1.70
  -1  -2   5    6.90    0.90
  -1  -2   5    9.40    2.20
  -1  -2   5    7.30    0.90
  -1  -2   5    6.70    0.80
   0   2  -5    8.40    4.90
   0   2  -5   10.20    0.90
   0   2  -5   10.60    0.80
   0   2  -5    8.70    1.00
   0   2  -5    9.10    2.00
   0   2  -5    9.50    1.10
   0  -2   5    8.50    7.20
  -1   2  -5    8.20    4.90
  -1   2  -5    5.80    1.40
  -1   2  -5    6.50    0.60
  -1   2  -5    7.00    0.80
   1  -2   5    3.60    1.60
   1  -2   5    8.80    1.10
   1  -2   5    5.10    7.60
  -2   2  -5  225.68   25.80
  -2   2  -5  279.07   19.10
  -2   2  -5  261.47   19.40
   2  -2   5  268.27   21.60
   2  -2   5  227.08   20.10
   2  -2   5  262.77   19.50
  -3   2  -5  159.68   10.90
  -3   2  -5  148.99   10.90
  -3   2  -5  137.89   11.30
   3  -2   5  167.28   48.70
   3  -2   5  133.29   11.30
   3  -2   5  132.19   11.90
   3  -2   5  161.58   13.50
  -4   2  -5    6.50    0.70
  -4   2  -5    7.30    1.40
  -4   2  -5    6.50    0.80
   4  -2   5    4.80    2.10
   4  -2   5    5.50    2.40
   4  -2   5   11.50    3.60
   4  -2   5    7.40    2.60
  -5   2  -5   76.69    5.40
  -5   2  -5   69.59    5.30
   5  -2   5   62.99    7.00
   5  -2   5   67.29    6.90
   6  -2   5    0.40    2.00
   6  -2   5   -0.20    1.10
   6  -2   5    1.10    1.10
   6  -2   5    0.80    1.20
   6   1  -5   38.20    3.00
   6   1  -5   27.60    5.00
   6   1  -5   36.10    3.60
  -6  -1   5   33.50    2.80
  -6  -1   5   38.60    2.90
  -6  -1   5   35.30    2.90
   5   1  -5   54.69    5.30
   5   1  -5   51.49    5.00
   5   1  -5   35.90    7.00
   5   1  -5   45.10    4.20
  -5  -1   5   52.49    4.10
  -5  -1   5   49.80    4.00
  -5  -1   5   50.69    3.90
   4   1  -5  138.69   11.40
   4   1  -5  150.38   14.40
   4   1  -5  157.68   13.10
  -4  -1   5  146.59   11.20
  -4  -1   5  143.29   11.00
  -4  -1   5  139.39   10.90
  -4  -1   5  139.49   11.10
   3   1  -5   67.29    6.00
   3   1  -5   69.09    8.40
   3   1  -5   72.19    5.70
   3   1  -5   80.09   33.80
  -3  -1   5   70.19    5.70
  -3  -1   5   74.59    5.40
  -3  -1   5   72.89    5.50
   2   1  -5  250.97   18.40
   2   1  -5  247.88   18.40
   2   1  -5  259.87   25.80
   2   1  -5  257.27   19.70
  -2  -1   5  253.97   19.70
  -2  -1   5  218.58   26.90
  -2  -1   5  223.08   18.40
  -2  -1   5  243.08   18.30
   1   1  -5  343.57   25.20
   1   1  -5  309.77   24.30
   1   1  -5  327.47   24.30
   1   1  -5  345.67   28.40
  -1  -1   5  320.57   30.00
  -1  -1   5  312.57   24.30
  -1  -1   5  324.87   24.30
   0   1  -5    1.00    3.30
   0   1  -5    1.20    0.50
   0   1  -5    1.00    0.90
   0  -1   5    4.30    7.20
   0  -1   5    3.80    2.30
   0  -1   5    3.50    1.30
   0  -1   5    2.40    0.40
  -1   1  -5  339.57   28.70
  -1   1  -5  370.06   32.00
  -1   1  -5  404.36   28.60
   1  -1   5  436.46   34.10
  -2   1  -5  259.27   21.00
  -2   1  -5  299.87   21.00
  -2   1  -5  274.97   21.90
  -2   1  -5  261.07   27.40
   2  -1   5  282.27   22.20
   2  -1   5  273.27   22.00
   2  -1   5  294.47   21.10
  -3   1  -5   64.49   20.10
  -3   1  -5   74.99    6.30
  -3   1  -5   80.29    5.90
  -3   1  -5   76.39    5.90
   3  -1   5   87.89   19.80
   3  -1   5   74.29    6.30
   3  -1   5   79.49    6.30
   3  -1   5   77.99    7.40
   3  -1   5   89.99   10.00
  -4   1  -5  138.29   12.20
  -4   1  -5  160.18   11.70
  -4   1  -5  167.08   11.80
   4  -1   5  157.68   13.70
  -5   1  -5   40.90    4.10
  -5   1  -5   50.49    3.90
  -5   1  -5   52.59    4.00
   5  -1   5   50.59    5.70
   5  -1   5   58.89    6.00
  -6   1  -5   39.00    3.30
  -6   1  -5   40.90    3.20
   6  -1   5   44.90    4.40
   6   0  -5   35.00    4.30
   6   0  -5   46.40    3.50
   6   0  -5   41.50    4.20
  -6   0   5   45.10    3.30
  -6   0   5   42.50    3.40
   5   0  -5   33.70    2.90
   5   0  -5   29.00    3.40
   5   0  -5   25.50    6.90
   5   0  -5   35.20    4.30
   5   0  -5   21.20    4.10
  -5   0   5   29.90    2.60
  -5   0   5   29.30    2.50
  -5   0   5   27.60    2.40
   4   0  -5  130.69   10.60
   4   0  -5  126.69   11.70
   4   0  -5  142.99   11.70
   4   0  -5  141.59   10.60
  -4   0   5  135.79   10.40
  -4   0   5  130.29   10.10
  -4   0   5  132.99   10.30
  -4   0   5  133.69   10.20
   3   0  -5   47.70   20.90
   3   0  -5   61.39    4.90
  -3   0   5   60.09    4.50
  -3   0   5   55.39    4.50
  -3   0   5   58.99    4.70
   2   0  -5 1149.78   91.49
   2   0  -5 1268.47   90.89
  -2   0   5 1210.98   90.69
  -2   0   5 1228.38   95.99
  -2   0   5 1251.27   90.79
   1   0  -5    1.10    3.40
   1   0  -5    1.60    0.30
   1   0  -5    2.00    1.10
   1   0  -5    0.10    1.20
   1   0  -5    1.30    0.40
  -1   0   5    0.80    0.90
  -1   0   5    1.20    0.30
  -1   0   5    0.70    0.30
  -1   0   5    2.50    4.20
  -1   0   5    0.60    1.50
  -1   0   5    1.10    0.30
   0   0  -5   -1.30    2.60
   0   0  -5    0.00    0.50
   0   0  -5    0.80    0.80
   0   0   5    0.50    1.00
   0   0   5   -1.70    2.60
   0   0   5    0.00    1.20
   0   0   5    0.10    0.40
  -1   0  -5    0.70    0.50
  -1   0  -5   -0.10    0.90
  -1   0  -5    0.50    3.90
  -1   0  -5    0.40    0.30
   1   0   5    3.80    3.70
   1   0   5    1.70    0.40
   1   0   5    0.50    1.20
   1   0   5    0.90    0.20
   1   0   5   -0.10    1.20
  -2   0  -5 1294.27  110.49
  -2   0  -5 1377.36  104.39
  -2   0  -5 1482.45  104.49
   2   0   5 1308.87  104.49
   2   0   5 1554.34  105.99
  -3   0  -5   65.99    4.80
  -3   0  -5   57.29   32.10
  -3   0  -5   62.59    4.70
  -3   0  -5   59.89    5.10
   3   0   5   69.39    6.80
   3   0   5   57.29    5.00
   3   0   5   60.99   18.90
   3   0   5   57.09    5.00
  -4   0  -5  135.49   10.40
  -4   0  -5  130.79   10.90
  -4   0  -5  144.19   10.40
   4   0   5  139.19   12.10
  -5   0  -5   32.60    2.60
  -5   0  -5   29.90    2.80
  -5   0  -5   31.50    2.50
   5   0   5   29.10    5.50
   5   0   5   29.60    2.80
   5   0   5   29.40    4.30
  -6   0  -5   53.29    4.10
  -6   0  -5   48.70    4.00
  -6   0  -5   53.59    4.00
   6   0   5   54.89    5.20
   6   0   5   43.10    4.80
   6  -1  -5   32.80    3.70
   6  -1  -5   37.60    2.90
   6  -1  -5   29.60    5.00
  -6   1   5   34.10    2.70
   5  -1  -5   46.30    4.00
   5  -1  -5   41.60    6.90
   5  -1  -5   42.80    4.40
   5  -1  -5   40.50    5.20
   5  -1  -5   54.39    5.30
  -5   1   5   49.80    3.70
  -5   1   5   49.00    3.70
   4  -1  -5  148.99   11.60
   4  -1  -5  145.09   12.50
   4  -1  -5  168.88   11.60
   4  -1  -5  149.19   12.40
  -4   1   5  145.59   11.10
  -4   1   5  128.59   11.00
  -4   1   5  141.99   11.30
   3  -1  -5   89.39    7.20
   3  -1  -5   71.49    6.10
   3  -1  -5   74.09    6.10
   3  -1  -5   82.39    6.90
  -3   1   5   71.39    5.80
  -3   1   5   71.09    6.00
   2  -1  -5  261.17   18.20
  -2   1   5  250.97   18.10
  -2   1   5  212.28   18.70
  -2   1   5  242.78   18.10
   1  -1  -5  307.27   26.10
   1  -1  -5  391.76   25.90
   1  -1  -5  332.37   26.20
   1  -1  -5  333.07   25.80
  -1   1   5  360.36   28.80
  -1   1   5  356.26   25.90
   0  -1  -5    1.80    3.10
   0  -1  -5    0.30    0.30
   0  -1  -5    0.50    0.90
   0  -1  -5    0.60    0.20
   0  -1  -5    1.30    0.50
   0   1   5    0.90    3.00
   0   1   5    0.50    1.00
   0   1   5    1.30    0.50
  -1  -1  -5  388.96   27.40
  -1  -1  -5  345.67   27.30
  -1  -1  -5  357.66   32.50
  -1  -1  -5  354.26   27.20
   1   1   5  345.27   28.30
   1   1   5  390.16   28.50
   1   1   5  409.06   27.40
   1   1   5  368.26   31.50
   1   1   5  335.37   27.30
  -2  -1  -5  227.88   30.00
  -2  -1  -5  271.97   20.90
  -2  -1  -5  252.37   21.00
  -2  -1  -5  309.37   21.10
   2   1   5  282.97   22.50
   2   1   5  303.37   22.80
   2   1   5  292.67   28.30
  -3  -1  -5   68.99    5.60
  -3  -1  -5   75.39    5.60
  -3  -1  -5   70.59    5.90
   3   1   5   73.69    5.80
   3   1   5   77.19    6.70
   3   1   5   70.39   22.60
  -4  -1  -5  148.09   11.20
  -4  -1  -5  146.39   11.70
  -4  -1  -5  147.19   11.30
  -4  -1  -5  148.49   11.70
   4   1   5  153.08   12.90
  -5  -1  -5   54.09    3.90
  -5  -1  -5   52.49    3.90
  -5  -1  -5   48.30    4.10
   5   1   5   40.30    4.70
   5   1   5   48.60    5.40
   5   1   5   45.50    7.10
  -6  -1  -5   35.60    3.10
  -6  -1  -5   41.80    3.10
  -6  -1  -5   40.70    3.10
   6   1   5   36.50    4.20
   6  -2  -5    1.40    1.10
   6  -2  -5    1.80    0.60
   6  -2  -5    1.60    1.60
   6  -2  -5    0.90    2.10
   5  -2  -5   64.69    5.30
   5  -2  -5   70.89    8.10
   5  -2  -5   59.29    6.40
  -5   2   5   67.79    5.00
  -5   2   5   66.19    5.10
   4  -2  -5   11.00    3.50
   4  -2  -5    2.20    2.20
   4  -2  -5    5.70    1.40
   4  -2  -5    7.60    1.40
   4  -2  -5    3.70    1.90
   4  -2  -5    5.20    2.00
  -4   2   5    6.60    0.80
  -4   2   5    5.60    1.40
  -4   2   5    5.20    1.10
   3  -2  -5  154.68   11.50
   3  -2  -5  137.79   14.20
   3  -2  -5  137.19   10.50
   3  -2  -5  149.79   10.70
   3  -2  -5  127.79   11.20
  -3   2   5  118.59   10.30
  -3   2   5  125.29   10.10
   2  -2  -5  232.48   18.40
  -2   2   5  252.37   18.40
  -2   2   5  252.47   18.30
  -2   2   5  250.57   18.30
  -2   2   5  235.78   18.30
   1  -2  -5    7.60    4.20
   1  -2  -5    7.30    0.90
   1  -2  -5    9.50    1.50
   1  -2  -5    9.10    1.50
  -1   2   5    7.40    0.90
  -1   2   5    5.60    3.80
   0  -2  -5    8.40    1.00
   0  -2  -5    9.50    0.90
   0  -2  -5   10.40    0.80
   0  -2  -5    9.10    1.20
   0  -2  -5    9.10    5.10
   0   2   5   10.40    2.10
   0   2   5   10.30    0.90
   0   2   5    9.70    0.80
   0   2   5    9.40    1.10
   0   2   5   11.60    4.50
  -1  -2  -5    8.60    0.90
  -1  -2  -5    6.40    7.00
   1   2   5    7.30    1.00
   1   2   5    6.20    1.80
   1   2   5    4.80    5.70
   1   2   5    9.30    2.50
   1   2   5    7.70    0.80
  -2  -2  -5  241.08   18.20
  -2  -2  -5  232.58   32.50
  -2  -2  -5  230.88   18.30
  -2  -2  -5  232.08   18.40
   2   2   5  257.07   29.00
   2   2   5  280.87   20.50
   2   2   5  278.57   18.50
   2   2   5  205.08   18.20
   2   2   5  233.08   18.30
   2   2   5  260.67   20.60
  -3  -2  -5  119.49    9.80
  -3  -2  -5  126.79    9.90
  -3  -2  -5  133.19    9.60
  -3  -2  -5  132.59    9.60
   3   2   5  110.39    9.80
   3   2   5  127.99   10.80
   3   2   5  137.49    9.70
  -4  -2  -5    5.20    0.90
  -4  -2  -5    6.60    0.80
  -4  -2  -5    6.00    0.80
  -4  -2  -5    4.50    1.10
   4   2   5    2.30    1.80
   4   2   5    5.20    3.80
   4   2   5    7.30    2.00
  -5  -2  -5   64.39    5.30
  -5  -2  -5   70.09    5.10
  -5  -2  -5   66.69    5.20
   5   2   5   73.49    6.70
   5   2   5   55.39    6.00
  -6  -2  -5    2.00    0.50
  -6  -2  -5    1.50    0.40
   6   2   5    1.10    1.20
   5  -3  -5   25.20    2.30
   5  -3  -5   20.80    3.40
   5  -3  -5   22.00    4.60
  -5   3   5   23.00    2.00
   4  -3  -5  114.09    8.10
   4  -3  -5   83.59    9.30
   4  -3  -5   96.79    9.20
   4  -3  -5  101.49    8.30
   4  -3  -5   95.49    9.20
  -4   3   5  109.39    7.70
  -4   3   5  108.09    8.60
   3  -3  -5   52.79    5.70
   3  -3  -5   36.90    3.90
   3  -3  -5   49.00    4.00
   3  -3  -5   50.89    4.10
   3  -3  -5   44.20    5.10
   3  -3  -5   39.10    4.60
  -3   3   5   47.60    3.70
   2  -3  -5   52.69    4.30
   2  -3  -5   50.39    4.20
  -2   3   5   50.09    4.10
   1  -3  -5  462.65   32.30
   1  -3  -5  460.85   32.50
   1  -3  -5  377.46   32.10
   1  -3  -5  477.45   32.50
   1  -3  -5  393.86   32.30
  -1   3   5  488.15   34.70
  -1   3   5  391.46   32.20
  -1   3   5  404.56   32.10
  -1   3   5  396.06   32.00
  -1   3   5  476.25   38.60
   0  -3  -5  279.27   20.80
   0  -3  -5  277.27   28.10
   0   3   5  263.37   20.70
   0   3   5  284.97   20.80
   0   3   5  318.97   22.00
   0   3   5  244.78   25.50
   0   3   5  261.07   20.60
   0   3   5  272.87   20.60
  -1  -3  -5  405.06   40.70
  -1  -3  -5  432.76   29.80
   1   3   5  369.26   29.80
   1   3   5  335.27   29.90
   1   3   5  458.65   32.00
   1   3   5  380.26   29.80
   1   3   5  432.06   31.90
   1   3   5  370.66   37.60
   1   3   5  409.76   30.00
  -2  -3  -5   48.40    3.60
  -2  -3  -5   46.70    3.70
  -2  -3  -5   46.10    3.60
   2   3   5   45.90    3.60
   2   3   5   50.99   19.30
   2   3   5   42.50    3.60
   2   3   5   45.10    3.80
  -3  -3  -5   44.70    5.10
  -3  -3  -5   46.30    3.90
  -3  -3  -5   46.60    4.00
  -3  -3  -5   38.90    8.90
  -3  -3  -5   49.30    3.80
  -3  -3  -5   51.59    3.70
   3   3   5   45.10    4.40
   3   3   5   44.80    4.10
  -4  -3  -5   97.29    8.60
  -4  -3  -5  120.49    9.50
  -4  -3  -5   99.79    8.20
  -4  -3  -5  107.89    8.10
  -4  -3  -5  111.29    8.00
   4   3   5   97.69    8.20
   4   3   5   99.19    9.40
  -5  -3  -5   25.80    2.30
  -5  -3  -5   26.00    2.10
  -5  -3  -5   22.80    2.30
   5   3   5   20.50    3.10
   5  -4  -5    3.60    1.80
   5  -4  -5    2.60    1.50
   5  -4  -5    3.70    0.90
   5  -4  -5    2.80    2.50
   4  -4  -5   61.99    7.80
   4  -4  -5   45.70    5.70
   4  -4  -5   56.89    4.50
   4  -4  -5   50.89    6.10
   4  -4  -5   52.39    4.80
   4  -4  -5   43.30    5.40
   3  -4  -5  124.39   10.20
   3  -4  -5  127.29    9.20
   3  -4  -5  107.89   10.40
   3  -4  -5  101.19    9.50
   3  -4  -5  109.49    9.40
   3  -4  -5  124.89    9.10
  -3   4   5  107.89    8.80
   2  -4  -5   54.89    8.20
   2  -4  -5   57.29    6.70
   2  -4  -5   71.49    5.40
   2  -4  -5   59.19    5.20
   2  -4  -5   52.89    6.50
   2  -4  -5   69.59    5.30
  -2   4   5   68.09    5.30
  -2   4   5   73.29    5.10
  -2   4   5   66.49    5.30
   1  -4  -5   33.60    3.00
   1  -4  -5   26.70    2.40
   1  -4  -5   30.90    2.70
   1  -4  -5   29.00    2.70
  -1   4   5   27.90   10.60
  -1   4   5   26.80    2.60
  -1   4   5   28.60    2.40
  -1   4   5   25.50    2.30
   0  -4  -5   21.80    3.00
   0  -4  -5   21.50    2.00
   0   4   5   20.60    2.10
   0   4   5   25.00   16.80
   0   4   5   21.80    1.70
   0   4   5   19.90    1.80
   0   4   5   19.30    1.70
  -1  -4  -5   24.10    3.80
   1   4   5   35.50   26.80
   1   4   5   28.10    2.50
   1   4   5   25.30    2.20
   1   4   5   27.00    2.30
   1   4   5   25.20    2.20
  -2  -4  -5   71.09    5.10
  -2  -4  -5   66.39    5.30
  -2  -4  -5   58.49    5.10
  -2  -4  -5   61.59    5.90
  -2  -4  -5   65.69    7.50
   2   4   5   58.79    5.30
   2   4   5   62.39    5.30
   2   4   5   59.39    4.90
   2   4   5   65.69    5.00
  -3  -4  -5  107.29    9.10
  -3  -4  -5  116.69   13.60
  -3  -4  -5  127.69    9.50
  -3  -4  -5  109.49    9.00
  -3  -4  -5  129.79    8.80
   3   4   5  103.19    9.10
   3   4   5  117.59    8.80
  -4  -4  -5   48.70    5.80
  -4  -4  -5   57.89    4.10
  -4  -4  -5   48.20    4.30
  -4  -4  -5   53.69    4.30
   4   4   5   45.90    5.50
   4   4   5   51.19    4.40
  -5  -4  -5    3.50    0.70
  -5  -4  -5    5.50    1.70
   5   4   5    2.40    1.40
   5  -5  -5   45.40    4.90
   5  -5  -5   54.49    4.80
   5  -5  -5   56.69    4.30
   4  -5  -5   36.70    5.20
   4  -5  -5   40.10    3.60
   4  -5  -5   40.50    4.90
   4  -5  -5   36.90    4.20
   4  -5  -5   46.70    4.90
   3  -5  -5  105.79   10.50
   3  -5  -5  118.79   10.50
   3  -5  -5  134.29    9.90
   3  -5  -5  105.39   10.10
   3  -5  -5  112.09   10.60
   2  -5  -5   23.50    4.20
   2  -5  -5   33.20    3.20
   2  -5  -5   30.30    3.10
   2  -5  -5   30.50    3.40
   1  -5  -5   22.10    3.60
   1  -5  -5   17.60    2.20
   1  -5  -5   20.00    2.30
  -1   5   5   16.10    2.40
  -1   5   5   19.70    1.60
  -1   5   5   18.40    1.60
   0  -5  -5   26.20    3.30
   0  -5  -5   34.50    4.20
   0  -5  -5   33.70    3.10
   0  -5  -5   31.50    3.00
   0   5   5   32.60    2.70
   0   5   5   34.00    2.60
   0   5   5   27.50    2.50
   0   5   5   35.20    3.30
  -1  -5  -5   22.50    2.30
  -1  -5  -5   17.60    2.80
  -1  -5  -5   19.60    3.90
  -1  -5  -5   15.70    3.50
   1   5   5   22.20    2.40
   1   5   5   17.70    1.70
   1   5   5   18.80    1.70
   1   5   5   17.10    1.90
   1   5   5   16.40    2.20
  -2  -5  -5   30.10    5.90
  -2  -5  -5   29.80    2.60
   2   5   5   26.90    3.40
   2   5   5   26.30    2.40
   2   5   5   26.70    4.90
   2   5   5   29.70    2.50
  -3  -5  -5  129.89   15.10
  -3  -5  -5  129.59   10.00
   3   5   5  134.69   11.30
   3   5   5  131.69    9.80
   3   5   5  120.09   10.20
  -4  -5  -5   43.50    3.40
  -4  -5  -5   35.60    4.20
   4   5   5   40.70    3.50
   4   5   5   40.30    4.50
  -5  -5  -5   85.19    6.50
  -5  -5  -5   83.19    7.00
   4  -6  -5   49.20    4.60
   4  -6  -5   63.19    5.20
   4  -6  -5   54.79    5.50
   4  -6  -5   57.19    5.20
   3  -6  -5   70.49    6.30
   3  -6  -5   60.39    6.40
   3  -6  -5   68.79    5.60
   3  -6  -5   72.59    7.10
   2  -6  -5   40.70    5.60
   2  -6  -5   47.60    4.80
   2  -6  -5   44.80    4.40
   2  -6  -5   57.89    5.30
  -2   6   5   47.50    3.70
   1  -6  -5   12.50    3.30
   1  -6  -5   17.40    2.60
   1  -6  -5   17.20    2.70
   1  -6  -5   19.80    3.80
  -1   6   5   14.70    1.40
  -1   6   5   16.00    1.40
   0  -6  -5  222.08   20.20
   0  -6  -5  301.67   21.10
   0  -6  -5  303.87   20.60
   0  -6  -5  242.08   21.40
   0   6   5  258.87   19.90
   0   6   5  262.57   19.90
   0   6   5  267.27   20.20
  -1  -6  -5   16.70    2.10
  -1  -6  -5   15.90    2.70
  -1  -6  -5   16.50    3.60
   1   6   5   15.80    1.60
   1   6   5   14.90    2.10
   1   6   5   17.20    2.20
   1   6   5   14.60    1.60
  -2  -6  -5   39.80    4.50
  -2  -6  -5   45.40    3.60
  -2  -6  -5   49.10    7.20
   2   6   5   38.60    3.50
   2   6   5   42.00    3.80
   2   6   5   39.50    3.40
   2   6   5   47.00    5.90
   3   6   5   54.49    4.80
   3   6   5   73.79    6.40
   3   6   5   58.59    5.20
  -4  -6  -5   66.49    4.80
  -4  -6  -5   61.39    5.70
   4   6   5   58.89    5.80
   4   6   5   54.99    5.00
   4  -7  -5   21.70    3.10
   3  -7  -5   18.10    2.10
   3  -7  -5   16.50    2.80
   3  -7  -5   13.40    2.80
   2  -7  -5  133.59    9.80
   2  -7  -5  137.79   10.40
  -2   7   5  117.19    9.40
  -2   7   5  111.19    9.40
   1  -7  -5   54.39    5.40
  -1   7   5   45.50    3.80
  -1   7   5   46.40    3.80
   0  -7  -5   94.29    8.80
   0  -7  -5  116.89    8.00
   0   7   5   90.69    7.50
   0   7   5   93.79    7.80
   0   7   5   94.59    7.50
  -1  -7  -5   46.80    6.40
  -1  -7  -5   44.50    4.70
   1   7   5   40.90    3.50
   1   7   5   40.40    3.40
  -2  -7  -5  112.99    8.70
   2   7   5   96.79    7.90
   2   7   5  101.39    8.20
   2   7   5  101.19    7.90
  -3  -7  -5   15.60    2.20
   3   7   5   15.30    3.00
   3   7   5   12.00    1.60
  -4  -7  -5   37.70    3.10
   4   7   5   27.30    2.60
   3  -8  -5   30.40    2.90
   2  -8  -5   39.90    3.50
   2  -8  -5   44.40    3.90
  -2   8   5   38.20    3.20
   1  -8  -5   84.79    6.00
   1  -8  -5   66.99    6.70
  -1   8   5   67.89    5.60
  -1   8   5   74.49    5.70
   0  -8  -5   27.20    3.30
   0  -8  -5   27.50    3.00
   0  -8  -5   25.90    2.60
   0   8   5   28.70    2.80
   0   8   5   21.70    2.10
   0   8   5   24.40    2.30
  -1  -8  -5   81.19    6.30
   1   8   5   68.49    5.70
   1   8   5   66.29    5.40
   1   8   5   66.89    5.50
   2   8   5   33.20    2.70
   2   8   5   34.10    2.90
   3   8   5   25.90    2.20
   0  -9  -5   54.29    4.30
   0   9   5   43.30    3.70
   0   9  -6   25.80    2.20
   0   9  -6   28.10    2.10
   2   8  -6   38.20    3.20
   1   8  -6    5.70    0.80
   1   8  -6    5.80    0.70
   1   8  -6    4.80    0.80
  -1  -8   6    6.60    1.60
  -1  -8   6    5.60    1.30
  -1  -8   6    5.10    1.50
   0   8  -6  107.09    8.30
   0   8  -6  112.49    8.20
   0  -8   6  103.59    9.10
  -1   8  -6    5.50    0.70
  -1   8  -6    4.60    0.80
  -1   8  -6    5.20    0.70
   1  -8   6    4.90    1.70
   1  -8   6    5.40    2.00
  -2   8  -6   37.50    2.90
   2  -8   6   32.40    3.50
   3   7  -6   20.40    1.90
   3   7  -6   18.80    2.60
   2   7  -6   19.10    2.00
   2   7  -6   18.50    1.50
   2   7  -6   14.90    3.30
   2   7  -6   16.90    2.00
   1   7  -6   14.50    1.30
   1   7  -6   11.00    1.60
   1   7  -6   12.10    1.30
  -1  -7   6   10.60    2.00
  -1  -7   6   15.30    2.70
  -1  -7   6   13.60    6.30
   0   7  -6  204.78   15.30
   0   7  -6  196.68   15.80
   0   7  -6  199.78   15.30
   0  -7   6  214.38   17.40
  -1   7  -6   12.30    1.20
  -1   7  -6   13.00    1.20
  -1   7  -6   12.10    1.50
   1  -7   6    7.60    2.30
   1  -7   6   16.10    2.90
   1  -7   6   11.20    2.20
   1  -7   6    9.10    3.40
  -2   7  -6   19.70    1.50
  -2   7  -6   17.10    1.60
   2  -7   6   20.20    3.20
   2  -7   6   13.60    3.80
   2  -7   6   17.40    2.70
  -3   7  -6   16.30    1.90
  -3   7  -6   17.50    1.50
  -3   7  -6   17.90    1.50
   3  -7   6   17.40    2.60
   3  -7   6   17.40    3.40
   4   6  -6   36.50    3.60
   4   6  -6   29.90    2.50
  -4  -6   6   26.30    2.70
   3   6  -6  172.68   13.20
   3   6  -6  166.88   12.30
  -3  -6   6  143.79   12.30
   2   6  -6  183.68   13.80
   2   6  -6  193.58   13.60
   2   6  -6  186.08   14.70
  -2  -6   6  158.98   13.80
   1   6  -6  145.89   10.00
   1   6  -6  139.19   10.00
   1   6  -6  133.39   10.20
   1   6  -6  123.79   10.60
  -1  -6   6  122.09   10.50
  -1  -6   6  141.19   11.20
  -1  -6   6  114.79   10.50
   0   6  -6    2.90    0.50
   0   6  -6    3.20    1.50
   0   6  -6    1.90    0.70
   0   6  -6    1.60    0.50
   0  -6   6    3.10    1.20
   0  -6   6    2.60    1.50
   0  -6   6    2.50    1.40
   0  -6   6    2.40    2.80
   0  -6   6    2.80    1.80
  -1   6  -6  141.59   10.20
  -1   6  -6  129.19   10.30
  -1   6  -6  123.69   10.80
   1  -6   6  136.49   10.90
   1  -6   6  131.59   11.50
   1  -6   6  142.19   11.70
   1  -6   6  135.09   11.10
  -2   6  -6  179.78   12.30
   2  -6   6  147.39   14.70
   2  -6   6  162.08   13.40
   2  -6   6  161.28   13.20
  -3   6  -6  155.78   11.60
   3  -6   6  160.98   12.80
   3  -6   6  133.29   13.70
   3  -6   6  165.48   12.90
   4  -6   6   32.00    4.20
   4  -6   6   37.20    3.70
   5   5  -6   11.00    1.70
  -5  -5   6   10.60    1.30
   4   5  -6    7.20    1.10
   4   5  -6    9.20    2.20
  -4  -5   6    7.40    1.20
  -4  -5   6    9.00    1.90
   3   5  -6  302.37   24.00
   3   5  -6  301.17   24.70
  -3  -5   6  352.16   24.90
  -3  -5   6  317.87   24.10
   2   5  -6  231.58   18.40
   2   5  -6  272.47   17.90
   2   5  -6  235.78   18.10
   2   5  -6  230.28   18.90
  -2  -5   6  244.08   18.30
  -2  -5   6  214.78   18.20
   1   5  -6   93.29    6.80
   1   5  -6   84.69    7.00
   1   5  -6   95.49    6.80
   1   5  -6   83.69    8.00
   1   5  -6   86.19    7.30
  -1  -5   6  101.29    8.00
  -1  -5   6   83.99    7.70
  -1  -5   6   88.09    7.00
  -1  -5   6   82.19    7.10
   0   5  -6  255.87   21.50
   0   5  -6  292.27   21.20
   0   5  -6  289.17   21.10
   0   5  -6  263.57   21.20
   0  -5   6  309.57   21.70
   0  -5   6  247.18   21.60
   0  -5   6  313.67   22.30
  -1   5  -6   87.39    6.80
  -1   5  -6   85.59    7.40
  -1   5  -6   90.39    6.80
   1  -5   6   85.09    7.60
   1  -5   6   96.49    7.50
  -2   5  -6  228.78   17.60
  -2   5  -6  229.18   18.30
   2  -5   6  230.28   18.50
   2  -5   6  258.77   18.60
   2  -5   6  231.98   19.30
  -3   5  -6  282.07   21.00
   3  -5   6  248.28   22.40
   3  -5   6  300.47   23.90
   3  -5   6  247.68   21.80
   3  -5   6  307.97   22.30
   3  -5   6  299.07   22.20
  -4   5  -6    7.90    1.00
  -4   5  -6    6.10    0.60
   4  -5   6    4.80    1.90
   4  -5   6    4.40    2.30
   4  -5   6    3.90    1.80
   5  -5   6    5.20    1.90
   5  -5   6    4.70    1.40
   5  -5   6    6.90    1.90
   5   4  -6    2.70    1.10
  -5  -4   6    5.10    0.80
  -5  -4   6    3.30    0.60
   4   4  -6  190.88   15.10
   4   4  -6  204.48   14.20
  -4  -4   6  169.28   14.10
  -4  -4   6  183.78   14.20
   3   4  -6  274.17   21.60
   3   4  -6  302.67   21.30
   3   4  -6  296.87   22.10
   3   4  -6  257.37   21.40
  -3  -4   6  309.17   21.40
  -3  -4   6  262.87   21.10
  -3  -4   6  272.37   21.30
   2   4  -6  117.29    8.00
   2   4  -6  102.19    8.20
   2   4  -6  105.39    8.20
   2   4  -6  103.29    8.40
   2   4  -6   99.09    8.90
  -2  -4   6  127.89   11.00
  -2  -4   6  111.39    8.20
  -2  -4   6   94.09    8.30
  -2  -4   6  107.59    8.20
  -2  -4   6   93.09    8.00
   1   4  -6   20.60    1.60
   1   4  -6   11.90   20.00
   1   4  -6   22.70    1.70
   1   4  -6   17.90    1.90
   1   4  -6   19.20    2.10
  -1  -4   6   23.40    3.90
  -1  -4   6   26.00    6.20
  -1  -4   6   16.80    2.10
  -1  -4   6   18.40    1.90
   0   4  -6  171.18   12.60
   0   4  -6  166.38   13.00
   0   4  -6  180.08   12.60
   0   4  -6  171.08   28.00
   0  -4   6  155.88   13.10
   0  -4   6  171.98   12.70
   0  -4   6  133.09   33.30
  -1   4  -6   20.40    1.70
  -1   4  -6   18.60    1.60
  -1   4  -6   18.90   14.00
  -1   4  -6   19.40    1.60
  -1   4  -6   17.20    2.10
   1  -4   6   13.80    3.80
   1  -4   6   18.90    2.30
   1  -4   6   23.40    3.10
   1  -4   6    3.00   27.70
  -2   4  -6  117.39    8.40
  -2   4  -6  103.29    8.20
  -2   4  -6  106.69    9.30
   2  -4   6  111.59    9.50
   2  -4   6   99.69    8.90
   2  -4   6  111.19    9.10
  -3   4  -6  287.47   22.10
  -3   4  -6  293.97   21.40
  -3   4  -6  279.47   21.80
   3  -4   6  313.37   22.70
   3  -4   6  283.57   24.20
   3  -4   6  269.17   22.20
   3  -4   6  281.37   23.10
  -4   4  -6  198.68   13.40
  -4   4  -6  183.98   13.40
   4  -4   6  192.68   15.60
   4  -4   6  151.58   14.40
   4  -4   6  160.98   16.00
  -5   4  -6    4.10    0.40
  -5   4  -6    3.80    0.70
   5  -4   6    1.10    1.50
   5  -4   6    1.40    1.80
   5  -4   6    2.60    1.70
   5   3  -6   35.40    6.10
   5   3  -6   43.80    3.80
  -5  -3   6   37.20    3.20
  -5  -3   6   35.20    3.10
  -5  -3   6   34.50    3.30
   4   3  -6   26.70    6.20
   4   3  -6   26.40    3.20
   4   3  -6   23.00    3.00
   4   3  -6   23.30    3.70
  -4  -3   6   25.30    2.40
  -4  -3   6   25.40    2.20
  -4  -3   6   27.10    2.50
   3   3  -6   53.49    4.10
   3   3  -6   51.19    4.50
   3   3  -6   52.29    5.00
   3   3  -6   42.30    7.60
   3   3  -6   50.29    4.30
  -3  -3   6   45.20    4.30
  -3  -3   6   55.39    4.20
  -3  -3   6   53.39    4.20
  -3  -3   6   49.50    4.00
   2   3  -6  237.58   39.60
   2   3  -6  208.58   15.90
   2   3  -6  150.18   37.20
   2   3  -6  189.18   16.10
   2   3  -6  207.18   16.00
   2   3  -6  243.08   15.70
  -2  -3   6  208.38   15.80
  -2  -3   6  199.68   15.80
  -2  -3   6  208.18   15.90
  -2  -3   6  239.98   17.70
  -2  -3   6  214.18   19.10
  -2  -3   6  191.58   16.00
   1   3  -6   42.70   12.70
   1   3  -6   49.60    4.40
   1   3  -6   55.39    4.20
   1   3  -6   54.39    4.10
  -1  -3   6   62.49    5.70
  -1  -3   6   48.40    4.20
  -1  -3   6   50.89    4.60
  -1  -3   6   60.79   19.20
  -1  -3   6   54.49    4.30
   0   3  -6  568.84   48.10
   0   3  -6  657.83   46.70
   0   3  -6  690.03   53.09
   0   3  -6  669.23   46.70
   0   3  -6  618.54   47.00
   0  -3   6  566.84   58.69
   0  -3   6  611.94   47.00
   0  -3   6  627.44   46.70
  -1   3  -6   56.79   11.80
  -1   3  -6   59.09    4.30
  -1   3  -6   52.49    4.10
  -1   3  -6   53.09    4.40
  -1   3  -6   52.59    4.20
   1  -3   6   24.40   17.00
   1  -3   6   52.29    4.60
  -2   3  -6  226.68   17.00
  -2   3  -6  216.48   41.60
  -2   3  -6  231.38   16.70
  -2   3  -6  214.48   16.70
   2  -3   6  223.18   17.20
  -3   3  -6   57.79    5.20
  -3   3  -6   58.39    4.30
  -3   3  -6   53.79    4.50
  -3   3  -6   56.89    4.20
   3  -3   6   58.59    5.70
   3  -3   6   50.99    5.00
   3  -3   6   48.50    6.80
   3  -3   6   57.89    5.70
   3  -3   6   52.39    7.40
  -4   3  -6   26.40    2.00
  -4   3  -6   26.60    2.10
   4  -3   6   19.00    3.80
   4  -3   6   22.90    4.10
   4  -3   6   23.10    3.40
   4  -3   6   26.10    4.30
  -5   3  -6   37.70    2.90
  -5   3  -6   35.20    3.00
   5  -3   6   42.10    5.60
   5  -3   6   34.30    4.20
   5  -3   6   36.00    4.50
   6   2  -6   40.30    6.00
   6   2  -6   45.90    3.40
  -6  -2   6   42.70    3.40
  -6  -2   6   38.40    3.30
   5   2  -6   13.20    2.80
   5   2  -6   14.10    4.10
   5   2  -6   15.70    2.10
  -5  -2   6   16.90    1.70
  -5  -2   6   18.80    1.80
  -5  -2   6   15.50    1.50
   4   2  -6   99.39    7.90
   4   2  -6   92.39    7.80
   4   2  -6   89.99    8.30
  -4  -2   6   97.89    7.30
  -4  -2   6   89.29    7.60
  -4  -2   6   92.49    7.30
  -4  -2   6   91.19    7.20
   3   2  -6  298.57   22.00
   3   2  -6  249.97   24.10
   3   2  -6  303.17   22.30
  -3  -2   6  305.47   21.80
  -3  -2   6  306.77   21.80
  -3  -2   6  265.37   21.90
  -3  -2   6  295.07   21.70
   2   2  -6    1.10    2.40
   2   2  -6    5.50   12.90
   2   2  -6    1.30    0.70
   2   2  -6    0.80    0.60
   2   2  -6    0.30    0.40
  -2  -2   6   -5.80   15.50
  -2  -2   6    1.00    2.10
  -2  -2   6    0.40    2.60
  -2  -2   6    0.40    0.60
  -2  -2   6    0.90    0.40
  -2  -2   6    0.10    0.30
   1   2  -6  219.48   19.00
   1   2  -6  248.58   17.90
   1   2  -6  271.07   24.60
  -1  -2   6  232.48   28.30
  -1  -2   6  244.28   17.80
  -1  -2   6  220.78   17.80
   0   2  -6  872.51   65.89
   0   2  -6  863.31   65.89
   0   2  -6  939.21   70.39
   0   2  -6  893.71   65.69
   0  -2   6  865.21   65.79
  -1   2  -6  253.87   20.90
  -1   2  -6  288.17   25.30
  -1   2  -6  256.47   20.10
   1  -2   6  270.97   28.70
   1  -2   6  278.37   20.30
  -2   2  -6    1.10    0.50
  -2   2  -6   -0.50    1.50
  -2   2  -6    0.60    0.30
  -2   2  -6    0.50    0.30
  -2   2  -6   -2.40    9.20
   2  -2   6    7.30   12.80
   2  -2   6    0.70    0.70
   2  -2   6    0.50    2.20
   2  -2   6   -0.70    1.30
  -3   2  -6  350.76   24.40
  -3   2  -6  306.27   24.80
  -3   2  -6  363.86   24.50
   3  -2   6  357.56   26.80
   3  -2   6  280.47   25.30
   3  -2   6  299.07   25.00
   3  -2   6  334.97   24.90
  -4   2  -6   78.99    7.10
  -4   2  -6   93.19    6.40
  -4   2  -6   94.89    6.50
   4  -2   6   80.79    8.40
   4  -2   6   68.29    7.80
  -5   2  -6   16.10    1.80
  -5   2  -6   17.00    1.60
   5  -2   6   23.00    4.60
   5  -2   6   19.50    3.50
   5  -2   6   19.90    3.40
   6  -2   6   44.30    4.20
   6  -2   6   33.30    4.00
   6  -2   6   34.00    4.90
   6   1  -6    5.40    1.40
   6   1  -6    8.00    2.90
   6   1  -6    8.80    1.00
   6   1  -6    7.10    1.90
  -6  -1   6    8.70    1.10
  -6  -1   6    8.20    0.80
   5   1  -6  145.19   11.40
   5   1  -6  136.09   11.50
   5   1  -6  124.79   14.20
   5   1  -6  172.48   12.50
  -5  -1   6  168.08   11.40
  -5  -1   6  141.99   11.20
  -5  -1   6  147.69   11.30
   4   1  -6  192.58   14.70
   4   1  -6  166.38   13.60
   4   1  -6  170.18   12.90
   4   1  -6  152.88   12.80
   4   1  -6  186.38   16.10
  -4  -1   6  159.68   12.40
  -4  -1   6  157.28   12.30
  -4  -1   6  157.88   12.60
  -4  -1   6  136.39   12.90
   3   1  -6   22.70    2.60
   3   1  -6   21.20    2.20
   3   1  -6   23.20    6.20
  -3  -1   6   22.30    1.80
  -3  -1   6   20.80    1.80
  -3  -1   6   18.00    2.10
   2   1  -6  176.98   13.30
   2   1  -6  188.08   13.20
   2   1  -6  214.28   22.40
   2   1  -6  193.08   13.20
   2   1  -6  184.08   14.80
  -2  -1   6  166.28   13.10
  -2  -1   6  157.88   13.30
  -2  -1   6  164.48   24.40
  -2  -1   6  147.59   13.50
   1   1  -6  486.65   39.00
   1   1  -6  445.86   34.60
   1   1  -6  453.45   34.60
   1   1  -6  486.35   37.10
  -1  -1   6  446.06   41.00
  -1  -1   6  467.45   34.60
  -1  -1   6  461.25   34.50
   0  -1   6 2901.51  214.78
   0  -1   6 2861.11  218.58
  -1   1  -6  476.45   42.00
  -1   1  -6  523.55   37.90
  -1   1  -6  473.65   38.00
   1  -1   6  572.44   42.80
  -2   1  -6  197.48   16.20
  -2   1  -6  183.18   23.80
  -2   1  -6  234.18   16.00
  -2   1  -6  223.78   17.30
   2  -1   6  231.08   16.30
   2  -1   6  202.18   17.60
   2  -1   6  193.98   17.30
   2  -1   6  241.68   24.30
  -3   1  -6   35.90   30.30
  -3   1  -6   21.40    2.30
  -3   1  -6   24.80    1.80
   3  -1   6   18.80   21.90
   3  -1   6   20.10    4.70
   3  -1   6   22.70    3.00
   3  -1   6   24.20    4.00
   3  -1   6   21.20    2.30
  -4   1  -6  135.39   11.80
  -4   1  -6  165.38   11.70
  -4   1  -6  170.28   11.70
  -4   1  -6  151.38   12.20
   4  -1   6  152.48   13.50
  -5   1  -6  158.38   11.60
  -5   1  -6  151.68   11.60
  -5   1  -6  133.99   11.70
   5  -1   6  165.08   13.30
   5  -1   6  164.08   14.10
   5  -1   6  152.18   13.30
  -6   1  -6    9.10    0.90
   6  -1   6    8.40    1.90
   6  -1   6    9.60    2.10
   6   0  -6   12.80    3.40
   6   0  -6   15.50    1.50
   6   0  -6   12.30    2.20
  -6   0   6   16.70    1.50
  -6   0   6   15.60    1.30
   5   0  -6   77.79    7.70
   5   0  -6   94.59    6.80
   5   0  -6   69.89    7.90
   5   0  -6   89.69    7.40
  -5   0   6   84.19    6.50
  -5   0   6   84.89    6.60
  -5   0   6   93.69    6.70
   4   0  -6   63.29    7.20
   4   0  -6   76.09    6.10
   4   0  -6   76.39    6.20
   4   0  -6   72.89    7.10
  -4   0   6   71.19    5.60
  -4   0   6   74.39    5.70
  -4   0   6   72.89    5.90
  -4   0   6   74.79    5.80
   3   0  -6   59.49    5.20
   3   0  -6   49.10    5.30
   3   0  -6   56.29    4.40
   3   0  -6   51.29   31.40
  -3   0   6   48.30    3.90
  -3   0   6   46.70    3.90
  -3   0   6   46.70    4.10
   2   0  -6    2.90    0.60
   2   0  -6    1.40    0.60
   2   0  -6    1.30    1.50
   2   0  -6    2.30    1.90
   2   0  -6   10.30    7.20
  -2   0   6    1.60    0.40
  -2   0   6    5.50    8.50
  -2   0   6    2.00    0.30
  -1   0   6 3856.81  316.47
  -1   0   6 4556.34  313.37
   0   0  -6   83.99    6.30
   0   0  -6   79.79    6.40
   0   0   6  100.49   10.80
   0   0   6   77.59    6.30
   1   0   6 3824.22  256.77
   1   0   6 3095.39  257.87
  -2   0  -6    1.40    0.50
  -2   0  -6    1.50    0.30
  -2   0  -6    1.50    0.70
  -2   0  -6    1.40    1.70
  -2   0  -6    7.10    9.20
  -2   0  -6    1.80    0.30
   2   0   6    1.50    1.80
   2   0   6    1.20    1.50
   2   0   6    0.10    7.70
   2   0   6    2.40    0.60
  -3   0  -6   51.89    4.10
  -3   0  -6   36.00   26.40
  -3   0  -6   53.69    4.50
  -3   0  -6   49.99    4.10
   3   0   6   74.89   22.70
   3   0   6   60.69    6.50
   3   0   6   52.59    4.40
   3   0   6   54.79    5.20
  -4   0  -6   79.09    5.80
  -4   0  -6   80.69    5.80
  -4   0  -6   69.29    6.30
  -4   0  -6   65.69    6.00
   4   0   6   82.39    7.90
  -5   0  -6   94.19    7.00
  -5   0  -6   77.09    7.10
  -5   0  -6   99.59    7.10
   5   0   6   96.59    9.60
   5   0   6   92.39    8.60
  -6   0  -6   18.10    1.70
  -6   0  -6   19.60    1.60
  -6   0  -6   18.40    1.70
   6   0   6   19.40    2.70
   6   0   6   21.30    3.00
   6   0   6   14.00    4.60
   6  -1  -6    8.20    3.10
   6  -1  -6    5.00    1.70
   6  -1  -6    8.30    1.00
   6  -1  -6    8.00    1.90
  -6   1   6    6.40    0.80
   5  -1  -6  121.69   12.00
   5  -1  -6  150.88   12.10
   5  -1  -6  142.39   10.90
  -5   1   6  149.29   10.70
  -5   1   6  141.79   10.70
   4  -1  -6  162.78   13.40
   4  -1  -6  160.38   12.70
   4  -1  -6  151.88   14.80
   4  -1  -6  173.48   12.50
  -4   1   6  159.28   12.10
  -4   1   6  163.98   12.20
  -4   1   6  155.18   12.40
   3  -1  -6   15.50    2.50
   3  -1  -6   20.50    3.00
   3  -1  -6   19.30    4.40
  -3   1   6   20.50    1.60
  -3   1   6   18.50    1.90
   2  -1  -6  200.98   14.80
   2  -1  -6  186.98   14.20
   2  -1  -6  189.18   14.60
  -2   1   6  182.58   14.00
  -2   1   6  183.28   14.00
  -2   1   6  186.38   14.10
  -2   1   6  175.78   20.30
   1  -1  -6  494.85   34.30
   1  -1  -6  430.26   34.20
   1  -1  -6  432.76   34.70
   1  -1  -6  491.95   34.80
  -1   1   6  423.06   34.10
  -1   1   6  434.36   38.30
  -1   1   6  502.05   34.30
   0  -1  -6 2991.80  210.38
   0   1   6 2576.54  206.28
  -1  -1  -6  417.76   34.70
  -1  -1  -6  486.05   34.60
  -1  -1  -6  440.46   40.20
  -1  -1  -6  524.05   34.80
   1   1   6  409.86   35.70
   1   1   6  495.95   34.70
   1   1   6  464.35   34.60
   1   1   6  473.45   35.90
  -2  -1  -6  212.08   14.90
  -2  -1  -6  194.58   14.80
  -2  -1  -6  183.98   15.00
  -2  -1  -6  161.98   26.20
   2   1   6  206.18   24.10
   2   1   6  196.88   15.00
   2   1   6  216.48   17.00
  -3  -1  -6   23.60    2.20
  -3  -1  -6   16.30    1.90
  -3  -1  -6   22.60    1.70
   3   1   6   16.90    2.00
   3   1   6   21.90    4.60
  -4  -1  -6  153.38   12.70
  -4  -1  -6  165.78   12.30
  -4  -1  -6  141.19   12.40
  -4  -1  -6  164.38   12.20
   4   1   6  190.18   14.90
   4   1   6  161.28   15.70
  -5  -1  -6  155.58   11.00
  -5  -1  -6  133.79   11.10
  -5  -1  -6  164.48   11.10
   5   1   6  121.19   11.70
   5   1   6  150.98   12.40
  -6  -1  -6    9.00    1.00
  -6  -1  -6    8.70    0.90
   6   1   6    9.80    2.20
   6  -2  -6   27.80    3.40
   6  -2  -6   28.60    4.30
   6  -2  -6   30.30    3.20
   5  -2  -6   12.70    2.90
   5  -2  -6   14.30    1.70
   5  -2  -6   13.90    3.80
   5  -2  -6   13.20    3.00
  -5   2   6   15.10    1.40
  -5   2   6   15.80    1.40
   4  -2  -6   79.59    7.80
   4  -2  -6   87.39    7.10
   4  -2  -6   88.09    6.80
  -4   2   6   86.99    6.40
  -4   2   6   83.49    6.70
  -4   2   6   78.99    6.40
   3  -2  -6  308.47   23.00
   3  -2  -6  261.57   22.70
   3  -2  -6  338.17   23.80
   3  -2  -6  323.67   22.10
   3  -2  -6  301.87   22.10
   3  -2  -6  248.28   23.20
  -3   2   6  298.37   21.70
  -3   2   6  256.67   21.90
   2  -2  -6    2.60    0.60
  -2   2   6    0.40    0.30
  -2   2   6    0.70    0.20
  -2   2   6    0.50    0.50
   1  -2  -6  237.48   18.60
  -1   2   6  269.47   19.30
  -1   2   6  239.48   18.60
  -1   2   6  225.48   18.50
  -1   2   6  277.97   22.30
   0  -2  -6  840.22   67.39
   0  -2  -6  867.81   60.29
   0  -2  -6  707.23   60.19
   0   2   6  841.72   61.79
   0   2   6  792.02   60.39
   0   2   6  832.22   60.29
   0   2   6  859.31   64.29
   0   2   6  762.12   61.19
  -1  -2  -6  218.98   18.30
  -1  -2  -6  243.08   26.90
  -1  -2  -6  246.98   18.40
   1   2   6  276.07   20.00
   1   2   6  246.88   18.30
   1   2   6  252.37   24.80
   1   2   6  236.58   18.40
  -2  -2  -6    0.00    2.30
  -2  -2  -6    0.80    0.30
  -2  -2  -6   -1.10   15.60
  -2  -2  -6    0.10    1.10
  -2  -2  -6    0.50    0.40
  -2  -2  -6    1.80    0.50
   2   2   6    0.80    2.50
   2   2   6    6.90   11.80
   2   2   6    0.70    0.40
   2   2   6    1.20    2.40
   2   2   6    0.10    0.30
  -3  -2  -6  290.67   23.10
  -3  -2  -6  323.87   22.80
  -3  -2  -6  323.27   22.80
  -3  -2  -6  262.57   22.90
   3   2   6  317.37   24.00
   3   2   6  310.77   22.90
  -4  -2  -6   85.69    6.60
  -4  -2  -6   83.29    7.50
  -4  -2  -6   93.19    6.70
  -4  -2  -6   79.19    6.70
   4   2   6   83.09    8.10
  -5  -2  -6   15.80    1.40
  -5  -2  -6   15.40    1.50
  -5  -2  -6   14.90    1.70
   5   2   6   15.80    2.70
   5   2   6   13.20    2.80
  -6  -2  -6   42.30    3.70
  -6  -2  -6   52.59    3.80
   6   2   6   50.19    4.70
   5  -3  -6   28.00    3.70
   5  -3  -6   22.30    3.70
   5  -3  -6   25.20    5.00
   5  -3  -6   29.40    2.60
  -5   3   6   32.50    2.40
   4  -3  -6   24.00    3.70
   4  -3  -6   23.90    3.70
   4  -3  -6   21.00    2.50
   4  -3  -6   24.60    2.80
   4  -3  -6   23.00    4.70
  -4   3   6   25.00    2.00
   3  -3  -6   55.29    4.30
   3  -3  -6   44.90    4.90
   3  -3  -6   40.40    5.20
   3  -3  -6   48.10    6.10
   3  -3  -6   53.19    4.30
   3  -3  -6   51.89    5.40
   3  -3  -6   50.29    5.90
  -3   3   6   48.10    3.70
  -3   3   6   45.30    3.90
   2  -3  -6  190.08   14.50
   2  -3  -6  214.18   14.70
  -2   3   6  185.78   14.30
  -2   3   6  176.38   14.50
   1  -3  -6   48.10    4.00
   1  -3  -6   58.29    4.20
  -1   3   6   46.50    3.90
  -1   3   6   50.29    4.10
  -1   3   6   64.39   10.90
   0  -3  -6  712.13   55.79
   0   3   6  608.14   47.50
   0   3   6  599.34   47.70
   0   3   6  664.53   52.79
   0   3   6  640.64   47.50
  -1  -3  -6   51.59   16.00
  -1  -3  -6   55.59    4.00
   1   3   6   48.40    4.00
   1   3   6   50.09    4.00
   1   3   6   61.69    7.70
   1   3   6   48.50    4.20
   1   3   6   32.30   11.90
  -2  -3  -6  184.78   14.50
  -2  -3  -6  207.28   14.40
  -2  -3  -6  208.08   14.40
   2   3   6  159.48   14.60
   2   3   6  206.08   14.70
   2   3   6  209.88   18.50
   2   3   6  144.49   27.90
   2   3   6  179.68   14.40
   2   3   6  192.88   14.40
  -3  -3  -6   44.70    9.80
  -3  -3  -6   53.09    3.70
  -3  -3  -6   52.99    3.80
  -3  -3  -6   42.70    3.90
  -3  -3  -6   43.60    4.00
  -3  -3  -6   41.10    5.10
   3   3   6   51.69    5.40
   3   3   6   43.90    4.10
  -4  -3  -6   21.70    4.10
  -4  -3  -6   24.50    2.20
  -4  -3  -6   25.10    2.40
  -4  -3  -6   25.90    2.10
   4   3   6   20.80    3.70
   4   3   6   22.50    2.50
  -5  -3  -6   37.40    2.80
  -5  -3  -6   32.90    2.60
  -5  -3  -6   30.00    2.70
   5   3   6   25.00    3.60
   5  -4  -6    2.20    2.10
   5  -4  -6    3.30    0.90
   5  -4  -6    3.40    1.60
   5  -4  -6    0.70    2.10
   4  -4  -6  132.89   13.20
   4  -4  -6  125.99   15.40
   4  -4  -6  165.78   13.40
   4  -4  -6  160.58   11.80
   4  -4  -6  137.09   11.90
   4  -4  -6  163.18   14.00
   3  -4  -6  248.78   18.00
   3  -4  -6  243.78   19.80
   3  -4  -6  221.78   19.40
   3  -4  -6  217.08   18.00
   3  -4  -6  230.38   18.90
   3  -4  -6  247.98   19.10
  -3   4   6  236.38   17.80
   2  -4  -6   85.99    7.70
   2  -4  -6   85.89    7.00
   2  -4  -6  103.59    7.30
   2  -4  -6   91.39    7.20
   2  -4  -6   73.69    8.40
   2  -4  -6   86.49    8.20
  -2   4   6   95.39    6.80
  -2   4   6   92.19    7.20
   1  -4  -6   16.00    1.70
   1  -4  -6   17.70    3.40
   1  -4  -6   20.60    2.10
   1  -4  -6   19.50    2.10
   1  -4  -6   18.40    2.20
  -1   4   6   21.80    1.90
  -1   4   6   18.30    1.60
  -1   4   6   19.50    2.00
   0  -4  -6  170.38   13.20
   0   4   6  154.38   12.40
   0   4   6  137.09   26.60
   0   4   6  156.98   12.10
   0   4   6  164.58   12.10
   0   4   6  161.38   12.10
  -1  -4  -6   14.80    3.10
  -1  -4  -6   14.80    2.50
  -1  -4  -6    9.40    5.10
  -1  -4  -6   18.40    2.00
   1   4   6   17.20    1.90
   1   4   6   15.40    1.40
   1   4   6   11.00   29.60
   1   4   6   16.80    1.50
   1   4   6   15.50    1.60
  -2  -4  -6   97.19    7.00
  -2  -4  -6  100.89    9.30
  -2  -4  -6   73.89    7.60
  -2  -4  -6   83.59    6.80
   2   4   6   82.09    7.00
   2   4   6   95.39    6.80
   2   4   6   84.29    6.70
   2   4   6   85.29    7.10
  -3  -4  -6  284.67   18.40
  -3  -4  -6  232.98   18.60
  -3  -4  -6  230.08   22.40
  -3  -4  -6  260.27   19.60
  -3  -4  -6  230.98   18.80
   3   4   6  267.97   18.40
   3   4   6  222.78   18.70
   3   4   6  225.78   19.60
  -4  -4  -6  177.48   13.30
  -4  -4  -6  189.68   14.50
  -4  -4  -6  175.38   12.90
   4   4   6  156.98   14.70
   4   4   6  153.08   13.50
  -5  -4  -6    3.70    0.70
  -5  -4  -6    3.40    1.90
   5  -5  -6    5.40    2.10
   5  -5  -6    8.90    1.30
   5  -5  -6   10.50    1.90
   4  -5  -6    6.00    2.00
   4  -5  -6    4.50    2.40
   4  -5  -6    3.90    1.70
   4  -5  -6    1.60    1.80
   4  -5  -6    3.40    1.80
   4  -5  -6    3.10    1.00
   3  -5  -6  275.37   20.70
   3  -5  -6  246.68   19.40
   3  -5  -6  225.38   19.70
   3  -5  -6  254.17   19.10
   3  -5  -6  234.78   20.00
   2  -5  -6  226.88   18.60
   2  -5  -6  255.67   20.20
   2  -5  -6  263.27   18.80
  -2   5   6  226.08   18.10
   1  -5  -6   72.19    7.30
   1  -5  -6   92.39    6.90
   1  -5  -6   74.99    6.70
  -1   5   6   90.09    6.50
  -1   5   6   84.09    6.90
  -1   5   6   84.39    6.30
   0  -5  -6  258.17   19.40
   0  -5  -6  224.08   19.50
   0  -5  -6  243.98   18.40
   0  -5  -6  232.08   18.70
   0  -5  -6  264.37   20.10
   0   5   6  217.28   18.30
   0   5   6  241.18   18.20
   0   5   6  259.77   18.70
   0   5   6  240.98   18.40
   0   5   6  240.08   18.10
  -1  -5  -6   81.79    8.20
  -1  -5  -6   83.29    6.50
   1   5   6   77.39    6.20
   1   5   6   81.09    6.50
   1   5   6   82.19    6.70
   1   5   6   75.49    6.10
   1   5   6   78.19    6.30
  -2  -5  -6  228.98   15.70
  -2  -5  -6  204.48   18.00
  -2  -5  -6  199.78   16.30
  -2  -5  -6  202.08   15.50
   2   5   6  186.38   15.70
   2   5   6  206.68   15.50
   2   5   6  195.38   15.40
   2   5   6  210.28   16.90
  -3  -5  -6  251.77   23.40
  -3  -5  -6  271.67   19.10
   3   5   6  258.57   18.90
   3   5   6  259.57   20.30
   3   5   6  219.38   19.20
  -4  -5  -6    2.70    1.50
  -4  -5  -6    4.90    0.80
   4   5   6    5.10    0.90
   4   5   6    4.20    1.70
  -5  -5  -6   10.10    1.90
  -5  -5  -6   10.50    1.00
   5   5   6    6.10    2.60
   5   5   6    8.20    1.80
   4  -6  -6   25.30    3.30
   4  -6  -6   28.20    2.60
   3  -6  -6  183.88   13.30
   3  -6  -6  168.28   13.80
   3  -6  -6  163.48   14.00
   2  -6  -6  174.68   14.10
   2  -6  -6  190.48   13.50
   2  -6  -6  180.38   13.90
  -2   6   6  143.99   12.90
  -2   6   6  174.38   13.00
   1  -6  -6  121.09   10.80
   1  -6  -6  104.29    9.30
   1  -6  -6  130.09    9.90
  -1   6   6  116.69    8.90
  -1   6   6  115.79    8.90
   0  -6  -6    1.90    1.90
   0  -6  -6    4.10    1.40
   0  -6  -6    0.90    1.60
   0  -6  -6    1.00    1.10
   0  -6  -6    1.10    1.60
   0   6   6    1.30    0.40
   0   6   6    1.90    0.50
  -1  -6  -6  106.09    9.50
  -1  -6  -6  128.59   11.00
  -1  -6  -6   95.79    9.80
  -1  -6  -6  127.49    9.10
   1   6   6  113.99    9.10
   1   6   6  118.99    8.80
   1   6   6  112.29    8.80
  -2  -6  -6  145.39   13.80
  -2  -6  -6  148.29   11.80
   2   6   6  140.39   10.90
   2   6   6  137.39   11.20
   2   6   6  146.39   11.00
   3   6   6  117.69    9.80
   3   6   6  132.39   10.80
  -4  -6  -6   33.60    2.50
   4   6   6   26.10    3.40
   4   6   6   28.30    2.60
   3  -7  -6   16.50    2.30
   3  -7  -6   14.80    2.10
   3  -7  -6   16.90    2.90
   2  -7  -6   14.30    3.00
   2  -7  -6   16.30    2.20
   2  -7  -6   16.00    2.30
  -2   7   6   15.60    1.40
  -2   7   6   13.00    1.40
   1  -7  -6   12.00    2.10
   1  -7  -6    7.90    1.80
   1  -7  -6    9.40    2.70
  -1   7   6   10.00    1.00
  -1   7   6    9.00    1.10
   0   7   6  145.59   12.80
   0   7   6  160.88   12.00
   0   7   6  165.48   12.00
  -1  -7  -6   11.40    2.10
  -1  -7  -6    9.80    2.60
   1   7   6    9.50    1.60
   1   7   6    7.60    1.10
   1   7   6    9.40    1.10
  -2  -7  -6   14.80    2.40
   2   7   6   13.50    1.80
   2   7   6   13.60    1.50
  -3  -7  -6   18.80    2.30
   3   7   6   13.30    1.70
   3   7   6   14.50    3.10
   2  -8  -6   29.80    2.90
   2  -8  -6   31.70    3.70
   2  -8  -6   34.70    3.30
  -2   8   6   32.40    2.60
   1  -8  -6    4.20    1.60
   1  -8  -6    5.20    1.30
   1  -8  -6    8.20    1.60
  -1   8   6    3.90    0.60
  -1   8   6    4.90    0.60
   0  -8  -6   95.69    7.00
   0  -8  -6  100.89    7.50
   0   8   6   79.59    6.70
   0   8   6   78.09    6.70
   0   8   6   84.09    6.90
  -1  -8  -6    6.10    1.60
   1   8   6    3.20    0.60
   1   8   6    3.10    0.60
   1   8   6    5.90    1.20
   2   8   6   29.70    2.40
   2   8   6   30.90    2.70
   0  -9  -6   26.10    2.50
   0   9   6   22.80    2.00
   2   8  -7    8.70    1.10
  -2  -8   7   11.90    2.00
   1   8  -7    1.90    0.60
   1   8  -7    2.40    0.70
   1   8  -7    2.00    0.40
  -1  -8   7    1.90    1.30
   0   8  -7    0.70    0.40
   0   8  -7    0.50    0.40
   0  -8   7    0.00    1.30
   0  -8   7    1.60    1.10
   0  -8   7    1.00    1.30
  -1   8  -7    2.50    0.60
  -1   8  -7    3.20    0.40
  -1   8  -7    2.00    0.50
   1  -8   7    0.70    1.00
   1  -8   7    2.00    1.30
   1  -8   7    1.10    2.10
  -2   8  -7    8.00    0.70
  -2   8  -7    7.70    0.90
   2  -8   7   10.90    2.10
   2  -8   7    7.20    2.10
   2  -8   7    9.10    1.80
   3   7  -7   55.79    4.70
   3   7  -7   60.69    5.20
   2   7  -7  453.55   37.80
   2   7  -7  531.85   37.70
   2   7  -7  528.25   38.00
   2   7  -7  514.15   38.80
   1   7  -7   88.99    7.20
   1   7  -7   96.09    7.00
  -1  -7   7  106.59   11.40
  -1  -7   7   82.09    7.50
   0   7  -7    1.90    0.40
   0   7  -7    1.30    0.60
   0  -7   7    3.40    1.70
   0  -7   7   -0.80    2.10
   0  -7   7    1.70    1.50
   0  -7   7    1.30    1.10
  -1   7  -7   91.69    6.40
  -1   7  -7   86.49    6.50
   1  -7   7   72.99    8.50
   1  -7   7   79.69    7.10
  -2   7  -7  459.55   35.10
  -2   7  -7  521.45   35.10
   2  -7   7  469.55   35.80
   2  -7   7  430.86   36.90
  -3   7  -7   61.29    4.60
  -3   7  -7   59.79    4.30
  -3   7  -7   56.29    4.50
   3  -7   7   57.49    5.40
   3  -7   7   50.59    5.90
   4   6  -7    1.10    0.50
   4   6  -7    0.90    1.10
  -4  -6   7    1.30    1.30
  -4  -6   7    0.40    0.60
   3   6  -7   52.19    4.20
   3   6  -7   53.99    5.20
  -3  -6   7   47.40    4.30
   2   6  -7  205.58   14.00
   2   6  -7  185.48   14.10
   2   6  -7  186.98   15.10
   2   6  -7  195.38   14.30
  -2  -6   7  162.48   14.30
   1   6  -7  513.85   38.00
   1   6  -7  537.85   37.90
   1   6  -7  491.35   38.10
   1   6  -7  485.15   38.60
  -1  -6   7  464.75   38.30
  -1  -6   7  558.44   39.10
   0   6  -7   25.80    2.70
   0   6  -7   25.50    3.30
   0   6  -7   35.00    2.60
   0   6  -7   28.70    2.60
   0  -6   7   27.60    4.10
   0  -6   7   36.20    3.30
   0  -6   7   34.70    4.00
   0  -6   7   30.40    6.00
  -1   6  -7  511.55   35.80
  -1   6  -7  491.75   35.80
  -1   6  -7  542.35   36.80
  -1   6  -7  442.76   35.90
   1  -6   7  552.44   37.30
   1  -6   7  427.16   36.80
   1  -6   7  469.95   36.50
   1  -6   7  409.76   36.60
  -2   6  -7  189.08   13.50
  -2   6  -7  167.98   13.50
   2  -6   7  170.48   16.10
   2  -6   7  208.08   15.00
   2  -6   7  167.18   14.60
   2  -6   7  174.48   14.40
  -3   6  -7   43.30    4.00
  -3   6  -7   44.90    3.60
  -3   6  -7   49.80    3.70
   3  -6   7   48.70    6.10
   3  -6   7   48.20    4.90
   3  -6   7   51.79    5.00
  -4   6  -7    0.60    0.30
   4  -6   7    1.90    2.30
   4  -6   7   -0.90    1.60
   4  -6   7    1.30    1.40
   4  -6   7    0.50    1.60
   5   5  -7   15.90    1.80
   5   5  -7   14.70    1.40
  -5  -5   7   16.00    1.60
   4   5  -7   19.10    2.70
   4   5  -7   16.60    1.70
  -4  -5   7   18.30    2.00
   3   5  -7  170.28   12.90
   3   5  -7  167.38   13.70
  -3  -5   7  169.78   13.00
   2   5  -7    9.30    1.70
   2   5  -7   13.10    1.70
   2   5  -7   11.70    2.40
   2   5  -7   13.30    1.20
   2   5  -7   15.70    2.10
  -2  -5   7   10.80    1.80
  -2  -5   7   12.80    1.80
  -2  -5   7   18.20    3.10
   1   5  -7  255.87   19.90
   1   5  -7  252.47   19.60
   1   5  -7  264.97   20.30
   1   5  -7  277.67   19.50
   1   5  -7  279.07   19.40
  -1  -5   7  268.87   19.70
  -1  -5   7  230.78   19.90
  -1  -5   7  247.88   19.70
   0   5  -7  310.57   21.10
   0   5  -7  270.17   21.50
   0   5  -7  303.37   21.00
   0   5  -7  281.57   21.20
   0  -5   7  247.58   21.70
   0  -5   7  271.57   21.50
  -1   5  -7  264.07   19.60
  -1   5  -7  247.18   19.80
  -1   5  -7  245.88   20.20
  -1   5  -7  268.87   19.70
   1  -5   7  272.57   20.60
   1  -5   7  261.17   20.30
   1  -5   7  300.67   21.00
   1  -5   7  240.58   20.50
  -2   5  -7   12.00    1.10
  -2   5  -7    8.50    1.70
  -2   5  -7   11.20    1.00
   2  -5   7   10.30    3.40
   2  -5   7   10.60    2.00
   2  -5   7   11.30    2.50
   2  -5   7   15.40    3.10
   2  -5   7    8.80    3.30
  -3   5  -7  151.08   12.00
  -3   5  -7  161.88   11.80
  -3   5  -7  153.58   11.70
   3  -5   7  171.08   13.00
   3  -5   7  142.09   13.30
   3  -5   7  146.59   12.70
   3  -5   7  167.48   14.70
  -4   5  -7   17.90    1.30
  -4   5  -7   13.90    1.50
   4  -5   7   16.20    3.00
   4  -5   7   11.50    2.90
   4  -5   7   20.60    4.10
   5  -5   7    5.90    1.70
   5  -5   7    7.50    1.90
  -5  -4   7    9.30    1.60
  -5  -4   7    8.70    1.00
   4   4  -7  102.99    8.90
  -4  -4   7   97.19    8.00
  -4  -4   7  114.19    8.20
  -4  -4   7   98.79    7.90
   3   4  -7  157.58   12.50
   3   4  -7  154.88   11.80
   3   4  -7  139.59   11.90
   3   4  -7  154.68   12.60
   3   4  -7  178.38   15.30
  -3  -4   7  166.38   11.90
  -3  -4   7  143.89   11.70
  -3  -4   7  145.89   11.80
   2   4  -7   19.20    1.70
   2   4  -7   20.30    2.30
   2   4  -7   19.70    2.00
   2   4  -7   20.60    2.90
   2   4  -7   20.90    1.60
   2   4  -7   16.60    2.20
  -2  -4   7   19.40    2.10
  -2  -4   7   16.60    2.00
  -2  -4   7   18.90    2.30
  -2  -4   7   24.90    6.20
  -2  -4   7   16.20    1.80
  -2  -4   7   25.10    3.30
   1   4  -7   15.90   25.00
   1   4  -7    6.80    1.20
   1   4  -7    4.70    0.90
  -1  -4   7    7.80    2.80
  -1  -4   7    7.10    2.30
  -1  -4   7   11.20    2.80
  -1  -4   7    8.00    1.10
  -1  -4   7    4.30    1.10
  -1  -4   7    8.60   41.30
  -1  -4   7    6.80    1.00
   0   4  -7    3.00    0.90
   0   4  -7   -5.50   16.00
   0   4  -7    3.60    0.50
   0   4  -7    3.50    0.50
   0  -4   7    4.60    1.60
   0  -4   7    4.00    0.60
   0  -4   7   10.70   33.10
   0  -4   7    4.80    2.20
   0  -4   7    2.80    1.00
   1  -4   7  -29.40   61.89
   1  -4   7    4.20    2.40
  -2   4  -7   19.70    1.60
  -2   4  -7   19.90    2.00
  -2   4  -7   21.80    2.40
   2  -4   7   18.20    2.60
   2  -4   7   21.20    3.40
   2  -4   7   20.60    3.00
  -3   4  -7  122.09   12.50
  -3   4  -7  138.69   11.40
  -3   4  -7  144.99   11.80
  -3   4  -7  156.78   11.10
  -3   4  -7  147.29   11.10
   3  -4   7  122.99   12.60
   3  -4   7  166.98   12.50
   3  -4   7  157.98   14.30
   3  -4   7  143.69   12.00
   3  -4   7  170.28   12.50
  -4   4  -7  103.59    7.50
  -4   4  -7  108.99    7.60
   4  -4   7  106.39    9.40
   4  -4   7   92.59    9.00
   4  -4   7   83.29   10.20
  -5   4  -7    7.70    0.80
  -5   4  -7    7.70    1.00
   5  -4   7    6.60    3.60
   5  -4   7    7.90    2.10
   5   3  -7   40.00    3.60
   5   3  -7   27.90    5.90
  -5  -3   7   36.40    3.20
  -5  -3   7   42.30    3.30
  -5  -3   7   35.50    3.00
   4   3  -7  203.08   16.00
   4   3  -7  204.18   16.20
   4   3  -7  207.68   18.70
  -4  -3   7  194.48   15.50
  -4  -3   7  227.98   15.80
  -4  -3   7  200.18   15.70
   3   3  -7    1.50    0.90
   3   3  -7    0.80    1.40
   3   3  -7    2.80    1.00
   3   3  -7    1.40    0.60
   3   3  -7   -1.20    3.80
  -3  -3   7    1.40    0.70
  -3  -3   7    0.90    0.50
  -3  -3   7    1.20    0.70
  -3  -3   7    0.80    0.70
  -3  -3   7    1.50    2.00
   2   3  -7    9.60    1.40
   2   3  -7   10.00    1.00
   2   3  -7    9.10    1.20
   2   3  -7    8.40    1.30
   2   3  -7    1.40   24.50
   2   3  -7    9.90    0.90
   2   3  -7    9.30    2.10
   2   3  -7    7.40    3.90
  -2  -3   7    8.90    1.10
  -2  -3   7    9.40    3.20
  -2  -3   7    9.10    4.30
  -2  -3   7    7.10    1.20
  -2  -3   7   10.10    1.20
  -2  -3   7    6.70    1.20
  -2  -3   7    7.50    1.20
   1   3  -7  427.46   42.90
   1   3  -7  469.55   31.40
   1   3  -7  476.65   31.40
   1   3  -7  462.25   31.70
   1   3  -7  389.96   33.50
  -1  -3   7  327.07   49.99
  -1  -3   7  384.16   31.70
  -1  -3   7  444.16   31.50
  -1  -3   7  358.56   31.90
  -1  -3   7  415.56   31.40
   0   3  -7 1182.78   83.29
   0   3  -7 1185.98   82.99
   0   3  -7 1149.58   82.99
   0   3  -7  993.50   84.49
   0  -3   7 1075.99   83.39
   0  -3   7 1113.99   82.99
  -1   3  -7  461.65   34.40
  -1   3  -7  462.65   34.00
  -1   3  -7  500.05   34.20
  -1   3  -7  522.05   42.40
  -1   3  -7  389.96   35.40
   1  -3   7  462.95   34.50
   1  -3   7  379.36   50.99
  -2   3  -7   10.20    0.90
  -2   3  -7    9.20    0.90
  -2   3  -7   10.90   21.00
  -2   3  -7    9.30    1.50
  -2   3  -7    9.90    1.20
   2  -3   7   24.70   30.40
   2  -3   7    8.70    1.70
   2  -3   7    8.80    2.20
   2  -3   7    6.10    2.40
  -3   3  -7    1.60    0.40
  -3   3  -7    0.80    0.70
  -3   3  -7    1.50    0.30
  -3   3  -7    2.00    0.90
   3  -3   7    2.10    1.40
   3  -3   7    1.40    1.10
   3  -3   7    0.80    3.20
   3  -3   7    0.50    1.70
   3  -3   7    6.80    3.20
   3  -3   7    1.80    1.70
  -4   3  -7  208.78   15.10
  -4   3  -7  217.88   15.20
   4  -3   7  171.88   16.40
   4  -3   7  215.28   18.00
   4  -3   7  216.88   16.80
   4  -3   7  183.38   16.90
  -5   3  -7   43.00    3.20
  -5   3  -7   40.20    3.20
   5  -3   7   39.20    5.00
   5  -3   7   35.00    4.70
   5  -3   7   47.50    5.80
  -6  -2   7   31.20    2.60
   5   2  -7  254.07   22.20
   5   2  -7  315.47   21.80
  -5  -2   7  296.77   21.60
  -5  -2   7  276.27   21.50
   4   2  -7  308.17   23.50
   4   2  -7  275.67   23.70
   4   2  -7  308.97   23.30
  -4  -2   7  307.47   22.90
  -4  -2   7  300.97   23.00
  -4  -2   7  330.77   23.10
   3   2  -7   65.39    9.10
   3   2  -7   60.29    7.00
   3   2  -7   76.79    6.40
   3   2  -7   80.99    5.80
   3   2  -7   75.59    6.00
   3   2  -7   67.09    7.50
  -3  -2   7   75.19    5.70
  -3  -2   7   79.59    5.90
  -3  -2   7   77.49    6.30
   2   2  -7   71.49    4.90
   2   2  -7   57.99    7.90
   2   2  -7   65.49   18.20
   2   2  -7   63.09    4.90
  -2  -2   7   59.59    4.70
  -2  -2   7   55.49    4.90
  -2  -2   7   54.39    4.70
  -2  -2   7   59.19    4.60
  -2  -2   7   46.60   21.60
   1   2  -7  369.16   32.80
   1   2  -7  365.06   25.70
   1   2  -7  386.86   25.90
   1   2  -7  308.87   27.10
  -1  -2   7  321.27   25.80
  -1  -2   7  344.97   25.80
  -1  -2   7  351.06   38.30
  -1  -2   7  324.67   25.70
   0   2  -7  109.49    8.10
   0   2  -7   91.99    9.10
   0   2  -7  113.69    8.10
   0   2  -7  122.69   15.10
   0  -2   7   85.19   19.30
   0  -2   7  103.29    8.00
  -1   2  -7  376.26   29.00
  -1   2  -7  382.46   29.20
  -1   2  -7  402.76   35.10
  -1   2  -7  376.16   30.10
   1  -2   7  381.56   41.50
   1  -2   7  421.76   29.40
  -2   2  -7   75.19   15.10
  -2   2  -7   72.59    5.30
  -2   2  -7   67.79    5.50
   2  -2   7   59.19    6.90
   2  -2   7   98.39   19.50
   2  -2   7   72.59    5.70
  -3   2  -7   84.69    6.60
  -3   2  -7   84.89    6.30
  -3   2  -7   74.79    6.70
  -3   2  -7   93.89    6.30
   3  -2   7   81.59    8.10
   3  -2   7   76.09    7.20
   3  -2   7   86.69    9.10
   3  -2   7   74.09    7.50
   3  -2   7   88.69    7.10
  -4   2  -7  269.17   23.30
  -4   2  -7  333.97   23.10
  -4   2  -7  287.27   23.70
  -4   2  -7  331.27   23.20
   4  -2   7  291.07   24.90
   4  -2   7  348.17   25.90
  -5   2  -7  313.27   23.40
  -5   2  -7  302.17   23.30
   5  -2   7  319.07   24.70
   5  -2   7  316.27   25.10
   6   1  -7    5.60    0.80
   6   1  -7    8.60    3.00
   6   1  -7    3.40    2.50
   6   1  -7    3.40    1.30
  -6  -1   7    4.10    0.80
  -6  -1   7    4.80    0.70
   5   1  -7   71.19    7.10
   5   1  -7   82.69    6.20
   5   1  -7   74.89    6.20
   5   1  -7   73.59    9.50
  -5  -1   7   78.19    6.10
  -5  -1   7   87.49    6.20
  -5  -1   7   76.59    6.00
   4   1  -7   96.29    7.70
   4   1  -7   94.99    7.90
   4   1  -7   87.79    8.80
   4   1  -7  107.09   11.20
   4   1  -7   92.29    8.40
  -4  -1   7   78.79    7.60
  -4  -1   7   93.29    7.30
  -4  -1   7   89.89    7.20
  -4  -1   7  108.29    7.40
   3   1  -7  253.37   20.00
   3   1  -7  261.27   19.80
   3   1  -7  281.67   20.80
   3   1  -7  244.58   20.40
  -3  -1   7  251.07   19.50
  -3  -1   7  266.57   19.60
  -3  -1   7  241.38   19.80
  -3  -1   7  288.47   19.70
   2   1  -7   19.60    1.90
   2   1  -7   18.70    4.40
   2   1  -7   28.40   10.90
   2   1  -7   22.20    1.80
  -2  -1   7   19.20    1.70
  -2  -1   7   20.80    1.90
  -2  -1   7   17.60   13.90
  -2  -1   7   18.70    1.70
   1   1  -7   78.19   12.10
   1   1  -7   64.89    4.90
   1   1  -7   54.79    5.90
   1   1  -7   64.39    4.90
  -1  -1   7   51.59   12.00
  -1  -1   7   64.59    4.80
   0   1  -7 1206.28   89.59
   0   1  -7 1257.37   89.69
   0   1  -7 1058.99   89.69
   0   1  -7 1349.07   90.59
   0  -1   7 1407.46   96.19
   0  -1   7 1158.78   90.79
   0  -1   7 1106.29   90.59
   0  -1   7 1137.89   89.59
  -1   1  -7   71.19    5.70
  -1   1  -7   76.99   12.60
   1  -1   7   75.79   13.00
   1  -1   7   71.69    5.50
   1  -1   7   76.89    5.50
  -2   1  -7   21.70    2.30
  -2   1  -7   26.50    2.10
  -2   1  -7   28.30    2.10
  -2   1  -7   19.60   11.20
   2  -1   7   26.50    2.50
   2  -1   7   21.80    4.90
   2  -1   7   23.50    3.90
  -3   1  -7  291.87   21.10
  -3   1  -7  269.17   21.40
   3  -1   7  299.77   24.10
   3  -1   7  274.37   23.20
   3  -1   7  273.57   21.40
  -4   1  -7   98.49    7.00
  -4   1  -7   80.49    7.60
  -4   1  -7   93.59    7.30
  -4   1  -7   96.39    7.00
   4  -1   7   94.09    9.10
   4  -1   7   85.59    7.90
  -5   1  -7   82.59    6.50
  -5   1  -7   75.39    6.70
  -5   1  -7   84.89    6.60
   5  -1   7   93.79    8.40
   5  -1   7   96.69    9.20
   5  -1   7   86.19    8.20
   6  -1   7    3.70    1.40
   6  -1   7    6.30    1.60
   6  -1   7   -0.50    2.50
   6   0  -7   63.89    5.00
   6   0  -7   69.99    5.60
   6   0  -7   72.59    7.20
   6   0  -7   54.29    5.60
  -6   0   7   60.69    4.90
   5   0  -7   50.49    7.50
   5   0  -7   42.70    5.20
   5   0  -7   49.99    5.70
   5   0  -7   54.79    4.40
  -5   0   7   53.69    4.20
  -5   0   7   60.69    4.40
  -5   0   7   53.89    4.10
   4   0  -7   32.20    4.80
   4   0  -7   43.20    3.90
   4   0  -7   27.60    6.60
   4   0  -7   40.50    3.50
   4   0  -7   43.70    4.70
  -4   0   7   38.00    3.60
  -4   0   7   40.80    3.20
  -4   0   7   42.40    3.50
  -4   0   7   43.00    3.30
   3   0  -7  207.18   17.90
   3   0  -7  194.58   16.50
   3   0  -7  208.88   16.00
  -3   0   7  222.48   15.70
  -3   0   7  195.38   15.80
  -3   0   7  221.28   15.60
   2   0  -7  816.42   66.69
   2   0  -7  991.60   66.69
   2   0  -7  894.01   67.89
  -2   0   7  874.71   66.59
  -2   0   7  869.31   74.49
  -2   0   7  922.01   66.69
   1   0  -7    6.50    0.90
   1   0  -7    4.60    1.40
   1   0  -7    9.80    6.60
   1   0  -7    7.40    0.60
  -1   0   7   -1.00    8.40
  -1   0   7    6.00    0.80
  -1   0   7    5.30    0.70
  -1   0   7    6.50    0.70
  -1   0   7    8.10    2.50
  -1   0   7    6.00    1.70
   0   0  -7    4.30    0.70
   0   0  -7   12.40    5.50
   0   0  -7    5.90    1.00
   0   0   7    0.60    4.50
   0   0   7    3.20    1.70
  -1   0  -7    4.20    1.50
  -1   0  -7    6.30    1.20
  -1   0  -7    5.30    0.70
  -1   0  -7    5.90    0.80
  -1   0  -7   -1.40    5.90
   1   0   7    4.20    5.40
   1   0   7    7.50    0.90
   1   0   7    5.20    1.90
   1   0   7    4.50    1.90
  -2   0  -7  880.91   74.09
  -2   0  -7  930.41   73.89
  -2   0  -7  940.31   73.89
  -2   0  -7 1009.00   83.39
   2   0   7 1061.89   75.99
   2   0   7 1063.69   74.09
   2   0   7 1086.09   75.79
  -3   0  -7  216.18   17.00
  -3   0  -7  217.78   17.20
  -3   0  -7  239.58   16.90
  -3   0  -7  227.18   16.80
   3   0   7  222.18   17.10
  -4   0  -7   36.40    3.80
  -4   0  -7   38.10    3.60
  -4   0  -7   42.60    3.30
  -4   0  -7   45.20    3.40
   4   0   7   46.90    5.60
   4   0   7   53.79    7.30
   4   0   7   40.50    4.60
  -5   0  -7   59.19    4.30
  -5   0  -7   49.99    4.40
  -5   0  -7   54.79    4.20
   5   0   7   63.69    6.00
   5   0   7   49.99    6.90
   5   0   7   47.30    5.00
  -6   0  -7   75.99    5.90
  -6   0  -7   75.69    5.80
   6   0   7   79.09    6.90
   6   0   7   75.49    7.30
   6  -1  -7    4.90    2.60
   6  -1  -7    5.10    0.90
   6  -1  -7    3.90    1.30
   6  -1  -7    2.90    1.40
  -6   1   7    4.70    0.60
   5  -1  -7   81.99    9.10
   5  -1  -7   63.79    6.90
   5  -1  -7   77.19    6.00
  -5   1   7   77.29    5.80
   4  -1  -7   69.39    7.80
   4  -1  -7   82.29    7.30
   4  -1  -7   79.29    7.70
   4  -1  -7   76.29    9.40
   4  -1  -7   89.69    6.70
  -4   1   7   86.89    6.40
  -4   1   7   93.29    6.50
  -4   1   7   86.29    6.80
   3  -1  -7  299.07   22.50
   3  -1  -7  249.08   21.00
   3  -1  -7  287.37   20.30
   3  -1  -7  269.57   21.20
   3  -1  -7  258.67   20.40
  -3   1   7  271.47   20.00
  -3   1   7  267.07   20.00
  -3   1   7  245.48   20.20
   2  -1  -7   19.50    3.10
   2  -1  -7   19.70    1.90
   2  -1  -7   20.00    3.30
  -2   1   7   20.90    1.60
  -2   1   7   20.60    1.80
  -2   1   7   21.00    1.70
  -2   1   7   14.90    3.80
   1  -1  -7   63.99   11.80
   1  -1  -7   68.29    5.30
   1  -1  -7   66.79    6.00
   1  -1  -7   58.79    5.10
   1  -1  -7   76.79    6.00
  -1   1   7   64.19    5.10
  -1   1   7   71.79   11.80
  -1   1   7   65.99    5.20
   0  -1  -7 1439.56  103.89
   0  -1  -7 1199.38   99.59
   0  -1  -7 1446.76   98.89
   0  -1  -7 1334.77   98.59
   0   1   7 1356.66   98.79
   0   1   7 1207.38   98.69
  -1  -1  -7   70.19    5.20
  -1  -1  -7   70.19    5.30
  -1  -1  -7   67.39   13.60
   1   1   7   58.19    6.80
   1   1   7   78.79   12.50
   1   1   7   70.69    5.40
   1   1   7   66.39    5.20
   1   1   7   70.99    6.90
  -2  -1  -7   21.80    1.90
  -2  -1  -7   21.30    2.10
  -2  -1  -7   20.70   15.40
  -2  -1  -7   24.60    1.90
   2   1   7   27.90    4.40
   2   1   7   27.40    5.00
   2   1   7   22.80    2.10
   2   1   7   21.50   11.00
  -3  -1  -7  270.77   20.40
  -3  -1  -7  237.08   20.50
  -3  -1  -7  275.47   20.10
  -3  -1  -7  263.17   20.10
   3   1   7  291.37   22.90
   3   1   7  275.07   21.20
  -4  -1  -7   97.29    7.20
  -4  -1  -7   82.59    7.30
  -4  -1  -7  100.59    7.10
  -4  -1  -7   89.99    7.80
   4   1   7   82.99    8.30
   4   1   7   93.69    8.90
   4   1   7  110.49   13.50
  -5  -1  -7   76.99    6.30
  -5  -1  -7   80.99    6.20
  -5  -1  -7   82.49    6.10
   5   1   7   87.69    7.60
   5   1   7   66.99    6.90
  -6  -1  -7    6.80    0.90
  -6  -1  -7    6.40    0.70
   6   1   7    9.30    2.00
   5  -2  -7  273.67   19.00
   5  -2  -7  202.98   19.70
   5  -2  -7  239.28   21.20
  -5   2   7  272.27   18.70
  -5   2   7  260.47   18.80
   4  -2  -7  308.87   24.30
   4  -2  -7  298.37   22.70
   4  -2  -7  312.97   24.90
   4  -2  -7  302.47   23.70
   4  -2  -7  275.27   22.90
  -4   2   7  295.47   22.40
  -4   2   7  292.57   22.70
  -4   2   7  311.17   22.40
   3  -2  -7   76.59    7.10
   3  -2  -7   73.59    5.90
   3  -2  -7   73.19    6.00
   3  -2  -7   67.49    6.80
  -3   2   7   78.39    5.60
  -3   2   7   68.09    5.80
   2  -2  -7   63.59    5.20
  -2   2   7   68.59    5.10
  -2   2   7   59.69    4.90
  -2   2   7   68.39    5.10
   1  -2  -7  319.77   26.90
   1  -2  -7  404.96   27.60
  -1   2   7  342.17   27.00
  -1   2   7  329.67   26.90
  -1   2   7  406.76   31.60
  -1   2   7  376.56   27.90
   0  -2  -7  111.49    8.10
   0  -2  -7  102.89   15.50
   0  -2  -7   99.89    8.00
   0   2   7   95.49    8.10
   0   2   7  105.79   10.20
   0   2   7  108.29    8.00
   0   2   7  129.09   14.50
   0   2   7  107.59    9.30
  -1  -2  -7  302.77   35.60
  -1  -2  -7  329.57   27.10
  -1  -2  -7  379.06   27.20
   1   2   7  372.46   27.10
   1   2   7  381.26   28.90
   1   2   7  342.47   33.70
   1   2   7  392.36   29.00
   1   2   7  374.16   27.30
  -2  -2  -7   67.19    5.00
  -2  -2  -7   71.79    5.00
  -2  -2  -7   67.99    5.50
  -2  -2  -7   59.19    5.20
   2   2   7   60.59   17.40
   2   2   7   65.69    8.50
   2   2   7   63.29    5.10
   2   2   7   58.99    5.00
   2   2   7   68.29    7.90
   2   2   7   66.09    5.20
  -3  -2  -7   70.49    6.00
  -3  -2  -7   80.59    5.70
  -3  -2  -7   81.99    5.60
  -3  -2  -7   64.19    5.80
   3   2   7   75.09    5.90
   3   2   7   78.49    7.10
   3   2   7   62.79    6.00
  -4  -2  -7  317.77   22.20
  -4  -2  -7  314.27   22.30
  -4  -2  -7  277.07   22.40
  -4  -2  -7  278.27   22.60
   4   2   7  324.97   23.60
   4   2   7  264.97   22.30
  -5  -2  -7  295.97   20.80
  -5  -2  -7  272.77   20.80
  -5  -2  -7  283.17   20.90
   5   2   7  233.38   21.50
   5   2   7  299.27   22.50
  -6  -2  -7   43.40    3.50
   5  -3  -7   34.40    4.00
   5  -3  -7   31.10    4.00
   5  -3  -7   30.50    5.10
   5  -3  -7   33.90    3.00
  -5   3   7   35.00    2.80
   4  -3  -7  173.18   15.00
   4  -3  -7  146.49   13.90
   4  -3  -7  151.28   13.90
   4  -3  -7  187.48   13.30
   4  -3  -7  159.28   14.30
  -4   3   7  191.88   12.80
   3  -3  -7    1.40    2.50
   3  -3  -7    1.50    1.80
   3  -3  -7    1.70    1.70
   3  -3  -7    1.50    1.00
   3  -3  -7    0.60    1.50
   3  -3  -7    1.60    0.90
  -3   3   7    1.50    0.40
  -3   3   7    0.50    0.60
   2  -3  -7    7.90    1.50
   2  -3  -7    8.20    1.20
   2  -3  -7    9.20    2.10
  -2   3   7    7.90    1.10
  -2   3   7    8.30    1.20
   1  -3  -7  411.16   37.60
   1  -3  -7  380.06   30.40
  -1   3   7  405.26   30.40
  -1   3   7  472.15   35.70
  -1   3   7  390.36   30.60
   0  -3  -7 1255.77   97.19
   0   3   7 1303.57   89.89
   0   3   7 1246.38   95.59
   0   3   7 1143.19   88.29
   0   3   7 1036.40   88.49
   0   3   7 1173.28   88.29
  -1  -3  -7  511.45   48.80
  -1  -3  -7  485.75   34.00
   1   3   7  429.76   33.90
   1   3   7  495.55   36.30
   1   3   7  397.56   34.10
   1   3   7  474.65   36.40
   1   3   7  440.56   43.80
   1   3   7  433.66   33.90
  -2  -3  -7    4.20    4.30
  -2  -3  -7   11.80    1.60
  -2  -3  -7    8.80    0.90
  -2  -3  -7    7.20    1.10
  -2  -3  -7    5.80    1.70
  -2  -3  -7    7.30    1.20
   2   3   7    7.50    0.90
   2   3   7    7.90    1.30
   2   3   7    9.00    5.50
   2   3   7    8.10    1.00
   2   3   7    8.70    1.30
   2   3   7    9.80    4.00
  -3  -3  -7    0.80    0.60
  -3  -3  -7    1.30    0.70
  -3  -3  -7   -0.80    5.30
  -3  -3  -7    1.00    0.60
  -3  -3  -7    1.20    0.50
  -3  -3  -7    0.00    1.70
   3   3   7    2.20    0.90
   3   3   7    0.60    1.70
  -4  -3  -7  198.28   13.80
  -4  -3  -7  210.78   13.70
  -4  -3  -7  153.78   14.70
  -4  -3  -7  174.58   13.90
   4   3   7  166.58   14.90
   4   3   7  180.68   13.90
  -5  -3  -7   35.50    2.80
  -5  -3  -7   40.40    3.10
  -5  -3  -7   31.50    3.00
   5   3   7   31.60    3.80
   5  -4  -7    5.60    1.70
   5  -4  -7    2.60    2.20
   4  -4  -7   77.99    8.40
   4  -4  -7   77.59    8.10
   4  -4  -7   98.79    7.20
   4  -4  -7   94.49    7.60
   4  -4  -7   92.39    8.90
   3  -4  -7  119.39   11.80
   3  -4  -7  118.49   10.20
   3  -4  -7  152.08   12.20
   3  -4  -7  125.49   11.40
   3  -4  -7  127.69   10.80
   3  -4  -7  137.99   10.40
   3  -4  -7  113.69   11.20
  -3   4   7  148.19    9.90
  -3   4   7  133.19   10.10
   2  -4  -7   18.50    2.60
   2  -4  -7   13.30    3.50
   2  -4  -7   15.70    2.10
   2  -4  -7   15.30    3.30
   2  -4  -7   15.30    3.20
   2  -4  -7   16.20    1.80
  -2   4   7   16.90    1.50
  -2   4   7   13.80    2.00
   1  -4  -7    9.30    2.00
   1  -4  -7    4.70    1.20
   1  -4  -7    8.50    1.10
   1  -4  -7    9.50    2.30
  -1   4   7    5.80    0.80
  -1   4   7    6.00    0.70
  -1   4   7    6.50    1.20
   0  -4  -7    1.90    4.80
   0  -4  -7    0.70    3.10
   0  -4  -7    3.30    1.00
   0   4   7    3.10    0.90
   0   4   7    3.10    0.50
   0   4   7    3.90    0.50
  -1  -4  -7    3.40    1.20
  -1  -4  -7    4.90    1.60
   1   4   7    4.00    0.60
   1   4   7    4.30    0.70
   1   4   7    3.60    0.90
  -2  -4  -7   20.60    1.90
  -2  -4  -7   15.20    1.80
  -2  -4  -7   21.70    2.20
  -2  -4  -7   18.50    3.10
  -2  -4  -7   17.10    4.10
   2   4   7   16.50    1.70
   2   4   7   14.10    2.10
   2   4   7   19.70    3.50
   2   4   7   17.10    1.70
  -3  -4  -7  131.69    9.90
  -3  -4  -7  127.09   10.10
  -3  -4  -7  125.99   15.00
   3   4   7  140.59    9.90
   3   4   7  123.89   10.30
  -4  -4  -7  101.69    7.30
  -4  -4  -7   86.79    7.10
   4   4   7   89.89    7.30
   4   4   7   88.89    8.50
  -5  -4  -7   11.10    2.60
   5  -5  -7   12.80    2.50
   5  -5  -7    9.40    2.00
   5  -5  -7   13.70    1.50
   4  -5  -7   15.70    3.20
   4  -5  -7   15.50    3.10
   4  -5  -7   14.80    2.90
   4  -5  -7   18.40    2.10
   3  -5  -7  141.09   11.60
   3  -5  -7  140.99   10.90
   3  -5  -7  118.09   10.40
   3  -5  -7  120.19   11.80
  -3   5   7  136.19   10.00
   2  -5  -7   10.90    2.00
   2  -5  -7    4.60    3.30
   2  -5  -7   11.90    2.20
   2  -5  -7   11.10    3.30
   2  -5  -7   12.00    3.10
  -2   5   7   10.70    1.00
   1  -5  -7  197.08   17.60
   1  -5  -7  211.28   17.00
   1  -5  -7  227.48   18.50
  -1   5   7  237.28   16.70
  -1   5   7  239.18   16.70
   0  -5  -7  204.88   19.50
   0  -5  -7  256.37   18.50
   0  -5  -7  265.47   19.60
   0  -5  -7  205.88   18.70
   0  -5  -7  235.08   18.90
   0   5   7  256.07   18.20
   0   5   7  248.98   18.70
   0   5   7  250.37   18.60
   0   5   7  260.87   18.20
  -1  -5  -7  207.28   17.00
  -1  -5  -7  208.28   18.00
  -1  -5  -7  241.58   16.60
  -1  -5  -7  199.68   17.50
   1   5   7  213.78   16.60
   1   5   7  223.48   16.30
   1   5   7  217.48   16.20
  -2  -5  -7   10.80    1.70
  -2  -5  -7   10.20    2.20
  -2  -5  -7    8.20    3.50
  -2  -5  -7   10.00    1.50
   2   5   7    9.20    3.10
   2   5   7   10.30    1.30
   2   5   7    9.40    1.20
   2   5   7   10.10    1.50
  -3  -5  -7  125.99   16.30
  -3  -5  -7  158.88   10.90
  -3  -5  -7  140.89   11.70
   3   5   7  126.09   11.00
   3   5   7  140.39   12.00
   3   5   7  143.99   10.60
  -4  -5  -7   17.60    1.70
   4   5   7   14.50    1.80
   4   5   7   13.60    2.70
  -5  -5  -7   16.50    1.50
  -5  -5  -7   18.00    2.20
   5   5   7   14.90    2.20
   4  -6  -7    1.30    1.40
   4  -6  -7    1.00    0.90
   4  -6  -7    0.60    1.20
   3  -6  -7   53.89    5.10
   3  -6  -7   51.09    6.00
   3  -6  -7   60.19    4.80
   3  -6  -7   50.59    5.50
   2  -6  -7  149.09   13.30
   2  -6  -7  166.38   14.50
   2  -6  -7  156.68   13.60
   2  -6  -7  184.88   13.00
  -2   6   7  169.08   12.50
  -2   6   7  172.08   12.50
   1  -6  -7  462.35   33.90
   1  -6  -7  465.55   34.00
   1  -6  -7  410.56   33.50
  -1   6   7  436.96   33.10
  -1   6   7  443.06   33.10
   0  -6  -7   28.00    2.90
   0  -6  -7   22.80    2.90
   0  -6  -7   24.20    3.20
   0  -6  -7   25.30    3.90
   0  -6  -7   23.50    3.70
   0   6   7   24.40    2.60
   0   6   7   23.10    2.10
  -1  -6  -7  448.66   34.80
  -1  -6  -7  430.36   32.00
  -1  -6  -7  462.05   31.60
  -1  -6  -7  379.86   32.30
   1   6   7  405.26   31.20
   1   6   7  402.06   31.30
   1   6   7  402.46   31.50
  -2  -6  -7  163.98   12.40
  -2  -6  -7  154.88   14.50
   2   6   7  156.68   11.50
   2   6   7  135.49   11.70
   2   6   7  142.99   11.40
  -3  -6  -7   42.80    4.40
   3   6   7   38.10    3.70
   3   6   7   45.00    4.90
  -4  -6  -7    0.40    0.80
  -4  -6  -7    0.50    0.50
   4   6   7    1.00    0.60
   4   6   7    1.90    1.30
   3  -7  -7   50.09    4.20
   3  -7  -7   46.70    4.40
   2  -7  -7  403.76   31.70
   2  -7  -7  460.35   32.10
   2  -7  -7  371.56   32.70
  -2   7   7  434.56   31.30
  -2   7   7  431.26   31.50
   1  -7  -7   68.19    7.40
   1  -7  -7   82.99    6.70
   1  -7  -7   81.59    6.50
  -1   7   7   74.79    5.90
  -1   7   7   73.99    5.90
   0  -7  -7    3.70    1.40
   0  -7  -7    2.60    1.00
   0  -7  -7    1.50    1.40
   0   7   7    0.70    0.50
   0   7   7    1.00    0.50
   0   7   7    1.30    0.80
  -1  -7  -7   64.59    7.60
  -1  -7  -7   82.19    8.30
  -1  -7  -7   74.39    6.40
  -1  -7  -7   86.79    6.10
   1   7   7   72.39    6.00
   1   7   7   69.39    5.80
   1   7   7   67.89    5.70
  -2  -7  -7  438.46   30.80
   2   7   7  380.16   30.40
   2   7   7  412.56   30.20
   2   7   7  381.66   30.10
   3   7   7   41.20    6.20
   3   7   7   53.09    4.20
   2  -8  -7    8.80    2.00
   2  -8  -7    7.00    1.50
   2  -8  -7    6.10    1.20
  -2   8   7    6.00    0.80
   1  -8  -7    2.70    1.10
   1  -8  -7    2.10    1.80
   1  -8  -7    1.30    1.70
  -1   8   7    1.00    0.40
  -1   8   7    2.00    0.50
   0  -8  -7    0.40    0.90
   0  -8  -7    0.90    1.20
   0  -8  -7    2.50    1.00
   0   8   7    0.40    0.40
   0   8   7    1.10    0.80
   0   8   7    0.70    0.40
  -1  -8  -7    1.10    0.80
  -1  -8  -7    1.90    1.20
   1   8   7    1.20    0.50
   1   8   7    1.80    0.40
   1   8   7    1.40    0.70
   2   8   7    6.30    0.80
   2   8   7    7.40    1.10
   2   8  -8   31.50    2.70
  -2  -8   8   34.60    3.40
   1   8  -8   41.80    3.90
   1   8  -8   54.29    4.00
  -1  -8   8   50.99    4.80
   0   8  -8  152.38   11.70
   0   8  -8  164.68   11.80
   0  -8   8  148.49   12.30
  -1   8  -8   50.49    3.50
  -1   8  -8   47.10    3.50
   1  -8   8   36.20    4.90
   1  -8   8   39.70    4.00
  -2   8  -8   26.80    1.90
  -2   8  -8   22.00    2.20
   2  -8   8   22.90    2.60
   2  -8   8   21.10    3.20
   2  -8   8   29.50    3.00
   3   7  -8   13.00    1.30
   3   7  -8   11.50    2.00
   2   7  -8   25.30    3.60
   2   7  -8   19.70    2.10
   1   7  -8  115.29    8.90
   1   7  -8  119.59    8.70
   1   7  -8  109.89    8.70
   0   7  -8  156.88   12.30
   0   7  -8  167.88   12.10
   0   7  -8  157.48   12.20
   0  -7   8  160.18   13.00
   0  -7   8  138.29   12.60
   0  -7   8  186.68   13.50
  -1   7  -8  102.39    8.00
  -1   7  -8  114.79    8.00
  -1   7  -8  104.79    8.10
   1  -7   8   98.29    8.60
  -2   7  -8   16.80    1.50
   2  -7   8   17.60    2.90
   2  -7   8   18.40    2.50
   2  -7   8   15.00    3.80
  -3   7  -8   13.10    1.00
  -3   7  -8   11.50    1.10
  -3   7  -8   10.20    1.70
   3  -7   8    9.70    2.70
   3  -7   8    8.90    2.00
   3  -7   8   14.40    2.20
   4   6  -8   18.40    2.20
  -4  -6   8   16.50    1.70
   3   6  -8   72.39    6.50
   3   6  -8   77.59    5.80
  -3  -6   8   67.69    5.80
   2   6  -8   75.39    6.00
   2   6  -8   82.39    6.20
   2   6  -8   87.49    6.00
  -2  -6   8   64.49    6.50
   1   6  -8  357.46   25.60
   1   6  -8  327.47   25.80
   0   6  -8    1.30    1.20
   0   6  -8    4.50    0.60
   0   6  -8    4.20    0.70
   0  -6   8    5.00    1.70
   0  -6   8    2.40    3.40
   0  -6   8    3.80    1.20
  -1   6  -8  304.67   22.50
  -1   6  -8  332.17   22.40
   1  -6   8  254.37   23.20
   1  -6   8  307.27   23.10
  -2   6  -8   79.39    6.20
  -2   6  -8   79.49    5.70
  -2   6  -8   70.39    5.70
   2  -6   8   76.59    6.80
   2  -6   8   64.89    6.90
   2  -6   8   71.49    8.50
  -3   6  -8   69.69    5.50
  -3   6  -8   69.59    5.20
  -3   6  -8   71.29    5.10
   3  -6   8   63.89    7.40
   3  -6   8   62.09    6.20
  -4   6  -8   16.50    1.30
   4  -6   8   17.20    3.10
   4  -6   8   14.60    2.60
  -5  -5   8   20.80    1.90
   4   5  -8    7.00    1.60
  -4  -5   8    6.50    1.10
  -4  -5   8   11.60    3.50
   3   5  -8   87.79    6.50
   3   5  -8   78.79    7.30
  -3  -5   8   79.29    6.60
   2   5  -8  426.96   33.10
   2   5  -8  493.05   32.30
   2   5  -8  465.55   33.40
   2   5  -8  443.66   32.30
   2   5  -8  445.06   32.50
   2   5  -8  375.66   32.50
  -2  -5   8  399.66   32.70
  -2  -5   8  415.26   32.60
   1   5  -8  267.57   18.70
   1   5  -8  245.48   19.30
   1   5  -8  281.37   18.50
   1   5  -8  253.07   19.00
  -1  -5   8  246.68   19.50
  -1  -5   8  222.58   18.70
  -1  -5   8  210.68   19.00
  -1  -5   8  244.68   18.70
   0   5  -8  108.09    7.60
   0   5  -8   93.59    8.20
   0   5  -8   93.79    7.80
   0   5  -8  105.49    7.70
   0  -5   8  105.39   10.30
   0  -5   8   98.09    8.20
  -1   5  -8  267.47   19.30
  -1   5  -8  260.87   19.90
  -1   5  -8  252.87   19.40
   1  -5   8  286.17   20.50
   1  -5   8  219.48   20.10
   1  -5   8  262.27   20.00
  -2   5  -8  413.26   31.70
  -2   5  -8  451.45   31.60
  -2   5  -8  439.66   32.40
   2  -5   8  448.26   32.60
   2  -5   8  421.16   32.60
   2  -5   8  429.16   33.30
   2  -5   8  366.26   32.90
  -3   5  -8   82.69    6.30
  -3   5  -8   83.49    5.90
  -3   5  -8   77.59    6.00
   3  -5   8   71.99    7.00
   3  -5   8   71.89    7.10
   3  -5   8   74.79    7.80
   3  -5   8   80.69    9.00
  -4   5  -8    7.50    0.80
  -4   5  -8    6.50    0.70
   4  -5   8    6.80    2.20
   4  -5   8    6.30    2.60
   4  -5   8    4.60    1.80
   5   4  -8   14.30    1.40
   5   4  -8   15.00    1.90
  -5  -4   8   13.20    1.40
  -5  -4   8   16.30    1.60
   4   4  -8  153.68   12.10
  -4  -4   8  139.79   11.30
  -4  -4   8  138.89   11.50
  -4  -4   8  167.38   11.60
   3   4  -8  308.37   23.10
   3   4  -8  329.47   22.70
   3   4  -8  291.07   23.30
  -3  -4   8  252.97   22.90
  -3  -4   8  289.07   22.70
  -3  -4   8  342.67   22.80
  -3  -4   8  292.27   22.70
   2   4  -8   12.50    1.50
   2   4  -8   11.00    1.70
   2   4  -8   12.50    1.30
   2   4  -8   13.70    2.60
   2   4  -8   11.80    1.80
   2   4  -8   13.20    1.20
  -2  -4   8   10.90    1.70
  -2  -4   8   20.40    5.10
  -2  -4   8   14.00    1.80
  -2  -4   8   11.00    1.30
  -2  -4   8   10.90    1.60
  -2  -4   8   16.90    2.80
   1   4  -8  348.77   24.40
   1   4  -8  327.07   24.90
   1   4  -8  315.57   24.60
  -1  -4   8  335.97   25.10
  -1  -4   8  311.57   24.70
   0   4  -8   78.99    5.70
   0   4  -8   77.99    6.10
   0   4  -8   70.39    5.80
   0  -4   8   75.99    5.70
   0  -4   8   65.29    6.20
  -1   4  -8  324.17   24.10
  -1   4  -8  332.37   23.60
  -1   4  -8  298.97   23.70
  -1   4  -8  302.87   23.70
   1  -4   8  298.67   24.20
   1  -4   8  327.97   24.20
   1  -4   8  325.77   24.50
  -2   4  -8   11.30    1.10
  -2   4  -8   11.60    1.10
  -2   4  -8   12.00    1.90
  -2   4  -8   13.60    1.50
   2  -4   8   15.70    2.90
   2  -4   8   13.20    2.30
   2  -4   8    9.40    3.10
   2  -4   8    8.70    2.20
   2  -4   8   12.20    2.40
  -3   4  -8  298.07   23.20
  -3   4  -8  319.87   23.90
  -3   4  -8  315.87   23.20
  -3   4  -8  315.07   23.50
   3  -4   8  315.37   24.40
   3  -4   8  293.07   24.10
   3  -4   8  321.07   26.30
  -4   4  -8  157.18   10.70
  -4   4  -8  150.08   10.80
   4  -4   8  146.79   13.50
   4  -4   8  131.09   12.30
   4  -4   8  127.39   12.00
  -5   4  -8   16.10    1.40
  -5   4  -8   14.80    1.30
   5  -4   8   15.60    2.70
   5  -4   8   16.00    3.40
   5   3  -8   96.69    9.60
   5   3  -8   86.89    7.00
   5   3  -8   89.49    7.30
  -5  -3   8   97.29    7.10
  -5  -3   8   84.29    7.00
  -5  -3   8   85.89    6.90
   4   3  -8   46.60    4.40
   4   3  -8   44.20    4.50
   4   3  -8   45.30    7.30
  -4  -3   8   44.50    3.70
  -4  -3   8   44.70    3.90
  -4  -3   8   51.69    4.00
   3   3  -8  176.08   13.10
   3   3  -8  180.18   12.80
   3   3  -8  164.08   14.30
   3   3  -8  165.78   13.00
  -3  -3   8  145.39   13.00
  -3  -3   8  169.28   12.80
  -3  -3   8  164.28   12.70
  -3  -3   8  181.38   13.50
   2   3  -8   11.70    1.30
   2   3  -8   13.50    1.60
   2   3  -8   13.40    1.70
   2   3  -8   11.10    1.60
  -2  -3   8   18.90    3.00
  -2  -3   8   14.50    1.70
  -2  -3   8   14.50    1.60
  -2  -3   8   14.10    1.50
  -2  -3   8   11.50    1.50
  -2  -3   8   10.90    4.60
  -2  -3   8   12.70    1.70
   1   3  -8  156.48   11.20
   1   3  -8  168.58   11.20
   1   3  -8  164.78   11.60
   1   3  -8  122.59   13.90
   1   3  -8  187.08   33.70
  -1  -3   8  136.69   32.80
  -1  -3   8  139.99   11.20
  -1  -3   8  136.59   11.60
  -1  -3   8  148.79   11.40
   0   3  -8  230.58   27.50
   0   3  -8  213.88   14.50
   0   3  -8  165.88   16.50
   0   3  -8  196.58   14.90
   0  -3   8  185.38   15.00
   0  -3   8  195.48   14.60
  -1   3  -8  157.28   12.20
  -1   3  -8  164.98   11.80
  -1   3  -8  151.38   11.80
  -1   3  -8  157.28   25.30
   1  -3   8  129.19   31.20
   1  -3   8  160.18   12.40
  -2   3  -8   13.90    1.30
  -2   3  -8   14.50    1.90
  -2   3  -8   14.40    1.20
  -2   3  -8   14.50    1.60
   2  -3   8   17.80    2.80
   2  -3   8   15.20    2.20
   2  -3   8   11.30    3.00
   2  -3   8    9.20    2.40
  -3   3  -8  175.68   13.70
  -3   3  -8  167.58   13.40
  -3   3  -8  185.58   13.60
  -3   3  -8  190.18   13.20
  -3   3  -8  185.88   13.30
   3  -3   8  167.58   15.00
   3  -3   8  168.88   14.00
   3  -3   8  186.88   14.60
   3  -3   8  176.38   16.50
   3  -3   8  159.08   14.00
   3  -3   8  185.58   17.80
  -4   3  -8   51.29    3.80
  -4   3  -8   53.49    3.90
   4  -3   8   39.90    5.20
   4  -3   8   47.60    5.90
   4  -3   8   51.59    5.70
  -5   3  -8   99.59    7.50
  -5   3  -8  110.59    7.60
   5  -3   8   97.79    9.10
   5  -3   8   89.69    8.40
   5   2  -8   35.70    5.90
   5   2  -8   32.30    4.20
   5   2  -8   38.70    3.30
   5   2  -8   45.40    6.80
  -5  -2   8   39.00    3.30
  -5  -2   8   40.00    3.20
  -5  -2   8   44.80    3.40
   4   2  -8   42.80    4.80
   4   2  -8   51.29    4.40
   4   2  -8   37.20    7.40
   4   2  -8   37.90    5.40
   4   2  -8   46.00    4.30
  -4  -2   8   48.60    3.80
  -4  -2   8   46.60    3.70
  -4  -2   8   49.80    3.90
   3   2  -8   94.59    7.70
   3   2  -8   94.69    9.00
   3   2  -8  115.39   11.30
   3   2  -8   99.39    8.10
  -3  -2   8  101.49    7.60
  -3  -2   8   87.29    7.40
  -3  -2   8   87.59    7.70
  -3  -2   8   97.29    7.50
   2   2  -8   11.20    4.20
   2   2  -8    9.70   16.20
   2   2  -8   19.10    1.80
  -2  -2   8   17.50    1.60
  -2  -2   8   14.50    1.70
  -2  -2   8   23.90   24.30
  -2  -2   8   18.90    1.80
  -2  -2   8   15.40    1.50
   1   2  -8   67.49    5.20
   1   2  -8   73.99    4.90
   1   2  -8   56.49    6.90
   1   2  -8   67.29    4.90
  -1  -2   8   62.29    5.00
  -1  -2   8   40.10   17.90
  -1  -2   8   57.99    5.00
  -1  -2   8   66.99    5.10
   0   2  -8 1459.15  109.59
   0   2  -8 1674.33  116.09
   0   2  -8 1399.96  109.89
   0  -2   8 1410.06  109.69
   0  -2   8 1281.57  118.49
   0  -2   8 1630.54  111.19
  -1   2  -8   67.29    5.50
  -1   2  -8   58.39   12.80
  -1   2  -8   72.09    5.20
  -1   2  -8   70.29    6.80
  -1   2  -8   64.19    5.30
   1  -2   8   78.39    5.80
   1  -2   8   55.99   16.00
  -2   2  -8   20.80    1.60
  -2   2  -8   21.90    1.70
  -2   2  -8   20.50   23.90
  -2   2  -8   16.20    1.90
  -2   2  -8   21.40    2.00
   2  -2   8   17.40    4.00
   2  -2   8   22.00    2.30
  -3   2  -8  100.89    8.10
  -3   2  -8  105.39    7.90
  -3   2  -8  110.89    7.80
  -3   2  -8  116.89    8.50
  -3   2  -8   92.09    8.20
   3  -2   8   96.49    8.80
   3  -2   8  115.29   10.10
   3  -2   8  101.19    8.50
   3  -2   8  118.09   10.80
   3  -2   8   87.59    9.00
  -4   2  -8   41.40    3.90
  -4   2  -8   50.39    3.70
  -4   2  -8   51.39    3.80
   4  -2   8   55.79    6.70
   4  -2   8   41.80    4.50
   4  -2   8   46.40    5.80
  -5   2  -8   46.40    3.70
  -5   2  -8   42.90    4.00
  -5   2  -8   48.10    3.80
   5  -2   8   46.10    5.20
   5  -2   8   52.39    5.60
   5  -2   8   58.19    6.50
   6   1  -8    9.70    2.70
   6   1  -8   10.70    1.10
   6   1  -8    9.10    2.00
  -6  -1   8   11.00    1.00
   5   1  -8    7.50    1.90
   5   1  -8   10.60    1.30
   5   1  -8   14.50    4.60
   5   1  -8    6.80    2.30
  -5  -1   8   11.80    1.30
  -5  -1   8   11.50    1.40
  -5  -1   8   11.00    1.30
   4   1  -8  216.88   22.00
   4   1  -8  274.57   19.60
   4   1  -8  259.77   19.50
  -4  -1   8  219.28   19.40
  -4  -1   8  255.27   19.10
  -4  -1   8  278.77   19.30
  -4  -1   8  272.47   19.20
   3   1  -8   44.60    4.30
   3   1  -8   47.80    5.10
   3   1  -8   46.30    4.20
   3   1  -8   40.10    7.30
   3   1  -8   56.79    5.70
  -3  -1   8   52.89    4.40
  -3  -1   8   48.40    3.80
  -3  -1   8   47.90    4.20
  -3  -1   8   49.99    3.90
   2   1  -8  497.45   36.90
   2   1  -8  478.35   36.80
   2   1  -8  564.84   36.80
   2   1  -8  452.75   38.50
  -2  -1   8  543.55   36.90
  -2  -1   8  450.15   36.70
  -2  -1   8  437.36   50.69
  -2  -1   8  488.65   36.70
   1   1  -8  156.38   12.40
   1   1  -8  162.08   19.20
  -1  -1   8  173.08   12.40
   0   1  -8  211.78   16.00
   0   1  -8  228.88   17.00
   0   1  -8  199.48   16.00
   0   1  -8  220.28   15.90
   0  -1   8  182.18   17.30
   0  -1   8  197.18   15.90
   0  -1   8  229.68   24.50
   0  -1   8  239.98   15.90
  -1   1  -8  168.78   12.90
   1  -1   8  170.48   12.70
  -2   1  -8  623.34   44.50
  -2   1  -8  622.04   44.40
  -2   1  -8  520.75   44.60
  -2   1  -8  591.14   55.59
  -2   1  -8  628.14   44.70
   2  -1   8  646.14   44.80
   2  -1   8  543.75   46.60
  -3   1  -8   55.79    4.20
  -3   1  -8   50.59    4.40
  -3   1  -8   62.29    4.10
  -3   1  -8   54.19    4.40
  -3   1  -8   49.80    4.50
   3  -1   8   49.70    4.60
   3  -1   8   43.40    5.40
   3  -1   8   51.09    5.20
   3  -1   8   61.59    6.80
   3  -1   8   58.89    7.00
  -4   1  -8  284.17   19.30
  -4   1  -8  289.27   19.40
  -4   1  -8  261.17   19.50
  -4   1  -8  249.58   19.80
   4  -1   8  253.47   21.60
   4  -1   8  241.88   20.20
   4  -1   8  223.08   21.00
  -5   1  -8   10.40    1.20
  -5   1  -8   11.10    1.40
  -5   1  -8   13.50    1.20
   5  -1   8   11.50    3.40
   5  -1   8   12.30    2.80
   5  -1   8   12.60    3.20
  -6   1  -8   14.60    1.20
   6  -1   8   15.50    2.50
   6  -1   8   14.00    2.20
   6   0  -8    1.80    1.40
   6   0  -8    3.00    1.20
   6   0  -8    2.90    2.40
   6   0  -8    4.30    0.80
  -6   0   8    2.80    0.50
   5   0  -8    4.40    1.50
   5   0  -8    5.20    3.40
   5   0  -8    7.30    1.10
  -5   0   8    7.60    1.00
  -5   0   8    9.10    1.10
  -5   0   8    6.00    1.00
   4   0  -8    9.40    2.70
   4   0  -8   12.90    1.60
   4   0  -8   12.50    4.70
   4   0  -8   17.50    2.50
   4   0  -8   11.90    2.90
   4   0  -8   14.90    1.90
  -4   0   8   11.90    1.40
  -4   0   8   13.00    1.40
  -4   0   8    7.70    1.70
  -4   0   8   12.20    1.70
   3   0  -8   72.09    6.20
   3   0  -8   65.39    7.10
   3   0  -8   77.49    6.70
   3   0  -8   81.59    6.90
   3   0  -8   72.99    8.60
  -3   0   8   86.29    6.10
  -3   0   8   78.09    5.80
  -3   0   8   67.39    5.90
   2   0  -8  100.09    7.90
   2   0  -8   95.89    8.30
   2   0  -8   87.89    9.70
   2   0  -8   99.69    9.60
  -2   0   8  106.39    7.70
  -2   0   8   98.69    7.60
  -2   0   8   97.89   10.50
  -2   0   8  117.69    7.80
  -2   0   8  112.19   19.60
   1   0  -8  520.35   41.20
   1   0  -8  612.04   40.90
   1   0  -8  511.35   41.90
  -1   0   8  592.04   41.00
  -1   0   8  547.55   41.00
  -1   0   8  505.65   47.60
   0   0  -8 9458.35  724.93
   0   0   8 9946.11  724.83
  -1   0  -8  548.25   41.60
  -1   0  -8  516.05   40.20
  -1   0  -8  554.04   47.50
   1   0   8  541.45   40.20
   1   0   8  547.15   40.30
  -2   0  -8  109.09    9.20
  -2   0  -8  113.69    9.00
  -2   0  -8  116.59    8.90
  -2   0  -8  114.59    9.20
   2   0   8  145.99   23.70
   2   0   8  127.09   11.90
   2   0   8  128.09    9.20
   2   0   8  124.49   11.10
  -3   0  -8   83.79    7.00
  -3   0  -8   77.89    6.80
  -3   0  -8   81.69    6.80
  -3   0  -8   86.09    6.50
   3   0   8   80.89    6.80
   3   0   8   99.39    9.00
   3   0   8   87.39    7.70
  -4   0  -8   11.60    1.90
  -4   0  -8   12.40    1.60
  -4   0  -8   17.20    1.40
  -4   0  -8   13.50    1.30
   4   0   8   12.40    2.80
   4   0   8    9.80    3.20
   4   0   8   10.70    3.30
  -5   0  -8    8.30    1.00
  -5   0  -8    9.00    1.30
  -5   0  -8    9.50    1.10
   5   0   8    6.40    3.60
   5   0   8   11.50    2.60
  -6   0  -8    4.50    0.60
  -6   0  -8    5.00    0.80
   6   0   8    3.20    1.40
   6  -1  -8    6.70    2.60
   6  -1  -8   11.90    1.20
   6  -1  -8   10.40    2.10
   6  -1  -8   12.30    1.90
  -6   1   8   11.70    1.10
   5  -1  -8    8.80    2.40
   5  -1  -8   10.70    4.00
   5  -1  -8    7.10    2.30
   5  -1  -8   12.60    1.40
  -5   1   8   10.90    1.10
  -5   1   8    9.80    1.20
   4  -1  -8  257.47   18.80
   4  -1  -8  239.28   19.40
   4  -1  -8  243.38   21.00
   4  -1  -8  229.38   18.40
  -4   1   8  262.67   18.30
  -4   1   8  233.48   18.20
  -4   1   8  234.88   18.50
   3  -1  -8   48.90    5.00
   3  -1  -8   41.00    5.10
   3  -1  -8   38.80    6.30
   3  -1  -8   46.00    4.10
   3  -1  -8   47.00    3.90
  -3   1   8   45.20    3.90
  -3   1   8   48.00    3.70
  -3   1   8   54.99    3.70
   2  -1  -8  447.16   36.80
   2  -1  -8  432.76   35.90
  -2   1   8  492.75   35.70
  -2   1   8  453.85   44.60
  -2   1   8  511.15   35.80
  -2   1   8  527.15   35.80
   1  -1  -8  168.58   12.20
   1  -1  -8  131.39   19.00
   1  -1  -8  140.39   11.30
   1  -1  -8  145.69   12.20
  -1   1   8  158.48   11.20
  -1   1   8  144.79   11.30
  -1   1   8  134.59   18.10
   0  -1  -8  209.98   16.80
   0  -1  -8  226.58   16.70
   0  -1  -8  254.97   31.50
   0  -1  -8  226.78   17.90
   0   1   8  222.58   16.90
   0   1   8  229.58   26.30
  -1  -1  -8  135.79   11.20
  -1  -1  -8  173.08   21.60
  -1  -1  -8  165.88   11.40
   1   1   8  158.08   11.30
   1   1   8  155.58   13.30
   1   1   8  152.38   11.40
   1   1   8  124.09   12.80
  -2  -1  -8  481.65   40.10
  -2  -1  -8  533.55   39.90
  -2  -1  -8  535.15   39.90
  -2  -1  -8  482.55   40.10
  -2  -1  -8  492.95   54.59
   2   1   8  627.04   51.49
   2   1   8  568.34   42.50
   2   1   8  584.44   42.20
   2   1   8  544.55   39.90
   2   1   8  535.25   40.10
  -3  -1  -8   58.29    4.10
  -3  -1  -8   51.89    4.50
  -3  -1  -8   49.10    4.30
  -3  -1  -8   53.89    4.10
   3   1   8   42.00    4.40
   3   1   8   57.09    8.50
   3   1   8   54.39    4.50
   3   1   8   52.39    5.40
  -4  -1  -8  266.47   19.30
  -4  -1  -8  224.08   19.70
  -4  -1  -8  244.08   19.50
  -4  -1  -8  268.67   19.40
   4   1   8  258.37   20.60
   4   1   8  263.87   23.40
   4   1   8  278.57   21.10
  -5  -1  -8   11.40    1.20
  -5  -1  -8   10.00    1.40
  -5  -1  -8   12.00    1.30
   5   1   8   10.30    2.30
   5   1   8   12.20    2.80
  -6  -1  -8   13.60    1.20
  -6  -1  -8   15.30    1.30
   6   1   8   15.00    2.40
   5  -2  -8   33.40    4.20
   5  -2  -8   40.40    3.20
   5  -2  -8   26.00    5.40
  -5   2   8   38.60    2.90
  -5   2   8   39.40    3.10
   4  -2  -8   32.20    4.80
   4  -2  -8   44.70    3.60
   4  -2  -8   34.10    5.60
   4  -2  -8   41.10    4.70
   4  -2  -8   43.10    4.00
   4  -2  -8   34.20    6.10
  -4   2   8   44.10    3.30
  -4   2   8   44.50    3.20
   3  -2  -8   85.79    6.70
   3  -2  -8   84.19    8.60
   3  -2  -8   72.39    7.40
   3  -2  -8   85.99    6.60
   3  -2  -8   67.99    8.10
   3  -2  -8   73.59    7.60
  -3   2   8   89.39    6.60
  -3   2   8   96.19    6.30
   2  -2  -8   17.70    1.90
   2  -2  -8   16.90    2.30
   2  -2  -8   21.90    3.30
  -2   2   8   19.70    1.60
  -2   2   8   18.50    1.80
  -2   2   8   25.50    3.80
  -2   2   8   18.90    1.70
   1  -2  -8   80.19   15.60
   1  -2  -8   72.29    6.00
   1  -2  -8   52.89    4.80
  -1   2   8   52.69   10.70
  -1   2   8   59.19    4.70
  -1   2   8   61.69    4.90
  -1   2   8   65.69    6.40
   0  -2  -8 1459.75  100.79
   0  -2  -8 1333.17  107.49
   0  -2  -8 1372.36  100.59
   0  -2  -8 1212.18  100.59
   0   2   8 1365.26  100.89
   0   2   8 1387.36  102.19
   0   2   8 1449.95  100.69
   0   2   8 1258.27  102.29
  -1  -2  -8   73.49    5.20
  -1  -2  -8   51.19   15.10
  -1  -2  -8   57.49    5.30
  -1  -2  -8   58.09    5.00
   1   2   8   64.59   13.30
   1   2   8   72.49    7.40
   1   2   8   69.39    5.10
   1   2   8   67.59    5.20
   1   2   8   67.49    7.70
   1   2   8   61.79    5.00
  -2  -2  -8   21.00    1.60
  -2  -2  -8   16.80    1.80
  -2  -2  -8   34.20   25.00
  -2  -2  -8   19.80    1.50
  -2  -2  -8   13.80    1.90
   2   2   8   18.90    1.60
   2   2   8   19.80    4.50
   2   2   8   17.80   17.60
   2   2   8   19.70    1.90
   2   2   8   16.90    1.60
   2   2   8   16.20    4.60
  -3  -2  -8   90.29    7.50
  -3  -2  -8   81.79    7.30
  -3  -2  -8  105.89    7.10
  -3  -2  -8  102.49    7.60
   3   2   8   84.49    7.40
   3   2   8   93.09    8.50
   3   2   8   91.59    7.40
   3   2   8  100.89   13.80
  -4  -2  -8   54.29    8.00
  -4  -2  -8   48.80    4.00
  -4  -2  -8   45.00    3.80
  -4  -2  -8   47.20    3.70
   4   2   8   45.40    5.50
   4   2   8   42.40    4.10
  -5  -2  -8   37.20    3.60
  -5  -2  -8   44.10    3.30
  -5  -2  -8   41.80    3.50
   5   2   8   38.20    4.30
   5  -3  -8   65.99    7.30
   5  -3  -8   67.79    6.40
  -5   3   8   73.59    5.60
   4  -3  -8   37.70    5.90
   4  -3  -8   41.40    4.00
   4  -3  -8   45.10    3.80
   4  -3  -8   37.20    5.30
   4  -3  -8   41.20    4.90
   4  -3  -8   34.40    4.80
  -4   3   8   48.30    3.40
   3  -3  -8  158.08   13.90
   3  -3  -8  140.49   13.20
   3  -3  -8  171.08   12.30
   3  -3  -8  155.28   13.90
  -3   3   8  154.98   12.10
  -3   3   8  164.48   11.90
   2  -3  -8   10.80    1.70
   2  -3  -8   10.20    2.70
   2  -3  -8    9.30    3.30
   2  -3  -8   12.10    1.50
  -2   3   8   12.70    1.20
  -2   3   8   11.70    1.50
   1  -3  -8  132.29    9.90
  -1   3   8  141.59    9.90
  -1   3   8  118.59   10.30
   0  -3  -8  186.88   28.20
   0   3   8  151.58   13.60
   0   3   8  193.58   13.30
   0   3   8  205.48   23.80
  -1  -3  -8  162.18   11.40
  -1  -3  -8  148.79   27.60
   1   3   8  163.58   14.50
   1   3   8  116.99   25.90
   1   3   8  137.39   11.50
   1   3   8  148.69   11.20
   1   3   8  144.39   11.30
  -2  -3  -8   11.20    1.20
  -2  -3  -8   12.70    1.40
  -2  -3  -8   11.00    1.40
  -2  -3  -8    3.70    5.50
  -2  -3  -8   19.40   49.00
   2   3   8   11.80    4.70
   2   3   8   11.60    2.60
   2   3   8   -5.70   28.00
   2   3   8   13.10    1.30
   2   3   8   11.20    8.20
   2   3   8   12.20    1.20
   2   3   8   12.10    1.70
   2   3   8   13.50    1.70
  -3  -3  -8  179.88   12.60
  -3  -3  -8  177.48   12.60
  -3  -3  -8  155.78   13.60
  -3  -3  -8  159.58   12.90
   3   3   8  158.98   13.00
   3   3   8  165.58   14.10
  -4  -3  -8   38.10    5.10
  -4  -3  -8   45.60    3.80
  -4  -3  -8   46.40    3.90
  -4  -3  -8   50.89    3.70
   4   3   8   43.60    5.20
   4   3   8   47.70    4.00
  -5  -3  -8   83.19    6.30
  -5  -3  -8   75.99    6.90
  -5  -3  -8   87.69    6.50
   5   3   8   81.39    7.30
   5  -4  -8    7.70    2.40
   5  -4  -8   13.10    2.20
   5  -4  -8   11.50    1.50
   4  -4  -8  126.89   11.10
   4  -4  -8  134.79   10.20
  -4   4   8  125.99    9.80
   3  -4  -8  282.07   22.50
   3  -4  -8  323.17   22.90
   3  -4  -8  282.77   23.80
   3  -4  -8  271.67   23.30
   3  -4  -8  269.37   23.30
   3  -4  -8  326.37   24.40
  -3   4   8  283.07   22.50
  -3   4   8  322.07   22.10
   2  -4  -8    9.90    1.80
   2  -4  -8    7.90    2.40
   2  -4  -8   11.30    3.00
   2  -4  -8   11.70    3.00
   2  -4  -8    8.60    2.30
  -2   4   8    7.60    1.80
   1  -4  -8  236.38   22.80
   1  -4  -8  274.17   21.90
   1  -4  -8  306.17   21.80
  -1   4   8  310.37   21.50
  -1   4   8  322.77   62.79
  -1   4   8  280.67   21.80
  -1   4   8  311.27   21.50
   0  -4  -8   51.89    6.30
   0  -4  -8   65.59    5.60
   0  -4  -8   55.49    5.70
   0   4   8   70.79    4.90
   0   4   8   72.99    4.90
   0   4   8   63.59    5.30
  -1  -4  -8  283.37   21.40
   1   4   8  261.57   21.40
   1   4   8  284.77   21.10
   1   4   8  287.47   21.10
   1   4   8  293.77   22.00
  -2  -4  -8    9.60    2.10
  -2  -4  -8   10.80    1.80
  -2  -4  -8    8.30    3.30
  -2  -4  -8   12.00    1.50
  -2  -4  -8   12.40    1.50
   2   4   8    9.60    1.50
   2   4   8    7.90    2.60
   2   4   8   10.30    1.90
   2   4   8   11.60    1.20
   2   4   8   10.60    1.30
  -3  -4  -8  231.88   24.00
  -3  -4  -8  266.27   20.90
  -3  -4  -8  282.17   20.10
   3   4   8  280.57   19.90
   3   4   8  254.47   20.20
  -4  -4  -8  145.49   10.80
  -4  -4  -8  155.88   11.70
   4   4   8  124.09   11.70
   4   4   8  131.79   10.80
  -5  -4  -8   10.60    2.40
  -5  -4  -8   15.60    1.40
   5   4   8   12.50    2.10
   4  -5  -8    6.60    1.90
   4  -5  -8    3.20    1.80
   3  -5  -8   89.49    8.70
   3  -5  -8   81.89    8.10
   3  -5  -8   86.59    8.10
  -3   5   8   82.69    6.50
   2  -5  -8  359.06   32.30
   2  -5  -8  447.56   31.90
  -2   5   8  421.66   30.50
   1  -5  -8  202.48   16.00
   1  -5  -8  194.58   17.00
   1  -5  -8  181.88   15.50
   1  -5  -8  192.28   15.20
  -1   5   8  223.08   15.00
   0  -5  -8   75.89    7.00
   0  -5  -8   67.89    6.80
   0  -5  -8   79.49    7.60
   0  -5  -8   79.59    6.50
   0  -5  -8   75.79    7.70
   0   5   8   83.49    6.50
   0   5   8   87.49    6.20
   0   5   8   87.89    6.10
  -1  -5  -8  232.58   16.70
  -1  -5  -8  221.08   17.10
  -1  -5  -8  186.28   17.30
  -1  -5  -8  208.88   18.10
   1   5   8  205.48   16.50
   1   5   8  225.28   16.20
   1   5   8  224.78   16.20
  -2  -5  -8  382.36   29.30
  -2  -5  -8  413.36   28.50
  -2  -5  -8  343.87   30.70
  -2  -5  -8  391.76   28.60
   2   5   8  377.16   28.60
   2   5   8  376.46   29.80
   2   5   8  406.36   28.50
   2   5   8  338.67   28.70
  -3  -5  -8   68.89    6.50
  -3  -5  -8   62.19   13.40
   3   5   8   71.49    7.10
   3   5   8   67.89    5.80
  -4  -5  -8    4.70    1.40
  -4  -5  -8    7.70    1.10
   4   5   8    6.60    1.00
   4   5   8    3.90    1.50
   4  -6  -8   16.90    2.40
   4  -6  -8   17.00    1.90
   4  -6  -8   15.70    2.60
   3  -6  -8   72.29    6.20
   3  -6  -8   71.09    5.90
   3  -6  -8   75.89    6.70
   3  -6  -8   61.09    6.90
   2  -6  -8   80.29    6.40
   2  -6  -8   74.99    7.70
   2  -6  -8   80.89    6.80
  -2   6   8   69.39    5.80
  -2   6   8   70.79    5.70
   1  -6  -8  302.17   21.60
   1  -6  -8  262.47   21.70
   1  -6  -8  250.07   21.20
   1  -6  -8  284.87   22.70
  -1   6   8  281.87   20.80
  -1   6   8  283.07   20.80
   0  -6  -8    4.30    1.30
   0  -6  -8    4.00    2.30
   0  -6  -8    4.50    1.60
   0  -6  -8    3.90    1.30
   0  -6  -8    4.50    1.90
   0   6   8    4.30    0.60
   0   6   8    2.90    1.00
   0   6   8    3.50    0.60
  -1  -6  -8  254.37   20.60
  -1  -6  -8  283.27   22.00
  -1  -6  -8  247.68   21.00
  -1  -6  -8  281.97   20.30
   1   6   8  271.07   20.00
   1   6   8  267.67   19.90
   1   6   8  252.47   20.20
  -2  -6  -8   68.79    9.00
  -2  -6  -8   64.29    5.90
   2   6   8   62.19    5.00
   2   6   8   63.29    4.90
   2   6   8   58.99    5.30
  -3  -6  -8   59.09    5.50
   3   6   8   53.49    4.80
   3   6   8   60.49    6.00
  -4  -6  -8   17.80    1.80
   4   6   8   15.60    1.60
   4   6   8   15.50    2.40
   3  -7  -8   12.30    2.10
   3  -7  -8   13.60    2.40
   3  -7  -8    9.80    1.80
   2  -7  -8   19.50    2.50
   2  -7  -8   17.80    3.20
   2  -7  -8   16.50    2.40
  -2   7   8   16.50    1.50
  -2   7   8   15.90    1.50
   1  -7  -8   92.49    8.90
   1  -7  -8  101.19    8.00
   1  -7  -8  104.09    8.20
  -1   7   8   92.29    7.40
  -1   7   8   95.59    7.40
   0  -7  -8  126.79   11.10
   0  -7  -8  133.49   10.30
   0   7   8  133.09    9.90
   0   7   8  130.69    9.90
   0   7   8  125.39   10.10
  -1  -7  -8  105.19    7.80
  -1  -7  -8   98.79    7.40
   1   7   8   83.79    7.00
   1   7   8   88.59    7.10
   1   7   8   82.69    7.30
  -2  -7  -8   16.20    2.40
   2   7   8   13.90    1.40
   2   7   8   14.10    1.50
   2   7   8   13.50    1.80
  -3  -7  -8   12.00    1.90
   3   7   8   10.50    2.60
   3   7   8    9.40    1.30
   2  -8  -8   25.20    3.00
   2  -8  -8   21.00    2.30
   2  -8  -8   21.20    2.30
   1  -8  -8   51.19    4.10
   1  -8  -8   40.70    4.10
   1  -8  -8   49.30    4.70
  -1   8   8   43.20    3.60
  -1   8   8   43.80    3.60
   0  -8  -8  162.18   11.10
   0  -8  -8  131.49   11.20
   0   8   8  133.09   10.50
   0   8   8  134.29   10.60
   0   8   8  131.09   10.40
   1   8   8   39.30    3.20
   1   8   8   38.00    3.00
   1   8   8   35.30    3.10
   2   8   8   24.00    2.10
   2   8   8   21.30    1.90
   2   8  -9   38.90    3.20
  -2  -8   9   40.60    3.80
   1   8  -9  236.38   16.70
   1   8  -9  204.98   16.50
  -1  -8   9  224.58   17.20
   0   8  -9   58.79    4.00
   0  -8   9   48.60    6.90
   0  -8   9   45.20    4.80
  -1   8  -9  199.28   13.70
   1  -8   9  156.18   14.00
   1  -8   9  192.78   15.00
  -2   8  -9   35.40    3.00
  -2   8  -9   36.20    2.80
   2  -8   9   32.50    3.90
   2  -8   9   40.20    3.80
   3   7  -9   14.20    1.40
   3   7  -9   14.20    2.00
   2   7  -9   33.50    3.50
   2   7  -9   25.90    2.70
   2   7  -9   32.50    2.70
   1   7  -9   10.40    1.20
   1   7  -9   11.10    1.40
   1   7  -9   11.60    1.20
  -1  -7   9   14.00    2.60
  -1  -7   9    8.20    2.30
   0   7  -9    7.50    0.80
   0   7  -9    7.00    1.00
   0   7  -9    7.10    0.90
   0  -7   9    9.30    2.40
   0  -7   9    7.00    1.90
   0  -7   9    4.80    1.50
  -1   7  -9    9.80    1.10
  -1   7  -9   13.60    1.10
  -1   7  -9   12.30    1.30
   1  -7   9    8.90    2.00
   1  -7   9    9.40    2.40
  -2   7  -9   28.40    2.30
  -2   7  -9   26.00    2.20
  -2   7  -9   26.40    2.10
   2  -7   9   29.10    4.50
   2  -7   9   25.30    3.00
  -3   7  -9   12.90    1.40
  -3   7  -9   13.40    1.10
   3  -7   9   13.80    2.20
   4   6  -9    3.30    0.90
  -4  -6   9    2.80    0.70
  -4  -6   9    5.10    1.70
   3   6  -9   65.19    5.80
   3   6  -9   65.09    5.00
  -3  -6   9   59.39    5.10
   2   6  -9  120.19    9.50
   2   6  -9  124.49    8.90
   2   6  -9  108.89    8.60
  -2  -6   9   96.49    8.70
   1   6  -9  412.46   37.50
   1   6  -9  476.15   37.10
   1   6  -9  529.55   36.90
   1   6  -9  504.45   37.00
  -1  -6   9  560.34   40.20
   0   6  -9  549.74   40.30
   0   6  -9  517.85   40.40
   0   6  -9  570.54   40.30
   0  -6   9  488.15   40.70
   0  -6   9  577.34   41.60
  -1   6  -9  441.46   34.90
  -1   6  -9  503.85   34.80
  -1   6  -9  489.95   34.90
   1  -6   9  433.96   35.40
  -2   6  -9  117.49    8.50
  -2   6  -9  106.89    8.40
   2  -6   9  113.49    9.30
   2  -6   9  115.59   12.50
   2  -6   9   98.69    9.50
  -3   6  -9   63.49    5.00
  -3   6  -9   56.39    4.80
  -3   6  -9   63.29    4.70
   3  -6   9   57.49    7.00
   3  -6   9   64.89    5.80
  -4   6  -9    3.20    0.40
   4  -6   9    2.30    1.30
   4  -6   9    4.90    2.00
   4   5  -9   41.50    3.90
  -4  -5   9   37.40    3.40
   3   5  -9  250.57   18.00
   3   5  -9  251.57   20.10
  -3  -5   9  205.38   18.20
   2   5  -9   46.10    4.90
   2   5  -9   52.19    4.10
   2   5  -9   49.99    3.90
   2   5  -9   50.39    4.60
  -2  -5   9   49.70    4.30
  -2  -5   9   48.80    4.50
   1   5  -9   25.80    2.40
   1   5  -9   25.00    3.40
   1   5  -9   27.70    2.10
   1   5  -9   26.50    2.90
   1   5  -9   24.70    2.20
  -1  -5   9   32.80    6.40
  -1  -5   9   20.30    2.60
   0   5  -9   21.30    1.70
   0   5  -9   20.80    2.50
   0   5  -9   18.60    1.90
   0  -5   9   17.70    3.40
   0  -5   9   13.70    2.60
   0  -5   9   20.40    5.40
   0  -5   9   22.60    2.90
  -1   5  -9   25.30    2.30
  -1   5  -9   26.20    2.00
  -1   5  -9   25.70    2.90
  -1   5  -9   23.50    2.10
   1  -5   9   23.80    3.30
   1  -5   9   25.80    4.30
   1  -5   9   24.00    3.00
  -2   5  -9   54.49    5.00
  -2   5  -9   53.39    4.20
  -2   5  -9   49.60    4.10
  -2   5  -9   55.19    4.00
   2  -5   9   48.80    5.00
   2  -5   9   44.90    5.10
   2  -5   9   57.19    5.60
  -3   5  -9  228.38   16.90
  -3   5  -9  227.28   16.90
  -3   5  -9  248.48   17.20
   3  -5   9  213.68   18.50
   3  -5   9  259.87   18.40
   3  -5   9  187.98   18.10
   3  -5   9  211.08   18.30
  -4   5  -9   37.10    3.00
  -4   5  -9   38.40    2.90
   4  -5   9   41.60    4.50
   4  -5   9   34.80    5.20
   5   4  -9   14.00    1.40
   5   4  -9   16.70    1.80
  -5  -4   9   11.90    1.50
  -5  -4   9   14.10    1.60
   4   4  -9   39.60    3.90
  -4  -4   9   39.50    3.40
  -4  -4   9   32.50    3.30
   3   4  -9  336.67   26.10
   3   4  -9  355.16   25.40
   3   4  -9  315.77   25.60
  -3  -4   9  342.37   25.40
  -3  -4   9  347.27   25.50
  -3  -4   9  330.27   25.30
   2   4  -9   34.80    2.80
   2   4  -9   31.20    2.60
   2   4  -9   29.60    2.90
   2   4  -9   27.60    3.60
   2   4  -9   33.20    3.10
  -2  -4   9   33.60    3.10
  -2  -4   9   32.10    2.90
  -2  -4   9   30.70    2.60
  -2  -4   9   29.00    2.80
   1   4  -9   67.29    5.20
   1   4  -9   68.29    5.40
   1   4  -9   72.99    5.70
   1   4  -9   74.49    5.20
  -1  -4   9   59.39    5.50
  -1  -4   9   66.49    5.50
   0   4  -9 1181.58   86.49
   0   4  -9 1199.98   86.79
   0   4  -9 1339.57   86.29
   0  -4   9 1041.20   86.99
   0  -4   9 1043.30   86.99
   0  -4   9 1161.28   86.39
  -1   4  -9   71.89    5.30
  -1   4  -9   70.29    5.00
  -1   4  -9   59.19    5.20
  -1   4  -9   63.99    5.20
  -1   4  -9   64.19    6.30
   1  -4   9   63.69    5.90
   1  -4   9   74.29    6.60
   1  -4   9   60.29    6.40
  -2   4  -9   33.70    3.00
  -2   4  -9   37.90    2.60
  -2   4  -9   32.60    2.70
  -2   4  -9   33.30    3.30
  -2   4  -9   36.50    2.90
   2  -4   9   32.40    3.70
   2  -4   9   25.00    4.10
   2  -4   9   30.80    3.80
  -3   4  -9  368.66   25.40
  -3   4  -9  311.57   25.20
  -3   4  -9  352.26   25.00
  -3   4  -9  337.57   25.10
   3  -4   9  371.26   26.30
   3  -4   9  323.67   26.10
   3  -4   9  303.17   25.50
   3  -4   9  343.57   28.20
   3  -4   9  309.77   25.90
  -4   4  -9   40.00    3.00
  -4   4  -9   37.80    3.00
   4  -4   9   30.40    4.30
   4  -4   9   46.00    5.90
   4  -4   9   36.50    4.70
  -5   4  -9   14.50    1.20
   5  -4   9   12.80    3.20
   5  -4   9   15.00    2.50
   5   3  -9   54.89    7.90
   5   3  -9   41.70    3.40
   5   3  -9   47.00    3.80
  -5  -3   9   38.40    3.30
  -5  -3   9   36.30    3.50
  -5  -3   9   40.40    3.50
   4   3  -9  427.86   32.80
   4   3  -9  419.86   32.90
   4   3  -9  442.56   35.50
  -4  -3   9  442.76   32.40
  -4  -3   9  424.96   32.20
   3   3  -9    2.10    1.00
   3   3  -9    2.20    1.20
   3   3  -9    1.20    0.70
   3   3  -9    1.90    1.30
   3   3  -9   -0.20    3.50
  -3  -3   9    1.90    1.00
  -3  -3   9    1.50    0.60
  -3  -3   9    1.60    0.80
  -3  -3   9    3.00    2.00
  -3  -3   9    1.50    0.80
   2   3  -9   69.09    5.60
   2   3  -9   76.19    5.80
   2   3  -9   81.69    9.40
   2   3  -9   74.99    5.60
   2   3  -9   66.09    6.20
   2   3  -9   75.29    5.80
  -2  -3   9   72.59    5.70
  -2  -3   9   68.59    5.50
  -2  -3   9   59.39    5.80
  -2  -3   9   72.39    5.80
  -2  -3   9   72.69    5.60
   1   3  -9  137.89    9.00
   1   3  -9   96.79   12.60
   1   3  -9  126.19    9.00
   1   3  -9   88.19   22.60
   1   3  -9  134.99    9.40
   1   3  -9  117.39    9.20
  -1  -3   9  117.59    9.50
  -1  -3   9  114.79    9.10
  -1  -3   9  108.99    9.10
  -1  -3   9   83.49   34.80
  -1  -3   9  112.79    9.30
  -1  -3   9  130.29    9.30
   0   3  -9    0.10    0.30
   0   3  -9    0.40    0.30
   0   3  -9   -0.10    0.60
   0   3  -9    0.20    3.00
   0   3  -9    2.40   13.70
   0  -3   9    0.60    0.40
   0  -3   9    0.20    0.80
   0  -3   9    1.00    3.10
   0  -3   9    6.40   26.70
   0  -3   9    1.20    2.00
  -1   3  -9  124.79    9.90
  -1   3  -9  134.79    9.50
  -1   3  -9  121.19    9.50
  -1   3  -9  131.09    9.70
  -1   3  -9  123.69   22.90
   1  -3   9  133.79   10.20
   1  -3   9  112.69   10.70
  -2   3  -9   71.69    5.80
  -2   3  -9   77.89    6.20
  -2   3  -9   79.79    6.40
   2  -3   9   74.89    6.50
   2  -3   9   79.09    6.80
  -3   3  -9    0.30    1.10
  -3   3  -9    1.90    0.30
  -3   3  -9    2.80    0.70
  -3   3  -9    1.60    0.80
  -3   3  -9    1.00    0.50
  -3   3  -9    1.40    0.80
   3  -3   9    2.60    2.20
   3  -3   9    1.30    1.20
   3  -3   9    1.20    3.00
   3  -3   9    1.20    1.70
   3  -3   9    1.60    5.60
  -4   3  -9  419.66   34.70
  -4   3  -9  464.45   34.60
  -4   3  -9  488.65   34.60
   4  -3   9  469.75   36.40
   4  -3   9  418.16   35.80
   4  -3   9  464.55   36.50
   4  -3   9  526.85   37.50
  -5   3  -9   44.30    3.40
  -5   3  -9   45.20    3.40
   5  -3   9   49.60    5.10
   5  -3   9   44.90    5.70
   5  -3   9   36.40    4.30
   5   2  -9    8.60    3.70
   5   2  -9   13.50    1.50
   5   2  -9   13.20    2.90
   5   2  -9   11.00    2.70
   5   2  -9   13.70    1.70
  -5  -2   9   14.70    1.40
  -5  -2   9   15.60    1.60
  -5  -2   9   13.80    1.60
   4   2  -9  154.68   12.10
   4   2  -9  169.88   12.20
   4   2  -9  131.29   12.40
  -4  -2   9  145.59   11.60
  -4  -2   9  149.39   11.70
  -4  -2   9  170.48   11.80
   3   2  -9    9.10    2.00
   3   2  -9   10.70    1.60
   3   2  -9    7.30    1.00
   3   2  -9    7.20    4.40
   3   2  -9    8.80    2.80
  -3  -2   9    8.90    1.10
  -3  -2   9    8.90    1.30
  -3  -2   9    7.80    1.30
  -3  -2   9    7.70    1.10
   2   2  -9  159.18   11.20
   2   2  -9  150.68   11.30
   2   2  -9  138.89   11.60
   2   2  -9  149.69   11.20
  -2  -2   9  142.99   11.10
  -2  -2   9  145.29   11.20
  -2  -2   9  155.18   11.30
  -2  -2   9  129.79   11.00
   1   2  -9  791.62   52.59
   1   2  -9  815.92   61.69
   1   2  -9  592.14   53.99
   1   2  -9  679.93   52.29
  -1  -2   9  578.54   66.89
  -1  -2   9  720.23   52.49
  -1  -2   9  729.13   52.39
   0   2  -9   39.80   10.40
   0   2  -9   35.00    2.80
   0   2  -9   33.60    3.00
   0   2  -9   35.30    3.00
   0   2  -9   33.00    4.70
   0  -2   9   36.10    4.90
   0  -2   9   34.60    5.60
   0  -2   9   39.80    2.90
   0  -2   9   33.60    2.90
   0  -2   9   47.00   17.10
  -1   2  -9  837.02   58.69
  -1   2  -9  728.33   58.49
  -1   2  -9  834.82   59.99
  -1   2  -9  687.33   58.69
  -1   2  -9  885.71   68.19
   1  -2   9  773.72   70.49
  -2   2  -9  161.78   12.10
  -2   2  -9  162.58   12.40
  -2   2  -9  105.39   26.00
  -2   2  -9  160.98   12.00
  -2   2  -9  162.98   12.30
   2  -2   9  167.78   12.60
   2  -2   9  141.19   32.10
  -3   2  -9    9.80    1.10
  -3   2  -9    7.20    1.10
  -3   2  -9    9.00    1.40
  -3   2  -9   10.00    0.90
  -3   2  -9    9.00    1.50
   3  -2   9   12.30    2.60
   3  -2   9    8.10    3.00
   3  -2   9   15.40    4.40
   3  -2   9    8.60    2.40
   3  -2   9    9.90    1.80
  -4   2  -9  170.08   11.70
  -4   2  -9  143.39   11.90
  -4   2  -9  177.38   11.80
   4  -2   9  133.49   12.40
  -5   2  -9   13.80    1.30
  -5   2  -9   16.50    1.60
  -5   2  -9   12.70    1.70
   5  -2   9   17.20    3.90
   5  -2   9   19.10    3.30
   5   1  -9   22.70    3.10
   5   1  -9   17.20    3.50
   5   1  -9   23.10    5.40
   5   1  -9   25.30    2.20
  -5  -1   9   26.30    2.30
  -5  -1   9   25.30    2.10
  -5  -1   9   24.30    2.20
   4   1  -9   27.10    2.80
   4   1  -9   22.20    4.10
   4   1  -9   25.10    2.90
   4   1  -9   22.70    6.20
   4   1  -9   27.80    2.40
   4   1  -9   23.20    3.50
  -4  -1   9   26.80    2.40
  -4  -1   9   24.30    2.20
  -4  -1   9   28.30    2.50
   3   1  -9  310.77   23.70
   3   1  -9  334.27   24.70
   3   1  -9  275.67   24.10
   3   1  -9  339.77   23.80
  -3  -1   9  306.27   23.40
  -3  -1   9  295.27   23.30
  -3  -1   9  302.27   23.60
  -3  -1   9  331.57   23.50
   2   1  -9  404.06   36.30
   2   1  -9  466.35   34.50
   2   1  -9  505.15   34.40
  -2  -1   9  414.36   34.30
  -2  -1   9  458.95   34.30
  -2  -1   9  509.35   34.50
   1   1  -9  682.73   57.99
   1   1  -9  838.92   56.79
  -1  -1   9  748.13   56.79
  -1  -1   9  671.53   66.39
  -1  -1   9  844.12   56.79
   0   1  -9   28.00    2.60
   0   1  -9   55.49   11.30
   0   1  -9   30.20    3.90
   0   1  -9   30.50    2.60
   0  -1   9   35.60    2.50
   0  -1   9   16.10   10.70
   0  -1   9   29.80    2.50
   0  -1   9   24.80    4.80
  -1   1  -9  741.73   69.09
  -1   1  -9  846.72   61.39
  -1   1  -9  908.91   61.69
  -1   1  -9  884.11   62.19
  -1   1  -9  872.51   61.49
   1  -1   9  795.62   69.59
   1  -1   9  723.63   61.49
   1  -1   9  818.52   61.39
  -2   1  -9  556.44   38.80
  -2   1  -9  489.55   39.10
  -2   1  -9  558.14   38.90
  -2   1  -9  502.65   53.69
  -2   1  -9  525.85   39.10
   2  -1   9  440.76   40.70
   2  -1   9  613.14   53.69
  -3   1  -9  314.27   26.00
  -3   1  -9  304.57   25.80
  -3   1  -9  359.46   25.70
  -3   1  -9  353.76   25.60
  -3   1  -9  333.07   25.90
   3  -1   9  382.16   28.00
   3  -1   9  356.06   28.20
   3  -1   9  351.46   26.70
   3  -1   9  345.17   26.20
  -4   1  -9   28.60    2.80
  -4   1  -9   36.00    2.60
  -4   1  -9   30.80    2.50
   4  -1   9   27.70    3.70
   4  -1   9   29.30    5.20
  -5   1  -9   26.20    2.50
  -5   1  -9   30.60    2.40
  -5   1  -9   30.00    2.30
   5  -1   9   27.60    4.10
   5  -1   9   25.20    3.80
   5  -1   9   31.10    5.00
   5   0  -9  109.29    7.80
   5   0  -9   96.39   10.50
  -5   0   9   95.59    7.80
  -5   0   9   97.89    7.60
  -5   0   9   96.49    7.70
   4   0  -9   32.30    2.90
   4   0  -9   35.00    6.60
   4   0  -9   35.70    3.50
   4   0  -9   37.50    3.20
   4   0  -9   31.20    4.00
   4   0  -9   27.10    4.40
  -4   0   9   27.10    3.10
  -4   0   9   34.40    3.10
  -4   0   9   33.90    2.70
  -4   0   9   37.50    2.90
   3   0  -9  114.09    9.30
   3   0  -9  114.19   10.10
   3   0  -9  118.59    9.50
   3   0  -9  133.49    9.60
   3   0  -9  124.79   10.60
  -3   0   9  132.19    9.40
  -3   0   9  113.99    9.10
  -3   0   9  118.09    9.50
  -3   0   9  116.89    9.50
   2   0  -9   74.19    8.50
   2   0  -9   64.89    9.10
   2   0  -9   88.89    6.30
  -2   0   9   85.09    6.20
  -2   0   9   87.69    6.10
  -2   0   9   66.19    9.50
  -2   0   9   75.99    6.00
   1   0  -9   13.50    1.00
   1   0  -9   10.90    2.90
   1   0  -9   12.40    8.60
  -1   0   9   11.30    1.10
  -1   0   9   12.60    1.30
  -1   0   9   11.90    1.30
  -1   0   9   13.80    1.20
  -1   0   9    8.50   10.30
  -1   0   9    8.30    2.60
   0   0  -9   -0.20    0.30
   0   0  -9    0.20    0.30
   0   0  -9   -1.90    7.10
   0   0  -9    1.10    1.40
   0   0   9   -0.90    7.70
   0   0   9    0.90    0.40
   0   0   9   -1.90    2.20
   0   0   9    0.80    1.90
   0   0   9    0.40    0.50
  -1   0  -9   12.20    1.50
  -1   0  -9   12.40    1.30
  -1   0  -9   13.80    4.30
  -1   0  -9   12.20    1.10
  -1   0  -9   13.30    1.30
  -1   0  -9   17.20   10.40
   1   0   9   11.20    3.10
   1   0   9   14.10    1.20
   1   0   9   13.70    9.40
  -2   0  -9   87.69    6.90
  -2   0  -9   86.19    7.10
  -2   0  -9   81.99    7.10
  -2   0  -9   95.29   10.70
  -2   0  -9  117.49   23.80
  -2   0  -9   88.39    6.80
   2   0   9   95.19    7.10
   2   0   9   99.99   11.30
   2   0   9  102.39   20.10
   2   0   9   91.29    9.30
  -3   0  -9  126.39    9.90
  -3   0  -9  132.39    9.80
  -3   0  -9  115.89   10.00
  -3   0  -9  113.79   10.10
  -3   0  -9  122.19   10.20
   3   0   9  146.39   13.00
   3   0   9  137.59   10.30
   3   0   9  137.09   11.10
   3   0   9  150.48   12.30
  -4   0  -9   36.20    3.80
  -4   0  -9   33.90    3.30
  -4   0  -9   39.60    3.10
  -4   0  -9   37.20    3.20
   4   0   9   40.70    5.90
   4   0   9   45.80    4.60
  -5   0  -9  110.69    8.20
  -5   0  -9  114.79    8.20
  -5   0  -9  100.09    8.30
   5   0   9   95.09   10.50
   5   0   9  112.09    9.70
   5  -1  -9   20.80    3.20
   5  -1  -9   20.60    4.90
   5  -1  -9   23.20    2.20
  -5   1   9   25.30    2.00
  -5   1   9   26.00    2.10
   4  -1  -9   19.90    3.70
   4  -1  -9   29.10    3.10
   4  -1  -9   29.50    2.50
   4  -1  -9   22.90    3.60
   4  -1  -9   23.40    5.30
  -4   1   9   27.10    2.20
  -4   1   9   28.40    2.30
   3  -1  -9  281.57   22.50
   3  -1  -9  249.08   22.70
   3  -1  -9  281.87   21.90
   3  -1  -9  323.67   21.80
  -3   1   9  298.27   21.50
  -3   1   9  293.37   21.80
  -3   1   9  285.77   21.90
   2  -1  -9  368.66   32.40
   2  -1  -9  408.66   31.50
   2  -1  -9  391.96   32.70
  -2   1   9  461.65   31.40
  -2   1   9  466.15   31.30
   1  -1  -9  787.52   57.19
   1  -1  -9  822.42   64.59
   1  -1  -9  740.03   56.19
   1  -1  -9  686.13   57.09
  -1   1   9  776.92   56.09
  -1   1   9  781.62   63.19
  -1   1   9  712.33   56.19
   0  -1  -9   30.30    2.70
   0  -1  -9   30.80   11.10
   0  -1  -9   30.70    2.30
   0  -1  -9   31.30    2.50
   0   1   9   24.20    5.60
   0   1   9   37.40    9.90
   0   1   9   31.30    2.50
   0   1   9   23.00    4.70
  -1  -1  -9  733.63   56.69
  -1  -1  -9  827.52   56.59
  -1  -1  -9  807.42   66.79
   1   1   9  718.93   58.49
   1   1   9  815.62   56.49
   1   1   9  725.13   56.59
   1   1   9  698.33   58.29
  -2  -1  -9  509.65   56.09
  -2  -1  -9  434.16   35.70
  -2  -1  -9  427.96   35.60
  -2  -1  -9  465.15   35.90
  -2  -1  -9  458.65   35.90
   2   1   9  541.55   39.00
   2   1   9  542.35   38.40
   2   1   9  502.35   35.90
   2   1   9  460.75   35.70
  -3  -1  -9  286.27   24.40
  -3  -1  -9  363.86   25.70
  -3  -1  -9  300.37   24.30
  -3  -1  -9  307.57   24.10
  -3  -1  -9  323.77   24.10
   3   1   9  275.27   24.30
   3   1   9  378.16   27.60
   3   1   9  333.37   24.40
   3   1   9  343.77   25.40
  -4  -1  -9   29.00    2.70
  -4  -1  -9   28.60    2.50
  -4  -1  -9   29.20    2.40
   4   1   9   29.60    4.00
   4   1   9   29.30    4.80
  -5  -1  -9   27.90    2.40
  -5  -1  -9   26.60    2.50
  -5  -1  -9   26.70    2.30
   5   1   9   32.10    4.00
   5   1   9   24.50    3.40
   5  -2  -9   12.90    1.50
   5  -2  -9   11.20    2.50
   5  -2  -9   12.20    3.50
  -5   2   9   12.50    1.20
  -5   2   9    9.50    1.10
   4  -2  -9  117.29   11.60
   4  -2  -9  146.69   10.90
   4  -2  -9  140.19   12.50
   4  -2  -9  125.69   13.00
   4  -2  -9  147.79   11.20
  -4   2   9  153.68   10.60
  -4   2   9  142.19   10.50
   3  -2  -9    9.20    1.40
   3  -2  -9    5.80    2.00
   3  -2  -9    7.10    2.60
   3  -2  -9    6.10    2.20
   3  -2  -9    1.80    3.00
   3  -2  -9    8.90    1.40
  -3   2   9    6.30    0.80
  -3   2   9    9.40    1.00
   2  -2  -9  115.49   10.50
   2  -2  -9  124.69   11.40
   2  -2  -9  134.19   10.10
   2  -2  -9  123.59   11.00
   2  -2  -9  128.59   10.80
   2  -2  -9  130.99   10.10
  -2   2   9  135.99   10.10
  -2   2   9  150.38   10.00
  -2   2   9  133.69    9.90
   1  -2  -9  741.83   57.79
   1  -2  -9  782.42   57.89
   1  -2  -9  840.82   65.69
   1  -2  -9  718.93   56.79
   1  -2  -9  861.71   57.79
  -1   2   9  712.63   58.19
  -1   2   9  718.83   56.79
  -1   2   9  759.62   63.59
  -1   2   9  718.33   56.79
  -1   2   9  801.72   56.99
   0  -2  -9   43.90    3.00
   0  -2  -9   39.00    5.00
   0  -2  -9   31.60   13.30
   0  -2  -9   34.40    3.20
   0  -2  -9   33.70    3.10
   0   2   9   35.90    5.40
   0   2   9   35.30    3.00
   0   2   9   38.50   10.70
   0   2   9   40.20    3.20
   0   2   9   37.70    3.00
  -1  -2  -9  691.33   56.19
  -1  -2  -9  716.53   55.99
  -1  -2  -9  697.23   67.79
  -1  -2  -9  819.52   56.09
   1   2   9  763.72   55.89
   1   2   9  755.82   56.09
   1   2   9  757.82   58.29
   1   2   9  706.73   57.99
   1   2   9  769.42   55.89
   1   2   9  843.22   65.09
  -2  -2  -9  136.59   11.10
  -2  -2  -9   78.49   35.80
  -2  -2  -9  146.09   11.10
  -2  -2  -9  136.59   10.90
  -2  -2  -9  145.39   11.00
   2   2   9  163.88   13.00
   2   2   9  141.19   11.20
   2   2   9  135.19   11.20
   2   2   9  154.38   15.70
   2   2   9  142.69   10.90
   2   2   9  147.69   11.00
   2   2   9  163.88   14.40
   2   2   9  141.09   27.10
  -3  -2  -9   10.20    1.20
  -3  -2  -9    6.30    2.20
  -3  -2  -9    8.90    1.40
  -3  -2  -9    8.40    1.00
  -3  -2  -9    8.30    1.30
   3   2   9    9.20    1.60
   3   2   9    9.70    2.40
   3   2   9   11.00    4.50
   3   2   9    6.60    1.30
  -4  -2  -9  148.29   11.80
  -4  -2  -9  157.38   11.70
  -4  -2  -9  142.59   12.80
  -4  -2  -9  154.18   11.60
   4   2   9  152.48   13.00
   4   2   9  168.98   13.10
   4   2   9  146.49   11.80
  -5  -2  -9   13.50    1.50
  -5  -2  -9   14.70    1.30
  -5  -2  -9   13.30    1.50
   5   2   9   13.00    2.50
   5  -3  -9   26.90    3.60
   5  -3  -9   38.20    2.90
   5  -3  -9   32.50    5.60
  -5   3   9   30.40    2.60
   4  -3  -9  310.77   27.70
   4  -3  -9  379.66   27.80
  -4   3   9  373.26   26.50
   3  -3  -9    1.40    1.70
   3  -3  -9    1.40    2.90
   3  -3  -9    4.40    2.40
   3  -3  -9    2.90    1.20
   3  -3  -9    2.10    1.00
   3  -3  -9    0.20    1.60
  -3   3   9    1.90    0.80
  -3   3   9    0.90    0.50
   2  -3  -9   67.19    5.20
   2  -3  -9   64.49    6.90
   2  -3  -9   57.59    6.00
   2  -3  -9   54.89    6.20
   2  -3  -9   59.29    5.20
  -2   3   9   68.69    4.90
  -2   3   9   60.89    4.90
  -2   3   9   72.79    5.30
   1  -3  -9  116.89    9.10
   1  -3  -9  105.49    8.50
  -1   3   9  117.39    8.50
  -1   3   9  109.99    8.70
  -1   3   9  109.79    8.50
   0  -3  -9   -0.50    2.60
   0  -3  -9    0.30    0.70
   0   3   9    0.60    0.40
   0   3   9    0.90    0.40
   0   3   9   -0.70    1.00
   0   3   9   -0.80    2.60
  -1  -3  -9  125.99    9.30
  -1  -3  -9  114.19    9.80
  -1  -3  -9  106.09    9.80
   1   3   9  124.29    9.20
   1   3   9  125.89   14.00
   1   3   9  120.99    9.10
   1   3   9  118.89    9.40
   1   3   9  137.09   13.10
  -2  -3  -9   59.69    5.40
  -2  -3  -9   65.19    6.10
  -2  -3  -9   57.79    5.10
  -2  -3  -9   76.19    5.40
  -2  -3  -9   68.79    5.30
   2   3   9   67.39    5.20
   2   3   9   67.19    5.50
   2   3   9   62.89    5.50
   2   3   9   80.59   10.70
   2   3   9   72.09    8.30
   2   3   9   64.09    5.10
  -3  -3  -9    0.50    0.60
  -3  -3  -9    2.20    0.50
  -3  -3  -9    1.30    0.70
  -3  -3  -9    0.80    0.70
   3   3   9    1.40    1.70
   3   3   9    0.60    0.90
  -4  -3  -9  412.56   30.60
  -4  -3  -9  386.66   32.50
  -4  -3  -9  418.06   30.50
  -4  -3  -9  407.16   30.40
  -5  -3  -9   41.50    3.20
  -5  -3  -9   33.00    3.00
   5   3   9   37.90    4.00
   5  -4  -9   12.60    2.10
   5  -4  -9   11.40    2.20
   5  -4  -9    8.40    3.30
   4  -4  -9   41.80    3.60
   4  -4  -9   32.60    4.40
   4  -4  -9   38.20    4.80
   3  -4  -9  335.97   25.60
   3  -4  -9  337.07   23.80
   3  -4  -9  284.57   24.50
   3  -4  -9  259.47   24.40
   3  -4  -9  316.47   23.80
  -3   4   9  308.87   24.10
  -3   4   9  346.17   23.40
   2  -4  -9   24.80    4.00
   2  -4  -9   21.00    4.10
   2  -4  -9   31.00    2.70
   2  -4  -9   27.70    3.40
   2  -4  -9   25.60    3.90
   2  -4  -9   27.60    3.10
  -2   4   9   27.10    2.50
  -2   4   9   29.90    3.00
  -2   4   9   30.10    2.40
   1  -4  -9   59.69    5.70
   1  -4  -9   50.69    6.30
   1  -4  -9   53.59    5.30
  -1   4   9   67.39    4.60
  -1   4   9   55.09    5.00
  -1   4   9   62.79    4.60
   0  -4  -9 1015.10   77.39
   0  -4  -9  988.90   76.89
   0   4   9 1027.10   76.99
   0   4   9 1104.19   76.69
   0   4   9 1019.40   76.99
  -1  -4  -9   48.00    4.50
  -1  -4  -9   56.39    5.10
  -1  -4  -9   50.59    5.00
  -1  -4  -9   53.59    4.30
   1   4   9   46.30    4.90
   1   4   9   53.79    4.50
   1   4   9   61.89    4.20
  -2  -4  -9   24.80    5.60
  -2  -4  -9   25.70    3.70
  -2  -4  -9   32.00    2.70
  -2  -4  -9   29.10    2.90
   2   4   9   30.20    4.50
   2   4   9   29.40    2.50
   2   4   9   32.50    2.60
   2   4   9   24.70    2.90
  -3  -4  -9  254.57   22.80
  -3  -4  -9  333.87   22.10
   3   4   9  286.57   22.20
  -4  -4  -9   36.60    3.00
  -4  -4  -9   29.40    4.00
   4   4   9   33.20    4.30
   4   4   9   34.70    3.10
  -5  -4  -9   14.40    1.40
  -5  -4  -9   11.50    2.30
   5   4   9   13.10    2.10
   4  -5  -9   41.40    4.30
   4  -5  -9   38.10    5.80
   4  -5  -9   35.10    3.50
   3  -5  -9  195.08   20.60
   3  -5  -9  231.38   18.20
   3  -5  -9  247.58   18.90
  -3   5   9  230.08   17.00
   2  -5  -9   38.70    4.50
   2  -5  -9   53.49    5.40
   2  -5  -9   51.09    5.80
   2  -5  -9   49.50    6.00
  -2   5   9   52.19    3.90
  -2   5   9   48.50    3.80
   1  -5  -9   20.70    2.50
   1  -5  -9   17.90    3.80
   1  -5  -9   19.00    2.50
  -1   5   9   24.80    1.90
  -1   5   9   23.80    1.90
   0  -5  -9   13.90    3.30
   0  -5  -9   13.60    2.60
   0  -5  -9   15.40    2.60
   0  -5  -9   15.60    3.60
   0  -5  -9   14.70    2.60
   0   5   9   17.90    1.50
   0   5   9   17.30    2.20
   0   5   9   18.50    1.50
  -1  -5  -9   18.20    3.70
  -1  -5  -9   24.60    2.50
  -1  -5  -9   18.40    3.00
  -1  -5  -9   19.60    4.50
   1   5   9   21.60    2.00
   1   5   9   23.90    1.90
  -2  -5  -9   38.50    4.60
  -2  -5  -9   42.90    3.90
  -2  -5  -9   49.40    3.70
  -2  -5  -9   32.00    7.60
   2   5   9   43.00    5.60
   2   5   9   46.10    3.60
   2   5   9   42.40    4.00
   2   5   9   46.30    3.60
  -3  -5  -9  194.18   21.10
  -3  -5  -9  147.29   15.40
   3   5   9  201.78   15.10
  -4  -5  -9   36.40    3.90
  -4  -5  -9   42.60    3.20
   4   5   9   35.40    4.20
   4   5   9   36.40    3.30
   4  -6  -9    2.50    1.20
   4  -6  -9    3.40    1.30
   4  -6  -9    3.50    1.00
   3  -6  -9   69.39    5.30
   3  -6  -9   53.79    6.30
   2  -6  -9  124.69    9.70
   2  -6  -9  105.19    9.10
   2  -6  -9  108.59    9.10
  -2   6   9  105.09    8.40
  -2   6   9  109.49    8.40
   1  -6  -9  374.96   31.70
   1  -6  -9  433.96   30.70
   1  -6  -9  342.67   30.80
   1  -6  -9  415.86   30.40
  -1   6   9  415.06   30.00
  -1   6   9  423.86   30.00
   0  -6  -9  365.96   33.30
   0  -6  -9  429.36   32.40
   0  -6  -9  458.75   32.30
   0  -6  -9  421.36   32.70
   0   6   9  442.76   31.90
   0   6   9  432.86   31.90
   0   6   9  437.76   32.20
  -1  -6  -9  417.46   30.70
  -1  -6  -9  362.16   29.70
  -1  -6  -9  388.56   29.30
  -1  -6  -9  374.26   28.90
   1   6   9  388.26   28.70
   1   6   9  377.86   28.60
   1   6   9  367.56   28.90
  -2  -6  -9  111.29    9.40
   2   6   9  103.59    8.10
   2   6   9  102.99    8.10
   2   6   9  103.39    8.70
  -3  -6  -9   51.19    5.20
   3   6   9   51.29    4.60
   3   6   9   66.59    6.30
  -4  -6  -9    4.10    1.20
   4   6   9    3.00    0.60
   4   6   9    2.30    1.30
   3  -7  -9   11.20    2.30
   3  -7  -9   13.00    1.90
   2  -7  -9   27.30    3.10
   2  -7  -9   26.10    3.90
   2  -7  -9   32.10    3.40
   2  -7  -9   26.60    3.40
  -2   7   9   28.70    2.30
  -2   7   9   29.00    2.30
   1  -7  -9   10.80    2.00
   1  -7  -9    7.70    1.80
   1  -7  -9    9.70    1.90
   1  -7  -9   10.20    2.60
  -1   7   9    8.00    1.00
  -1   7   9    9.90    1.00
   0  -7  -9    6.80    1.40
   0  -7  -9    5.50    1.90
   0  -7  -9    7.90    1.60
   0   7   9    5.60    0.80
   0   7   9    6.50    1.20
   0   7   9    7.50    0.90
  -1  -7  -9    9.60    1.90
  -1  -7  -9    8.90    1.50
   1   7   9    7.70    1.10
   1   7   9    9.00    1.50
   1   7   9    8.20    1.10
  -2  -7  -9   25.50    2.90
   2   7   9   23.00    2.00
   2   7   9   23.20    2.30
   2   7   9   22.60    2.20
  -3  -7  -9   12.20    1.80
   3   7   9   11.20    1.40
   2  -8  -9   38.50    3.80
   2  -8  -9   36.80    3.20
   2  -8  -9   30.30    3.10
   1  -8  -9  214.58   16.60
   1  -8  -9  229.08   17.30
   1  -8  -9  229.08   16.50
  -1   8   9  207.68   16.40
  -1   8   9  200.58   16.20
   0  -8  -9   64.19    4.90
   0  -8  -9   65.19    5.00
   0  -8  -9   48.90    5.00
   0   8   9   51.09    4.40
   0   8   9   52.29    4.30
   0   8   9   54.89    4.50
   1   8   9  198.08   13.40
   1   8   9  154.58   13.30
   1   8   9  171.98   13.20
   2   8 -10   22.50    1.90
   1   8 -10    1.90    0.30
   1   8 -10    1.60    0.50
  -1  -8  10    1.10    1.10
   0   8 -10   45.90    3.20
   0   8 -10   44.70    3.40
   0   8 -10   38.50    3.30
   0  -8  10   34.70    5.10
  -1   8 -10    2.20    0.30
  -1   8 -10    1.50    0.60
  -1   8 -10    1.80    0.40
   1  -8  10    2.10    1.20
   1  -8  10    3.90    2.60
   3   7 -10   11.30    2.20
   3   7 -10   12.80    1.20
  -3  -7  10   15.10    2.20
   2   7 -10   67.39    5.80
   2   7 -10   57.19    5.20
   2   7 -10   62.89    5.20
  -2  -7  10   77.39    6.20
   1   7 -10   99.99    7.60
   1   7 -10   84.09    7.50
  -1  -7  10  110.89    8.60
   0   7 -10    3.00    0.70
   0   7 -10    2.00    0.60
   0   7 -10    0.80    0.50
   0  -7  10    1.30    1.40
   0  -7  10    2.60    1.50
  -1   7 -10   86.39    6.60
  -1   7 -10   90.79    6.70
   1  -7  10   82.89    7.30
  -2   7 -10   55.09    4.00
  -2   7 -10   53.49    4.10
  -2   7 -10   55.69    4.20
  -2   7 -10   51.39    4.30
   2  -7  10   47.70    6.10
  -3   7 -10   11.30    0.80
   3  -7  10    8.70    2.30
   3  -7  10    8.40    1.80
   3  -7  10    7.20    1.60
   4   6 -10   41.20    3.70
  -4  -6  10   43.50    4.10
   3   6 -10   31.60    3.40
   3   6 -10   34.50    2.70
  -3  -6  10   29.60    2.90
   2   6 -10    5.50    1.60
   2   6 -10    6.20    1.00
   2   6 -10    6.20    1.50
   1   6 -10  178.08   12.40
   1   6 -10  164.38   13.80
   1   6 -10  163.98   12.60
   1   6 -10  160.58   12.40
  -1  -6  10  152.58   16.30
   0   6 -10   74.29    5.80
   0   6 -10   80.19    5.70
   0   6 -10   74.49    5.90
   0  -6  10   65.89    6.90
   0  -6  10   64.49    6.80
   0  -6  10   85.19    7.00
  -1   6 -10  146.29   11.30
  -1   6 -10  165.58   11.20
  -1   6 -10  140.69   11.20
   1  -6  10  162.88   12.00
   1  -6  10  124.69   12.30
  -2   6 -10    5.50    0.70
   2  -6  10    3.00    1.40
   2  -6  10    5.40    3.20
   2  -6  10    4.00    2.50
   2  -6  10    3.90    1.70
  -3   6 -10   30.30    2.70
  -3   6 -10   32.70    2.30
  -3   6 -10   29.70    2.40
   3  -6  10   23.70    3.30
   3  -6  10   31.40    3.60
   3  -6  10   32.20    4.80
   4  -6  10   27.20    3.50
   4  -6  10   20.50    2.60
   4   5 -10   23.80    2.20
   4   5 -10   27.00    2.80
  -4  -5  10   25.30    2.40
   3   5 -10   42.50    3.20
   3   5 -10   37.50    4.00
  -3  -5  10   33.80    3.40
   2   5 -10  343.77   26.00
   2   5 -10  362.16   25.30
   2   5 -10  324.87   25.00
   2   5 -10  321.27   25.50
  -2  -5  10  331.47   25.40
   1   5 -10  187.08   14.30
   1   5 -10  189.28   14.50
   1   5 -10  191.48   15.00
   1   5 -10  203.78   14.30
  -1  -5  10  179.88   14.60
   0   5 -10  631.74   45.70
   0   5 -10  623.34   45.80
   0   5 -10  642.94   46.30
   0  -5  10  533.25   46.50
   0  -5  10  635.14   46.90
  -1   5 -10  176.68   13.10
  -1   5 -10  171.98   14.00
  -1   5 -10  173.88   13.20
  -1   5 -10  197.98   13.00
   1  -5  10  176.18   14.30
   1  -5  10  180.98   13.80
   1  -5  10  144.89   14.10
   1  -5  10  161.48   14.10
  -2   5 -10  301.47   21.90
   2  -5  10  270.27   22.80
   2  -5  10  322.67   22.80
   2  -5  10  266.17   23.60
   2  -5  10  304.27   23.00
  -3   5 -10   35.60    2.90
  -3   5 -10   36.00    3.10
  -3   5 -10   37.80    3.20
  -3   5 -10   37.00    2.80
   3  -5  10   42.30    4.30
   3  -5  10   33.60    4.70
   3  -5  10   39.50    5.10
   3  -5  10   30.70    4.00
   3  -5  10   33.30    5.90
  -4   5 -10   25.10    2.00
  -4   5 -10   26.40    1.90
   4  -5  10   22.30    3.30
   4  -5  10   22.00    4.20
   5   4 -10   14.50    1.50
   5   4 -10   10.50    1.20
  -5  -4  10   11.80    1.40
   4   4 -10  185.38   13.90
  -4  -4  10  181.58   13.50
  -4  -4  10  159.68   13.30
  -4  -4  10  175.68   13.20
   3   4 -10  279.07   22.30
   3   4 -10  307.87   22.80
   3   4 -10  303.17   22.10
  -3  -4  10  285.47   22.10
  -3  -4  10  295.47   22.00
  -3  -4  10  290.17   22.30
   2   4 -10  241.48   18.20
   2   4 -10  236.58   17.90
   2   4 -10  260.07   18.20
   2   4 -10  254.37   18.40
   2   4 -10  259.37   18.50
  -2  -4  10  219.08   18.20
  -2  -4  10  223.88   18.30
  -2  -4  10  216.88   18.00
  -2  -4  10  252.37   18.40
   1   4 -10  392.86   27.30
   1   4 -10  338.57   27.80
   1   4 -10  394.16   27.20
   1   4 -10  374.16   27.60
  -1  -4  10  325.57   28.10
  -1  -4  10  381.26   27.40
  -1  -4  10  341.77   27.40
   0   4 -10  788.32   58.99
   0   4 -10  883.41   58.89
   0  -4  10  818.32   59.89
   0  -4  10  726.23   62.09
   0  -4  10  771.62   58.99
   0  -4  10  759.02   59.59
  -1   4 -10  414.56   27.40
  -1   4 -10  366.26   27.40
  -1   4 -10  369.26   27.50
  -1   4 -10  383.56   27.90
   1  -4  10  383.46   28.10
   1  -4  10  334.87   28.40
   1  -4  10  332.47   28.40
   1  -4  10  349.47   28.10
  -2   4 -10  252.77   18.40
  -2   4 -10  219.98   18.10
  -2   4 -10  247.98   18.70
   2  -4  10  247.18   19.00
  -3   4 -10  295.57   21.60
  -3   4 -10  333.57   22.00
  -3   4 -10  275.57   21.80
  -3   4 -10  287.57   21.70
   3  -4  10  268.77   22.70
   3  -4  10  276.27   22.60
   3  -4  10  309.77   25.00
   3  -4  10  274.37   22.20
  -4   4 -10  182.68   14.50
  -4   4 -10  195.48   14.50
   4  -4  10  206.38   17.10
   4  -4  10  192.38   16.10
  -5   4 -10   12.10    1.10
   5  -4  10   12.50    2.20
   5  -4  10   13.40    3.00
   5   3 -10   37.00    2.90
  -5  -3  10   33.70    2.80
  -5  -3  10   32.70    3.00
  -5  -3  10   35.70    3.00
   4   3 -10   15.60    4.90
   4   3 -10   18.30    2.80
   4   3 -10   14.50    2.30
  -4  -3  10   13.70    1.50
  -4  -3  10   15.60    1.80
  -4  -3  10   13.10    1.70
   3   3 -10  228.68   16.20
   3   3 -10  218.98   16.80
   3   3 -10  243.28   16.60
   3   3 -10  174.78   19.20
  -3  -3  10  203.08   16.30
  -3  -3  10  212.98   16.30
   2   3 -10   60.49    5.00
   2   3 -10   67.39    4.90
   2   3 -10   62.79    5.00
   2   3 -10   59.19    4.70
   2   3 -10   53.29    5.40
  -2  -3  10   61.89    5.10
  -2  -3  10   59.79    4.80
  -2  -3  10   57.09    4.90
  -2  -3  10   54.59    4.70
   1   3 -10  461.95   33.20
   1   3 -10  414.86   33.80
   1   3 -10  435.06   54.59
   1   3 -10  482.75   33.60
  -1  -3  10  463.65   33.40
  -1  -3  10  461.45   33.70
  -1  -3  10  397.96   33.30
   0   3 -10  398.86   30.30
   0   3 -10  453.45   30.30
   0   3 -10  379.86   30.40
   0   3 -10  382.06   30.70
   0   3 -10  378.96   34.70
   0   3 -10  464.45   46.50
   0  -3  10  414.06   66.09
   0  -3  10  451.35   31.00
   0  -3  10  409.76   30.40
   0  -3  10  373.96   32.30
  -1   3 -10  464.05   35.20
  -1   3 -10  507.95   35.30
  -1   3 -10  459.65   35.10
  -1   3 -10  460.15   35.50
   1  -3  10  411.36   36.60
   1  -3  10  523.65   35.90
  -2   3 -10   58.09    4.40
  -2   3 -10   56.79    5.00
  -2   3 -10   54.29    4.60
  -2   3 -10   55.19    4.30
  -2   3 -10   65.99    4.80
   2  -3  10   48.00    5.80
   2  -3  10   43.90    7.30
   2  -3  10   56.89    5.40
   2  -3  10   62.99    5.20
  -3   3 -10  225.38   17.70
  -3   3 -10  231.78   17.90
  -3   3 -10  223.28   17.80
  -3   3 -10  239.08   18.10
  -3   3 -10  272.67   18.80
  -3   3 -10  232.98   17.60
   3  -3  10  262.37   21.00
   3  -3  10  220.58   18.60
   3  -3  10  235.98   19.70
   3  -3  10  236.58   18.90
   3  -3  10  222.58   18.50
  -4   3 -10   14.70    1.20
  -4   3 -10   10.90    1.60
  -4   3 -10   15.40    1.40
   4  -3  10   14.70    2.80
   4  -3  10   16.10    3.60
   4  -3  10   13.30    3.50
  -5   3 -10   36.70    3.00
  -5   3 -10   39.90    3.00
   5  -3  10   38.30    5.00
   5   2 -10   16.80    3.30
   5   2 -10   22.40    2.00
   5   2 -10   24.30    5.40
  -5  -2  10   24.20    2.20
  -5  -2  10   24.40    2.00
  -5  -2  10   23.20    2.10
   4   2 -10   56.19    5.00
   4   2 -10   46.10    5.70
   4   2 -10   61.09    4.90
  -4  -2  10   56.09    4.60
  -4  -2  10   53.79    4.40
  -4  -2  10   54.59    4.50
   3   2 -10   -0.20    0.80
   3   2 -10    1.40    2.10
   3   2 -10   -0.30    0.90
  -3  -2  10    2.10    0.70
  -3  -2  10    1.60    0.90
  -3  -2  10    0.70    0.50
  -3  -2  10    0.60    0.80
   2   2 -10  239.38   20.80
   2   2 -10  270.07   19.80
   2   2 -10  292.37   20.10
   2   2 -10  262.27   20.30
   2   2 -10  278.57   20.00
   2   2 -10  276.97   20.00
  -2  -2  10  246.18   19.80
  -2  -2  10  270.57   20.00
  -2  -2  10  243.38   19.90
   1   2 -10  106.99    8.30
   1   2 -10  129.39   26.30
   1   2 -10  114.49    8.50
   1   2 -10  103.69    8.20
   1   2 -10   96.19   13.60
   1   2 -10  111.39    8.50
  -1  -2  10  118.99    8.50
  -1  -2  10  110.79    8.40
  -1  -2  10   78.89   27.50
  -1  -2  10  109.69    8.30
   0   2 -10  496.35   37.20
   0   2 -10  526.35   39.00
   0   2 -10  497.05   37.50
   0   2 -10  506.55   37.20
   0  -2  10  462.85   37.20
   0  -2  10  456.05   37.30
   0  -2  10  508.55   54.79
   0  -2  10  554.44   37.30
  -1   2 -10  103.49    8.30
  -1   2 -10  106.59    8.00
  -1   2 -10   86.29   19.80
  -1   2 -10  109.39   10.10
  -1   2 -10  112.39    8.10
  -1   2 -10  105.09    8.40
   1  -2  10  127.39   25.90
  -2   2 -10  317.97   22.80
  -2   2 -10  287.97   22.60
  -2   2 -10  302.27   22.40
  -2   2 -10  301.47   22.50
  -2   2 -10  319.47   22.80
   2  -2  10  320.77   23.10
   2  -2  10  278.17   23.60
   2  -2  10  282.97   23.80
  -3   2 -10    0.90    0.50
  -3   2 -10    0.70    0.60
  -3   2 -10    0.80    0.80
  -3   2 -10    1.60    0.80
  -3   2 -10    1.50    0.30
   3  -2  10    6.40    3.20
   3  -2  10    1.80    2.80
   3  -2  10    1.00    1.90
   3  -2  10    0.50    1.50
   3  -2  10    0.10    1.00
  -4   2 -10   67.79    4.80
  -4   2 -10   57.79    4.90
  -4   2 -10   62.59    4.70
   4  -2  10   55.79    5.60
  -5   2 -10   27.40    2.20
  -5   2 -10   24.60    2.40
  -5   2 -10   28.40    2.10
   5  -2  10   27.80    4.80
   5  -2  10   23.30    4.00
   5  -2  10   26.20    3.80
   5   1 -10   57.99    4.00
   5   1 -10   39.40    6.90
   5   1 -10   50.19    5.30
   5   1 -10   40.60    4.70
  -5  -1  10   49.80    3.90
  -5  -1  10   51.29    4.10
  -5  -1  10   50.89    4.30
   4   1 -10   57.89    6.10
   4   1 -10   72.09    5.50
   4   1 -10   64.19    5.70
   4   1 -10   64.39    8.80
   4   1 -10   62.79    5.20
  -4  -1  10   68.29    5.30
  -4  -1  10   61.29    5.00
  -4  -1  10   64.19    5.20
   3   1 -10  107.69    8.80
   3   1 -10  117.89    8.90
   3   1 -10  105.29    9.90
  -3  -1  10  102.79    8.40
  -3  -1  10  117.39    8.60
  -3  -1  10  111.69    8.50
  -3  -1  10  107.19    8.70
   2   1 -10  297.37   28.70
   2   1 -10  379.36   28.50
   2   1 -10  329.37   26.20
   2   1 -10  359.16   26.50
   2   1 -10  363.16   26.30
   2   1 -10  338.47   26.10
  -2  -1  10  400.86   29.10
  -2  -1  10  335.97   26.10
  -2  -1  10  385.96   26.30
  -2  -1  10  305.17   26.00
   1   1 -10  594.34   47.80
   1   1 -10  678.63   46.50
   1   1 -10  637.54   46.30
  -1  -1  10  596.44   46.30
  -1  -1  10  617.84   46.30
  -1  -1  10  666.33   46.40
  -1  -1  10  543.65   59.39
  -1  -1  10  602.84   48.30
   0   1 -10 1075.89   78.99
   0   1 -10  904.41   78.59
   0   1 -10 1152.98   78.39
   0   1 -10  985.50   79.79
   0   1 -10  998.60   78.69
   0   1 -10 1209.58   87.29
   0  -1  10 1127.49   78.49
   0  -1  10  960.90   78.49
   0  -1  10 1149.98   89.09
  -1   1 -10  793.42   54.59
  -1   1 -10  691.13   52.89
  -1   1 -10  686.93   52.79
  -1   1 -10  729.83   53.09
  -1   1 -10  698.23   53.09
  -1   1 -10  696.73   63.79
   1  -1  10  752.42   63.99
   1  -1  10  651.03   52.79
  -2   1 -10  392.46   28.20
  -2   1 -10  396.46   27.90
  -2   1 -10  343.47   50.39
  -2   1 -10  402.26   28.00
  -2   1 -10  400.36   28.30
   2  -1  10  400.86   50.99
   2  -1  10  329.17   28.90
   2  -1  10  324.17   30.20
  -3   1 -10  108.29    9.40
  -3   1 -10  116.79    9.30
  -3   1 -10  105.19    9.20
  -3   1 -10  120.79    9.00
  -3   1 -10  125.29    9.10
   3  -1  10  123.89   10.30
   3  -1  10  125.79   11.70
   3  -1  10  122.59    9.70
   3  -1  10  133.49   12.30
  -4   1 -10   65.69    5.30
  -4   1 -10   75.79    5.20
  -4   1 -10   67.09    5.00
   4  -1  10   55.69    7.30
   4  -1  10   59.29    6.10
  -5   1 -10   52.89    4.60
  -5   1 -10   61.69    4.50
  -5   1 -10   59.79    4.60
   5  -1  10   63.29    6.20
   5  -1  10   50.89    5.90
   5   0 -10   52.29    7.10
   5   0 -10   54.79    5.10
  -5   0  10   50.69    4.20
  -5   0  10   51.69    4.10
  -5   0  10   54.99    4.40
   4   0 -10  238.48   17.50
   4   0 -10  226.38   17.10
   4   0 -10  228.18   17.20
   4   0 -10  200.08   19.60
  -4   0  10  231.68   17.00
  -4   0  10  222.08   17.10
  -4   0  10  226.18   16.90
   3   0 -10  127.79   12.20
   3   0 -10  151.68   11.70
   3   0 -10  150.68   11.70
   3   0 -10  138.49   11.40
   3   0 -10  168.38   14.40
   3   0 -10  125.79   12.50
  -3   0  10  156.38   11.60
  -3   0  10  156.88   11.30
  -3   0  10  150.48   11.50
  -3   0  10  171.58   11.40
   2   0 -10  932.81   66.59
   2   0 -10  825.92   68.29
   2   0 -10  945.11   67.39
  -2   0  10  879.71   66.29
  -2   0  10  949.60   66.49
  -2   0  10  816.22   66.29
   1   0 -10 3129.29  234.08
   1   0 -10 3174.88  235.18
  -1   0  10 3032.70  233.88
  -1   0  10 3166.98  233.88
  -1   0  10 3263.27  242.88
   0   0 -10   17.10    1.70
   0   0 -10   26.60    3.90
   0   0 -10   17.80    1.90
   0   0 -10   20.40   11.00
   0   0  10   12.60   10.30
   0   0  10   20.20    1.70
   0   0  10   19.10    1.70
  -1   0 -10 3314.77  251.57
  -1   0 -10 3405.76  251.87
  -1   0 -10 3500.15  261.27
  -1   0 -10 3281.47  251.47
   1   0  10 3385.26  251.57
   1   0  10 3462.75  251.57
  -2   0 -10  966.80   76.89
  -2   0 -10 1011.90   95.39
  -2   0 -10 1107.89   79.99
  -2   0 -10 1003.30   76.89
  -2   0 -10 1011.70   76.59
  -2   0 -10 1006.20   76.59
   2   0  10 1021.40   79.09
   2   0  10  981.70   77.69
   2   0  10 1032.30   76.79
   2   0  10 1180.18   84.79
  -3   0 -10  179.48   13.00
  -3   0 -10  174.98   12.90
  -3   0 -10  155.08   13.20
  -3   0 -10  146.79   13.00
   3   0  10  186.18   16.30
   3   0  10  179.28   15.20
   3   0  10  169.98   14.10
   3   0  10  182.08   13.40
  -4   0 -10  263.17   18.80
  -4   0 -10  222.48   18.90
  -4   0 -10  254.07   18.70
   4   0  10  261.27   20.00
  -5   0 -10   61.79    4.60
  -5   0 -10   61.09    4.70
  -5   0 -10   57.19    4.80
   5   0  10   61.79    6.10
   5   0  10   53.49    5.40
   5  -1 -10   43.70    4.70
   5  -1 -10   37.30    6.30
   5  -1 -10   54.69    4.00
  -5   1  10   48.60    3.90
  -5   1  10   47.80    3.70
   4  -1 -10   48.30    5.70
   4  -1 -10   57.79    7.70
   4  -1 -10   60.79    4.80
   4  -1 -10   59.49    6.10
   4  -1 -10   55.49    5.20
  -4   1  10   59.69    4.50
  -4   1  10   63.19    4.60
   3  -1 -10  114.59    8.10
   3  -1 -10  101.69    8.30
   3  -1 -10   95.89    8.30
  -3   1  10  111.59    8.00
  -3   1  10  100.79    8.20
  -3   1  10   99.79    7.90
   2  -1 -10  263.97   25.20
   2  -1 -10  319.17   25.80
   2  -1 -10  313.87   24.10
   2  -1 -10  303.07   24.60
  -2   1  10  342.17   23.90
  -2   1  10  357.96   24.00
  -2   1  10  342.27   24.00
  -2   1  10  308.07   23.80
   1  -1 -10  610.24   43.70
   1  -1 -10  523.15   44.60
   1  -1 -10  574.24   44.60
   1  -1 -10  482.75   53.49
   1  -1 -10  578.94   43.50
  -1   1  10  625.04   43.40
  -1   1  10  614.74   53.39
  -1   1  10  589.34   43.60
  -1   1  10  619.54   43.40
   0  -1 -10 1089.49   88.39
   0  -1 -10  976.30   78.39
   0  -1 -10 1010.30   78.69
   0  -1 -10 1011.60   78.39
   0   1  10 1185.58   86.79
   0   1  10 1094.99   78.59
   0   1  10 1022.20   78.69
   0   1  10 1095.39   78.49
  -1  -1 -10  584.44   47.60
  -1  -1 -10  589.64   59.09
  -1  -1 -10  577.34   45.90
  -1  -1 -10  680.83   45.80
   1   1  10  610.84   45.80
   1   1  10  657.13   45.60
   1   1  10  631.14   45.60
   1   1  10  589.84   59.49
   1   1  10  572.74   47.80
  -2  -1 -10  341.77   25.70
  -2  -1 -10  339.27   25.80
  -2  -1 -10  296.27   25.50
  -2  -1 -10  362.36   55.49
  -2  -1 -10  295.97   25.50
  -2  -1 -10  321.77   25.60
   2   1  10  355.16   26.70
   2   1  10  329.27   25.80
   2   1  10  372.56   25.80
   2   1  10  386.66   28.60
   2   1  10  386.96   29.80
   2   1  10  343.67   25.50
  -3  -1 -10  100.89    8.30
  -3  -1 -10  103.19    9.50
  -3  -1 -10  109.89    8.20
  -3  -1 -10  111.89    8.60
  -3  -1 -10   97.29    8.40
   3   1  10  118.19    9.70
   3   1  10  102.09    8.50
   3   1  10  127.29   12.40
  -4  -1 -10   60.69    5.30
  -4  -1 -10   65.19    5.10
  -4  -1 -10   67.89    5.20
   4   1  10   67.09    6.50
   4   1  10   64.89    7.00
  -5  -1 -10   56.89    4.30
  -5  -1 -10   56.79    4.40
  -5  -1 -10   51.99    4.50
   5   1  10   52.59    5.40
   5   1  10   60.89    5.70
   5  -2 -10   24.40    2.30
   5  -2 -10   21.40    4.40
   5  -2 -10   23.70    3.10
  -5   2  10   23.30    2.00
  -5   2  10   23.00    2.00
   4  -2 -10   46.80    6.10
   4  -2 -10   51.69    4.80
   4  -2 -10   50.99    5.70
   4  -2 -10   52.89    5.40
   4  -2 -10   54.19    7.20
   4  -2 -10   51.79    4.40
  -4   2  10   58.19    4.20
  -4   2  10   54.99    4.10
   3  -2 -10    2.10    1.00
   3  -2 -10   -0.20    2.70
   3  -2 -10    0.80    1.80
   3  -2 -10    1.00    2.60
  -3   2  10    0.70    0.50
  -3   2  10    1.70    0.60
  -3   2  10    0.70    0.60
   2  -2 -10  258.67   20.00
   2  -2 -10  273.47   20.70
   2  -2 -10  278.87   20.00
  -2   2  10  264.87   19.80
  -2   2  10  280.17   19.90
  -2   2  10  230.38   19.70
   1  -2 -10  101.99    8.20
   1  -2 -10  108.29    9.70
   1  -2 -10  110.39    8.10
   1  -2 -10  103.99    9.80
  -1   2  10  102.89    8.00
  -1   2  10  105.89    8.20
  -1   2  10   98.49    7.90
  -1   2  10  105.59   10.80
   0  -2 -10  483.95   39.50
   0  -2 -10  465.85   39.40
   0  -2 -10  633.64   54.89
   0  -2 -10  513.35   39.20
   0   2  10  591.04   49.20
   0   2  10  522.65   39.50
   0   2  10  533.25   39.20
   0   2  10  547.85   39.20
   0   2  10  527.25   41.70
  -1  -2 -10  105.89    9.10
  -1  -2 -10  130.29   27.50
  -1  -2 -10  129.59    9.00
   1   2  10  118.59   12.30
   1   2  10  114.69   25.40
   1   2  10  123.79   12.60
   1   2  10  112.99    8.80
   1   2  10  111.19    9.10
   1   2  10  113.79    8.80
  -2  -2 -10  273.17   20.10
  -2  -2 -10  230.38   19.90
  -2  -2 -10  280.57   20.10
  -2  -2 -10  218.48   20.20
  -2  -2 -10  231.68   68.49
  -2  -2 -10  244.48   20.70
   2   2  10  257.37   20.20
   2   2  10  274.87   19.90
   2   2  10  301.07   23.70
   2   2  10  300.07   26.20
   2   2  10  273.47   19.90
   2   2  10  282.97   22.20
   2   2  10  272.07   20.20
   2   2  10  305.87   52.89
  -3  -2 -10    0.20    2.00
  -3  -2 -10    1.70    0.50
  -3  -2 -10    1.70    0.80
  -3  -2 -10    0.20    0.90
   3   2  10    4.20    4.30
   3   2  10    1.10    0.90
   3   2  10   -0.10    3.50
  -4  -2 -10   58.29    4.60
  -4  -2 -10   54.49    4.40
  -4  -2 -10   56.09    4.70
  -4  -2 -10   46.50    5.90
   4   2  10   62.59    6.10
   4   2  10   61.39    6.20
  -5  -2 -10   25.00    2.10
  -5  -2 -10   25.50    2.30
  -5  -2 -10   25.30    2.30
   5   2  10   24.00    3.20
   5  -3 -10   24.20    3.60
   5  -3 -10   17.10    3.70
   5  -3 -10   23.80    2.40
   4  -3 -10   10.50    2.70
   4  -3 -10   13.60    1.70
   4  -3 -10   13.60    3.60
   4  -3 -10   14.70    2.30
   4  -3 -10   13.50    3.50
  -4   3  10   11.10    1.30
  -4   3  10   10.30    1.40
   3  -3 -10  213.48   15.40
   3  -3 -10  177.68   16.80
   3  -3 -10  181.68   16.20
   3  -3 -10  214.18   15.30
   3  -3 -10  192.88   16.10
  -3   3  10  182.48   14.90
  -3   3  10  217.08   15.40
  -3   3  10  208.28   14.90
   2  -3 -10   55.49    5.80
   2  -3 -10   51.89    4.60
   2  -3 -10   45.50    6.10
   2  -3 -10   59.29    4.50
   2  -3 -10   64.69    5.70
  -2   3  10   57.29    4.30
  -2   3  10   51.89    4.60
  -2   3  10   49.60    4.20
  -2   3  10   54.89    4.40
   1  -3 -10  478.65   35.40
   1  -3 -10  444.86   36.00
   1  -3 -10  498.45   35.90
   1  -3 -10  534.45   37.20
   1  -3 -10  486.75   36.50
  -1   3  10  463.95   35.30
  -1   3  10  422.86   35.30
  -1   3  10  461.35   35.60
   0  -3 -10  351.36   30.80
   0  -3 -10  318.47   29.20
   0   3  10  377.56   29.00
   0   3  10  421.26   31.50
   0   3  10  429.16   28.70
   0   3  10  408.56   28.70
  -1  -3 -10  455.85   35.00
  -1  -3 -10  490.15   35.00
   1   3  10  460.85   35.20
   1   3  10  438.96   35.10
   1   3  10  481.85   34.90
   1   3  10  475.15   34.90
  -2  -3 -10   48.80    5.40
  -2  -3 -10   56.89    4.80
  -2  -3 -10   63.49    4.70
  -2  -3 -10   55.09    4.60
   2   3  10   56.89    4.50
   2   3  10   60.69   11.60
   2   3  10   52.29    4.80
   2   3  10   62.39    5.70
   2   3  10   55.29    5.90
   2   3  10   57.19    4.50
  -3  -3 -10  213.78   15.40
  -3  -3 -10  180.18   15.00
  -3  -3 -10  200.18   15.30
  -3  -3 -10  178.88   15.10
  -3  -3 -10  213.18   16.20
   3   3  10  217.08   16.60
   3   3  10  198.98   15.40
  -4  -3 -10   14.40    1.60
  -4  -3 -10    9.20    1.50
  -4  -3 -10   12.70    3.00
  -4  -3 -10   12.80    1.40
   4   3  10   14.20    1.80
  -5  -3 -10   28.00    2.50
   5   3  10   20.00    3.40
   5  -4 -10    8.50    1.20
   5  -4 -10    8.80    1.80
   5  -4 -10    8.80    2.00
   4  -4 -10  159.48   11.80
   4  -4 -10  128.79   12.80
   4  -4 -10  168.78   12.70
   3  -4 -10  312.37   23.50
   3  -4 -10  291.77   22.70
   3  -4 -10  296.47   22.70
  -3   4  10  288.27   22.30
   2  -4 -10  236.68   16.90
   2  -4 -10  201.28   18.50
   2  -4 -10  215.08   17.00
  -2   4  10  223.58   16.60
  -2   4  10  230.98   16.70
   1  -4 -10  297.67   28.00
   1  -4 -10  396.76   28.90
   1  -4 -10  401.46   27.40
   1  -4 -10  314.07   26.70
   1  -4 -10  367.76   27.40
   1  -4 -10  330.47   27.10
  -1   4  10  370.36   26.40
  -1   4  10  313.97   26.80
  -1   4  10  393.76   26.40
   0  -4 -10  611.34   49.70
   0  -4 -10  666.53   48.80
   0  -4 -10  611.34   48.40
   0   4  10  646.74   48.60
   0   4  10  666.43   48.40
   0   4  10  679.53   48.60
  -1  -4 -10  269.57   24.40
  -1  -4 -10  312.47   24.00
  -1  -4 -10  274.37   24.40
   1   4  10  319.37   24.00
   1   4  10  328.57   24.20
   1   4  10  356.06   23.80
   1   4  10  358.16   23.70
  -2  -4 -10  253.17   18.00
   2   4  10  234.28   18.70
   2   4  10  230.48   17.30
   2   4  10  223.98   17.30
   2   4  10  206.58   17.60
  -3  -4 -10  285.37   22.30
  -3  -4 -10  293.77   21.40
   3   4  10  268.87   21.50
  -4  -4 -10  179.18   14.00
  -4  -4 -10  177.28   13.20
   4   4  10  164.48   14.20
   4   4  10  168.58   13.20
  -5  -4 -10   11.50    1.20
   5   4  10   10.70    1.90
   4  -5 -10   20.50    3.40
   4  -5 -10   28.70    3.20
   4  -5 -10   25.30    2.60
   4  -5 -10   23.50    3.20
   3  -5 -10   29.50    4.60
   3  -5 -10   37.60    3.60
   3  -5 -10   42.30    4.60
   3  -5 -10   30.90    4.20
  -3   5  10   34.30    2.80
   2  -5 -10  299.67   25.50
   2  -5 -10  329.57   25.70
   2  -5 -10  355.76   26.30
  -2   5  10  351.16   25.10
  -2   5  10  343.67   25.10
   1  -5 -10  129.39   13.00
   1  -5 -10  143.49   11.90
   1  -5 -10  134.79   11.70
  -1   5  10  163.88   11.30
  -1   5  10  172.38   11.30
   0  -5 -10  464.65   39.60
   0  -5 -10  493.45   40.10
   0   5  10  528.15   39.60
   0   5  10  575.14   39.30
   0   5  10  571.24   39.30
  -1  -5 -10  148.49   13.60
  -1  -5 -10  135.19   12.10
  -1  -5 -10  140.69   11.60
   1   5  10  163.68   11.30
   1   5  10  143.69   11.60
   1   5  10  162.88   11.40
  -2  -5 -10  330.27   22.90
  -2  -5 -10  297.27   25.70
  -2  -5 -10  287.17   23.70
  -2  -5 -10  306.37   23.10
   2   5  10  321.57   22.90
   2   5  10  302.27   22.80
   2   5  10  286.77   23.10
   2   5  10  299.37   24.20
  -3  -5 -10   40.50    3.10
  -3  -5 -10   31.70    3.90
   3   5  10   30.50    4.60
   3   5  10   32.00    3.20
  -4  -5 -10   28.30    2.50
  -4  -5 -10   27.90    3.60
   4   5  10   22.20    2.40
   4  -6 -10   30.60    2.80
   3  -6 -10   28.30    4.00
   3  -6 -10   29.60    3.00
  -3   6  10   28.80    2.60
   2  -6 -10    5.00    1.50
   2  -6 -10    4.60    1.40
   2  -6 -10    4.60    2.30
   2  -6 -10    5.00    1.80
  -2   6  10    4.30    0.70
   1  -6 -10  118.09   10.70
   1  -6 -10  116.49   10.10
   1  -6 -10  118.49   11.40
   1  -6 -10  140.49   10.40
  -1   6  10  133.79    9.70
  -1   6  10  134.69    9.70
   0  -6 -10   55.49    5.70
   0  -6 -10   53.59    5.20
   0  -6 -10   72.69    6.40
   0  -6 -10   53.29    6.30
   0   6  10   61.59    5.10
   0   6  10   62.89    4.70
   0   6  10   62.59    5.00
  -1  -6 -10  137.39   11.00
  -1  -6 -10  145.49   13.30
  -1  -6 -10  119.29   10.50
  -1  -6 -10  156.38   13.00
   1   6  10  133.89   10.30
   1   6  10  133.59   10.20
   1   6  10  120.49   10.50
  -2  -6 -10    4.40    5.20
  -2  -6 -10    8.50    1.90
   2   6  10    5.50    0.80
   2   6  10    4.00    0.80
   2   6  10    4.20    1.10
  -3  -6 -10   26.70    3.30
   3   6  10   27.80    2.70
   3   6  10   31.30    4.10
  -4  -6 -10   35.40    3.30
   4   6  10   29.30    2.80
   3  -7 -10   12.30    1.90
   3  -7 -10   11.70    2.10
   2  -7 -10   54.29    4.80
   2  -7 -10   58.29    5.80
   2  -7 -10   57.09    4.90
   2  -7 -10   50.39    5.00
  -2   7  10   53.99    4.40
  -2   7  10   53.29    4.20
   1  -7 -10   84.79    7.00
   1  -7 -10   70.59    7.60
   1  -7 -10   78.89    7.10
   1  -7 -10   88.19    6.90
  -1   7  10   82.39    6.30
  -1   7  10   85.19    6.30
   0  -7 -10    2.10    1.20
   0  -7 -10    1.20    1.20
   0  -7 -10    1.70    1.40
   0   7  10    0.90    0.50
   0   7  10    1.40    0.70
   0   7  10    3.00    0.90
  -1  -7 -10   71.39    6.10
   1   7  10   78.09    5.90
   1   7  10   77.39    5.80
   1   7  10   74.79    6.10
  -2  -7 -10   54.59    4.50
   2   7  10   46.30    4.00
   2   7  10   41.30    3.80
   2   7  10   45.60    3.70
  -3  -7 -10   13.30    1.80
   3   7  10   10.70    1.40
   1  -8 -10    2.50    0.80
   1  -8 -10    2.30    1.00
   1  -8 -10    2.90    1.30
  -1   8  10    1.40    0.40
  -1   8  10    1.70    0.60
   0  -8 -10   37.40    3.60
   0  -8 -10   45.00    5.00
   0  -8 -10   46.90    3.80
   0   8  10   39.70    3.50
   0   8  10   39.90    3.30
   0   8  10   36.70    3.20
  -1  -8 -10    2.40    1.00
   1   8  10    1.90    0.40
   1   8  10    1.70    0.60
   1   8 -11    8.10    0.90
   1   8 -11    7.50    1.10
  -1  -8  11    5.80    1.40
   0   8 -11    2.00    0.60
   0   8 -11    2.00    0.30
   0   8 -11    2.20    0.50
   0  -8  11    1.20    1.90
  -1   8 -11    7.00    1.00
  -1   8 -11    7.70    0.80
  -1   8 -11    7.60    0.70
   1  -8  11    6.10    1.80
   3   7 -11   16.50    1.50
   3   7 -11   14.60    1.90
  -3  -7  11   16.20    2.20
   2   7 -11  133.39   10.60
   2   7 -11  141.79   10.10
  -2  -7  11  122.19   11.30
   1   7 -11  158.98   11.10
   1   7 -11  133.39   11.10
   1   7 -11  145.39   10.80
   1   7 -11  132.89   10.90
  -1  -7  11  154.38   11.90
   0   7 -11  127.19    9.00
   0   7 -11  136.99    9.10
   0  -7  11  101.29    9.90
   0  -7  11  107.49    9.80
  -1   7 -11  130.79   10.40
  -1   7 -11  136.99   10.20
   1  -7  11  141.99   11.50
  -2   7 -11  110.59    9.10
  -2   7 -11  127.19    9.30
  -2   7 -11  124.29    9.00
  -2   7 -11  128.59    9.10
   2  -7  11  107.79   11.10
  -3   7 -11   13.20    1.00
   3  -7  11   10.20    2.40
   3   6 -11   25.90    3.60
   3   6 -11   32.40    2.50
  -3  -6  11   23.60    2.60
   2   6 -11  400.76   30.10
   2   6 -11  384.86   29.60
   2   6 -11  396.46   29.50
   1   6 -11   60.19    4.90
   1   6 -11   64.79    5.80
   0   6 -11  175.48   11.60
   0   6 -11  142.09   11.80
   0   6 -11  150.38   11.70
   0  -6  11  154.38   12.80
   0  -6  11  149.88   12.80
  -1   6 -11   63.29    4.80
  -1   6 -11   59.89    4.70
   1  -6  11   53.99    5.40
   1  -6  11   66.59    6.30
  -2   6 -11  337.17   25.50
  -2   6 -11  318.97   25.20
  -2   6 -11  365.16   25.30
  -2   6 -11  334.97   25.10
   2  -6  11  329.07   27.70
  -3   6 -11   24.00    2.10
  -3   6 -11   25.20    2.50
  -3   6 -11   29.00    2.00
   3  -6  11   26.90    3.70
   3  -6  11   22.00    3.00
   3  -6  11   26.00    4.40
   4   5 -11   18.80    2.50
  -4  -5  11   24.80    3.10
  -4  -5  11   18.50    2.10
   3   5 -11  197.28   14.60
   3   5 -11  197.48   15.20
  -3  -5  11  183.38   14.80
   2   5 -11   53.49    5.00
   2   5 -11   59.99    4.60
   2   5 -11   59.59    4.70
   2   5 -11   52.09    5.20
  -2  -5  11   52.99    4.80
  -2  -5  11   74.09   17.90
   1   5 -11   29.80    3.30
   1   5 -11   30.90    2.40
   1   5 -11   34.70    2.70
   1   5 -11   26.50    3.30
  -1  -5  11   27.80    2.90
  -1  -5  11   22.60    4.30
  -1  -5  11   31.90    8.20
  -1  -5  11   26.70    3.80
   0   5 -11   49.99    4.00
   0   5 -11   48.50    4.20
   0   5 -11   48.70    5.20
   0   5 -11   52.29    4.20
   0  -5  11   49.60    5.00
   0  -5  11   59.59    5.60
  -1   5 -11   32.80    2.70
  -1   5 -11   33.30    3.50
  -1   5 -11   37.00    2.70
  -1   5 -11   30.80    2.80
   1  -5  11   40.20    4.30
   1  -5  11   25.80    4.30
   1  -5  11   30.80    3.90
   1  -5  11   31.80    3.70
  -2   5 -11   50.79    4.10
  -2   5 -11   52.89    3.70
  -2   5 -11   45.80    3.90
   2  -5  11   39.20    7.10
   2  -5  11   42.90    5.00
   2  -5  11   47.40    4.80
   2  -5  11   52.19    5.10
  -3   5 -11  173.08   13.80
  -3   5 -11  185.08   13.70
  -3   5 -11  182.78   14.00
  -3   5 -11  197.58   13.90
   3  -5  11  200.98   15.30
   3  -5  11  174.08   16.50
   3  -5  11  171.68   14.70
  -4   5 -11   16.60    1.40
  -4   5 -11   16.60    1.30
   4  -5  11   17.40    4.40
   4  -5  11   15.90    2.70
   4  -5  11   11.70    2.30
   5   4 -11   47.40    3.90
  -5  -4  11   54.69    4.10
   4   4 -11   10.90    1.20
   4   4 -11   12.30    1.90
  -4  -4  11   11.90    2.50
  -4  -4  11   12.10    1.60
  -4  -4  11    9.40    1.20
   3   4 -11   81.69    6.00
   3   4 -11   73.99    6.40
   3   4 -11   80.59    6.70
  -3  -4  11   75.29    6.20
  -3  -4  11   72.39    6.10
  -3  -4  11   73.79    5.90
   2   4 -11   23.90    2.30
   2   4 -11   24.60    3.10
   2   4 -11   26.30    2.80
   2   4 -11   25.00    2.20
   2   4 -11   25.10    2.60
  -2  -4  11   20.70    2.10
  -2  -4  11   25.00    2.60
  -2  -4  11   22.00    2.50
   1   4 -11  144.89   10.00
   1   4 -11  137.79   10.30
   1   4 -11  122.99   10.50
   1   4 -11  137.89    9.80
  -1  -4  11  129.29   10.40
  -1  -4  11  114.89   10.80
  -1  -4  11  119.79   10.10
  -1  -4  11  130.89   10.40
   0   4 -11  138.89   11.30
   0   4 -11  156.68   10.70
   0   4 -11  134.89   10.90
   0   4 -11  139.29   10.80
   0  -4  11  144.59   11.60
  -1   4 -11  143.99   10.60
  -1   4 -11  137.19   10.00
  -1   4 -11  131.69    9.90
   1  -4  11  113.39   11.20
   1  -4  11  142.69   10.90
   1  -4  11  119.69   10.60
  -2   4 -11   23.40    1.80
  -2   4 -11   26.40    2.50
  -2   4 -11   21.00    2.20
  -2   4 -11   23.00    1.90
   2  -4  11   24.40    3.40
   2  -4  11   20.00    3.20
   2  -4  11   17.40    3.70
   2  -4  11   27.80    3.70
   2  -4  11   15.80    4.60
  -3   4 -11   72.19    5.70
  -3   4 -11   77.89    5.60
  -3   4 -11   80.49    6.00
  -3   4 -11   74.99    5.80
   3  -4  11   60.89    6.70
   3  -4  11   69.59    6.80
   3  -4  11   74.69    6.50
   3  -4  11   74.99    6.90
   3  -4  11   82.09    9.20
  -4   4 -11   12.20    1.10
  -4   4 -11   10.50    1.50
  -4   4 -11   12.70    1.30
   4  -4  11   13.20    3.00
   4  -4  11    9.60    2.40
   4  -4  11   14.60    3.80
  -5   4 -11   55.29    4.10
   5  -4  11   53.59    5.70
   5  -4  11   53.49    5.10
   5   3 -11    4.20    0.70
   5   3 -11    5.70    1.00
  -5  -3  11    4.00    0.80
  -5  -3  11    4.20    0.60
   4   3 -11  165.68   15.50
   4   3 -11  152.78   12.30
   4   3 -11  161.98   12.70
  -4  -3  11  162.68   12.20
  -4  -3  11  170.38   12.50
  -4  -3  11  157.58   12.30
   3   3 -11   43.60    3.40
   3   3 -11   44.00    4.20
   3   3 -11   40.60    3.90
  -3  -3  11   47.30    4.00
  -3  -3  11   43.40    3.70
  -3  -3  11   39.00    3.40
  -3  -3  11   36.90    3.50
   2   3 -11  279.87   19.30
   2   3 -11  266.67   18.40
   2   3 -11  233.88   18.80
   2   3 -11  251.27   18.50
   2   3 -11  227.78   18.20
  -2  -3  11  251.67   18.50
  -2  -3  11  237.08   18.30
  -2  -3  11  221.38   18.20
  -2  -3  11  215.48   18.40
   1   3 -11  297.17   20.50
   1   3 -11  294.07   20.70
   1   3 -11  261.67   20.70
   1   3 -11  276.67   20.50
   1   3 -11  225.48   27.60
   1   3 -11  281.87   20.90
   1   3 -11  278.37   21.20
  -1  -3  11  268.67   20.60
  -1  -3  11  319.47   20.80
  -1  -3  11  237.08   20.60
  -1  -3  11  269.17   20.80
   0   3 -11    2.50    0.60
   0   3 -11    2.20    0.50
   0   3 -11    2.20    0.80
   0  -3  11    2.10    1.10
   0  -3  11    1.20    1.70
   0  -3  11    2.20    2.80
   0  -3  11    3.60    0.60
   0  -3  11    4.00    1.60
  -1   3 -11  295.47   21.60
  -1   3 -11  292.27   21.90
  -1   3 -11  269.17   21.40
  -1   3 -11  268.47   21.50
  -1   3 -11  310.57   21.80
   1  -3  11  246.88   22.60
   1  -3  11  329.67   22.20
  -2   3 -11  235.28   17.30
  -2   3 -11  235.48   17.20
  -2   3 -11  229.88   17.40
  -2   3 -11  238.98   17.90
  -2   3 -11  245.48   17.60
   2  -3  11  198.38   18.50
   2  -3  11  203.88   18.30
   2  -3  11  260.57   18.10
  -3   3 -11   46.90    4.00
  -3   3 -11   42.30    3.40
  -3   3 -11   41.40    3.60
  -3   3 -11   50.79    4.10
  -3   3 -11   45.80    4.60
  -3   3 -11   43.80    3.50
   3  -3  11   45.50    4.80
   3  -3  11   45.50    4.60
   3  -3  11   45.10    7.10
   3  -3  11   36.90    4.80
   3  -3  11   44.90   10.00
  -4   3 -11  183.38   14.10
  -4   3 -11  168.38   14.10
  -4   3 -11  183.48   14.00
   4  -3  11  189.08   15.90
   4  -3  11  214.78   16.80
  -5   3 -11    3.10    0.60
  -5   3 -11    3.60    0.50
   5  -3  11    3.90    1.70
   5  -3  11    5.10    2.10
   5  -3  11    0.70    1.50
  -5  -2  11  289.07   22.70
  -5  -2  11  317.47   22.80
  -5  -2  11  301.37   22.60
   4   2 -11  126.39   15.30
   4   2 -11  139.19   11.70
   4   2 -11  120.69   11.90
  -4  -2  11  158.68   10.80
  -4  -2  11  159.98   11.00
   3   2 -11  349.07   26.00
   3   2 -11  349.27   26.20
   3   2 -11  390.06   29.20
  -3  -2  11  328.77   25.70
  -3  -2  11  333.77   25.80
  -3  -2  11  307.67   25.60
  -3  -2  11  345.07   26.00
   2   2 -11   97.79    7.20
   2   2 -11   87.39    7.00
   2   2 -11   85.39    6.90
   2   2 -11   89.29    7.00
   2   2 -11   95.99    7.50
  -2  -2  11   84.59    7.10
  -2  -2  11   88.69    6.90
  -2  -2  11   97.29    7.10
  -2  -2  11   79.99    6.80
   1   2 -11   44.70   32.70
   1   2 -11   36.10    4.50
   1   2 -11   34.90    3.00
   1   2 -11   42.40    3.10
   1   2 -11   26.30    7.20
   1   2 -11   37.80    2.80
   1   2 -11   38.00    2.90
   1   2 -11   36.30    3.10
  -1  -2  11   34.10    3.00
  -1  -2  11   42.20    8.60
  -1  -2  11   27.80   46.50
  -1  -2  11   38.00    3.10
  -1  -2  11   33.60    6.40
  -1  -2  11   33.40    2.90
  -1  -2  11   32.60    3.20
   0   2 -11   54.59    7.40
   0   2 -11   54.49    4.80
   0   2 -11   63.79    4.50
   0   2 -11   64.39    4.80
   0   2 -11   55.49    4.90
   0   2 -11   62.79    4.60
   0  -2  11   47.00    9.00
   0  -2  11   54.99   26.00
   0  -2  11   58.59    4.70
   0  -2  11   65.39    4.70
   0  -2  11   57.39    4.60
  -1   2 -11   38.70    3.00
  -1   2 -11   41.70    3.30
  -1   2 -11   41.90    3.30
  -1   2 -11   38.30    2.90
  -1   2 -11   37.30    3.40
  -1   2 -11   36.30    3.20
  -1   2 -11   38.70   20.80
   1  -2  11   30.40    4.40
   1  -2  11   40.20   27.90
  -2   2 -11   98.79    7.60
  -2   2 -11   96.59    7.30
  -2   2 -11  100.79    7.70
  -2   2 -11   91.29    7.50
   2  -2  11   86.89    8.80
   2  -2  11  106.39    8.10
  -3   2 -11  376.66   27.40
  -3   2 -11  325.17   27.50
  -3   2 -11  392.76   27.60
  -3   2 -11  372.26   27.80
  -3   2 -11  360.96   27.30
   3  -2  11  371.16   28.50
   3  -2  11  353.16   28.00
   3  -2  11  405.16   30.40
   3  -2  11  338.27   29.70
  -4   2 -11  160.28   13.60
  -4   2 -11  188.38   13.30
  -4   2 -11  183.08   13.40
  -5   2 -11  335.57   24.90
  -5   2 -11  355.66   24.90
  -5   2 -11  316.37   25.00
   5  -2  11  329.77   25.70
   5  -2  11  342.97   26.40
   5  -2  11  321.37   26.60
   5   1 -11   57.89    6.90
   5   1 -11   43.80    3.80
  -5  -1  11   45.80    3.70
  -5  -1  11   47.40    3.80
  -5  -1  11   46.90    3.90
   4   1 -11   57.39    6.20
   4   1 -11   52.49    8.00
   4   1 -11   58.49    4.70
   4   1 -11   58.89    5.70
   4   1 -11   63.19    5.30
  -4  -1  11   60.29    4.90
  -4  -1  11   54.49    4.60
  -4  -1  11   62.39    4.80
   3   1 -11    8.10    2.60
   3   1 -11    7.70    1.10
   3   1 -11    9.30    1.50
   3   1 -11    6.60    1.80
   3   1 -11    4.90    6.20
  -3  -1  11   12.30    1.60
  -3  -1  11   10.60    1.50
  -3  -1  11    9.00    1.10
  -3  -1  11    6.90    1.10
   2   1 -11   71.89    8.30
   2   1 -11   59.99    5.30
   2   1 -11   71.59    5.50
   2   1 -11   77.99    5.70
  -2  -1  11   55.79    5.90
  -2  -1  11   70.29    5.40
  -2  -1  11   59.29    5.10
  -2  -1  11   64.89    5.20
   1   1 -11  295.87   25.10
   1   1 -11  325.07   23.30
   1   1 -11  288.97   23.10
  -1  -1  11  335.47   23.20
  -1  -1  11  321.17   23.10
  -1  -1  11  279.67   25.70
  -1  -1  11  313.17   23.10
   0   1 -11  521.85   46.50
   0   1 -11  445.16   35.00
   0   1 -11  521.85   35.00
   0   1 -11  494.45   34.70
   0   1 -11  416.26   36.20
   0   1 -11  512.65   34.70
   0   1 -11  394.56   34.90
   0  -1  11  472.55   49.90
   0  -1  11  445.46   34.70
   0  -1  11  487.25   34.80
   0  -1  11  444.56   34.80
  -1   1 -11  351.96   25.50
  -1   1 -11  352.46   25.50
  -1   1 -11  332.87   42.90
  -1   1 -11  344.17   25.20
  -1   1 -11  339.37   25.20
   1  -1  11  331.87   43.10
   1  -1  11  307.07   25.20
  -2   1 -11   74.59    5.40
  -2   1 -11   77.19    5.80
  -2   1 -11   70.59    5.80
  -2   1 -11   77.49    5.50
   2  -1  11   63.09    8.60
   2  -1  11   56.79    6.80
  -3   1 -11    6.70    1.40
  -3   1 -11    9.00    1.50
  -3   1 -11    6.70    1.10
  -3   1 -11   11.50    1.20
  -3   1 -11    9.80    0.90
   3  -1  11   12.00    1.90
   3  -1  11   11.30    4.00
  -4   1 -11   70.49    5.20
  -4   1 -11   71.49    5.30
  -4   1 -11   61.29    5.50
   4  -1  11   75.79    8.00
   4  -1  11   63.09    6.40
  -5   1 -11   53.19    4.00
  -5   1 -11   55.69    4.10
  -5   1 -11   49.20    4.20
   5  -1  11   51.69    6.40
   5  -1  11   47.80    5.40
   5  -1  11   55.29    5.60
   5   0 -11   17.90    2.50
   5   0 -11    8.30    3.30
   5   0 -11   14.20    1.50
  -5   0  11   11.60    1.70
  -5   0  11   16.70    1.50
  -5   0  11   14.50    1.30
   4   0 -11   19.90    3.30
   4   0 -11   25.80    2.60
   4   0 -11   26.30    2.30
   4   0 -11   25.30    3.00
  -4   0  11   28.60    2.50
  -4   0  11   24.30    2.50
  -4   0  11   26.50    2.20
   3   0 -11  417.66   32.70
   3   0 -11  462.75   33.00
   3   0 -11  381.76   34.80
  -3   0  11  444.96   32.60
  -3   0  11  445.46   32.90
  -3   0  11  456.95   32.70
  -3   0  11  442.86   32.80
   2   0 -11   48.10    6.90
   2   0 -11   52.89    4.80
   2   0 -11   67.79    4.90
   2   0 -11   57.99    4.70
   2   0 -11   56.69    5.80
  -2   0  11   56.99    4.60
  -2   0  11   64.39    4.70
  -2   0  11   58.09    4.50
  -2   0  11   54.69    5.30
   1   0 -11  154.88   28.40
   1   0 -11  139.69   10.40
   1   0 -11  129.09   11.90
  -1   0  11  136.99   10.30
  -1   0  11  134.19   10.20
  -1   0  11  114.99   23.00
  -1   0  11  135.89   10.20
  -1   0  11  131.19   10.10
   0   0 -11    0.30    2.00
   0   0 -11    0.00    0.30
   0   0 -11    0.00    0.50
   0   0 -11    1.50   13.10
   0   0 -11    1.30    0.40
   0   0 -11   -0.30    0.30
   0   0  11   -0.30    3.10
   0   0  11    1.10    3.30
   0   0  11    0.60    0.40
   0   0  11    0.80   13.30
   0   0  11   -0.30    0.50
   0   0  11    0.40    0.50
  -1   0 -11  138.49   10.90
  -1   0 -11  145.29   11.00
  -1   0 -11  153.98   11.20
  -1   0 -11  151.88   11.30
   1   0  11  138.89   10.90
   1   0  11  139.39   11.20
   1   0  11  186.38   30.20
  -2   0 -11   63.99    5.40
  -2   0 -11   70.29    5.10
  -2   0 -11   64.69    5.50
  -2   0 -11   67.79    5.10
   2   0  11   64.99    5.40
   2   0  11   68.79    8.80
   2   0  11  101.99   41.80
   2   0  11   61.69    5.50
  -3   0 -11  479.95   37.60
  -3   0 -11  501.75   37.20
  -3   0 -11  521.35   37.30
  -3   0 -11  426.76   37.40
   3   0  11  415.26   37.40
   3   0  11  518.35   37.80
   3   0  11  551.94   40.80
   3   0  11  567.04   39.30
   3   0  11  519.35   38.50
  -4   0 -11   26.60    2.70
  -4   0 -11   33.70    2.70
  -4   0 -11   31.70    2.50
   4   0  11   28.30    5.60
   4   0  11   29.20    3.90
  -5   0 -11   18.90    1.70
  -5   0 -11   19.60    1.60
  -5   0 -11   16.30    1.80
   5   0  11   17.10    2.60
   5   0  11   18.50    3.20
   5  -1 -11   39.80    5.90
   5  -1 -11   48.90    3.70
   5  -1 -11   45.00    4.40
  -5   1  11   42.20    3.50
  -5   1  11   43.60    3.60
   4  -1 -11   56.99    5.60
   4  -1 -11   44.80    7.20
   4  -1 -11   45.70    5.70
   4  -1 -11   62.19    4.60
   4  -1 -11   59.59    5.10
  -4   1  11   54.59    4.30
  -4   1  11   58.59    4.50
   3  -1 -11    6.60    3.50
   3  -1 -11    8.80    2.00
   3  -1 -11   11.70    1.60
   3  -1 -11    8.80    1.50
   3  -1 -11    6.60    1.90
  -3   1  11    9.80    1.10
  -3   1  11    5.90    1.40
  -3   1  11   10.60    1.30
  -3   1  11    9.90    1.40
   2  -1 -11   48.70    8.00
   2  -1 -11   49.10    7.00
   2  -1 -11   63.49    5.00
   2  -1 -11   58.39    5.00
  -2   1  11   66.69    4.90
  -2   1  11   61.29    4.70
  -2   1  11   65.29    4.80
  -2   1  11   58.39    4.70
   1  -1 -11  258.07   23.30
   1  -1 -11  313.77   22.00
   1  -1 -11  261.67   22.10
  -1   1  11  308.37   21.90
  -1   1  11  305.77   22.00
  -1   1  11  301.87   21.80
   0  -1 -11  389.16   33.50
   0  -1 -11  433.36   48.50
   0  -1 -11  433.96   33.40
   0   1  11  473.75   33.20
   0   1  11  475.45   33.20
   0   1  11  459.25   33.50
  -1  -1 -11  260.97   22.80
  -1  -1 -11  344.57   23.10
  -1  -1 -11  266.87   23.20
  -1  -1 -11  306.47   45.30
   1   1  11  324.77   22.90
   1   1  11  281.37   25.70
   1   1  11  336.87   28.00
   1   1  11  327.97   22.90
   1   1  11  307.97   23.10
  -2  -1 -11   61.29    5.30
  -2  -1 -11   62.89    5.20
  -2  -1 -11   66.89    5.40
  -2  -1 -11   63.59    6.20
  -2  -1 -11   61.69    5.50
   2   1  11   69.79    5.80
   2   1  11   63.49    5.20
   2   1  11   78.69    9.40
   2   1  11   72.29    5.50
   2   1  11   80.09    8.50
   2   1  11   82.59   38.50
  -3  -1 -11   12.20    1.10
  -3  -1 -11    8.70    1.20
  -3  -1 -11   10.20    2.70
  -3  -1 -11   11.50    1.60
   3   1  11    9.00    1.80
   3   1  11    7.20    1.40
   3   1  11   14.20    4.90
  -4  -1 -11   52.69    4.90
  -4  -1 -11   61.69    4.80
  -4  -1 -11   61.59    4.70
   4   1  11   63.69    6.20
  -5  -1 -11   52.19    4.00
  -5  -1 -11   49.40    4.10
  -5  -1 -11   48.90    4.20
   5   1  11   54.29    5.30
   5   1  11   51.59    5.00
   5  -2 -11  283.77   20.10
   5  -2 -11  221.08   21.80
  -5   2  11  281.77   20.00
  -5   2  11  275.67   20.00
   4  -2 -11  123.99   11.90
   4  -2 -11  112.59   11.40
   4  -2 -11  111.89   11.20
   4  -2 -11  131.39   10.60
  -4   2  11  154.68   10.10
  -4   2  11  151.28   10.00
   3  -2 -11  268.77   23.70
   3  -2 -11  343.57   22.80
   3  -2 -11  252.67   23.40
   3  -2 -11  305.07   22.90
   3  -2 -11  307.37   24.60
   3  -2 -11  317.97   26.20
  -3   2  11  286.67   22.50
  -3   2  11  302.67   22.80
  -3   2  11  323.17   22.60
   2  -2 -11   79.89    7.10
   2  -2 -11   78.99    6.30
   2  -2 -11   81.29    6.40
   2  -2 -11   67.09    7.60
  -2   2  11   83.99    6.40
  -2   2  11   84.19    6.20
  -2   2  11   78.39    6.10
   1  -2 -11   34.60    6.20
   1  -2 -11   26.70    3.60
   1  -2 -11   32.00    3.10
   1  -2 -11   30.20    4.70
   1  -2 -11   41.00    2.90
   1  -2 -11   37.30    6.40
  -1   2  11   32.90    2.80
  -1   2  11   32.60    3.10
  -1   2  11   38.20    2.80
  -1   2  11   38.20    8.20
   0  -2 -11   66.59    5.10
   0  -2 -11   57.19    5.40
   0   2  11   67.99    5.00
   0   2  11   59.99    5.30
   0   2  11   75.19    5.10
   0   2  11   57.39    9.50
  -1  -2 -11   33.80    3.80
  -1  -2 -11   41.90    3.20
  -1  -2 -11   28.90   30.10
  -1  -2 -11   31.50    3.80
  -1  -2 -11   34.60    3.40
   1   2  11   37.70    8.40
   1   2  11   27.00   20.20
   1   2  11   33.90    3.30
   1   2  11   37.80    3.40
   1   2  11   38.30    3.00
   1   2  11   39.50    3.00
   1   2  11   45.20    9.40
  -2  -2 -11   73.19    7.00
  -2  -2 -11   92.99    6.90
  -2  -2 -11   86.89    6.90
  -2  -2 -11   79.79    7.60
   2   2  11   91.69    6.70
   2   2  11   90.39    7.10
   2   2  11   88.29    8.10
   2   2  11   87.39    7.00
   2   2  11   98.99   12.30
  -3  -2 -11  302.67   24.20
  -3  -2 -11  289.67   24.10
  -3  -2 -11  316.77   24.40
  -3  -2 -11  343.37   24.50
   3   2  11  312.77   24.50
   3   2  11  366.56   29.00
   3   2  11  335.97   25.60
  -4  -2 -11  161.28   12.50
  -4  -2 -11  159.38   12.40
  -4  -2 -11  161.68   13.00
  -4  -2 -11  145.19   13.40
   4   2  11  183.48   14.80
   4   2  11  181.28   14.00
  -5  -2 -11  319.87   23.50
  -5  -2 -11  308.77   23.60
   5  -3 -11    3.50    1.30
   5  -3 -11    3.40    0.80
   5  -3 -11    2.10    1.80
   4  -3 -11  106.69    9.20
   4  -3 -11  109.19   10.30
   4  -3 -11  102.79    9.80
   3  -3 -11   36.70    3.50
   3  -3 -11   39.50    3.40
   3  -3 -11   32.10    4.30
   3  -3 -11   44.50    4.80
   3  -3 -11   26.20    5.80
   3  -3 -11   32.20    5.00
  -3   3  11   37.10    3.30
  -3   3  11   40.70    3.00
   2  -3 -11  177.38   16.60
   2  -3 -11  203.88   15.90
   2  -3 -11  197.28   17.50
   2  -3 -11  235.08   15.90
   2  -3 -11  220.18   15.80
   2  -3 -11  197.18   16.50
  -2   3  11  212.58   15.60
  -2   3  11  201.28   15.60
  -2   3  11  219.98   15.80
   1  -3 -11  275.67   22.10
   1  -3 -11  296.87   22.30
   1  -3 -11  288.37   21.50
   1  -3 -11  287.27   22.50
  -1   3  11  275.17   21.70
  -1   3  11  280.27   21.60
  -1   3  11  297.97   21.50
   0  -3 -11    3.50    1.50
   0  -3 -11    1.30    1.20
   0  -3 -11    3.10    1.00
   0  -3 -11    3.00    1.10
   0   3  11    2.40    0.50
   0   3  11    2.20    0.70
   0   3  11    3.20    1.00
   0   3  11    0.30    0.90
  -1  -3 -11  239.58   21.40
  -1  -3 -11  289.67   21.20
  -1  -3 -11  292.97   21.20
  -1  -3 -11  317.87   21.90
  -1  -3 -11  253.27   21.70
   1   3  11  259.67   21.30
   1   3  11  293.97   21.00
   1   3  11  297.07   21.10
   1   3  11  281.37   21.30
  -2  -3 -11  189.48   16.00
  -2  -3 -11  183.48   16.70
  -2  -3 -11  217.38   16.40
  -2  -3 -11  219.98   16.10
   2   3  11  225.58   16.30
   2   3  11  221.38   15.90
   2   3  11  195.48   16.30
   2   3  11  225.88   16.20
   2   3  11  211.48   17.30
   2   3  11  226.68   22.40
  -3  -3 -11   43.50    3.90
  -3  -3 -11   45.70    3.80
   3   3  11   40.60    5.10
   3   3  11   39.50    3.90
  -4  -3 -11  144.39   11.70
  -4  -3 -11  165.88   12.80
  -4  -3 -11  156.28   12.00
   4   3  11  154.28   11.90
  -5  -3 -11    3.70    0.60
   5   3  11    1.80    1.10
   5  -4 -11   48.70    4.00
   5  -4 -11   37.40    4.20
   4  -4 -11   12.20    1.70
   4  -4 -11    8.50    2.40
   4  -4 -11    7.40    2.20
   4  -4 -11   10.90    2.40
  -4   4  11   11.10    1.20
   3  -4 -11   63.59    6.80
   3  -4 -11   75.49    6.10
   3  -4 -11   67.99    7.70
   3  -4 -11   76.39    7.10
   3  -4 -11   81.19    7.10
  -3   4  11   76.29    5.70
  -3   4  11   71.09    5.70
   2  -4 -11   20.00    4.10
   2  -4 -11   22.00    3.70
   2  -4 -11   22.50    2.60
  -2   4  11   21.30    2.00
  -2   4  11   23.10    2.50
  -2   4  11   22.20    2.00
   1  -4 -11  153.38   11.30
   1  -4 -11  115.29   11.80
   1  -4 -11  126.29   10.40
  -1   4  11  139.69   10.10
  -1   4  11  119.59   10.40
  -1   4  11  139.59   10.10
   0  -4 -11  117.39   11.10
   0  -4 -11  136.99    9.80
   0  -4 -11  102.69   10.20
   0  -4 -11  124.49   10.10
   0   4  11  125.99    9.40
   0   4  11  136.99    9.40
   0   4  11  120.09    9.70
  -1  -4 -11  114.79    9.40
  -1  -4 -11  110.49    9.20
  -1  -4 -11  107.79    9.90
  -1  -4 -11  114.49   10.00
   1   4  11  130.99    9.20
   1   4  11  125.49    9.50
   1   4  11  135.29    9.20
  -2  -4 -11   24.90    3.50
  -2  -4 -11   26.10    2.30
  -2  -4 -11   19.80    2.50
   2   4  11   18.70    2.50
   2   4  11   22.10    2.00
   2   4  11   22.90    2.10
   2   4  11   26.00    4.30
  -3  -4 -11   59.79    6.60
  -3  -4 -11   78.89    5.80
   3   4  11   74.89    6.00
  -4  -4 -11   11.80    1.40
  -4  -4 -11   12.30    2.50
   4   4  11    8.40    2.20
   4   4  11   10.90    1.60
  -5  -4 -11   58.89    4.30
   5   4  11   50.39    4.90
   4  -5 -11   15.90    2.60
   4  -5 -11   20.20    2.20
   4  -5 -11   17.20    2.50
   3  -5 -11  182.78   15.10
   3  -5 -11  175.58   14.90
   3  -5 -11  203.98   14.60
  -3   5  11  172.58   14.00
  -3   5  11  197.68   14.00
   2  -5 -11   45.70    6.20
   2  -5 -11   56.89    4.90
   2  -5 -11   55.49    5.70
  -2   5  11   53.09    4.60
  -2   5  11   59.69    4.30
   1  -5 -11   33.00    4.60
   1  -5 -11   26.00    3.20
   1  -5 -11   26.90    3.00
  -1   5  11   26.00    3.10
  -1   5  11   32.50    2.50
  -1   5  11   27.80    2.40
   0  -5 -11   37.00    4.40
   0  -5 -11   48.90    4.40
   0  -5 -11   38.60    3.90
   0  -5 -11   37.60    5.20
   0  -5 -11   40.50    5.40
   0   5  11   46.30    3.60
   0   5  11   39.30    3.80
   0   5  11   47.10    3.50
  -1  -5 -11   24.10    2.80
  -1  -5 -11   23.20    4.00
  -1  -5 -11   35.80    3.70
   1   5  11   30.60    2.50
   1   5  11   29.50    2.90
   1   5  11   29.80    2.50
  -2  -5 -11   50.49    4.00
  -2  -5 -11   51.39    5.00
  -2  -5 -11   47.90    4.20
  -2  -5 -11   46.80    8.40
   2   5  11   48.10    4.30
   2   5  11   44.20    4.30
   2   5  11   47.80    3.90
  -3  -5 -11  204.88   15.00
  -3  -5 -11  196.48   14.00
   3   5  11  165.68   14.20
   3   5  11  167.88   15.20
  -4  -5 -11   17.30    1.60
  -4  -5 -11   13.10    2.30
   4   5  11   15.70    2.70
   4   5  11   15.50    1.70
   3  -6 -11   31.40    4.40
   3  -6 -11   22.30    3.60
   3  -6 -11   27.50    2.80
  -3   6  11   26.10    2.20
   2  -6 -11  332.27   27.50
   2  -6 -11  366.36   27.50
   2  -6 -11  380.26   29.00
   2  -6 -11  410.86   28.30
  -2   6  11  332.57   27.00
  -2   6  11  350.96   27.00
   1  -6 -11   52.59    4.90
   1  -6 -11   53.29    5.70
  -1   6  11   56.69    4.30
  -1   6  11   53.29    4.30
   0  -6 -11  112.79   10.50
   0  -6 -11  139.49   10.70
   0  -6 -11  150.28   12.40
   0   6  11  134.69   10.10
   0   6  11  130.19   10.20
   0   6  11  130.39   10.50
  -1  -6 -11   70.19    8.50
  -1  -6 -11   48.70    5.60
   1   6  11   53.69    4.40
   1   6  11   54.09    4.40
   1   6  11   59.99    5.20
  -2  -6 -11  361.56   25.00
   2   6  11  299.17   24.30
   2   6  11  303.57   24.10
   2   6  11  320.87   24.10
  -3  -6 -11   24.50    3.00
   3   6  11   23.70    2.40
   3   6  11   25.00    3.80
   3  -7 -11   12.50    2.10
   3  -7 -11   16.50    2.00
   2  -7 -11  101.59    9.90
   2  -7 -11  115.29    9.80
   2  -7 -11  135.59   11.20
  -2   7  11  121.39    9.20
  -2   7  11  135.19    9.40
   1  -7 -11  133.59   10.20
   1  -7 -11  126.19   10.70
   1  -7 -11  119.19   11.00
   1  -7 -11  111.79   10.00
  -1   7  11  127.99    9.60
  -1   7  11  140.89    9.60
   0  -7 -11  105.19    9.30
   0  -7 -11  130.39   10.30
   0  -7 -11  113.99    9.50
   0   7  11  114.79    9.00
   0   7  11  112.79    8.90
   0   7  11  127.19    9.20
  -1  -7 -11  114.09    9.40
   1   7  11  121.79    9.40
   1   7  11  123.29    9.10
   1   7  11  120.79    9.20
   2   7  11  103.69    8.20
   2   7  11   98.39    7.70
  -3  -7 -11   13.60    1.80
   3   7  11   11.70    1.40
   1  -8 -11    5.40    1.30
   1  -8 -11    6.70    1.20
   1  -8 -11    6.90    1.80
  -1   8  11    5.10    0.70
   0  -8 -11    2.40    0.90
   0  -8 -11    1.20    0.70
   0  -8 -11    2.10    2.20
   0   8  11    1.50    0.40
   0   8  11    0.80    0.60
   0   8  11    1.90    0.80
  -1  -8 -11    5.60    1.30
   1   8  11    4.40    0.80
   1   8  11    5.30    0.70
   1   8 -12   18.10    1.60
   0   8 -12   23.70    2.10
   0   8 -12   26.60    2.00
   0   8 -12   21.60    1.80
   0  -8  12   19.20    3.20
  -1   8 -12   14.30    1.30
   2   7 -12   27.60    4.00
   2   7 -12   28.60    2.30
  -2  -7  12   27.00    3.30
   1   7 -12  121.89    9.20
   1   7 -12  102.69    9.30
   1   7 -12  133.39    9.40
   1   7 -12  133.69    9.50
  -1  -7  12  119.89   10.10
   0   7 -12   56.69    4.20
   0   7 -12   55.19    3.90
   0   7 -12   52.19    4.30
   0   7 -12   49.20    4.10
   0  -7  12   44.50    5.00
  -1   7 -12  120.79    9.20
  -1   7 -12  123.29    8.90
  -1   7 -12  112.69    8.90
   1  -7  12  116.29   10.00
  -2   7 -12   25.10    2.30
  -2   7 -12   28.50    2.30
  -2   7 -12   26.40    1.90
  -2   7 -12   20.00    2.00
   2  -7  12   24.10    3.00
   2  -7  12   22.30    3.80
   3   6 -12  263.97   19.50
   3   6 -12  236.58   18.90
  -3  -6  12  258.97   19.70
   2   6 -12  121.19    9.70
   2   6 -12  117.49    9.10
   2   6 -12  115.49    9.00
   1   6 -12  167.98   13.40
   1   6 -12  163.38   13.80
   1   6 -12  166.68   13.00
   1   6 -12  180.78   13.30
   1   6 -12  170.88   13.10
  -1  -6  12  199.98   14.40
   0   6 -12  247.98   17.00
   0   6 -12  252.37   17.20
   0  -6  12  217.08   18.40
   0  -6  12  195.88   18.10
   0  -6  12  219.28   18.20
  -1   6 -12  155.48   11.60
  -1   6 -12  160.18   11.50
  -1   6 -12  151.98   11.80
   1  -6  12  145.69   12.70
  -2   6 -12  100.29    7.60
  -2   6 -12   90.29    7.60
  -2   6 -12  105.69    7.80
  -2   6 -12  102.29    7.50
   2  -6  12   88.09   10.00
   2  -6  12  107.29    8.80
  -3   6 -12  203.28   14.80
  -3   6 -12  205.48   14.60
  -3   6 -12  195.78   14.70
   3  -6  12  171.58   17.60
  -4  -5  12   67.79    6.10
  -4  -5  12   66.99    5.40
   3   5 -12   79.59    6.30
   3   5 -12   84.99    7.00
  -3  -5  12   89.69    7.50
  -3  -5  12   73.49    6.50
   2   5 -12  205.08   15.00
   2   5 -12  203.78   15.10
   2   5 -12  195.38   15.60
   2   5 -12  207.98   15.80
  -2  -5  12  178.98   15.20
   1   5 -12   23.80    2.10
   1   5 -12   25.00    3.00
   1   5 -12   24.50    1.90
   1   5 -12   28.60    2.30
  -1  -5  12   12.80    6.30
  -1  -5  12   23.10    3.40
  -1  -5  12   24.40    2.60
   0   5 -12  120.09    9.50
   0   5 -12  143.79   10.80
   0   5 -12  123.19    9.40
   0  -5  12  104.39   10.50
   0  -5  12  131.79   10.40
   0  -5  12  131.19   10.70
  -1   5 -12   23.50    2.10
  -1   5 -12   25.80    2.20
   1  -5  12   22.40    3.50
   1  -5  12   27.40    4.00
   1  -5  12   26.00    3.40
  -2   5 -12  161.18   13.60
  -2   5 -12  189.88   13.00
  -2   5 -12  194.78   13.40
  -2   5 -12  175.48   13.10
   2  -5  12  169.68   14.70
   2  -5  12  167.98   15.10
   2  -5  12  151.38   15.60
  -3   5 -12   72.39    5.50
  -3   5 -12   75.09    5.40
  -3   5 -12   79.89    5.60
  -3   5 -12   74.39    5.70
   3  -5  12   59.09    6.30
   3  -5  12   77.29    8.40
   3  -5  12   62.09    6.40
   3  -5  12   76.49    7.10
  -4   5 -12   65.99    5.20
  -4   5 -12   70.09    5.10
   4  -5  12   68.59    6.10
   4  -5  12   63.79    6.90
   4   4 -12   25.60    2.30
  -4  -4  12   26.60    2.30
  -4  -4  12   31.30    2.60
   3   4 -12  169.18   13.60
   3   4 -12  195.58   14.10
  -3  -4  12  178.78   13.60
   2   4 -12   80.19    6.80
   2   4 -12   87.99    6.40
   2   4 -12   80.19    7.00
   2   4 -12   87.29    6.70
  -2  -4  12   72.49    6.40
  -2  -4  12   76.59    6.60
  -2  -4  12   83.09    6.70
   1   4 -12  174.18   13.30
   1   4 -12  178.08   13.00
   1   4 -12  175.48   12.90
   1   4 -12  172.48   13.50
   1   4 -12  163.58   13.80
   1   4 -12  185.28   13.20
  -1  -4  12  181.88   17.30
  -1  -4  12  157.18   13.50
  -1  -4  12  180.28   13.70
  -1  -4  12  165.68   13.30
   0   4 -12   22.50    3.40
   0   4 -12   28.20    3.00
   0   4 -12   26.70    2.40
   0   4 -12   30.20    2.30
   0  -4  12   25.60    5.50
   0  -4  12   30.20    3.30
   0  -4  12   24.00    2.80
   0  -4  12   30.70    5.00
  -1   4 -12  185.58   14.10
  -1   4 -12  173.08   13.50
  -1   4 -12  167.58   13.40
   1  -4  12  194.78   14.40
  -2   4 -12   82.59    6.20
  -2   4 -12   80.99    6.30
  -2   4 -12   80.69    6.60
  -2   4 -12   79.59    6.00
  -2   4 -12   74.89    6.10
  -2   4 -12   86.39    7.00
   2  -4  12   80.09    7.00
   2  -4  12   63.49    7.40
   2  -4  12   82.39    7.10
  -3   4 -12  185.68   14.20
  -3   4 -12  191.18   14.30
  -3   4 -12  195.08   14.10
  -3   4 -12  186.78   14.40
   3  -4  12  189.58   15.00
   3  -4  12  185.58   15.40
  -4   4 -12   31.20    2.40
  -4   4 -12   30.30    2.70
  -4   4 -12   32.50    2.50
   4  -4  12   29.60    4.70
   4  -4  12   27.70    4.00
   5   3 -12    7.20    1.00
   5   3 -12    7.30    0.80
  -5  -3  12    6.70    1.10
  -5  -3  12    6.80    0.80
   4   3 -12   16.90    1.70
   4   3 -12   21.80    2.30
  -4  -3  12   17.50    1.80
  -4  -3  12   16.50    1.80
   3   3 -12   43.80    3.90
   3   3 -12   40.90    4.00
   3   3 -12   42.50    4.60
   3   3 -12   43.50    3.30
   3   3 -12   34.90    3.30
  -3  -3  12   39.50    3.40
  -3  -3  12   39.90    3.30
  -3  -3  12   46.70    5.10
  -3  -3  12   40.10    3.60
   2   3 -12  262.67   20.50
   2   3 -12  263.47   19.80
   2   3 -12  256.37   21.20
   2   3 -12  277.47   19.90
   2   3 -12  248.28   19.80
   2   3 -12  265.47   19.70
  -2  -3  12  245.78   19.80
  -2  -3  12  252.37   19.60
  -2  -3  12  252.87   19.50
  -2  -3  12  276.57   19.80
   1   3 -12   13.70    1.60
   1   3 -12   11.80    1.20
   1   3 -12   12.40    1.70
   1   3 -12   12.40    1.10
   1   3 -12   16.50    2.10
   1   3 -12   12.40    1.40
  -1  -3  12   14.60    3.00
  -1  -3  12   11.90    1.60
  -1  -3  12   11.30    1.30
  -1  -3  12   14.60    2.00
  -1  -3  12   10.40    4.90
  -1  -3  12    8.80    1.50
  -1  -3  12   15.60    1.60
   0   3 -12    0.10    0.40
   0   3 -12    0.20    0.20
   0   3 -12   -0.30    0.50
   0   3 -12   -0.40    0.60
   0   3 -12    1.20    1.30
   0   3 -12    0.30    0.70
   0  -3  12    0.60    1.30
   0  -3  12    1.50    1.90
   0  -3  12   -0.70    0.60
   0  -3  12    0.20    0.90
   0  -3  12    4.40    3.50
   0  -3  12    0.40    0.90
  -1   3 -12   15.10    2.00
  -1   3 -12   12.00    1.60
  -1   3 -12   13.40    1.40
  -1   3 -12   12.40    1.10
  -1   3 -12   15.80    1.70
  -1   3 -12   11.30    1.20
   1  -3  12   13.90    2.80
   1  -3  12    8.50    2.60
   1  -3  12    5.90    3.90
   1  -3  12   15.20    2.30
  -2   3 -12  266.87   20.40
  -2   3 -12  278.27   20.60
  -2   3 -12  273.17   20.20
  -2   3 -12  284.57   20.90
  -2   3 -12  294.37   20.70
  -2   3 -12  256.07   20.30
   2  -3  12  246.58   23.70
   2  -3  12  296.37   21.20
   2  -3  12  244.28   21.50
  -3   3 -12   43.10    3.40
  -3   3 -12   39.90    3.50
  -3   3 -12   41.30    3.30
  -3   3 -12   43.40    3.70
   3  -3  12   39.90    6.70
   3  -3  12   46.30    4.60
   3  -3  12   43.00    4.70
   3  -3  12   39.00    6.90
  -4   3 -12   19.30    1.70
  -4   3 -12   19.80    1.90
  -4   3 -12   17.00    1.70
   4  -3  12   19.70    3.60
   4  -3  12   18.00    4.20
  -5   3 -12    7.40    0.70
   5  -3  12    6.90    1.80
   5  -3  12    6.30    2.20
   5   2 -12   49.00    3.50
   5   2 -12   48.80    6.30
  -5  -2  12   37.40    3.60
  -5  -2  12   43.10    3.50
   4   2 -12  118.29    9.80
   4   2 -12  140.79   10.20
   4   2 -12  138.69   11.00
  -4  -2  12  118.89    9.80
  -4  -2  12  131.39    9.90
  -4  -2  12  125.89   10.00
   3   2 -12  136.99   10.10
   3   2 -12  114.49   10.70
   3   2 -12  146.69   13.40
   3   2 -12  108.39    9.50
   3   2 -12  134.09   10.00
  -3  -2  12  115.29    9.50
  -3  -2  12  132.39    9.90
  -3  -2  12  117.59    9.60
   2   2 -12   98.39    7.70
   2   2 -12  110.49   11.10
   2   2 -12   94.69    7.50
   2   2 -12  109.69    8.20
   2   2 -12   97.99    7.90
  -2  -2  12  117.19    9.50
  -2  -2  12   98.09    7.80
  -2  -2  12   87.69    7.80
  -2  -2  12   87.99    7.60
  -2  -2  12   89.99    7.50
   1   2 -12  306.67   31.50
   1   2 -12  401.96   28.70
   1   2 -12  378.66   27.20
   1   2 -12  360.76   27.00
   1   2 -12  353.16   27.30
  -1  -2  12  399.06   27.30
  -1  -2  12  377.46   28.20
  -1  -2  12  348.07   27.40
  -1  -2  12  338.87   27.20
   0   2 -12  465.75   31.20
   0   2 -12  472.25   51.69
   0   2 -12  452.25   31.00
   0   2 -12  373.36   33.70
   0   2 -12  424.06   30.90
   0   2 -12  389.66   31.20
   0   2 -12  443.56   30.90
   0  -2  12  394.76   30.90
   0  -2  12  448.16   31.00
   0  -2  12  429.36   65.39
   0  -2  12  360.36   31.90
   0  -2  12  369.46   31.20
  -1   2 -12  393.86   29.60
  -1   2 -12  402.96   30.00
  -1   2 -12  407.66   29.90
  -1   2 -12  424.96   30.00
  -1   2 -12  389.76   29.60
   1  -2  12  364.66   29.90
  -2   2 -12  101.49    7.90
  -2   2 -12   99.09    7.70
  -2   2 -12  112.59    8.00
  -2   2 -12   98.99    8.20
  -2   2 -12   98.49    7.50
  -2   2 -12   97.29    7.80
   2  -2  12   77.29   11.00
   2  -2  12   96.39    9.30
   2  -2  12  112.89    8.40
  -3   2 -12  132.99   10.50
  -3   2 -12  133.49   10.70
  -3   2 -12  140.49   10.90
  -3   2 -12  144.59   10.60
  -3   2 -12  137.89   11.00
   3  -2  12  135.49   11.90
   3  -2  12  147.29   14.40
   3  -2  12  151.48   13.70
  -4   2 -12  142.99   10.30
  -4   2 -12  125.29   10.50
  -4   2 -12  150.78   10.40
   4  -2  12  121.89   11.10
   4  -2  12  146.79   12.90
  -5   2 -12   41.90    3.50
  -5   2 -12   43.40    3.50
  -5   2 -12   46.70    3.40
   5  -2  12   45.00    4.90
   5  -2  12   41.60    5.20
   5  -2  12   43.40    4.80
   5   1 -12   32.70    3.40
   5   1 -12   38.00    5.70
   5   1 -12   28.40    3.60
  -5  -1  12   35.40    2.80
  -5  -1  12   33.20    2.90
  -5  -1  12   36.50    2.70
   4   1 -12    4.50    1.70
   4   1 -12    4.20    1.50
   4   1 -12    2.70    1.00
   4   1 -12    0.60    2.10
   4   1 -12    3.80    4.40
  -4  -1  12    2.60    0.80
  -4  -1  12    3.30    0.90
  -4  -1  12    3.90    0.70
   3   1 -12   58.89    4.90
   3   1 -12   61.79    6.40
   3   1 -12   58.59    4.90
   3   1 -12   55.39    4.40
   3   1 -12   43.00    7.60
  -3  -1  12   55.29    4.70
  -3  -1  12   47.60    4.40
  -3  -1  12   53.79    4.30
  -3  -1  12   54.09    4.70
   2   1 -12   22.70    2.30
   2   1 -12   27.50    2.70
   2   1 -12   25.40    2.40
   2   1 -12   22.30    3.70
   2   1 -12   18.70    2.10
  -2  -1  12   21.70    2.40
  -2  -1  12   25.90    2.50
  -2  -1  12   22.00    2.00
  -2  -1  12   18.70    2.60
   1   1 -12   64.69    5.10
   1   1 -12   64.99    4.80
   1   1 -12   53.19    8.30
   1   1 -12   52.89    4.60
   1   1 -12   67.49    5.70
  -1  -1  12   52.29    4.50
  -1  -1  12   51.19    4.80
  -1  -1  12   57.19    4.60
  -1  -1  12   56.79    4.60
   0   1 -12  397.36   28.50
   0   1 -12  386.86   30.60
   0   1 -12  449.46   46.40
   0   1 -12  389.66   28.40
   0   1 -12  364.76   28.70
   0   1 -12  408.86   28.70
   0   1 -12  344.97   28.60
   0  -1  12  383.26   28.50
   0  -1  12  370.26   28.50
   0  -1  12  375.46   28.50
   0  -1  12  354.16   52.09
  -1   1 -12   62.69    4.80
  -1   1 -12   61.09    4.60
  -1   1 -12   60.09    5.00
  -1   1 -12   64.29    5.00
  -1   1 -12   70.99    8.50
  -1   1 -12   67.59    5.00
  -1   1 -12   61.89    4.70
   1  -1  12   55.79    4.70
   1  -1  12   41.70   11.80
   1  -1  12   56.79    5.10
   1  -1  12   54.69    4.60
  -2   1 -12   24.10    2.30
  -2   1 -12   24.50    2.20
  -2   1 -12   20.30    2.40
  -2   1 -12   25.10    1.90
   2  -1  12   25.00    4.10
  -3   1 -12   66.09    4.80
  -3   1 -12   56.09    4.90
  -3   1 -12   56.39    5.10
  -3   1 -12   60.19    5.20
  -3   1 -12   64.39    4.70
   3  -1  12   64.79    9.00
   3  -1  12   61.79    6.30
   3  -1  12   60.39    5.60
  -4   1 -12    4.30    0.70
  -4   1 -12    3.60    0.60
  -4   1 -12    2.70    0.80
   4  -1  12    3.60    2.80
  -5   1 -12   38.60    3.40
  -5   1 -12   43.30    3.40
  -5   1 -12   41.40    3.30
   5  -1  12   46.70    5.10
   5  -1  12   43.00    4.60
   5   0 -12    1.50    1.20
   5   0 -12    1.90    0.60
   5   0 -12    1.30    1.40
   5   0 -12    2.60    2.80
  -5   0  12    0.50    0.70
  -5   0  12    1.30    0.50
  -5   0  12    3.00    0.50
   4   0 -12    3.40    3.30
   4   0 -12    4.30    1.70
   4   0 -12    2.60    1.90
   4   0 -12    2.40    0.70
   4   0 -12    1.40    1.70
  -4   0  12    2.20    0.50
  -4   0  12    0.90    1.30
  -4   0  12    1.70    0.70
   3   0 -12  437.86   40.10
   3   0 -12  499.05   38.30
   3   0 -12  523.65   38.60
  -3   0  12  514.55   38.70
  -3   0  12  552.34   38.30
  -3   0  12  525.35   38.20
  -3   0  12  532.65   38.50
   2   0 -12    9.00    1.50
   2   0 -12   10.30    2.60
   2   0 -12    8.20    1.60
   2   0 -12   10.20    1.90
   2   0 -12   11.50    3.80
  -2   0  12    8.20    1.50
  -2   0  12    9.30    1.10
  -2   0  12    8.50    1.30
  -2   0  12   10.80    1.40
   1   0 -12   41.10    4.20
   1   0 -12   31.50    8.50
   1   0 -12   49.50    3.90
  -1   0  12   48.30    3.70
  -1   0  12   48.10    3.80
  -1   0  12   44.90    3.60
  -1   0  12   45.40    3.70
   0   0 -12 1978.60  129.59
   0   0 -12 1576.14  129.29
   0   0 -12 1923.01  131.39
   0   0 -12 1927.71  143.09
   0   0 -12 1567.14  129.49
   0   0 -12 1552.74  129.19
   0   0  12 1724.53  129.29
   0   0  12 1777.02  129.29
   0   0  12 1791.42  141.79
   0   0  12 1688.23  129.49
   0   0  12 1692.63  129.29
  -1   0 -12   11.50   26.50
  -1   0 -12   52.99    4.40
  -1   0 -12   57.49    4.00
  -1   0 -12   53.69    4.20
  -1   0 -12   47.90    4.10
  -1   0 -12   53.29    3.90
   1   0  12   48.40    4.40
   1   0  12   48.10    4.00
   1   0  12   50.89    4.30
   1   0  12   48.90    4.00
   1   0  12   37.20    7.60
   1   0  12   38.20   22.70
  -2   0 -12   11.30    1.40
  -2   0 -12    9.60    1.30
  -2   0 -12    9.70    1.00
  -2   0 -12    6.80    2.10
  -2   0 -12   10.60    1.10
  -2   0 -12    8.70    1.50
   2   0  12    9.40    1.40
   2   0  12    6.20    4.20
  -3   0 -12  520.05   44.20
  -3   0 -12  619.44   44.00
  -3   0 -12  513.55   44.30
  -3   0 -12  639.24   44.10
   3   0  12  533.75   44.20
   3   0  12  578.34   44.60
   3   0  12  607.54   46.00
   3   0  12  691.33   48.20
   3   0  12  630.54   45.50
  -4   0 -12    2.00    0.70
  -4   0 -12    3.60    0.50
  -4   0 -12    2.10    0.60
   4   0  12    2.50    1.60
   4   0  12    1.80    1.80
  -5   0 -12    3.10    0.50
  -5   0 -12    2.30    0.60
  -5   0 -12    2.60    0.90
   5   0  12    4.80    2.20
   5   0  12    1.80    1.80
   5  -1 -12   33.30    4.00
   5  -1 -12   24.90    5.90
   5  -1 -12   34.80    2.90
   5  -1 -12   34.30    4.00
  -5   1  12   39.00    2.80
  -5   1  12   37.10    2.90
   4  -1 -12    3.60    1.00
   4  -1 -12    1.70    1.40
   4  -1 -12    1.50    2.00
   4  -1 -12    2.40    2.40
  -4   1  12    2.60    0.60
  -4   1  12    3.10    0.90
  -4   1  12    3.90    0.80
   3  -1 -12   56.39    4.70
   3  -1 -12   46.70    4.20
   3  -1 -12   62.19    5.50
   3  -1 -12   42.70    5.60
  -3   1  12   53.59    4.10
  -3   1  12   47.90    4.50
  -3   1  12   51.79    4.50
  -3   1  12   57.69    4.30
   2  -1 -12   23.60    2.80
   2  -1 -12   20.50    2.10
   2  -1 -12   24.70    3.20
   2  -1 -12   25.30    2.30
   2  -1 -12   24.70    6.10
   2  -1 -12   26.20    3.60
  -2   1  12   20.80    2.00
  -2   1  12   21.80    2.20
  -2   1  12   17.10    2.50
  -2   1  12   24.70    2.30
  -2   1  12   19.10    2.50
   1  -1 -12   61.39    8.10
   1  -1 -12   54.49    5.10
   1  -1 -12   45.30    5.50
   1  -1 -12   54.49    4.50
   1  -1 -12   53.49    4.70
  -1   1  12   57.89    4.60
  -1   1  12   58.59    4.40
  -1   1  12   64.79    4.50
  -1   1  12   40.90   10.30
  -1   1  12   54.79    4.30
   0  -1 -12  376.66   53.39
   0  -1 -12  348.77   28.50
   0  -1 -12  344.97   28.70
   0   1  12  404.26   28.40
   0   1  12  412.96   47.10
   0   1  12  410.16   28.40
   0   1  12  380.26   28.60
  -1  -1 -12   55.69    4.30
  -1  -1 -12   47.50    4.40
  -1  -1 -12   51.49    5.20
  -1  -1 -12   52.59    4.20
  -1  -1 -12   51.09    4.70
  -1  -1 -12   50.09    5.00
   1   1  12   58.09    4.30
   1   1  12   63.99    4.30
   1   1  12   55.59   11.50
   1   1  12   53.49   30.80
   1   1  12   59.29    4.60
   1   1  12   57.19    4.70
  -2  -1 -12   23.40    2.10
  -2  -1 -12   21.80    2.30
  -2  -1 -12   21.70    2.50
  -2  -1 -12   28.00    2.60
  -2  -1 -12   22.90    2.00
  -2  -1 -12   19.80    3.40
   2   1  12   25.90    3.90
   2   1  12   23.40    5.70
   2   1  12   24.30    2.60
   2   1  12   26.00    2.50
   2   1  12   21.30    2.10
  -3  -1 -12   56.69    4.60
  -3  -1 -12   70.59    7.50
  -3  -1 -12   53.89    4.80
  -3  -1 -12   57.89    4.50
  -3  -1 -12   57.09    4.90
   3   1  12   52.39    4.90
   3   1  12   51.89    5.30
   3   1  12   58.09    9.90
   3   1  12   64.59    6.30
  -4  -1 -12    4.00    0.60
  -4  -1 -12    4.80    0.80
   4   1  12    3.40    2.60
  -5  -1 -12   36.70    3.50
  -5  -1 -12   39.10    3.30
  -5  -1 -12   42.60    3.10
   5   1  12   42.20    4.40
   5   1  12   39.00    5.10
   5  -2 -12   35.80    4.00
   5  -2 -12   31.50    3.60
   5  -2 -12   32.90    4.70
   5  -2 -12   38.20    3.10
  -5   2  12   37.20    2.90
  -5   2  12   39.70    3.00
   4  -2 -12   87.69    8.90
   4  -2 -12  119.19   10.10
   4  -2 -12  110.89    8.30
   4  -2 -12   86.29    9.40
  -4   2  12  109.69    8.00
  -4   2  12  111.09    8.10
   3  -2 -12  104.99   10.40
   3  -2 -12  106.09    9.80
   3  -2 -12  110.99    8.50
   3  -2 -12   99.49   10.80
  -3   2  12  114.69    8.60
  -3   2  12  118.09    8.40
  -3   2  12  103.69    8.30
   2  -2 -12   98.29    8.20
   2  -2 -12   83.69    7.40
   2  -2 -12   93.39    7.10
   2  -2 -12   80.29    8.90
   2  -2 -12   82.69    7.00
  -2   2  12   91.89    7.10
  -2   2  12   87.29    6.80
  -2   2  12   88.89    6.90
  -2   2  12   92.99    7.00
   1  -2 -12  322.27   25.30
   1  -2 -12  331.67   25.00
   1  -2 -12  286.17   26.80
  -1   2  12  338.07   24.90
  -1   2  12  364.36   24.70
  -1   2  12  326.17   24.70
   0  -2 -12  376.06   30.90
   0  -2 -12  367.76   31.30
   0   2  12  450.85   30.90
   0   2  12  422.46   31.20
   0   2  12  467.55   30.90
   0   2  12  399.36   31.20
  -1  -2 -12  403.96   28.00
  -1  -2 -12  348.67   28.40
  -1  -2 -12  318.37   28.40
  -1  -2 -12  339.57   28.20
  -1  -2 -12  398.36   28.50
   1   2  12  373.46   32.00
   1   2  12  385.36   27.80
   1   2  12  350.46   28.10
   1   2  12  405.26   27.80
   1   2  12  394.86   28.10
  -2  -2 -12   79.89    7.40
  -2  -2 -12   86.89    7.20
  -2  -2 -12   99.39    7.20
  -2  -2 -12   95.79    8.10
  -2  -2 -12   77.69    6.90
   2   2  12  102.09   13.70
   2   2  12   93.29    7.00
   2   2  12   92.49    7.30
   2   2  12   89.59    7.40
   2   2  12  103.09    8.70
   2   2  12   88.29    7.00
  -3  -2 -12  109.39    9.30
  -3  -2 -12  118.29    9.50
  -3  -2 -12  120.09   10.40
  -3  -2 -12  116.79    9.50
  -3  -2 -12  125.19    9.60
   3   2  12  151.08   15.70
   3   2  12  120.99   10.80
   3   2  12  124.89    9.60
  -4  -2 -12  112.79    9.70
  -4  -2 -12  114.39   10.60
  -4  -2 -12  126.19    9.60
  -4  -2 -12  125.89    9.50
   4   2  12  132.59   11.00
   4   2  12  136.89   10.90
  -5  -2 -12   43.60    3.40
  -5  -2 -12   41.00    3.20
   5   2  12   36.90    4.10
   5  -3 -12    8.60    1.70
   5  -3 -12    7.50    1.10
   5  -3 -12    4.50    2.20
   4  -3 -12   14.10    3.20
   4  -3 -12   19.20    1.90
   4  -3 -12   11.40    3.40
   4  -3 -12   15.00    2.90
   4  -3 -12   16.70    2.80
  -4   3  12   13.30    1.40
  -4   3  12   13.50    1.40
   3  -3 -12   39.60    3.40
   3  -3 -12   42.20    3.70
   3  -3 -12   35.10    5.20
  -3   3  12   36.00    3.00
  -3   3  12   35.40    3.10
   2  -3 -12  273.27   19.30
   2  -3 -12  252.47   21.80
   2  -3 -12  242.48   19.20
   2  -3 -12  288.17   19.90
   2  -3 -12  262.77   20.50
  -2   3  12  247.58   19.20
  -2   3  12  240.18   19.00
  -2   3  12  223.88   19.00
   1  -3 -12   12.70    2.80
   1  -3 -12   11.90    2.60
   1  -3 -12   13.10    2.40
   1  -3 -12   11.10    1.60
   1  -3 -12   12.90    1.80
  -1   3  12   14.70    1.40
  -1   3  12    8.70    1.80
  -1   3  12   13.70    1.40
   0  -3 -12    0.00    0.90
   0  -3 -12    0.80    1.30
   0  -3 -12    0.60    1.00
   0  -3 -12    0.70    1.10
   0  -3 -12   -0.40    1.60
   0   3  12   -0.40    0.40
   0   3  12    0.20    0.60
   0   3  12    0.20    1.10
   0   3  12    0.50    0.90
  -1  -3 -12   12.80    2.60
  -1  -3 -12    8.90    1.60
  -1  -3 -12   11.50    2.00
  -1  -3 -12   11.90    2.40
  -1  -3 -12   10.70    1.50
  -1  -3 -12   14.10    1.50
   1   3  12   12.90    1.30
   1   3  12   12.50    1.30
   1   3  12   13.50    1.90
   1   3  12    9.70    1.80
   1   3  12    8.40    2.90
  -2  -3 -12  259.87   19.60
  -2  -3 -12  276.17   19.60
   2   3  12  256.97   19.40
   2   3  12  256.47   19.80
   2   3  12  257.47   19.40
   2   3  12  239.48   20.70
  -3  -3 -12   31.60    4.40
  -3  -3 -12   38.80    3.40
   3   3  12   40.40    4.90
   3   3  12   39.40    3.60
  -4  -3 -12   17.50    1.90
  -4  -3 -12   16.90    3.10
   4   3  12   14.90    1.90
   5   3  12    3.10    1.10
   4  -4 -12   28.20    2.80
   4  -4 -12   32.20    3.50
   4  -4 -12   28.50    3.50
  -4   4  12   27.50    2.40
   3  -4 -12  181.78   15.20
   3  -4 -12  164.18   17.80
  -3   4  12  190.08   13.90
  -3   4  12  199.98   14.00
   2  -4 -12   67.49    8.00
   2  -4 -12   80.39    6.50
   2  -4 -12   71.99    7.10
   2  -4 -12   82.99    7.20
  -2   4  12   83.89    6.00
  -2   4  12   84.69    6.10
  -2   4  12   69.29    6.20
   1  -4 -12  162.48   13.90
   1  -4 -12  194.98   14.50
   1  -4 -12  170.08   13.70
   1  -4 -12  202.48   14.50
   1  -4 -12  155.18   15.30
   1  -4 -12  174.38   14.80
  -1   4  12  160.98   13.70
  -1   4  12  186.28   13.40
  -1   4  12  188.38   13.40
   0  -4 -12   29.80    3.60
   0  -4 -12   29.40    3.40
   0  -4 -12   26.20    2.90
   0  -4 -12   23.40    4.30
   0   4  12   27.00    2.40
   0   4  12   26.70    2.90
   0   4  12   28.50    2.40
  -1  -4 -12  138.59   12.20
  -1  -4 -12  151.78   13.60
  -1  -4 -12  183.58   13.20
  -1  -4 -12  151.18   13.00
   1   4  12  164.88   12.50
   1   4  12  165.08   12.10
   1   4  12  163.88   12.10
  -2  -4 -12   79.29    6.30
  -2  -4 -12   73.09    7.20
  -2  -4 -12   79.79    6.30
   2   4  12   75.59    6.10
   2   4  12   82.99    7.90
   2   4  12   77.89    6.00
   2   4  12   75.99    6.50
  -3  -4 -12  165.18   14.30
   3   4  12  145.99   12.50
  -4  -4 -12   24.70    4.60
  -4  -4 -12   29.50    2.50
   4   4  12   28.70    2.70
   4   4  12   25.50    3.70
   4  -5 -12   83.29    6.60
   4  -5 -12   77.89    6.90
   4  -5 -12   70.89    6.10
   3  -5 -12   83.19    7.40
   3  -5 -12   88.29    7.30
   3  -5 -12   85.79    6.80
  -3   5  12   74.99    6.40
  -3   5  12   78.29    6.30
   2  -5 -12  197.58   16.00
   2  -5 -12  218.78   16.70
   2  -5 -12  183.38   17.00
  -2   5  12  210.18   15.60
  -2   5  12  221.28   15.60
   1  -5 -12   24.40    2.80
   1  -5 -12   19.70    3.90
   1  -5 -12   28.20    3.50
   1  -5 -12   19.90    2.50
   1  -5 -12   22.00    2.90
  -1   5  12   25.60    2.10
  -1   5  12   24.10    2.80
  -1   5  12   25.00    2.10
   0  -5 -12  100.39    9.40
   0  -5 -12  105.69   10.30
   0  -5 -12  106.89    8.90
   0  -5 -12  118.09    9.20
   0  -5 -12  113.49   10.40
   0   5  12  105.59    8.80
   0   5  12  114.39    8.50
   0   5  12  119.59    8.50
  -1  -5 -12   22.20    2.50
  -1  -5 -12   19.10    3.70
  -1  -5 -12   23.40    3.20
  -1  -5 -12   22.20    5.80
   1   5  12   21.80    2.50
   1   5  12   23.30    2.00
   1   5  12   23.60    2.10
  -2  -5 -12  197.78   14.60
  -2  -5 -12  161.78   17.30
   2   5  12  173.08   13.70
   2   5  12  169.68   13.30
   2   5  12  175.28   13.40
  -3  -5 -12   68.59    5.50
  -3  -5 -12   74.59    6.50
   3   5  12   67.59    5.70
   3   5  12   66.69    7.00
  -4  -5 -12   55.69    5.00
   4   5  12   60.89    4.50
   4   5  12   51.49    5.20
   3  -6 -12  161.08   14.40
   3  -6 -12  163.58   12.80
   2  -6 -12  104.49    8.40
   2  -6 -12   94.59    9.60
   2  -6 -12  117.99    9.10
  -2   6  12  104.09    7.90
  -2   6  12   94.79    7.90
   1  -6 -12  149.99   12.70
   1  -6 -12  160.28   12.20
   1  -6 -12  153.98   12.10
  -1   6  12  156.28   11.70
  -1   6  12  149.09   11.70
   0  -6 -12  214.88   16.70
   0  -6 -12  227.68   18.00
   0  -6 -12  209.98   16.70
   0  -6 -12  182.08   17.00
   0   6  12  225.98   16.30
   0   6  12  223.18   16.30
   0   6  12  225.88   16.60
  -1  -6 -12  135.29   11.80
  -1  -6 -12  162.78   12.30
  -1  -6 -12  177.78   14.60
   1   6  12  149.09   11.50
   1   6  12  142.59   11.80
   1   6  12  148.69   11.60
   2   6  12   87.69    7.20
   2   6  12   92.09    6.90
   2   6  12   88.79    7.00
  -3  -6 -12  129.79   11.10
   3   6  12  130.29   10.20
   2  -7 -12   30.00    3.60
   2  -7 -12   27.50    3.00
   2  -7 -12   21.50    2.90
  -2   7  12   24.90    2.40
  -2   7  12   25.30    2.10
   1  -7 -12  114.89    8.80
   1  -7 -12   99.39    9.60
  -1   7  12  110.09    8.30
  -1   7  12  109.09    8.20
   0  -7 -12   53.49    6.80
   0  -7 -12   43.50    4.10
   0  -7 -12   44.80    4.20
   0   7  12   45.90    4.00
   0   7  12   46.40    3.70
   0   7  12   45.00    3.70
  -1  -7 -12   99.99    8.10
   1   7  12  105.19    7.90
   1   7  12   99.09    8.10
   1   7  12  106.59    7.90
  -2  -7 -12   25.90    2.60
   2   7  12   20.80    2.20
   2   7  12   19.80    1.90
   0  -8 -12   18.30    2.10
   0  -8 -12   20.90    2.00
   0   8  12   19.40    1.70
   2   7 -13   62.29    5.50
   2   7 -13   74.69    5.10
  -2  -7  13   59.39    5.80
   1   7 -13   21.20    1.90
   1   7 -13   25.80    2.20
   1   7 -13   24.30    2.30
   0   7 -13    1.20    0.60
   0   7 -13    1.50    0.50
   0   7 -13    1.20    0.20
   0   7 -13    1.00    0.50
   0  -7  13    1.00    1.30
  -1   7 -13   21.10    1.70
  -1   7 -13   22.60    2.00
  -1   7 -13   20.10    1.80
  -2   7 -13   63.39    5.00
  -2   7 -13   61.79    4.80
  -2   7 -13   65.49    4.90
  -2   7 -13   73.79    5.10
   2  -7  13   52.49    6.20
   3   6 -13    2.80    1.00
   3   6 -13    2.90    0.50
  -3  -6  13    2.60    0.70
  -3  -6  13    2.60    1.20
   2   6 -13  140.49   10.40
   2   6 -13  113.19   10.60
   2   6 -13  139.59   10.90
  -2  -6  13  154.28   11.40
   1   6 -13   58.79    4.50
   1   6 -13   54.29    5.40
   1   6 -13   60.69    5.10
   1   6 -13   62.29    4.70
  -1  -6  13   60.19    5.90
   0   6 -13    8.20    0.70
   0   6 -13    8.50    1.30
   0   6 -13    6.70    0.90
   0   6 -13    8.40    1.10
   0  -6  13    6.80    2.40
   0  -6  13    7.50    2.10
  -1   6 -13   57.59    4.30
  -1   6 -13   53.09    4.20
  -1   6 -13   56.29    4.10
  -1   6 -13   58.09    4.60
   1  -6  13   46.20    5.40
  -2   6 -13  115.99    9.10
  -2   6 -13  126.89    9.00
  -2   6 -13  127.09    9.20
  -2   6 -13  124.79    9.30
   2  -6  13  114.89   11.50
   2  -6  13  110.59   10.10
  -3   6 -13    3.60    1.10
  -3   6 -13    2.50    0.60
  -3   6 -13    2.10    0.50
  -3   6 -13    2.70    0.40
   3  -6  13    1.20    1.60
   3  -6  13    2.20    2.00
   4   5 -13  162.78   11.20
  -4  -5  13  124.49   10.90
   3   5 -13   62.69    4.60
   3   5 -13   62.49    5.30
  -3  -5  13   53.89    4.90
  -3  -5  13   57.59    5.70
   2   5 -13   36.30    3.20
   2   5 -13   38.60    3.80
   2   5 -13   37.70    3.00
  -2  -5  13   31.20    3.30
   1   5 -13   26.90    2.30
   1   5 -13   28.50    2.60
   1   5 -13   24.30    3.10
   1   5 -13   29.70    2.50
   1   5 -13   27.50    2.10
  -1  -5  13   34.90    4.00
  -1  -5  13   19.60    7.20
  -1  -5  13   22.20    2.70
   0   5 -13   18.90    1.80
   0   5 -13   18.40    2.00
   0   5 -13   18.10    1.60
   0   5 -13   18.40    1.50
   0  -5  13   22.10    3.00
   0  -5  13   14.10    3.20
   0  -5  13   15.90    3.10
  -1   5 -13   27.00    2.30
  -1   5 -13   27.90    2.10
  -1   5 -13   27.10    2.40
  -1   5 -13   26.10    2.60
   1  -5  13   26.20    3.80
   1  -5  13   25.20    3.50
  -2   5 -13   35.50    2.90
  -2   5 -13   31.50    2.70
  -2   5 -13   35.30    2.50
  -2   5 -13   32.40    2.60
   2  -5  13   37.10    4.10
   2  -5  13   19.90    6.50
   2  -5  13   28.10    4.00
   2  -5  13   29.40    3.90
  -3   5 -13   53.89    4.00
  -3   5 -13   44.20    4.20
  -3   5 -13   55.19    4.30
   3  -5  13   58.19    5.60
   3  -5  13   46.40    6.60
  -4   5 -13  133.59    9.30
   4  -5  13  118.09   10.80
   4  -5  13  118.69   10.50
   4   4 -13   70.69    5.20
  -4  -4  13   58.09    5.00
  -4  -4  13   67.99    5.30
   3   4 -13   19.60    1.80
   3   4 -13   19.40    2.50
  -3  -4  13   23.50    3.50
  -3  -4  13   18.20    2.20
   2   4 -13   12.70    1.60
   2   4 -13   14.70    1.50
   2   4 -13   15.40    2.30
   2   4 -13   14.60    2.00
  -2  -4  13   14.00    2.00
  -2  -4  13   20.70    3.40
  -2  -4  13    9.40    1.50
   1   4 -13  330.97   23.70
   1   4 -13  322.17   23.50
   1   4 -13  284.97   23.40
   1   4 -13  308.37   23.90
   1   4 -13  301.37   23.30
   1   4 -13  316.17   24.00
  -1  -4  13  329.67   24.10
   0   4 -13  364.86   26.80
   0   4 -13  349.87   27.10
   0   4 -13  369.96   27.00
   0   4 -13  368.76   27.40
   0   4 -13  366.26   26.90
   0  -4  13  309.07   27.90
   0  -4  13  386.46   27.70
   0  -4  13  363.96   28.10
  -1   4 -13  295.17   19.50
  -1   4 -13  252.27   20.00
  -1   4 -13  283.47   19.50
   1  -4  13  231.08   20.80
   1  -4  13  222.28   21.30
   1  -4  13  269.87   20.90
  -2   4 -13   15.90    1.60
  -2   4 -13   13.70    1.10
  -2   4 -13   13.90    1.30
  -2   4 -13   13.40    1.40
   2  -4  13   11.90    2.80
   2  -4  13   12.30    2.70
   2  -4  13   14.40    2.50
   2  -4  13   10.10    2.30
   2  -4  13   11.20    4.70
  -3   4 -13   17.60    1.60
  -3   4 -13   18.50    1.90
  -3   4 -13   18.40    1.80
  -3   4 -13   18.40    1.50
   3  -4  13   23.20    5.10
   3  -4  13   16.40    2.70
  -4   4 -13   70.09    5.60
  -4   4 -13   71.39    5.50
  -4   4 -13   74.39    5.70
   4  -4  13   76.09    8.00
   5   3 -13    6.40    0.80
  -5  -3  13    6.50    0.90
   4   3 -13   42.30    3.70
   4   3 -13   54.49    4.20
  -4  -3  13   43.80    3.80
  -4  -3  13   48.50    3.70
  -4  -3  13   45.40    4.00
   3   3 -13   15.00    3.10
   3   3 -13   16.80    2.20
   3   3 -13   15.40    1.50
   3   3 -13   17.10    2.30
  -3  -3  13   15.60    2.00
  -3  -3  13   13.80    1.70
  -3  -3  13   11.50    3.00
  -3  -3  13   14.50    1.50
   2   3 -13    8.60    1.90
   2   3 -13    8.80    2.60
   2   3 -13    7.70    1.10
   2   3 -13    6.70    1.30
   2   3 -13    7.90    1.40
   2   3 -13    5.80    1.60
  -2  -3  13    5.10    1.00
  -2  -3  13    6.50    1.30
  -2  -3  13    9.20    2.50
  -2  -3  13    9.00    1.40
  -2  -3  13    7.60    0.90
   1   3 -13  446.36   32.80
   1   3 -13  425.96   32.20
   1   3 -13  476.65   32.40
   1   3 -13  442.46   32.70
   1   3 -13  433.66   32.30
   1   3 -13  421.26   32.10
  -1  -3  13  491.45   32.80
  -1  -3  13  481.65   33.50
  -1  -3  13  375.76   32.20
  -1  -3  13  382.06   32.20
  -1  -3  13  371.76   32.40
   0   3 -13  383.06   26.90
   0   3 -13  386.96   27.10
   0   3 -13  322.07   27.50
   0   3 -13  386.76   28.10
   0   3 -13  394.56   27.20
   0   3 -13  367.46   27.00
   0  -3  13  319.57   27.20
   0  -3  13  328.87   28.10
  -1   3 -13  443.06   33.40
  -1   3 -13  430.36   33.80
  -1   3 -13  428.56   33.50
  -1   3 -13  463.35   33.60
  -1   3 -13  470.95   34.00
  -1   3 -13  462.55   33.70
   1  -3  13  485.05   34.20
   1  -3  13  408.46   33.70
  -2   3 -13    7.60    1.30
  -2   3 -13    7.70    1.20
  -2   3 -13    5.10    1.60
  -2   3 -13    5.40    0.80
  -2   3 -13    6.20    0.70
   2  -3  13    3.30    4.10
   2  -3  13    4.40    1.90
   2  -3  13    6.00    1.70
   2  -3  13    6.90    2.50
  -3   3 -13   18.10    1.80
  -3   3 -13   15.50    1.30
  -3   3 -13   13.60    1.60
  -3   3 -13   15.50    1.50
   3  -3  13   14.30    4.60
   3  -3  13   14.40    2.90
   3  -3  13   16.80    3.00
   3  -3  13   13.10    3.90
  -4   3 -13   49.60    3.90
  -4   3 -13   49.00    4.10
  -4   3 -13   49.10    4.00
   4  -3  13   57.69    6.50
   4  -3  13   49.40    5.70
  -5   3 -13    8.00    0.70
   5  -3  13    4.10    2.00
   5  -3  13    7.60    1.80
   5   2 -13   32.50    2.70
  -5  -2  13   31.00    2.80
  -5  -2  13   35.30    2.60
   4   2 -13   44.70    3.70
   4   2 -13   50.79    7.20
   4   2 -13   46.00    4.60
   4   2 -13   36.00    3.20
  -4  -2  13   37.50    3.20
  -4  -2  13   35.50    3.30
  -4  -2  13   35.90    3.50
   3   2 -13  143.49   10.90
   3   2 -13  133.09   10.90
   3   2 -13  127.49   11.50
  -3  -2  13  137.29   10.50
  -3  -2  13  137.29   10.40
  -3  -2  13  143.89   10.70
   2   2 -13   72.19    5.40
   2   2 -13   73.49    6.20
   2   2 -13   75.99    6.80
   2   2 -13   68.39    5.80
   2   2 -13   66.69    5.60
  -2  -2  13   63.19    5.40
  -2  -2  13   72.19    5.70
  -2  -2  13   65.09    5.50
  -2  -2  13   64.19    5.80
  -2  -2  13   79.79    7.20
   1   2 -13  142.09   10.20
   1   2 -13  147.79   10.70
   1   2 -13  147.99   11.30
   1   2 -13  139.89   10.30
   1   2 -13  126.29   10.30
  -1  -2  13  136.69   11.40
  -1  -2  13  121.39   10.20
  -1  -2  13  121.39   10.10
  -1  -2  13  134.79   10.30
  -1  -2  13  119.99   10.40
   0   2 -13  266.17   19.40
   0   2 -13  260.97   19.50
   0   2 -13  303.37   19.80
   0   2 -13  254.97   19.80
   0   2 -13  277.67   19.60
   0  -2  13  236.18   20.70
   0  -2  13  233.68   19.80
   0  -2  13  260.37   19.50
   0  -2  13  279.17   19.60
   0  -2  13  233.28   19.70
  -1   2 -13  147.29   10.90
  -1   2 -13  143.09   11.20
  -1   2 -13  157.88   11.40
  -1   2 -13  130.29   11.50
  -1   2 -13  140.09   10.70
  -1   2 -13  152.98   11.00
  -1   2 -13  137.99   10.80
   1  -2  13  131.09   11.10
  -2   2 -13   69.79    5.40
  -2   2 -13   76.09    6.20
  -2   2 -13   72.79    5.50
  -2   2 -13   82.39    6.00
  -2   2 -13   65.59    5.60
  -2   2 -13   73.89    5.80
   2  -2  13   54.99    9.70
   2  -2  13   76.69    6.40
   2  -2  13   59.69    7.60
  -3   2 -13  152.48   11.70
  -3   2 -13  159.98   11.80
  -3   2 -13  157.28   12.00
  -3   2 -13  147.09   11.90
   3  -2  13  154.88   14.50
   3  -2  13  171.28   15.80
   3  -2  13  153.38   13.10
   3  -2  13  151.08   12.60
  -4   2 -13   42.50    3.20
  -4   2 -13   44.90    3.30
  -4   2 -13   38.50    3.40
   4  -2  13   37.80    5.60
   4  -2  13   38.50    4.20
  -5   2 -13   35.90    2.80
  -5   2 -13   33.10    3.00
  -5   2 -13   36.60    2.70
   5  -2  13   29.50    4.40
   5  -2  13   32.60    3.90
   5   1 -13    3.00    2.80
   5   1 -13    2.40    0.50
   5   1 -13    2.10    1.30
  -5  -1  13    1.50    0.60
  -5  -1  13    2.30    0.50
  -5  -1  13    2.30    0.60
   4   1 -13   46.60    4.20
   4   1 -13   60.29    7.70
   4   1 -13   61.19    5.20
  -4  -1  13   47.40    4.20
  -4  -1  13   54.19    4.40
  -4  -1  13   51.29    4.30
   3   1 -13  129.69   10.10
   3   1 -13  129.79    9.70
   3   1 -13  127.09   12.90
   3   1 -13  132.69   10.50
  -3  -1  13  127.09   10.00
  -3  -1  13  121.99    9.80
  -3  -1  13  124.69   10.00
  -3  -1  13  123.29    9.70
   2   1 -13  645.84   47.10
   2   1 -13  626.44   49.10
   2   1 -13  597.44   46.80
   2   1 -13  706.03   47.30
  -2  -1  13  589.94   47.00
  -2  -1  13  616.64   47.00
  -2  -1  13  611.54   46.80
   1   1 -13   56.39    5.10
   1   1 -13   57.49    5.60
   1   1 -13   54.99    4.50
   1   1 -13   61.39    4.80
  -1  -1  13   55.49    4.50
  -1  -1  13   56.39    4.50
  -1  -1  13   55.99    4.60
  -1  -1  13   58.09    4.90
   0   1 -13   20.60    1.80
   0   1 -13   20.50    2.10
   0   1 -13   13.40    4.50
   0   1 -13   21.80    2.20
   0   1 -13   20.10    1.60
   0   1 -13   16.80    2.60
   0   1 -13   22.60    2.00
   0   1 -13   22.50    2.90
   0  -1  13   21.50    1.80
   0  -1  13   21.80    1.90
   0  -1  13   21.10    1.80
   0  -1  13   17.60    2.60
   0  -1  13   20.10    4.10
  -1   1 -13   67.89    5.10
  -1   1 -13   63.09    5.00
  -1   1 -13   56.69    5.60
  -1   1 -13   61.59    4.60
  -1   1 -13   68.09    5.10
  -1   1 -13   64.49    4.90
  -1   1 -13   61.99    4.70
   1  -1  13   62.99    5.20
   1  -1  13   56.39    4.70
   1  -1  13   48.10    6.30
   1  -1  13   57.09    4.80
  -2   1 -13  674.33   50.29
  -2   1 -13  680.13   50.09
  -2   1 -13  739.23   50.49
  -2   1 -13  684.43   49.99
  -2   1 -13  712.63   50.49
   2  -1  13  642.14   50.39
   2  -1  13  615.54   53.49
   2  -1  13  629.44   51.49
  -3   1 -13  140.69   11.50
  -3   1 -13  146.19   10.70
  -3   1 -13  141.79   10.60
  -3   1 -13  133.09   11.00
  -3   1 -13  129.19   10.80
   3  -1  13  143.39   13.20
   3  -1  13  144.89   17.20
   3  -1  13  145.29   12.20
  -4   1 -13   63.49    4.70
  -4   1 -13   61.49    4.60
  -4   1 -13   54.29    4.80
   4  -1  13   51.49    6.80
   4  -1  13   66.69    6.00
  -5   1 -13    3.90    0.70
  -5   1 -13    3.50    0.70
  -5   1 -13    3.60    0.50
   5  -1  13    3.60    1.70
   5  -1  13    3.70    1.60
   5   0 -13   -0.10    1.00
   5   0 -13   -0.10    0.50
   5   0 -13    0.10    1.00
   5   0 -13   -0.20    2.40
  -5   0  13    0.10    0.50
  -5   0  13    0.50    1.00
  -5   0  13    0.10    0.30
   4   0 -13  228.58   16.60
   4   0 -13  206.28   17.50
   4   0 -13  183.18   16.40
   4   0 -13  256.97   17.20
  -4   0  13  227.58   16.40
  -4   0  13  215.48   16.40
  -4   0  13  211.78   16.60
   3   0 -13   97.89    8.40
   3   0 -13  106.19    8.80
   3   0 -13   95.69    9.20
   3   0 -13  128.89   11.60
   3   0 -13  103.59    9.70
   3   0 -13  115.09    8.90
  -3   0  13  106.49    8.60
  -3   0  13  107.89    8.70
  -3   0  13  121.89    8.60
  -3   0  13  121.49    8.50
   2   0 -13  846.62   63.09
   2   0 -13  730.63   62.39
   2   0 -13  879.21   62.69
   2   0 -13  739.73   64.19
  -2   0  13  824.12   62.69
  -2   0  13  916.61   62.69
  -2   0  13  934.41   62.49
   1   0 -13  527.35   38.90
   1   0 -13  558.14   38.70
  -1   0  13  556.94   38.70
  -1   0  13  496.25   38.40
  -1   0  13  481.45   38.40
  -1   0  13  525.85   38.50
  -1   0  13  457.25   38.80
   0   0 -13    2.20    1.30
   0   0 -13    1.20    0.70
   0   0 -13    0.40    0.70
   0   0 -13   -0.20    1.30
   0   0 -13   -0.10    0.50
   0   0 -13    0.70    0.50
   0   0 -13   -7.70   28.50
   0   0  13    0.20    0.90
   0   0  13    0.30    0.50
   0   0  13    0.30    0.80
   0   0  13   22.20   27.20
   0   0  13    0.40    0.50
   0   0  13    1.50   10.20
   0   0  13    0.30    0.50
   0   0  13   -0.50    4.90
  -1   0 -13  572.74   42.40
  -1   0 -13  573.64   77.89
  -1   0 -13  600.24   41.90
  -1   0 -13  579.84   41.70
  -1   0 -13  607.24   42.10
  -1   0 -13  549.95   41.80
  -1   0 -13  575.34   41.60
   1   0  13  523.15   41.60
   1   0  13  509.85   43.00
   1   0  13  536.65   41.60
   1   0  13  550.94   41.90
   1   0  13  577.24   41.70
   1   0  13  483.25   72.79
   1   0  13  560.54   42.00
   1   0  13  532.85   49.40
  -2   0 -13  911.81   74.99
  -2   0 -13 1056.69   74.89
  -2   0 -13 1026.40   75.09
  -2   0 -13 1020.20   75.19
  -2   0 -13 1003.30   74.79
   2   0  13 1004.20   76.19
   2   0  13  951.70   75.09
   2   0  13 1080.59   79.89
  -3   0 -13  127.89    9.60
  -3   0 -13  117.19    9.80
  -3   0 -13  137.99    9.60
  -3   0 -13  119.19    9.90
   3   0  13  109.09    9.80
   3   0  13  148.09   14.80
   3   0  13  133.69   11.20
   3   0  13  122.79   10.30
  -4   0 -13  259.17   18.50
  -4   0 -13  231.58   18.70
  -4   0 -13  259.97   18.60
   4   0  13  233.38   19.70
  -5   0 -13    0.00    0.60
  -5   0 -13    0.40    0.30
  -5   0 -13    1.30    0.50
   5   0  13   -1.00    1.10
   5   0  13    0.20    1.20
   5  -1 -13    2.50    1.10
   5  -1 -13    3.30    0.70
   5  -1 -13    3.90    2.40
   5  -1 -13    2.50    1.40
  -5   1  13    1.90    0.60
  -5   1  13    3.40    0.50
   4  -1 -13   41.10    5.80
   4  -1 -13   55.09    4.10
   4  -1 -13   55.39    6.80
   4  -1 -13   48.40    5.00
  -4   1  13   53.89    4.00
  -4   1  13   51.39    3.90
  -4   1  13   40.90    4.20
   3  -1 -13   96.89    8.30
   3  -1 -13   97.49    9.50
   3  -1 -13  119.19   11.20
   3  -1 -13   90.49    9.10
  -3   1  13   97.59    8.40
  -3   1  13  109.59    8.50
  -3   1  13  123.19    8.20
  -3   1  13  126.19    8.30
   2  -1 -13  547.55   40.30
   2  -1 -13  460.85   40.00
   2  -1 -13  518.05   39.80
   2  -1 -13  524.05   40.80
  -2   1  13  599.24   39.80
  -2   1  13  476.65   40.00
  -2   1  13  604.44   39.80
   1  -1 -13   62.09    5.40
   1  -1 -13   58.89    5.40
   1  -1 -13   59.69    6.70
   1  -1 -13   61.89    5.00
  -1   1  13   64.69    4.90
  -1   1  13   56.59    4.70
  -1   1  13   50.99    4.60
  -1   1  13   50.39    5.00
  -1   1  13   65.39    4.80
   0  -1 -13   22.20    7.00
   0  -1 -13   15.40    1.90
   0  -1 -13   16.10    2.90
   0   1  13   19.20    2.40
   0   1  13   21.40    2.10
   0   1  13   22.60    1.80
  -1  -1 -13   61.39    5.50
  -1  -1 -13   49.90    4.70
  -1  -1 -13   56.49    4.50
  -1  -1 -13   63.79    4.80
  -1  -1 -13   55.09    5.10
   1   1  13   62.39    4.60
   1   1  13   58.99    4.60
   1   1  13   59.99    4.90
   1   1  13   52.29    6.50
   1   1  13   62.99    5.10
   1   1  13   61.69   11.20
  -2  -1 -13  665.73   49.20
  -2  -1 -13  640.84   48.30
  -2  -1 -13  662.53   48.50
  -2  -1 -13  638.94   48.20
  -2  -1 -13  558.34   48.40
   2   1  13  646.14   48.60
   2   1  13  665.43   48.60
   2   1  13  647.74   49.70
   2   1  13  718.43   56.89
  -3  -1 -13  111.39   10.70
  -3  -1 -13  141.69    9.80
  -3  -1 -13  120.49   10.10
  -3  -1 -13  133.49    9.90
  -3  -1 -13  138.39   10.20
   3   1  13  123.59   10.10
   3   1  13  143.19   15.50
   3   1  13  139.59   11.50
   3   1  13  114.99   10.50
  -4  -1 -13   52.89    4.80
  -4  -1 -13   61.69    4.60
  -4  -1 -13   61.09    4.70
   4   1  13   59.09    6.10
  -5  -1 -13    2.40    0.40
  -5  -1 -13    3.10    0.60
   5   1  13    0.80    1.30
   5   1  13    3.30    1.60
   5  -2 -13   34.70    3.10
   5  -2 -13   30.60    2.50
   5  -2 -13   28.70    4.00
   5  -2 -13   23.20    3.20
  -5   2  13   27.20    2.30
   4  -2 -13   37.90    5.00
   4  -2 -13   41.30    4.20
   4  -2 -13   34.20    3.20
   4  -2 -13   38.80    5.70
  -4   2  13   36.60    3.10
  -4   2  13   39.90    3.10
   3  -2 -13  125.89   10.10
   3  -2 -13  138.09   10.40
   3  -2 -13  130.39   12.40
   3  -2 -13  133.49   11.00
   3  -2 -13  126.69   12.10
  -3   2  13  126.39    9.90
  -3   2  13  137.39   10.00
   2  -2 -13   59.89    6.10
   2  -2 -13   64.59    5.00
   2  -2 -13   58.99    4.90
   2  -2 -13   51.89    5.30
  -2   2  13   58.59    4.70
  -2   2  13   67.69    5.10
  -2   2  13   51.79    5.20
  -2   2  13   58.59    4.70
  -2   2  13   64.39    4.90
   1  -2 -13  141.39   11.00
   1  -2 -13  128.99   10.10
   1  -2 -13  132.99   10.00
   1  -2 -13  117.89   10.30
   1  -2 -13  141.59   10.70
  -1   2  13  129.79   10.10
  -1   2  13  129.29   10.40
  -1   2  13  124.39   10.20
  -1   2  13  124.59    9.90
   0  -2 -13  218.28   18.40
   0  -2 -13  229.88   18.40
   0  -2 -13  223.38   19.30
   0  -2 -13  256.97   19.20
   0  -2 -13  222.58   18.80
   0  -2 -13  273.97   19.10
   0   2  13  278.37   18.70
   0   2  13  248.88   18.70
  -1  -2 -13  147.79   11.30
  -1  -2 -13  141.59   10.70
  -1  -2 -13  117.89   11.20
   1   2  13  145.29   10.40
   1   2  13  123.59   10.80
   1   2  13  142.09   10.50
   1   2  13  141.99   10.80
  -2  -2 -13   56.99    5.10
  -2  -2 -13   58.49    5.00
  -2  -2 -13   60.99    5.30
  -2  -2 -13   64.19    6.30
  -2  -2 -13   73.79    5.40
   2   2  13   69.69    6.90
   2   2  13   68.49    5.50
   2   2  13   62.59    5.10
   2   2  13   68.19    5.10
  -3  -2 -13  129.69   10.40
  -3  -2 -13  133.39   10.30
  -3  -2 -13  132.39   10.10
  -3  -2 -13  111.59   11.10
   3   2  13  136.29   10.50
   3   2  13  155.88   18.10
   3   2  13  150.28   11.90
  -4  -2 -13   38.40    3.10
  -4  -2 -13   42.30    4.70
  -4  -2 -13   34.50    3.40
  -4  -2 -13   34.60    3.40
   4   2  13   43.60    5.00
   4   2  13   39.60    4.70
  -5  -2 -13   34.10    2.80
   5  -3 -13    5.60    1.40
   5  -3 -13    5.20    1.30
   5  -3 -13    7.90    1.00
   4  -3 -13   45.40    3.60
   4  -3 -13   39.90    4.90
   4  -3 -13   43.90    4.40
  -4   3  13   39.80    3.30
  -4   3  13   41.30    3.40
   3  -3 -13   15.40    2.50
   3  -3 -13   14.90    3.00
   3  -3 -13   15.60    2.80
   3  -3 -13   14.50    1.80
   3  -3 -13   10.20    3.30
   3  -3 -13    6.80    4.10
  -3   3  13   13.10    1.40
  -3   3  13   15.10    1.40
   2  -3 -13    7.20    1.30
   2  -3 -13    5.40    2.50
   2  -3 -13    7.20    1.40
   2  -3 -13    7.20    2.00
   2  -3 -13    9.10    2.40
  -2   3  13    5.70    0.90
  -2   3  13    5.10    1.20
  -2   3  13    5.60    0.80
   1  -3 -13  450.45   34.90
   1  -3 -13  511.45   35.60
   1  -3 -13  513.75   35.60
   1  -3 -13  423.86   35.20
  -1   3  13  458.25   34.70
  -1   3  13  444.06   34.70
  -1   3  13  447.56   35.00
   0  -3 -13  300.07   22.20
   0  -3 -13  303.07   22.60
   0   3  13  275.37   22.70
  -1  -3 -13  393.06   29.70
  -1  -3 -13  374.76   29.50
  -1  -3 -13  337.37   28.80
  -1  -3 -13  343.97   28.90
  -1  -3 -13  346.87   29.20
   1   3  13  419.66   28.80
   1   3  13  427.56   29.10
   1   3  13  432.36   28.80
  -2  -3 -13    5.40    1.00
  -2  -3 -13    5.00    1.80
  -2  -3 -13    7.00    1.10
   2   3  13    3.00    2.20
   2   3  13    6.30    1.00
   2   3  13    6.60    0.90
   2   3  13    6.60    1.30
  -3  -3 -13   13.90    1.80
  -3  -3 -13   11.50    2.80
   3   3  13   16.70    3.50
   3   3  13   14.60    2.00
  -4  -3 -13   44.60    4.70
  -4  -3 -13   46.40    3.80
   4   3  13   41.70    4.30
   4  -4 -13   67.89    5.90
   4  -4 -13   69.09    5.30
   4  -4 -13   53.39    5.60
  -4   4  13   67.59    5.00
  -4   4  13   64.59    5.10
   3  -4 -13   18.10    2.10
   3  -4 -13   16.80    2.80
   3  -4 -13   17.00    3.60
   3  -4 -13   13.70    2.80
  -3   4  13   18.70    1.60
   2  -4 -13   13.90    2.80
   2  -4 -13   17.20    2.10
   2  -4 -13   14.20    3.70
   2  -4 -13   15.00    2.80
  -2   4  13   13.20    1.50
  -2   4  13   13.40    1.50
   1  -4 -13  288.67   24.60
   1  -4 -13  346.27   24.30
   1  -4 -13  278.47   23.70
   1  -4 -13  355.36   23.70
   1  -4 -13  265.57   25.30
  -1   4  13  326.77   23.30
  -1   4  13  320.97   23.30
  -1   4  13  304.47   23.70
   0  -4 -13  299.37   28.00
   0  -4 -13  372.16   27.20
   0  -4 -13  350.36   27.10
   0   4  13  354.46   26.30
   0   4  13  374.26   26.30
   0   4  13  353.06   26.60
  -1  -4 -13  278.07   23.70
  -1  -4 -13  332.97   22.40
   1   4  13  293.07   22.10
   1   4  13  300.97   22.30
   1   4  13  266.17   22.40
  -2  -4 -13   10.30    1.60
  -2  -4 -13   13.40    2.80
   2   4  13   11.30    2.70
   2   4  13   11.10    1.30
   2   4  13   14.10    1.50
   2   4  13   12.00    1.90
  -3  -4 -13   14.40    1.80
  -3  -4 -13   14.10    2.80
   3   4  13   15.90    2.00
  -4  -4 -13   68.69    5.70
  -4  -4 -13   58.39    5.20
   4   4  13   61.29    5.00
   4  -5 -13  171.68   12.60
   4  -5 -13  151.98   13.40
   3  -5 -13   53.79    5.90
   3  -5 -13   54.99    5.50
   3  -5 -13   61.19    5.00
  -3   5  13   62.29    4.50
  -3   5  13   56.99    4.50
   2  -5 -13   38.50    3.60
   2  -5 -13   30.90    4.10
   2  -5 -13   43.50    4.40
  -2   5  13   38.20    3.10
  -2   5  13   38.00    3.10
   1  -5 -13   30.20    3.50
   1  -5 -13   21.80    4.10
   1  -5 -13   28.30    2.80
   1  -5 -13   20.80    2.50
  -1   5  13   22.00    2.80
  -1   5  13   23.50    2.30
  -1   5  13   26.20    2.20
   0  -5 -13   16.00    2.70
   0  -5 -13   15.90    3.50
   0  -5 -13   22.80    3.10
   0  -5 -13   19.60    2.30
   0  -5 -13   15.60    3.60
   0   5  13   15.10    2.10
   0   5  13   17.40    1.70
   0   5  13   19.90    1.80
  -1  -5 -13   18.10    3.70
  -1  -5 -13   24.40    6.30
  -1  -5 -13   26.30    2.60
  -1  -5 -13   24.20    3.40
   1   5  13   26.20    2.30
   1   5  13   21.40    2.60
   1   5  13   24.90    2.10
  -2  -5 -13   32.70    7.40
  -2  -5 -13   37.40    4.10
   2   5  13   32.10    2.80
   2   5  13   32.10    2.90
   2   5  13   31.40    3.20
  -3  -5 -13   55.59    5.20
  -3  -5 -13   46.20    4.30
   3   5  13   49.90    4.40
   3   5  13   59.29    6.10
  -4  -5 -13  101.09    8.30
  -4  -5 -13  119.49    9.00
   4   5  13  114.89    9.30
   4   5  13  109.09    8.40
   3  -6 -13    1.90    1.20
   3  -6 -13    2.60    1.40
   3  -6 -13    2.80    1.00
   2  -6 -13  126.09   11.60
   2  -6 -13  147.49   10.40
  -2   6  13  123.89    9.90
  -2   6  13  126.89    9.90
   1  -6 -13   53.19    4.70
   1  -6 -13   59.59    5.30
   1  -6 -13   43.90    5.70
   1  -6 -13   48.80    4.50
  -1   6  13   54.99    4.10
  -1   6  13   45.80    4.30
  -1   6  13   50.99    4.50
   0  -6 -13    6.30    2.20
   0  -6 -13    7.90    1.80
   0  -6 -13    5.90    1.70
   0  -6 -13    9.70    1.80
   0   6  13    8.60    1.40
   0   6  13   10.70    1.10
  -1  -6 -13   55.09    4.60
  -1  -6 -13   56.39    5.20
   1   6  13   53.09    4.30
   1   6  13   58.69    4.40
   1   6  13   46.90    4.60
   2   6  13  105.99    8.40
   2   6  13  110.99    8.30
   2   6  13  108.19    8.60
  -3  -6 -13    3.90    1.30
   3   6  13   -2.30    1.90
   3   6  13    2.60    0.70
   2  -7 -13   60.69    6.00
  -2   7  13   62.09    4.80
   1  -7 -13   14.30    2.40
   1  -7 -13   21.60    3.20
  -1   7  13   16.40    1.70
  -1   7  13   20.10    1.60
   0  -7 -13    1.00    0.90
   0  -7 -13    0.30    1.30
   0  -7 -13    0.70    1.10
   0   7  13    0.50    0.80
   0   7  13    1.10    0.50
   0   7  13    0.50    0.40
  -1  -7 -13   18.40    2.10
   1   7  13   17.80    1.70
   1   7  13   17.20    2.00
   1   7  13   17.50    1.60
  -2  -7 -13   61.59    4.90
   2   7  13   52.79    4.60
   2   7 -14   34.30    2.40
   2   7 -14   31.40    3.60
  -2  -7  14   24.20    3.20
   1   7 -14   71.79    5.80
   1   7 -14   85.29    5.70
  -1  -7  14   63.69    6.40
   0   7 -14   96.49    7.30
   0   7 -14   88.99    7.00
   0   7 -14   94.49    7.10
  -1   7 -14   74.69    5.40
  -1   7 -14   76.39    5.40
  -1   7 -14   64.89    5.40
  -1   7 -14   76.69    5.70
   1  -7  14   57.89    6.90
  -2   7 -14   25.60    2.10
  -2   7 -14   30.20    2.40
  -2   7 -14   29.70    2.30
   2  -7  14   26.10    3.60
   3   6 -14   40.50    3.30
   3   6 -14   36.60    2.70
  -3  -6  14   30.60    2.80
  -3  -6  14   31.80    3.60
   2   6 -14  196.78   12.80
   2   6 -14  167.38   13.30
  -2  -6  14  172.98   13.70
  -2  -6  14  142.19   12.80
   1   6 -14  202.98   14.00
   1   6 -14  197.98   14.10
   1   6 -14  181.08   13.80
  -1  -6  14  155.68   14.80
   0   6 -14    5.70    0.60
   0   6 -14    5.70    0.70
   0   6 -14    6.10    1.10
   0   6 -14    6.10    0.90
   0  -6  14    4.30    1.70
  -1   6 -14  177.38   14.00
  -1   6 -14  193.48   14.30
  -1   6 -14  188.58   13.90
  -2   6 -14  174.28   12.10
  -2   6 -14  165.08   12.00
  -2   6 -14  171.08   12.20
  -2   6 -14  153.48   12.00
   2  -6  14  132.39   13.90
  -3   6 -14   37.00    3.00
  -3   6 -14   34.80    2.70
   3  -6  14   34.40    4.40
  -4  -5  14   20.70    1.90
   3   5 -14  107.69    7.80
  -3  -5  14   95.99    8.30
  -3  -5  14   81.69    7.40
   2   5 -14   30.50    3.10
   2   5 -14   27.20    2.60
   2   5 -14   28.80    2.40
  -2  -5  14   22.40    2.70
  -2  -5  14   31.70    3.90
   1   5 -14   85.19    6.00
   1   5 -14   73.89    5.60
   1   5 -14   83.39    6.00
   1   5 -14   66.99    6.40
   1   5 -14   71.59    5.70
  -1  -5  14   64.59    6.20
  -1  -5  14   65.89   14.00
   0   5 -14    2.00    0.60
   0   5 -14    1.00    0.50
   0   5 -14    2.50    0.90
   0   5 -14    1.60    0.30
   0  -5  14    1.20    1.40
   0  -5  14   -3.10    5.00
   0  -5  14    1.90    1.80
  -1   5 -14   82.19    5.90
  -1   5 -14   80.29    5.50
  -1   5 -14   70.39    5.60
  -1   5 -14   60.49    5.90
   1  -5  14   62.79    7.00
  -2   5 -14   27.50    2.10
  -2   5 -14   23.90    2.20
  -2   5 -14   26.70    2.30
  -2   5 -14   30.00    2.50
   2  -5  14   23.00    3.50
  -3   5 -14   87.59    7.10
  -3   5 -14  105.29    7.50
  -3   5 -14   88.59    7.00
  -3   5 -14   95.49    7.20
   3  -5  14   92.39    9.30
   3  -5  14   93.89    8.30
   4   4 -14   34.70    3.10
  -4  -4  14   30.00    2.80
   3   4 -14   73.49    5.60
  -3  -4  14   66.29    6.30
  -3  -4  14   53.29    4.80
  -3  -4  14   58.79    5.20
   2   4 -14  289.87   22.30
   2   4 -14  303.77   22.50
   2   4 -14  316.47   22.80
   2   4 -14  310.77   22.20
  -2  -4  14  255.17   22.30
   1   4 -14   31.60    2.70
   1   4 -14   29.40    2.40
   1   4 -14   33.10    3.40
   1   4 -14   32.40    2.80
   1   4 -14   27.80    2.60
   1   4 -14   26.70    3.60
  -1  -4  14   33.90    3.50
  -1  -4  14   32.60    4.30
   0   4 -14  401.06   27.70
   0   4 -14  396.16   27.90
   0   4 -14  412.16   28.20
   0   4 -14  362.26   27.80
   0   4 -14  383.06   28.40
   0  -4  14  318.47   28.90
   0  -4  14  312.77   28.00
   0  -4  14  393.16   28.70
  -1   4 -14   31.90    2.50
  -1   4 -14   33.40    3.00
  -1   4 -14   29.70    2.60
   1  -4  14   30.70    4.20
   1  -4  14   33.50    3.70
  -2   4 -14  291.27   20.80
  -2   4 -14  280.07   20.60
  -2   4 -14  302.87   21.00
  -2   4 -14  267.87   20.70
   2  -4  14  255.97   21.90
   2  -4  14  291.07   21.70
   2  -4  14  233.98   24.10
  -3   4 -14   65.69    5.00
  -3   4 -14   67.09    5.10
  -3   4 -14   63.29    4.90
  -3   4 -14   63.09    4.80
   3  -4  14   56.19    5.60
   3  -4  14   61.19    7.70
  -4   4 -14   30.70    2.50
  -4   4 -14   30.10    2.70
  -4   4 -14   32.30    2.40
   4  -4  14   33.80    4.50
   4  -4  14   29.50    3.80
   4   3 -14    8.40    1.50
   4   3 -14    6.60    0.90
  -4  -3  14    3.80    1.00
  -4  -3  14    8.40    1.30
  -4  -3  14    5.50    0.80
   3   3 -14   83.19    6.90
   3   3 -14   81.69    7.30
   3   3 -14   76.19    6.30
  -3  -3  14   95.09    7.00
  -3  -3  14   78.59    6.40
  -3  -3  14   81.09    6.50
  -3  -3  14   85.59    7.90
   2   3 -14   48.10    3.60
   2   3 -14   51.79    4.40
   2   3 -14   45.70    4.10
  -2  -3  14   44.30    4.00
  -2  -3  14   42.60    4.00
  -2  -3  14   40.30    3.70
  -2  -3  14   38.90    3.60
   1   3 -14  449.36   32.40
   1   3 -14  441.46   31.30
   1   3 -14  378.36   30.90
   1   3 -14  415.06   31.40
   1   3 -14  446.06   31.20
  -1  -3  14  398.36   31.10
  -1  -3  14  412.96   31.30
  -1  -3  14  443.06   32.60
  -1  -3  14  355.06   31.30
  -1  -3  14  426.96   31.60
   0   3 -14   31.70    3.70
   0   3 -14   39.60    3.60
   0   3 -14   37.40    2.90
   0   3 -14   38.20    3.00
   0   3 -14   40.50    3.30
   0  -3  14   29.20    5.30
   0  -3  14   33.10    3.50
   0  -3  14   45.40    3.90
  -1   3 -14  458.25   32.30
  -1   3 -14  451.35   32.00
  -1   3 -14  378.76   32.40
  -1   3 -14  415.66   31.70
  -1   3 -14  426.56   31.60
  -1   3 -14  415.76   32.10
   1  -3  14  394.86   31.90
   1  -3  14  458.65   32.50
  -2   3 -14   53.19    4.70
  -2   3 -14   52.49    4.30
  -2   3 -14   48.60    4.00
  -2   3 -14   49.60    3.90
  -2   3 -14   44.30    3.70
  -2   3 -14   44.70    3.60
   2  -3  14   48.20    4.70
   2  -3  14   31.60   10.00
   2  -3  14   41.20    5.50
  -3   3 -14   90.69    7.30
  -3   3 -14   86.49    7.10
  -3   3 -14   93.49    7.40
  -3   3 -14   89.79    7.20
   3  -3  14   90.89    8.20
   3  -3  14  112.19   10.90
   3  -3  14  106.09   15.10
   3  -3  14   96.19    9.10
  -4   3 -14    7.70    0.90
  -4   3 -14    5.60    0.90
  -4   3 -14    7.00    0.70
   4  -3  14   10.60    2.80
   4  -3  14    7.70    2.40
   5   2 -14   31.20    2.60
  -5  -2  14   33.30    2.80
  -5  -2  14   35.50    2.60
   4   2 -14   24.10    3.00
   4   2 -14   17.20    1.80
   4   2 -14   19.60    2.20
  -4  -2  14   20.90    2.00
  -4  -2  14   21.80    2.20
  -4  -2  14   20.00    1.80
   3   2 -14  298.17   19.90
   3   2 -14  225.48   20.20
   3   2 -14  265.57   19.80
   3   2 -14  241.08   19.30
  -3  -2  14  251.97   19.60
  -3  -2  14  261.27   19.30
  -3  -2  14  257.97   19.60
   2   2 -14  182.38   13.40
   2   2 -14  205.28   13.80
   2   2 -14  183.78   13.60
  -2  -2  14  160.78   13.20
  -2  -2  14  169.28   13.40
  -2  -2  14  157.58   13.20
  -2  -2  14  163.48   13.50
  -2  -2  14  172.18   13.50
   1   2 -14  187.08   12.80
   1   2 -14  175.38   13.30
   1   2 -14  177.48   12.90
   1   2 -14  173.48   12.90
  -1  -2  14  150.28   13.90
  -1  -2  14  153.68   13.00
  -1  -2  14  166.28   12.80
  -1  -2  14  159.88   12.70
   0   2 -14   38.80    3.30
   0   2 -14   35.60    2.70
   0   2 -14   32.90    3.70
   0   2 -14   36.10    2.90
   0   2 -14   37.20    3.20
   0  -2  14   31.70    4.70
   0  -2  14   37.20    2.90
   0  -2  14   35.20    3.50
   0  -2  14   35.00    3.00
  -1   2 -14  186.78   13.70
  -1   2 -14  178.08   13.50
  -1   2 -14  195.18   14.10
  -1   2 -14  172.28   14.40
  -1   2 -14  177.68   13.90
  -1   2 -14  191.88   14.10
  -1   2 -14  183.68   13.60
   1  -2  14  153.88   15.10
   1  -2  14  189.88   14.00
  -2   2 -14  187.78   14.20
  -2   2 -14  194.28   14.40
  -2   2 -14  176.88   13.90
  -2   2 -14  202.88   14.70
  -2   2 -14  180.68   14.30
  -2   2 -14  181.08   14.00
   2  -2  14  157.08   18.10
   2  -2  14  207.18   14.90
   2  -2  14  183.88   15.70
  -3   2 -14  284.57   21.50
  -3   2 -14  269.97   21.30
  -3   2 -14  287.07   21.50
  -3   2 -14  304.17   21.70
   3  -2  14  277.37   23.80
   3  -2  14  270.77   22.20
   3  -2  14  285.27   25.20
   3  -2  14  301.57   22.80
  -4   2 -14   23.80    1.80
  -4   2 -14   22.10    1.90
  -4   2 -14   19.60    2.00
   4  -2  14   20.40    2.90
   4  -2  14   23.90    4.40
  -5   2 -14   46.00    3.50
  -5   2 -14   44.00    3.60
   5  -2  14   45.90    4.60
   5   1 -14  162.58   12.30
  -5  -1  14  178.68   12.30
  -5  -1  14  149.88   12.60
   4   1 -14   73.99    9.30
   4   1 -14   78.99    7.60
   4   1 -14   92.59    6.90
   4   1 -14   75.79    6.60
  -4  -1  14   88.79    6.70
  -4  -1  14   92.39    6.60
  -4  -1  14   91.19    6.80
   3   1 -14   44.80    5.00
   3   1 -14   39.50    7.10
   3   1 -14   50.99    4.50
   3   1 -14   52.89    4.10
   3   1 -14   56.59    5.60
   3   1 -14   52.09    4.60
  -3  -1  14   52.99    4.20
  -3  -1  14   54.09    4.40
   2   1 -14   18.10    2.00
   2   1 -14   22.50    3.40
   2   1 -14   21.30    2.30
   2   1 -14   22.90    2.00
   2   1 -14   23.80    6.00
   2   1 -14   21.40    2.40
  -2  -1  14   22.00    2.00
  -2  -1  14   23.00    3.00
  -2  -1  14   20.60    2.30
   1   1 -14  258.97   17.60
   1   1 -14  239.58   17.80
   1   1 -14  243.78   17.30
  -1  -1  14  228.58   17.40
  -1  -1  14  213.18   17.30
  -1  -1  14  228.98   17.40
  -1  -1  14  197.58   17.50
   0   1 -14   13.50    1.70
   0   1 -14   13.60    1.20
   0   1 -14   15.10    1.70
   0   1 -14   15.90    1.50
   0   1 -14   12.10    1.30
   0   1 -14   14.90    2.40
   0  -1  14   14.20    1.50
   0  -1  14    6.20    5.00
   0  -1  14   15.80    1.50
   0  -1  14   12.60    2.10
   0  -1  14   13.60    3.20
   0  -1  14   15.10    1.50
  -1   1 -14  213.38   19.60
  -1   1 -14  246.58   18.90
  -1   1 -14  252.47   18.80
  -1   1 -14  265.97   19.30
  -1   1 -14  249.48   19.30
  -1   1 -14  253.37   19.00
  -1   1 -14  276.97   19.30
   1  -1  14  263.27   19.30
  -2   1 -14   20.60    3.70
  -2   1 -14   27.30    2.50
  -2   1 -14   25.50    2.60
  -2   1 -14   25.50    2.20
  -2   1 -14   24.40    2.00
   2  -1  14   17.20    5.90
   2  -1  14   30.30    2.80
  -3   1 -14   58.39    4.60
  -3   1 -14   58.29    4.90
  -3   1 -14   61.29    4.70
  -3   1 -14   60.49    5.10
   3  -1  14   61.59    6.40
   3  -1  14   60.49   10.40
   3  -1  14   58.59    7.50
  -4   1 -14   99.99    8.50
  -4   1 -14  107.49    8.30
  -4   1 -14  111.09    8.30
   4  -1  14  102.69    9.40
   4  -1  14  127.69   10.60
  -5   1 -14  216.28   15.80
  -5   1 -14  212.38   15.90
   5  -1  14  221.28   16.90
   5  -1  14  194.48   16.80
   5   0 -14    6.50    0.90
   5   0 -14    5.20    1.40
   5   0 -14    8.80    2.70
  -5   0  14    6.40    0.90
  -5   0  14    6.80    0.80
  -5   0  14    6.30    0.90
   4   0 -14  172.08   12.40
   4   0 -14  125.09   11.60
   4   0 -14  171.98   14.30
   4   0 -14  128.29   11.60
  -4   0  14  142.39   11.70
  -4   0  14  168.18   11.60
  -4   0  14  169.18   11.60
   3   0 -14    6.40    1.30
   3   0 -14    5.60    0.90
   3   0 -14    8.60    1.40
   3   0 -14    3.10    2.90
   3   0 -14    5.20    2.10
  -3   0  14    3.70    0.80
  -3   0  14    2.80    0.90
  -3   0  14    5.00    0.80
   2   0 -14  172.28   15.20
   2   0 -14  179.58   17.20
   2   0 -14  169.28   15.80
   2   0 -14  217.38   15.00
   2   0 -14  210.18   15.30
   2   0 -14  178.38   15.40
  -2   0  14  180.88   15.10
  -2   0  14  221.18   15.20
  -2   0  14  226.98   15.00
  -2   0  14  218.98   14.90
   1   0 -14    9.90    2.60
   1   0 -14   13.70    2.60
   1   0 -14   12.40    2.10
  -1   0  14    8.60    1.50
  -1   0  14   12.70    1.80
  -1   0  14    9.50    1.30
  -1   0  14   13.20    1.50
   0   0 -14  978.60   73.39
   0   0 -14 1005.40   72.89
   0   0 -14 1051.99   73.19
   0   0 -14  897.31   73.49
   0   0  14  902.31   73.09
   0   0  14  966.50   72.79
   0   0  14  989.80   72.79
   0   0  14 1007.90   72.79
   0   0  14 1004.60   73.09
  -1   0 -14   12.40    1.20
  -1   0 -14   12.00    1.70
  -1   0 -14   13.90    2.60
  -1   0 -14   14.50    1.80
  -1   0 -14   15.70    1.90
  -1   0 -14   13.10    1.40
  -1   0 -14   14.90    1.60
   1   0  14   14.10    1.90
   1   0  14   14.40    1.50
   1   0  14   10.00    2.80
   1   0  14   10.10    6.20
   1   0  14   12.40    1.30
   1   0  14   12.50    2.10
  -2   0 -14  244.08   18.50
  -2   0 -14  258.07   19.00
  -2   0 -14  259.67   18.60
  -2   0 -14  236.58   18.90
  -2   0 -14  240.38   19.50
  -2   0 -14  242.28   18.90
   2   0  14  244.18   18.90
   2   0  14  253.07   23.30
   2   0  14  248.28   20.20
  -3   0 -14    5.30    1.00
  -3   0 -14    6.90    0.80
  -3   0 -14    4.30    0.60
  -3   0 -14    4.30    1.10
  -3   0 -14    2.30    2.00
   3   0  14    4.40    5.20
   3   0  14    1.40    1.20
   3   0  14    9.00    2.50
   3   0  14    3.40    1.70
   3   0  14    1.60    1.70
  -4   0 -14  191.08   13.70
  -4   0 -14  188.88   13.60
  -4   0 -14  172.58   13.80
   4   0  14  169.68   14.80
  -5   0 -14    7.30    0.80
  -5   0 -14    8.70    1.00
   5   0  14    9.30    2.10
   5  -1 -14  173.58   13.10
   5  -1 -14  193.88   14.50
   5  -1 -14  169.18   13.70
   5  -1 -14  167.68   13.40
  -5   1  14  164.08   13.00
   4  -1 -14   85.49    8.90
   4  -1 -14   76.29    6.50
   4  -1 -14   71.39    7.20
   4  -1 -14   89.49    8.20
   4  -1 -14   88.59    7.70
  -4   1  14   96.19    6.50
  -4   1  14   75.09    6.60
  -4   1  14   86.69    6.50
   3  -1 -14   47.70    5.30
   3  -1 -14   52.49    4.40
   3  -1 -14   40.60    3.90
  -3   1  14   53.49    4.00
  -3   1  14   40.40    4.10
  -3   1  14   54.09    3.90
   2  -1 -14   28.00    3.50
   2  -1 -14   20.70    2.10
   2  -1 -14   15.10    4.10
   2  -1 -14   17.60    2.40
   2  -1 -14   22.20    2.30
   2  -1 -14   26.70    3.20
  -2   1  14   18.60    2.50
  -2   1  14   20.20    2.20
  -2   1  14   22.80    2.10
  -2   1  14   21.80    2.00
   1  -1 -14  271.77   18.40
   1  -1 -14  202.78   17.90
   1  -1 -14  212.28   17.70
   1  -1 -14  227.28   18.20
  -1   1  14  232.48   17.60
  -1   1  14  220.88   17.60
  -1   1  14  222.98   17.90
  -1   1  14  283.17   17.90
   0  -1 -14   18.00    2.60
   0  -1 -14   14.90    2.70
   0  -1 -14   14.20    2.10
   0  -1 -14   14.00    2.80
   0   1  14   17.80    2.30
   0   1  14   14.70    2.00
   0   1  14   18.60    1.60
   0   1  14   14.90    1.60
  -1  -1 -14  270.47   19.60
  -1  -1 -14  256.87   18.70
  -1  -1 -14  245.78   18.90
  -1  -1 -14  231.18   19.10
  -1  -1 -14  217.18   18.70
   1   1  14  248.98   18.90
   1   1  14  251.67   20.30
   1   1  14  233.18   24.10
   1   1  14  261.97   19.00
   1   1  14  243.78   18.60
   1   1  14  258.27   18.60
  -2  -1 -14   28.80    2.90
  -2  -1 -14   25.40    2.10
  -2  -1 -14   23.40    2.80
  -2  -1 -14   25.00    2.50
  -2  -1 -14   23.10    3.60
  -2  -1 -14   22.70    2.20
   2   1  14   25.10    3.30
   2   1  14   24.60    7.60
   2   1  14   26.10    4.60
  -3  -1 -14   58.19    4.30
  -3  -1 -14   53.19    4.50
  -3  -1 -14   54.89    4.20
  -3  -1 -14   43.20    5.50
   3   1  14   47.40    4.60
   3   1  14   58.99   11.90
   3   1  14   55.19    5.40
   3   1  14   56.39    6.00
  -4  -1 -14   89.59    8.00
  -4  -1 -14  107.59    7.90
  -4  -1 -14  109.09    7.80
   4   1  14  102.29    9.20
  -5  -1 -14  205.98   15.30
  -5  -1 -14  188.38   15.10
   5   1  14  213.78   15.90
   5  -2 -14   33.70    3.30
   5  -2 -14   30.40    3.00
   5  -2 -14   32.00    2.70
  -5   2  14   32.40    2.50
   4  -2 -14   20.40    3.60
   4  -2 -14   22.10    2.90
   4  -2 -14   22.00    4.20
   4  -2 -14   18.90    3.20
   4  -2 -14   18.90    2.00
  -4   2  14   19.50    1.80
  -4   2  14   20.30    1.80
   3  -2 -14  266.87   18.10
   3  -2 -14  220.18   17.70
   3  -2 -14  243.88   19.80
   3  -2 -14  224.58   18.50
   3  -2 -14  212.68   19.50
   3  -2 -14  237.28   18.80
  -3   2  14  255.37   18.00
  -3   2  14  235.08   17.50
  -3   2  14  209.58   17.80
   2  -2 -14  153.48   13.10
   2  -2 -14  180.58   12.90
   2  -2 -14  139.99   12.30
   2  -2 -14  176.28   12.60
   2  -2 -14  155.08   13.30
  -2   2  14  165.08   12.40
  -2   2  14  168.58   12.90
  -2   2  14  165.78   12.30
  -2   2  14  150.28   12.20
   1  -2 -14  152.68   14.20
   1  -2 -14  204.58   14.60
   1  -2 -14  168.98   13.70
   1  -2 -14  202.48   14.40
   1  -2 -14  174.48   13.70
  -1   2  14  176.38   13.60
  -1   2  14  184.38   13.60
  -1   2  14  189.48   13.70
  -1   2  14  167.08   13.90
  -1   2  14  174.38   13.90
   0  -2 -14   32.70    3.30
   0  -2 -14   33.40    4.00
   0  -2 -14   32.00    3.10
   0  -2 -14   35.10    3.90
   0   2  14   39.10    3.00
   0   2  14   40.10    3.00
   0   2  14   37.30    3.50
   0   2  14   30.10    3.30
  -1  -2 -14  172.48   15.10
  -1  -2 -14  178.48   14.40
  -1  -2 -14  201.88   15.10
   1   2  14  188.18   14.60
   1   2  14  184.78   14.20
   1   2  14  194.98   16.10
   1   2  14  195.28   14.20
  -2  -2 -14  154.78   13.20
  -2  -2 -14  160.18   14.00
  -2  -2 -14  185.58   13.30
   2   2  14  185.08   22.00
   2   2  14  159.48   13.00
   2   2  14  178.48   13.40
   2   2  14  190.58   14.90
  -3  -2 -14  218.68   19.40
  -3  -2 -14  230.98   18.70
  -3  -2 -14  247.28   18.40
   3   2  14  258.37   18.80
   3   2  14  264.37   26.50
   3   2  14  264.47   20.20
  -4  -2 -14   20.80    1.90
  -4  -2 -14   23.20    2.20
  -4  -2 -14   20.20    3.80
   4   2  14   21.20    3.40
   4   2  14   24.60    4.40
  -5  -2 -14   44.20    3.50
   4  -3 -14    5.90    1.00
   4  -3 -14    5.70    1.50
   4  -3 -14    2.90    1.40
   4  -3 -14    4.10    2.00
  -4   3  14    4.30    0.70
  -4   3  14    5.90    0.70
   3  -3 -14   93.09    7.60
   3  -3 -14   78.59    9.10
   3  -3 -14   94.89    7.30
  -3   3  14   82.59    6.50
  -3   3  14   75.19    6.40
   2  -3 -14   49.40    4.00
   2  -3 -14   45.10    3.80
   2  -3 -14   36.60    4.50
   2  -3 -14   39.90    4.20
   2  -3 -14   39.70    5.70
  -2   3  14   40.30    3.50
  -2   3  14   44.30    3.90
  -2   3  14   47.90    4.30
  -2   3  14   44.90    3.60
   1  -3 -14  477.25   34.50
  -1   3  14  446.26   34.00
  -1   3  14  434.26   33.70
  -1   3  14  443.06   33.60
   0  -3 -14   28.40    3.70
   0   3  14   37.50    3.60
   0   3  14   40.90    3.10
   0   3  14   41.20    3.10
  -1  -3 -14  411.16   32.10
  -1  -3 -14  437.46   32.40
  -1  -3 -14  359.96   31.40
   1   3  14  420.66   31.70
   1   3  14  425.06   31.30
   1   3  14  457.45   33.10
   1   3  14  420.76   31.30
  -2  -3 -14   38.10    4.60
  -2  -3 -14   43.30    3.80
  -2  -3 -14   37.90    3.60
   2   3  14   41.30    3.40
   2   3  14   43.40    3.90
   2   3  14   40.30    5.50
   2   3  14   41.30    3.50
  -3  -3 -14   76.39    6.30
  -3  -3 -14   63.79    6.90
   3   3  14   82.99    8.00
   3   3  14   77.49    6.30
  -4  -3 -14    6.90    1.70
  -4  -3 -14    6.70    1.10
   4  -4 -14   32.00    3.10
   4  -4 -14   27.10    3.50
   4  -4 -14   26.30    2.60
  -4   4  14   26.30    2.40
   3  -4 -14   66.09    6.20
   3  -4 -14   73.09    5.60
   3  -4 -14   76.29    6.30
   3  -4 -14   65.29    7.10
  -3   4  14   65.09    5.20
  -3   4  14   61.19    5.30
   2  -4 -14  346.77   24.80
   2  -4 -14  363.26   24.90
   2  -4 -14  313.87   24.10
   2  -4 -14  265.77   25.80
  -2   4  14  314.57   23.80
  -2   4  14  304.97   23.90
   1  -4 -14   27.10    4.90
   1  -4 -14   29.10    3.00
   1  -4 -14   35.10    3.90
   1  -4 -14   27.00    3.30
   1  -4 -14   26.80    3.60
  -1   4  14   30.30    2.60
  -1   4  14   33.30    2.60
  -1   4  14   29.90    3.20
   0  -4 -14  381.26   27.90
   0  -4 -14  375.16   27.90
   0  -4 -14  321.47   27.20
   0  -4 -14  309.17   28.80
   0   4  14  362.56   27.30
   0   4  14  374.16   27.00
   0   4  14  397.26   27.00
  -1  -4 -14   23.50    4.30
  -1  -4 -14   33.00    3.70
  -1  -4 -14   32.50    3.90
   1   4  14   29.20    3.00
   1   4  14   27.60    2.60
   1   4  14   28.80    2.50
  -2  -4 -14  267.47   21.40
   2   4  14  257.17   20.30
   2   4  14  290.07   22.00
   2   4  14  260.77   20.20
   2   4  14  274.47   20.70
  -3  -4 -14   54.09    4.60
  -3  -4 -14   50.69    5.40
   3   4  14   61.19    4.80
  -4  -4 -14   27.80    2.40
  -4  -4 -14   29.30    3.20
   4   4  14   24.80    3.50
   4   4  14   26.00    2.70
   3  -5 -14  102.59    8.10
   3  -5 -14  116.59    8.70
   3  -5 -14  108.39    8.50
  -3   5  14   88.79    7.80
  -3   5  14   97.59    7.90
   2  -5 -14   31.80    3.70
   2  -5 -14   30.10    3.00
  -2   5  14   30.70    2.60
  -2   5  14   31.10    2.70
  -1   5  14   84.49    6.00
  -1   5  14   68.69    6.40
  -1   5  14   77.39    6.00
   0  -5 -14    2.10    2.80
   0  -5 -14    2.70    1.40
   0  -5 -14    2.00    1.10
   0  -5 -14    3.10    1.50
   0  -5 -14    1.10    1.80
   0   5  14    1.10    0.90
   0   5  14    0.80    0.50
   0   5  14    0.80    0.60
  -1  -5 -14   76.29   10.00
   1   5  14   68.79    5.60
   1   5  14   70.19    5.60
  -2  -5 -14   28.70    3.50
   2   5  14   22.50    2.40
   2   5  14   23.00    2.20
   2   5  14   22.50    2.60
   2   5  14   22.60    5.00
  -3  -5 -14  100.09    7.70
   3   5  14   81.59    8.10
   3   5  14   78.19    6.90
   3  -6 -14   47.60    3.70
   3  -6 -14   42.50    3.90
   3  -6 -14   37.40    4.30
   2  -6 -14  202.18   16.30
   2  -6 -14  207.08   15.00
  -2   6  14  173.48   14.60
   1  -6 -14  197.98   13.90
   1  -6 -14  194.08   14.50
   1  -6 -14  151.18   15.10
  -1   6  14  176.08   13.80
  -1   6  14  172.68   13.60
  -1   6  14  182.48   13.50
   0  -6 -14    5.70    1.50
   0  -6 -14    4.30    1.20
   0  -6 -14    5.20    1.60
   0  -6 -14    7.40    2.30
   0  -6 -14    6.90    1.40
   0   6  14    3.30    0.70
   0   6  14    6.00    0.90
   0   6  14    3.70    1.10
  -1  -6 -14  165.18   12.50
  -1  -6 -14  169.88   13.00
   1   6  14  158.58   12.40
   1   6  14  151.58   12.50
   1   6  14  162.18   12.20
  -2  -6 -14  168.68   12.40
   2   6  14  139.99   11.50
   2   6  14  149.69   11.80
  -3  -6 -14   29.70    3.00
   3   6  14   31.00    2.60
   3   6  14   21.30    4.80
   2  -7 -14   36.60    4.00
   2  -7 -14   35.30    3.40
  -1   7  14   67.39    5.20
  -1   7  14   66.99    5.30
   0  -7 -14   69.99    6.80
   0  -7 -14   73.89    6.30
   0  -7 -14   82.29    6.20
   0   7  14   79.09    5.90
   0   7  14   79.09    6.00
   0   7  14   75.39    6.10
  -1  -7 -14   60.69    4.90
   1   7  14   57.49    4.90
   1   7  14   60.59    4.70
  -2  -7 -14   24.40    2.40
   2   7  14   24.50    2.20
   1   7 -15   18.10    1.80
  -1  -7  15   11.60    2.20
   0   7 -15    6.20    0.70
   0   7 -15    8.10    1.00
   0  -7  15    5.50    1.40
  -1   7 -15   17.40    1.60
  -1   7 -15   17.20    1.40
  -1   7 -15   15.20    1.30
   1  -7  15   13.90    3.10
   2   6 -15    0.70    0.80
   2   6 -15    1.80    0.50
  -2  -6  15    0.30    1.20
   1   6 -15   96.29    6.70
   1   6 -15   82.09    7.20
   1   6 -15   80.89    6.80
   0   6 -15   57.39    4.40
   0   6 -15   63.49    4.80
   0   6 -15   48.80    4.50
   0   6 -15   62.29    4.60
  -1   6 -15   73.49    6.20
  -1   6 -15   88.29    6.50
  -1   6 -15   80.79    6.10
  -1   6 -15   82.39    6.30
  -2   6 -15    1.10    0.20
  -2   6 -15    1.40    0.50
  -2   6 -15    1.20    0.40
  -2   6 -15    1.90    0.40
   2  -6  15    0.00    2.10
   3   5 -15   77.79    5.90
   3   5 -15   71.39    5.40
  -3  -5  15   64.29    6.20
  -3  -5  15   63.99    5.50
   2   5 -15   52.99    4.80
   2   5 -15   51.89    4.40
   2   5 -15   59.09    4.20
  -2  -5  15   48.40    4.40
  -2  -5  15   50.79    5.40
   1   5 -15   58.89    4.70
   1   5 -15   65.29    4.50
   1   5 -15   55.29    5.10
  -1  -5  15   53.69    5.80
  -1  -5  15   47.90    4.70
   0   5 -15  157.78   11.00
   0   5 -15  140.29   10.60
   0   5 -15  140.59   10.70
   0   5 -15  119.89   11.30
   0   5 -15  154.28   10.80
   0  -5  15  136.39   12.00
  -1   5 -15   60.59    4.80
  -1   5 -15   56.89    4.30
  -1   5 -15   53.89    4.50
  -2   5 -15   47.40    4.00
  -2   5 -15   53.69    3.90
  -2   5 -15   51.29    3.70
  -2   5 -15   48.90    3.80
   2  -5  15   40.70    4.80
  -3   5 -15   73.49    5.60
  -3   5 -15   69.29    5.40
  -3   5 -15   75.09    5.50
  -3   5 -15   68.59    5.30
   3  -5  15   66.59    6.40
   3  -5  15   71.09    7.50
   4   4 -15   75.59    5.50
  -4  -4  15   58.69    5.30
   3   4 -15   17.70    2.10
  -3  -4  15   12.50    1.80
   2   4 -15  128.69   10.30
   2   4 -15  142.99   10.20
   2   4 -15  148.69   10.80
   2   4 -15  132.79   10.60
  -2  -4  15  136.29   11.50
  -2  -4  15  112.49   10.40
   1   4 -15    9.10    1.90
   1   4 -15    8.10    1.10
   1   4 -15    7.80    1.20
  -1  -4  15    7.30    2.40
  -1  -4  15    3.80    8.50
  -1  -4  15    8.90    1.90
  -1  -4  15    4.70    1.10
   0   4 -15  207.18   15.80
   0   4 -15  230.08   16.10
   0   4 -15  224.58   15.70
   0   4 -15  178.88   16.30
   0   4 -15  231.28   15.90
   0  -4  15  217.98   16.60
   0  -4  15  178.38   16.00
  -1   4 -15    9.10    0.80
  -1   4 -15   10.50    1.40
  -1   4 -15    7.20    1.10
   1  -4  15    5.10    2.10
   1  -4  15    6.40    1.70
  -2   4 -15  126.79    9.70
  -2   4 -15  130.39    9.50
  -2   4 -15  120.39    9.40
  -2   4 -15  126.99    9.30
   2  -4  15  109.39   10.70
   2  -4  15  126.59   10.40
  -3   4 -15   13.80    1.30
  -3   4 -15   13.80    1.20
  -3   4 -15   12.30    1.50
  -3   4 -15   13.70    1.40
   3  -4  15   16.20    3.90
   3  -4  15   14.20    2.30
  -4   4 -15   69.49    5.30
  -4   4 -15   65.69    5.20
   4  -4  15   69.49    6.30
   4  -4  15   72.39    6.70
  -4  -3  15   26.10    2.30
  -4  -3  15   28.70    2.80
  -3  -3  15   96.79    7.10
  -3  -3  15   92.49    7.40
  -3  -3  15   95.79    7.20
  -3  -3  15   83.79    8.50
   2   3 -15   46.30    4.00
   2   3 -15   38.50    3.40
   2   3 -15   41.50    3.80
  -2  -3  15   35.10    3.20
  -2  -3  15   43.10    5.10
  -2  -3  15   36.80    3.60
  -2  -3  15   35.40    3.40
   1   3 -15  191.88   12.90
   1   3 -15  157.68   13.50
   1   3 -15  157.68   13.40
  -1  -3  15  163.98   14.20
  -1  -3  15  184.38   13.70
  -1  -3  15  172.38   12.80
  -1  -3  15  141.59   13.10
  -1  -3  15  194.38   13.70
   0   3 -15  213.78   14.90
   0   3 -15  204.78   14.70
   0   3 -15  185.18   15.50
   0   3 -15  190.08   14.80
   0   3 -15  202.28   15.30
   0   3 -15  217.38   15.10
   0  -3  15  167.98   16.10
   0  -3  15  180.18   15.20
   0  -3  15  211.78   15.60
  -1   3 -15  180.08   13.30
  -1   3 -15  166.18   14.20
  -1   3 -15  173.68   13.40
  -1   3 -15  192.98   13.70
  -1   3 -15  142.79   14.50
  -1   3 -15  183.68   13.50
   1  -3  15  177.28   13.70
   1  -3  15  198.18   14.30
  -2   3 -15   40.60    3.30
  -2   3 -15   39.10    3.20
  -2   3 -15   40.50    3.50
  -2   3 -15   38.80    3.00
   2  -3  15   43.00    4.30
   2  -3  15   31.00    7.40
   2  -3  15   35.80    5.00
  -3   3 -15   99.29    8.60
  -3   3 -15  107.89    8.20
  -3   3 -15  107.79    8.00
  -3   3 -15  105.99    8.10
   3  -3  15  103.69    9.20
   3  -3  15  109.59   10.70
  -4   3 -15   31.60    2.50
  -4   3 -15   31.40    2.70
  -4   3 -15   32.60    2.60
   4  -3  15   31.20    4.40
   4  -3  15   36.60    4.60
   4   2 -15   43.10    3.80
   4   2 -15   49.80    4.20
   4   2 -15   53.19    5.00
  -4  -2  15   48.90    3.80
  -4  -2  15   47.30    3.90
  -4  -2  15   47.80    4.10
   3   2 -15  120.59    9.80
  -3  -2  15  129.29    9.80
  -3  -2  15  135.89    9.90
   2   2 -15    3.50    1.10
   2   2 -15    0.60    0.40
   2   2 -15    0.40    1.60
   2   2 -15    1.30    1.00
   2   2 -15    0.20    0.80
  -2  -2  15    0.40    0.50
  -2  -2  15    0.90    1.00
  -2  -2  15    1.30    0.70
  -2  -2  15    0.50    0.80
  -2  -2  15    0.30    1.50
  -2  -2  15   -0.50    1.90
   1   2 -15   60.39    4.50
   1   2 -15   50.09    5.40
  -1  -2  15   42.80    5.80
  -1  -2  15   50.49    4.60
  -1  -2  15   52.59    4.30
  -1  -2  15   53.79    4.20
  -1  -2  15   55.09    4.50
   0   2 -15    1.80    0.30
   0   2 -15    3.30    0.60
   0   2 -15    2.90    1.30
   0   2 -15    2.20    1.00
   0   2 -15    2.40    0.80
   0  -2  15    2.20    1.10
   0  -2  15    2.80    0.60
   0  -2  15    1.20    5.50
   0  -2  15    1.00    1.90
  -1   2 -15   65.59    5.20
  -1   2 -15   58.19    4.60
  -1   2 -15   58.99    4.70
  -1   2 -15   61.29    4.90
  -1   2 -15   61.39    5.00
  -1   2 -15   49.60    5.40
  -1   2 -15   57.59    4.50
   1  -2  15   62.99    5.50
   1  -2  15   60.19    5.10
   1  -2  15   51.49    7.00
  -2   2 -15    0.30    0.60
  -2   2 -15    0.50    0.50
  -2   2 -15    1.30    0.80
  -2   2 -15    0.40    1.20
  -2   2 -15   -0.20    0.20
  -2   2 -15    0.50    0.40
   2  -2  15    0.30    2.00
   2  -2  15    0.70    1.30
   2  -2  15   -2.70    8.60
   2  -2  15    0.50    1.90
  -3   2 -15  153.78   12.40
  -3   2 -15  154.98   12.00
  -3   2 -15  151.88   12.10
   3  -2  15  147.19   16.60
   3  -2  15  179.28   13.90
   3  -2  15  179.38   15.60
  -4   2 -15   56.99    4.50
  -4   2 -15   56.19    4.40
  -4   2 -15   54.49    4.60
   4  -2  15   55.89    5.20
   4  -2  15   68.49    6.60
   5   1 -15   26.70    2.60
   5   1 -15   25.00    2.10
  -5  -1  15   23.80    2.00
   4   1 -15    8.90    1.10
   4   1 -15    6.10    3.00
   4   1 -15   11.90    2.40
   4   1 -15   12.70    3.70
   4   1 -15   12.30    1.60
  -4  -1  15    8.50    1.20
  -4  -1  15   10.20    1.10
  -4  -1  15   10.00    1.50
   3   1 -15   92.99    8.10
   3   1 -15  124.49    9.00
   3   1 -15  105.89   11.00
   3   1 -15   97.59    8.50
   3   1 -15  104.89    8.60
  -3  -1  15  111.19    8.20
  -3  -1  15  101.29    8.40
  -3  -1  15  105.69    8.10
   2   1 -15    2.00    1.20
   2   1 -15    2.40    1.80
   2   1 -15    1.40    1.90
   2   1 -15    0.40    1.10
   2   1 -15    1.70    0.80
   2   1 -15    2.40    1.50
   2   1 -15    1.20    0.90
  -2  -1  15    0.10    0.90
  -2  -1  15    1.10    0.90
  -2  -1  15    1.20    0.60
  -2  -1  15    0.70    0.60
   1   1 -15   70.39    5.30
   1   1 -15   57.79    5.60
   1   1 -15   67.59    5.00
  -1  -1  15   56.99    5.40
  -1  -1  15   66.69    5.20
  -1  -1  15   61.39    5.00
  -1  -1  15   61.39    5.00
   0   1 -15  354.86   27.80
   0   1 -15  409.56   28.00
   0   1 -15  364.36   27.90
   0   1 -15  398.46   28.20
   0   1 -15  330.07   28.50
   0  -1  15  327.57   29.20
   0  -1  15  366.86   28.30
   0  -1  15  382.86   28.00
   0  -1  15  411.06   27.90
   0  -1  15  386.56   27.90
  -1   1 -15   67.89    5.90
  -1   1 -15   69.69    5.40
  -1   1 -15   79.79    5.90
  -1   1 -15   72.59    5.90
  -1   1 -15   73.09    5.60
  -1   1 -15   65.79    5.50
  -1   1 -15   72.19    6.50
   1  -1  15   74.49    6.00
   1  -1  15   60.99    7.30
  -2   1 -15    1.40    0.60
  -2   1 -15    1.60    0.40
  -2   1 -15    2.00    0.50
  -2   1 -15    0.50    0.80
  -2   1 -15    1.00    0.80
  -2   1 -15    1.10    1.20
   2  -1  15    1.30    2.10
   2  -1  15   -0.20    1.40
   2  -1  15   -5.10    4.90
   2  -1  15    1.60    1.00
  -3   1 -15  116.79    9.50
  -3   1 -15  115.09    9.30
  -3   1 -15  119.49    9.20
  -3   1 -15  121.29    9.10
   3  -1  15  118.59   11.50
   3  -1  15  130.59   15.10
   3  -1  15  114.79   10.10
   3  -1  15  131.59   10.90
  -4   1 -15   13.30    1.20
  -4   1 -15   13.20    1.50
   4  -1  15   10.30    2.20
  -5   1 -15   31.40    2.30
  -5   1 -15   27.30    2.60
   5  -1  15   30.30    3.40
   5   0 -15   22.40    2.70
   5   0 -15   31.30    2.30
  -5   0  15   28.10    2.20
   4   0 -15   21.90    2.80
   4   0 -15   23.70    5.10
   4   0 -15   18.80    3.00
   4   0 -15   20.70    1.90
  -4   0  15   20.70    1.90
  -4   0  15   18.60    2.10
  -4   0  15   21.40    1.90
   3   0 -15  379.26   34.80
   3   0 -15  458.05   33.20
   3   0 -15  466.45   33.40
   3   0 -15  411.16   32.70
  -3   0  15  401.06   32.90
  -3   0  15  461.45   32.70
  -3   0  15  483.35   32.90
   2   0 -15  198.08   15.40
   2   0 -15  222.98   15.60
   2   0 -15  233.08   16.30
   2   0 -15  170.88   15.30
   2   0 -15  170.08   15.40
  -2   0  15  206.18   15.10
  -2   0  15  221.28   15.40
  -2   0  15  200.28   15.00
  -2   0  15  172.08   15.30
   1   0 -15    6.80    1.40
   1   0 -15    7.20    1.70
   1   0 -15    7.10    1.80
   1   0 -15    7.30    1.20
   1   0 -15    9.80    2.40
   1   0 -15    8.60    1.30
  -1   0  15    5.50    1.00
  -1   0  15    7.10    1.40
  -1   0  15    6.60    0.90
  -1   0  15    9.30    1.30
   0   0 -15    0.00    0.70
   0   0 -15   -0.10    0.50
   0   0 -15   -0.60    1.30
   0   0 -15   -0.30    1.40
   0   0  15   -0.60    0.50
   0   0  15   -0.10    0.50
   0   0  15   -1.70    2.60
   0   0  15    0.10    0.60
   0   0  15    0.30    1.00
   0   0  15   -0.80    1.00
  -1   0 -15    6.40    1.00
  -1   0 -15   11.50    2.20
  -1   0 -15    7.00    0.80
  -1   0 -15    8.60    1.10
  -1   0 -15    6.50    1.20
  -1   0 -15    9.80    1.60
  -1   0 -15    8.00    1.30
   1   0  15    8.10    2.70
   1   0  15    6.80    7.10
   1   0  15    8.70    1.50
   1   0  15    7.70    0.90
   1   0  15    7.70    1.20
   1   0  15    7.00    1.00
  -2   0 -15  242.08   17.80
  -2   0 -15  226.48   17.90
  -2   0 -15  242.78   17.60
  -2   0 -15  228.38   18.00
  -2   0 -15  210.58   19.20
  -2   0 -15  235.88   17.50
   2   0  15  244.98   23.30
   2   0  15  234.78   18.00
   2   0  15  242.78   19.40
  -3   0 -15  497.35   39.10
  -3   0 -15  580.84   39.10
  -3   0 -15  511.45   38.80
  -3   0 -15  455.65   39.20
   3   0  15  541.95   43.90
   3   0  15  547.55   40.50
  -4   0 -15   29.60    2.50
  -4   0 -15   26.00    2.50
  -4   0 -15   26.20    2.20
   4   0  15   26.20    3.60
  -5   0 -15   37.10    2.90
  -5   0 -15   35.40    3.00
   5   0  15   37.90    4.20
   5   0  15   38.20    4.10
   5  -1 -15   24.80    2.20
   5  -1 -15   25.80    2.80
   5  -1 -15   28.80    2.50
  -5   1  15   23.50    2.00
   4  -1 -15   12.00    2.50
   4  -1 -15   10.40    1.30
   4  -1 -15   11.50    2.10
   4  -1 -15    9.20    3.20
  -4   1  15    7.00    1.50
  -4   1  15   10.20    1.20
  -4   1  15   10.50    1.10
   3  -1 -15   91.09    8.60
   3  -1 -15  110.49    8.00
   3  -1 -15   98.69    7.60
  -3   1  15  102.69    7.50
  -3   1  15  100.69    7.60
  -3   1  15   80.89    7.70
   2  -1 -15    0.00    1.10
   2  -1 -15    1.70    1.70
   2  -1 -15    2.80    1.30
   2  -1 -15    1.70    0.70
   2  -1 -15   -0.10    0.80
   2  -1 -15    1.50    1.30
   2  -1 -15   -1.70    3.30
  -2   1  15    0.80    0.50
  -2   1  15    1.50    1.00
  -2   1  15    1.10    0.70
  -2   1  15    2.30    1.00
   1  -1 -15   74.49    5.30
   1  -1 -15   58.19    6.00
   1  -1 -15   74.79    6.00
   1  -1 -15   54.99    5.50
   1  -1 -15   63.89    5.30
  -1   1  15   64.79    5.10
  -1   1  15   65.09    5.20
  -1   1  15   58.09    5.50
  -1   1  15   67.39    5.30
   0  -1 -15  401.66   31.50
   0  -1 -15  401.16   31.80
   0  -1 -15  416.26   31.80
   0  -1 -15  409.06   31.60
   0  -1 -15  397.96   31.10
   0   1  15  414.06   31.30
   0   1  15  431.56   31.00
   0   1  15  395.46   31.00
   0   1  15  462.85   31.20
  -1  -1 -15   69.89    5.50
  -1  -1 -15   70.49    5.60
  -1  -1 -15   54.59    6.30
  -1  -1 -15   70.79    5.90
   1   1  15   52.99   12.00
   1   1  15   68.49    5.30
   1   1  15   72.99    5.80
   1   1  15   69.19    7.50
  -2  -1 -15    1.00    0.80
  -2  -1 -15    0.70    0.40
  -2  -1 -15    1.40    0.70
  -2  -1 -15    0.90    1.00
  -2  -1 -15    0.60    1.50
  -2  -1 -15    0.30    0.60
   2   1  15    2.10    1.00
   2   1  15    0.90    1.90
   2   1  15    3.30    7.70
  -3  -1 -15  116.39    8.60
  -3  -1 -15  106.39    9.70
  -3  -1 -15  118.79    8.70
  -3  -1 -15  108.39    8.90
   3   1  15   99.09    8.90
   3   1  15  139.19   17.30
   3   1  15  119.49   10.40
  -4  -1 -15   10.80    1.40
  -4  -1 -15   10.30    1.10
  -4  -1 -15   11.30    1.40
   4   1  15   13.20    2.90
   4   1  15   12.80    2.90
  -5  -1 -15   27.90    2.30
   4  -2 -15   47.70    4.70
   4  -2 -15   48.00    4.50
   4  -2 -15   48.00    3.80
   4  -2 -15   47.60    5.80
   4  -2 -15   39.10    5.10
  -4   2  15   45.90    3.70
  -4   2  15   43.90    3.60
   3  -2 -15  126.79   11.60
   3  -2 -15  102.89   10.50
   3  -2 -15  134.39    9.90
  -3   2  15  126.39    9.20
  -3   2  15  122.09    9.30
  -3   2  15  118.09    9.60
   2  -2 -15    0.20    1.50
   2  -2 -15    0.70    1.60
   2  -2 -15    0.70    0.70
   2  -2 -15    2.60    1.40
   2  -2 -15   -0.90    1.00
  -2   2  15    1.30    0.60
  -2   2  15    0.00    1.00
  -2   2  15   -0.30    0.80
  -2   2  15    0.70    0.50
   1  -2 -15   65.59    6.40
   1  -2 -15   53.19    5.10
   1  -2 -15   49.60    5.30
   1  -2 -15   57.49    4.80
  -1   2  15   57.39    4.60
  -1   2  15   59.89    4.50
  -1   2  15   54.69    4.70
  -1   2  15   61.29    5.10
   0  -2 -15    2.70    1.10
   0  -2 -15    2.00    1.20
   0  -2 -15    1.30    1.60
   0  -2 -15    1.00    0.80
   0  -2 -15    3.10    1.40
   0  -2 -15    1.20    1.10
   0   2  15    1.90    1.20
   0   2  15    3.20    0.70
   0   2  15    2.60    0.70
  -1  -2 -15   49.99    4.70
  -1  -2 -15   54.19    5.90
  -1  -2 -15   54.69    4.70
  -1  -2 -15   43.70    5.00
   1   2  15   61.39    4.40
   1   2  15   69.49    7.20
   1   2  15   59.19    4.50
  -2  -2 -15    0.10    0.70
  -2  -2 -15   -0.30    1.00
  -2  -2 -15    0.20    0.60
  -2  -2 -15    0.70    1.50
   2   2  15   -0.90    1.80
   2   2  15    1.40    0.60
   2   2  15    0.60    1.00
  -3  -2 -15  132.09   11.20
  -3  -2 -15  117.69   10.50
   3   2  15  130.99   10.70
  -4  -2 -15   45.70    5.20
  -4  -2 -15   54.69    4.30
   4   2  15   49.50    5.40
   4   2  15   58.19    5.60
   4  -3 -15   19.30    3.30
   4  -3 -15   27.50    3.00
  -4   3  15   25.50    2.00
  -4   3  15   24.60    2.10
   3  -3 -15  100.29    7.50
   3  -3 -15   83.89    8.00
   3  -3 -15   84.99    9.10
   3  -3 -15  105.39    8.40
  -3   3  15   94.29    7.20
  -3   3  15   98.09    7.30
   2  -3 -15   33.30    3.40
   2  -3 -15   39.90    4.00
   2  -3 -15   31.10    5.10
   2  -3 -15   37.90    3.30
  -2   3  15   36.70    3.70
  -2   3  15   37.20    3.10
  -2   3  15   37.80    3.00
   1  -3 -15  217.98   15.80
   1  -3 -15  174.38   15.50
  -1   3  15  200.08   15.20
  -1   3  15  178.08   14.80
  -1   3  15  209.08   15.00
   0  -3 -15  221.28   17.40
   0   3  15  221.58   16.90
   0   3  15  205.08   16.50
   0   3  15  228.28   16.50
  -1  -3 -15  140.79   12.30
  -1  -3 -15  132.79   12.50
  -1  -3 -15  133.39   11.60
  -1  -3 -15  155.08   11.70
   1   3  15  178.18   13.90
   1   3  15  173.18   11.60
  -2  -3 -15   29.80    3.10
  -2  -3 -15   35.10    4.20
   2   3  15   37.10    2.90
   2   3  15   28.70    3.10
   2   3  15   37.10    3.50
   2   3  15   37.90    5.20
  -3  -3 -15   79.99    8.00
  -3  -3 -15   89.79    7.20
   3   3  15  102.19    8.80
   3   3  15   92.79    7.40
  -4  -3 -15   32.80    3.60
   4  -4 -15   68.29    5.50
   4  -4 -15   64.89    5.80
   4  -4 -15   67.49    5.90
   4  -4 -15   77.59    6.90
   3  -4 -15   16.90    2.40
   3  -4 -15   15.50    1.90
   3  -4 -15   15.00    3.20
   3  -4 -15   14.80    2.50
  -3   4  15   13.80    1.40
  -3   4  15   13.40    1.50
   2  -4 -15  139.69   10.70
  -2   4  15  143.39   10.50
  -2   4  15  126.49   10.80
  -2   4  15  139.29   10.40
   1  -4 -15   10.30    2.30
   1  -4 -15    6.00    2.50
   1  -4 -15   10.50    1.60
   1  -4 -15    6.10    1.60
   1  -4 -15   11.40    2.50
  -1   4  15    9.00    1.10
  -1   4  15    7.70    1.20
  -1   4  15    7.50    1.40
   0  -4 -15  241.18   17.10
   0   4  15  217.58   16.90
   0   4  15  214.68   17.20
   0   4  15  219.38   16.80
  -1  -4 -15    9.20    1.60
  -1  -4 -15   12.50    3.30
  -1  -4 -15    8.30    2.00
   1   4  15    7.00    1.40
   1   4  15    9.50    1.20
   1   4  15    7.80    1.30
  -2  -4 -15  135.79   10.90
   2   4  15  121.09    9.70
   2   4  15  124.19   10.10
   2   4  15  117.29    9.50
   2   4  15  129.59   11.40
  -3  -4 -15   10.00    1.40
  -3  -4 -15   10.80    2.50
   3   4  15   14.30    1.80
  -4  -4 -15   57.29    5.30
  -4  -4 -15   64.39    4.80
   3  -5 -15   77.69    6.80
   3  -5 -15   66.29    6.20
   3  -5 -15   75.49    6.00
   3  -5 -15   70.49    7.00
  -3   5  15   73.19    5.70
  -3   5  15   74.59    5.60
   2  -5 -15   64.09    4.90
   2  -5 -15   55.39    6.40
   2  -5 -15   54.79    5.40
  -2   5  15   59.59    4.50
  -2   5  15   52.49    4.50
   1  -5 -15   54.89    4.90
   1  -5 -15   57.39    6.70
  -1   5  15   57.89    4.50
  -1   5  15   56.39    4.90
  -1   5  15   56.39    4.50
   0  -5 -15  139.99   10.50
   0  -5 -15  140.09   11.00
   0  -5 -15  118.29   13.80
   0   5  15  140.59   10.30
   0   5  15  127.79   10.60
   0   5  15  132.99   10.30
  -1  -5 -15   61.49    5.50
  -1  -5 -15   51.79    4.50
  -1  -5 -15   52.49   10.60
   1   5  15   51.79    4.20
   1   5  15   50.89    4.30
   1   5  15   50.69    4.70
  -2  -5 -15   48.80    4.80
   2   5  15   45.20    6.60
   2   5  15   46.30    4.10
   2   5  15   44.30    3.60
   2   5  15   41.30    3.90
  -3  -5 -15   61.89    5.70
   3   5  15   62.69    5.10
   3   5  15   62.09    6.20
   2  -6 -15    1.00    1.50
   2  -6 -15    2.50    1.10
   2  -6 -15    1.30    1.10
  -2   6  15    1.40    0.40
  -2   6  15    0.60    0.50
   1  -6 -15   74.89    6.60
   1  -6 -15   86.89    7.10
  -1   6  15   77.89    6.50
  -1   6  15   82.19    6.20
  -1   6  15   79.99    6.30
   0  -6 -15   41.40    5.20
   0   6  15   50.69    4.10
   0   6  15   42.50    3.90
   0   6  15   52.59    3.80
  -1  -6 -15   61.29    6.20
  -1  -6 -15   75.29    5.80
   1   6  15   72.39    5.60
   1   6  15   69.69    5.90
   1   6  15   77.49    5.60
  -2  -6 -15    1.60    1.20
   2   6  15    0.50    0.70
   2   6  15    1.40    0.60
   1  -7 -15   14.90    2.50
   1  -7 -15   16.40    1.90
  -1   7  15   14.80    1.40
   0  -7 -15    7.30    1.20
   0  -7 -15    4.60    1.60
   0   7  15    8.00    1.30
   0   7  15    6.40    0.80
   0   7  15    4.10    0.90
  -1  -7 -15   10.20    1.40
   1   7  15   13.40    1.20
   1   7  15   13.90    1.50
   0   7 -16    2.20    0.40
   0   7 -16    1.80    0.60
   0  -7  16    1.00    0.90
   2   6 -16    7.20    1.50
  -2  -6  16    4.90    1.50
   1   6 -16   34.70    3.50
   1   6 -16   37.50    3.00
  -1  -6  16   26.90    4.20
   0   6 -16   81.69    6.20
   0   6 -16   85.59    6.00
   0  -6  16   71.49    7.00
  -1   6 -16   33.80    2.80
  -1   6 -16   34.30    2.70
  -1   6 -16   33.10    3.00
  -1   6 -16   39.10    2.90
   1  -6  16   33.50    4.00
  -2   6 -16    7.20    0.80
  -2   6 -16    6.50    0.90
  -2   6 -16    6.20    0.60
   2  -6  16    5.60    2.30
   3   5 -16   16.90    2.00
  -3  -5  16   17.60    1.70
  -3  -5  16   13.00    2.60
   2   5 -16   75.79    6.10
  -2  -5  16   69.19    6.80
  -2  -5  16   70.39    5.80
   1   5 -16   45.00    4.20
   1   5 -16   47.30    3.80
  -1  -5  16   39.10    4.90
  -1  -5  16   44.70    3.80
   0   5 -16   56.29    5.70
   0   5 -16   58.69    4.90
   0   5 -16   66.19    4.80
   0   5 -16   69.69    5.20
  -1   5 -16   49.30    3.80
  -1   5 -16   48.00    4.40
  -1   5 -16   46.90    3.80
  -1   5 -16   53.09    3.70
   1  -5  16   38.20    5.00
  -2   5 -16   69.49    5.30
  -2   5 -16   68.29    5.20
  -2   5 -16   69.89    5.50
  -2   5 -16   73.89    5.30
   2  -5  16   62.29    6.10
   2  -5  16   64.59    7.70
  -3   5 -16   18.90    1.50
  -3   5 -16   21.80    2.10
  -3   5 -16   20.80    1.70
   3  -5  16   21.20    3.60
   3  -5  16   13.60    3.10
   4   4 -16   57.29    4.30
  -4  -4  16   46.10    4.10
   3   4 -16    4.10    1.10
  -3  -4  16    3.60    0.90
  -3  -4  16    2.90    1.80
   2   4 -16   31.90    2.70
   2   4 -16   29.10    3.10
  -2  -4  16   26.60    2.80
  -2  -4  16   25.20    4.00
   1   4 -16  100.69    7.50
  -1  -4  16   85.29    8.10
   0   4 -16   30.30    2.60
   0   4 -16   26.50    2.10
   0   4 -16   28.30    3.20
   0   4 -16   28.10    2.30
   0  -4  16   29.60    3.40
   0  -4  16   26.50    2.70
   0  -4  16   21.00    3.90
  -1   4 -16  100.89    8.00
  -1   4 -16  115.09    8.40
  -1   4 -16  108.89    8.40
  -1   4 -16  101.39    8.10
  -2   4 -16   27.90    2.40
  -2   4 -16   29.10    2.50
  -2   4 -16   28.80    2.60
  -2   4 -16   29.10    2.30
   2  -4  16   28.20    3.90
  -3   4 -16    3.10    0.70
  -3   4 -16    4.20    0.50
  -3   4 -16    4.30    0.80
  -3   4 -16    2.70    0.50
   3  -4  16    1.90    1.70
   3  -4  16    5.50    2.20
   3  -4  16    7.30    2.70
  -4   4 -16   51.59    4.00
  -4   4 -16   50.59    4.10
   4  -4  16   54.69    5.30
   4  -4  16   55.49    5.20
   4   3 -16   22.40    2.20
  -4  -3  16   19.80    2.00
  -4  -3  16   20.80    1.80
   3   3 -16    9.20    1.70
  -3  -3  16    6.40    0.90
  -3  -3  16    7.40    3.60
  -3  -3  16    7.20    1.20
  -3  -3  16    5.50    1.20
   2   3 -16  582.04   38.60
   2   3 -16  492.85   39.00
   2   3 -16  519.95   38.70
  -2  -3  16  472.45   38.70
  -2  -3  16  508.85   38.40
   1   3 -16   55.79    4.30
   1   3 -16   48.50    4.70
  -1  -3  16   54.49    4.80
  -1  -3  16   48.00    4.40
  -1  -3  16   46.80    5.80
   0   3 -16    8.30    0.80
   0   3 -16    9.90    1.90
   0   3 -16    9.50    1.40
   0   3 -16   11.50    2.40
   0   3 -16    8.50    1.10
   0  -3  16   12.70    2.10
   0  -3  16    6.60    2.30
   0  -3  16    7.10    1.30
   0  -3  16    4.50    8.10
  -1   3 -16   55.59    4.30
  -1   3 -16   53.79    4.20
  -1   3 -16   56.99    4.60
  -1   3 -16   57.19    4.40
  -1   3 -16   51.39    5.20
   1  -3  16   50.69    6.10
   1  -3  16   55.19    5.20
   1  -3  16   53.49    4.70
  -2   3 -16  559.04   39.90
  -2   3 -16  541.75   39.70
  -2   3 -16  525.45   39.50
  -2   3 -16  533.55   39.60
   2  -3  16  573.04   40.60
   2  -3  16  489.25   40.90
   2  -3  16  487.65   43.70
  -3   3 -16    8.90    1.30
  -3   3 -16    8.90    0.90
  -3   3 -16    8.40    1.10
  -3   3 -16    8.20    1.00
   3  -3  16   13.70    3.70
   3  -3  16    8.70    2.10
  -4   3 -16   22.00    1.90
  -4   3 -16   21.40    1.80
  -4   3 -16   20.00    1.80
   4  -3  16   23.00    3.40
   4  -3  16   21.50    3.20
   4   2 -16   62.39    5.90
   4   2 -16   61.59    5.10
   4   2 -16   75.89    5.70
  -4  -2  16   63.99    5.20
  -4  -2  16   60.49    5.00
   3   2 -16   20.60    2.90
   3   2 -16   16.70    2.20
  -3  -2  16   12.50    1.70
  -3  -2  16   14.00    2.00
  -3  -2  16   15.30    1.50
   2   2 -16   50.99    4.50
   2   2 -16   51.79    4.70
   2   2 -16   57.49    4.80
   2   2 -16   56.29    4.10
  -2  -2  16   49.70    4.10
  -2  -2  16   50.79    4.20
  -2  -2  16   48.40    4.60
   1   2 -16  476.85   32.30
   1   2 -16  383.16   32.70
  -1  -2  16  423.76   32.30
  -1  -2  16  458.15   32.20
  -1  -2  16  444.36   32.50
  -1  -2  16  402.56   32.50
   0   2 -16    1.80    1.30
   0   2 -16    1.40    0.30
   0   2 -16    1.40    0.60
   0   2 -16    1.00    0.60
   0   2 -16    1.10    0.50
   0  -2  16    0.80    2.00
   0  -2  16   -0.70    6.90
   0  -2  16    0.90    1.00
   0  -2  16    2.00    1.10
  -1   2 -16  462.45   35.60
  -1   2 -16  442.36   35.40
  -1   2 -16  485.95   35.30
  -1   2 -16  476.45   34.80
  -1   2 -16  498.75   35.30
  -1   2 -16  489.05   34.90
  -1   2 -16  457.35   34.70
   1  -2  16  481.75   35.10
   1  -2  16  402.76   36.20
  -2   2 -16   60.89    4.90
  -2   2 -16   57.59    4.60
  -2   2 -16   61.59    4.70
  -2   2 -16   52.39    5.80
  -2   2 -16   56.19    4.50
   2  -2  16   50.99   11.10
   2  -2  16   60.59    5.60
   2  -2  16   62.29    6.60
  -3   2 -16   19.40    2.10
  -3   2 -16   15.80    1.60
  -3   2 -16   16.10    1.70
  -3   2 -16   17.90    1.50
   3  -2  16   16.90    3.40
   3  -2  16   17.40    4.50
   3  -2  16   12.40    7.00
  -4   2 -16   73.09    5.50
  -4   2 -16   74.59    5.70
  -4   2 -16   71.19    5.60
   4  -2  16   87.69    7.40
   4  -2  16   58.39    7.00
   4  -2  16   72.29    6.20
   4   1 -16  137.49   11.40
  -4  -1  16  151.78   11.70
  -4  -1  16  155.48   11.40
  -4  -1  16  161.18   11.50
   3   1 -16   33.20    3.60
   3   1 -16   36.40    4.20
   3   1 -16   40.30    3.70
   3   1 -16   35.90    3.00
  -3  -1  16   32.80    3.30
  -3  -1  16   37.90    3.00
  -3  -1  16   35.40    3.10
   2   1 -16   66.29    5.80
   2   1 -16   64.89    6.00
   2   1 -16   68.89    5.80
  -2  -1  16   79.69    6.20
  -2  -1  16   66.39    5.80
  -2  -1  16   70.99    5.40
   1   1 -16  346.47   24.00
   1   1 -16  320.07   24.20
   1   1 -16  321.77   23.70
   1   1 -16  308.67   24.50
  -1  -1  16  302.57   23.60
  -1  -1  16  323.97   23.80
  -1  -1  16  313.57   23.60
  -1  -1  16  281.77   23.90
   0   1 -16  475.15   32.10
   0  -1  16  440.76   31.70
   0  -1  16  368.26   32.10
   0  -1  16  438.86   31.80
   0  -1  16  395.66   32.30
  -1   1 -16  341.27   26.20
  -1   1 -16  327.07   25.80
  -1   1 -16  334.97   26.20
  -1   1 -16  361.46   27.40
  -1   1 -16  363.56   26.00
  -1   1 -16  371.16   26.20
  -1   1 -16  326.07   25.70
   1  -1  16  365.86   26.30
   1  -1  16  320.17   27.40
  -2   1 -16   91.19    6.80
  -2   1 -16   79.69    6.30
  -2   1 -16   89.39    6.50
  -2   1 -16   79.39    7.00
  -2   1 -16   82.99    6.20
  -2   1 -16   72.69    7.40
   2  -1  16   68.19   15.30
   2  -1  16   84.29    8.30
   2  -1  16   88.69    7.40
   2  -1  16   72.29    6.70
  -3   1 -16   39.90    3.20
  -3   1 -16   40.50    3.70
  -3   1 -16   41.20    3.50
  -3   1 -16   41.40    3.30
   3  -1  16   46.90    5.50
   3  -1  16   32.00    4.70
   3  -1  16   41.40    6.10
  -4   1 -16  177.88   13.60
  -4   1 -16  184.48   13.40
  -4   1 -16  180.78   13.50
   4  -1  16  170.68   14.30
   4   0 -16   28.20    2.40
   4   0 -16   26.00    3.00
   4   0 -16   27.40    3.30
  -4   0  16   25.20    2.20
  -4   0  16   26.60    2.80
  -4   0  16   27.30    2.30
   3   0 -16   15.20    2.50
   3   0 -16   12.80    1.50
   3   0 -16   10.30    2.60
   3   0 -16   16.40    2.50
   3   0 -16   13.70    2.80
  -3   0  16   14.30    1.40
  -3   0  16   13.50    1.50
  -3   0  16   12.90    1.90
   2   0 -16   11.90    2.10
   2   0 -16   12.60    2.30
   2   0 -16   12.10    1.50
   2   0 -16   10.50    2.50
   2   0 -16   13.70    1.90
  -2   0  16   13.20    1.80
  -2   0  16   11.80    1.50
  -2   0  16    9.10    1.50
  -2   0  16   12.80    1.40
   1   0 -16   13.70    2.70
   1   0 -16   14.70    2.50
   1   0 -16   13.00    2.30
   1   0 -16   12.00    1.50
   1   0 -16   12.20    1.80
   1   0 -16   12.30    1.80
  -1   0  16   14.50    1.50
  -1   0  16   13.30    1.70
  -1   0  16   14.30    2.20
  -1   0  16   12.60    1.40
   0   0 -16  224.98   18.10
   0   0 -16  238.58   17.50
   0   0 -16  265.37   18.50
   0   0 -16  240.68   17.90
   0   0  16  225.88   17.90
   0   0  16  218.68   17.40
   0   0  16  208.98   17.50
   0   0  16  232.08   17.40
  -1   0 -16   14.50    1.70
  -1   0 -16   14.40    1.90
  -1   0 -16   12.40    1.70
  -1   0 -16   16.80    1.30
  -1   0 -16   14.00    1.60
   1   0  16   17.30    8.70
   1   0  16   13.80    2.30
   1   0  16   11.30    1.50
  -2   0 -16   15.90    2.00
  -2   0 -16   13.90    1.80
  -2   0 -16   12.60    1.50
  -2   0 -16   14.50    1.30
  -2   0 -16   18.70    3.20
  -2   0 -16   15.60    1.80
   2   0  16   17.00    4.00
   2   0  16    6.90    7.70
   2   0  16   15.10    2.20
  -3   0 -16   15.50    1.30
  -3   0 -16   13.60    2.30
  -3   0 -16   16.40    1.50
  -3   0 -16   14.30    2.80
  -3   0 -16   13.50    2.00
   3   0  16   13.10    9.80
  -4   0 -16   29.20    2.30
  -4   0 -16   28.80    2.50
  -4   0 -16   28.80    2.60
   4   0  16   29.20    3.80
   4  -1 -16  119.19   10.70
   4  -1 -16  148.09   11.90
  -4   1  16  141.39   10.80
  -4   1  16  156.38   10.70
  -4   1  16  140.79   10.60
   3  -1 -16   30.70    2.90
   3  -1 -16   40.60    5.90
   3  -1 -16   37.40    3.80
   3  -1 -16   36.30    3.60
   3  -1 -16   28.40    3.10
  -3   1  16   35.50    2.80
  -3   1  16   30.00    3.10
  -3   1  16   33.10    2.90
   2  -1 -16   58.79    5.80
   2  -1 -16   71.09    5.80
   2  -1 -16   72.59    6.10
   2  -1 -16   62.59    5.50
  -2   1  16   69.09    5.40
  -2   1  16   73.99    5.50
  -2   1  16   68.29    5.80
  -2   1  16   85.59    6.70
   1  -1 -16  276.67   24.00
   1  -1 -16  314.57   23.90
  -1   1  16  324.27   23.80
  -1   1  16  326.77   23.70
  -1   1  16  319.37   24.00
  -1   1  16  331.67   23.70
   0  -1 -16  441.36   33.80
   0  -1 -16  466.65   34.20
   0   1  16  451.15   33.80
   0   1  16  469.15   33.70
   0   1  16  429.66   33.70
   0   1  16  444.66   35.50
  -1  -1 -16  349.87   26.20
  -1  -1 -16  371.46   27.10
  -1  -1 -16  338.57   26.50
  -1  -1 -16  325.47   26.30
   1   1  16  367.46   26.40
   1   1  16  350.86   26.00
   1   1  16  341.97   26.00
   1   1  16  331.87   26.00
  -2  -1 -16   83.99    6.30
  -2  -1 -16   69.29    6.50
  -2  -1 -16   73.79    7.20
   2   1  16   83.89    6.50
  -3  -1 -16   38.20    3.20
  -3  -1 -16   38.00    2.90
  -3  -1 -16   31.00    4.30
  -3  -1 -16   37.40    3.40
   3   1  16   43.40    5.70
   3   1  16   41.00   11.30
   3   1  16   35.30    3.40
  -4  -1 -16  179.18   13.00
  -4  -1 -16  159.88   12.70
   4   1  16  171.08   14.00
   4  -2 -16   65.59    6.20
   4  -2 -16   70.99    6.00
  -4   2  16   59.49    4.90
  -4   2  16   61.19    5.00
   3  -2 -16   12.10    1.60
   3  -2 -16   15.40    2.70
   3  -2 -16   11.20    3.20
   3  -2 -16   17.00    2.50
  -3   2  16   11.40    1.90
  -3   2  16   13.00    1.40
  -3   2  16   13.00    1.40
   2  -2 -16   57.99    5.10
   2  -2 -16   46.00    4.20
   2  -2 -16   48.80    4.80
   2  -2 -16   52.89    4.60
  -2   2  16   51.19    4.10
  -2   2  16   51.09    4.20
  -2   2  16   54.49    4.60
   1  -2 -16  431.96   36.10
   1  -2 -16  515.05   37.00
   1  -2 -16  531.05   36.90
   1  -2 -16  461.85   36.20
  -1   2  16  502.75   36.40
  -1   2  16  457.75   36.30
  -1   2  16  465.35   36.20
  -1   2  16  491.45   36.00
   0  -2 -16   -0.70    1.20
   0  -2 -16    0.20    1.20
   0  -2 -16    0.40    1.10
   0  -2 -16    1.30    1.50
   0  -2 -16    1.40    1.00
   0  -2 -16    0.40    1.00
   0   2  16    1.00    0.60
   0   2  16    1.40    0.60
   0   2  16    2.80    1.20
  -1  -2 -16  417.86   33.00
  -1  -2 -16  379.26   33.70
  -1  -2 -16  464.85   34.00
  -1  -2 -16  385.86   33.40
   1   2  16  502.15   33.30
   1   2  16  464.65   32.90
   1   2  16  461.05   32.90
  -2  -2 -16   50.89    4.60
  -2  -2 -16   45.40    4.90
  -2  -2 -16   57.99    5.70
   2   2  16   63.09    6.50
   2   2  16   58.09    4.90
  -3  -2 -16   13.10    1.70
  -3  -2 -16   13.60    2.80
   3   2  16   14.20    3.40
   3   2  16   13.40    1.90
  -4  -2 -16   70.49    5.50
  -4  -2 -16   61.29    6.20
   4   2  16   73.29    7.30
   4   2  16   73.89    6.70
   4  -3 -16   23.90    2.40
   4  -3 -16   18.60    2.40
   4  -3 -16   22.20    1.90
   4  -3 -16   15.60    2.60
  -4   3  16   18.80    1.60
  -4   3  16   18.20    1.70
   3  -3 -16    9.40    1.40
   3  -3 -16    6.90    1.80
   3  -3 -16   10.50    2.10
   3  -3 -16    8.70    2.90
  -3   3  16    9.40    1.10
  -3   3  16    9.60    1.00
   2  -3 -16  580.54   40.90
   2  -3 -16  608.24   41.10
   2  -3 -16  473.65   42.10
  -2   3  16  493.55   40.00
  -2   3  16  524.05   40.00
   1  -3 -16   47.30    5.20
   1  -3 -16   57.59    5.30
   1  -3 -16   46.70    4.50
  -1   3  16   57.19    4.90
  -1   3  16   57.39    4.40
  -1   3  16   59.09    4.30
   0  -3 -16   12.50    1.70
   0  -3 -16    8.00    2.00
   0  -3 -16    8.70    2.20
   0  -3 -16    9.20    2.40
   0   3  16   14.20    1.30
   0   3  16    9.30    1.60
   0   3  16   12.50    1.40
  -1  -3 -16   59.19    5.80
  -1  -3 -16   56.29    4.70
  -1  -3 -16   46.50    4.60
   1   3  16   57.19    5.00
   1   3  16   57.39    4.50
   1   3  16   58.49    4.50
   1   3  16   60.19    7.40
  -2  -3 -16  461.85   35.40
  -2  -3 -16  421.36   36.10
   2   3  16  469.55   35.00
   2   3  16  523.35   35.50
  -3  -3 -16    8.00    2.10
  -3  -3 -16    9.80    1.40
   3   3  16    9.70    2.60
   3   3  16    7.30    1.30
  -4  -3 -16   23.60    2.10
  -4  -3 -16   24.00    2.80
   4   3  16   20.80    3.20
   4  -4 -16   44.40    4.40
   4  -4 -16   50.29    4.10
   3  -4 -16    3.20    0.90
   3  -4 -16    3.30    1.30
   3  -4 -16    4.00    1.80
   3  -4 -16    3.40    1.80
  -3   4  16    3.20    0.60
  -3   4  16    4.20    0.60
   2  -4 -16   29.50    4.60
   2  -4 -16   26.90    3.30
   2  -4 -16   21.80    2.60
  -2   4  16   33.40    3.10
  -2   4  16   29.00    2.40
  -2   4  16   28.60    2.40
   1  -4 -16  123.09    9.90
   1  -4 -16  111.79   13.00
  -1   4  16  108.29    9.30
  -1   4  16  112.19    8.60
  -1   4  16  108.39    8.70
   0  -4 -16   21.30    3.40
   0  -4 -16   21.30    4.40
   0  -4 -16   31.20    3.40
   0  -4 -16   32.20    2.80
   0   4  16   24.00    2.90
   0   4  16   29.30    2.40
   0   4  16   26.70    2.40
  -1  -4 -16   92.89    8.90
  -1  -4 -16   89.59    7.70
  -1  -4 -16   77.69    8.80
   1   4  16  101.09    7.30
   1   4  16  103.19    7.90
   1   4  16  100.59    7.30
  -2  -4 -16   23.40    2.30
  -2  -4 -16   21.20    3.40
   2   4  16   29.20    2.70
   2   4  16   24.60    2.20
  -3  -4 -16    2.70    0.70
  -3  -4 -16    2.40    1.30
   3   4  16    4.70    1.00
  -4  -4 -16   46.90    3.60
   3  -5 -16   20.10    2.40
   3  -5 -16   22.00    2.00
   3  -5 -16   18.00    2.90
  -3   5  16   18.70    1.70
   2  -5 -16   85.09    6.70
   2  -5 -16   63.39    6.10
  -2   5  16   80.19    5.90
  -2   5  16   76.99    5.90
   1  -5 -16   60.69    5.50
   1  -5 -16   65.29    4.90
  -1   5  16   56.79    4.60
  -1   5  16   52.79    4.60
  -1   5  16   51.09    4.90
   0  -5 -16   64.69    5.30
   0   5  16   62.29    5.40
   0   5  16   66.19    5.10
   0   5  16   62.99    5.10
  -1  -5 -16   50.59    4.20
   1   5  16   49.30    4.00
   1   5  16   49.20    4.40
   1   5  16   48.80    4.00
  -2  -5 -16   58.39    5.90
   2   5  16   67.09    5.40
   2   5  16   64.89    5.00
  -3  -5 -16   14.80    2.20
   3   5  16   15.70    1.70
   2  -6 -16    5.90    2.00
  -2   6  16    4.30    0.60
   1  -6 -16   31.50    4.40
   1  -6 -16   41.60    3.90
   1  -6 -16   31.00    3.70
  -1   6  16   36.10    2.90
  -1   6  16   38.40    2.90
  -1   6  16   30.10    3.70
   0  -6 -16  106.19    7.50
   0   6  16   88.89    7.50
   0   6  16   91.49    7.20
   0   6  16   91.19    7.30
  -1  -6 -16   39.20    3.00
  -1  -6 -16   30.00    3.40
   1   6  16   33.10    3.20
   1   6  16   30.50    2.90
   1   6  16   32.90    2.70
  -2  -6 -16    6.90    1.60
   2   6  16    5.00    0.90
   0   7  16    0.40    0.70
   0   7  16    1.20    0.40
   2   6 -17   35.20    2.90
   2   6 -17   39.00    3.50
   1   6 -17   57.39    4.00
   1   6 -17   53.89    4.20
   1   6 -17   48.10    4.50
  -1  -6  17   45.00    4.80
   0   6 -17   58.59    4.70
   0   6 -17   59.59    4.60
  -1   6 -17   48.80    4.20
  -1   6 -17   55.79    3.90
  -1   6 -17   50.29    3.80
   1  -6  17   44.80    4.50
  -2   6 -17   34.30    2.90
  -2   6 -17   39.20    2.90
   2  -6  17   32.20    4.10
  -3  -5  17   45.00    3.70
   2   5 -17   83.09    6.80
   2   5 -17   86.99    6.30
  -2  -5  17   75.89    6.40
   1   5 -17   29.50    3.20
   1   5 -17   33.60    2.80
  -1  -5  17   32.50    2.80
  -1  -5  17   25.90    3.90
   0   5 -17   30.50    2.80
   0   5 -17   36.00    3.80
   0   5 -17   35.50    2.70
   0   5 -17   37.00    3.00
   0   5 -17   31.10    2.50
   0  -5  17   25.80    4.00
  -1   5 -17   31.20    2.50
  -1   5 -17   27.70    2.40
  -1   5 -17   30.50    2.30
  -1   5 -17   33.80    2.70
   1  -5  17   23.20    3.50
  -2   5 -17   85.59    6.30
  -2   5 -17   83.99    6.20
  -2   5 -17   78.89    6.10
  -2   5 -17   71.99    6.10
   2  -5  17   82.79    8.50
   2  -5  17   80.39    6.80
  -3   5 -17   51.99    3.90
  -3   5 -17   48.40    3.80
   3  -5  17   51.49    5.10
   3   4 -17   20.50    2.20
  -3  -4  17   15.30    3.40
  -3  -4  17   16.60    1.90
   2   4 -17   13.00    2.10
   2   4 -17   15.60    1.30
  -2  -4  17   12.20    1.70
  -2  -4  17   11.70    2.60
   1   4 -17  120.99    9.50
   1   4 -17  129.29    9.10
  -1  -4  17   99.99   10.10
  -1  -4  17  111.69    9.10
   0   4 -17   52.69    4.00
   0   4 -17   49.20    3.80
   0   4 -17   48.90    4.70
   0   4 -17   50.89    4.20
   0  -4  17   52.09    4.20
   0  -4  17   39.20    5.40
   0  -4  17   49.80    5.10
  -1   4 -17  123.49    9.30
  -1   4 -17  123.89    9.20
  -1   4 -17  129.09    9.60
  -1   4 -17  125.59    9.40
   1  -4  17  106.99   10.50
  -2   4 -17   13.70    1.20
  -2   4 -17   14.80    1.40
  -2   4 -17   14.30    1.40
  -2   4 -17   15.30    1.60
   2  -4  17   14.90    3.00
  -3   4 -17   16.30    1.50
  -3   4 -17   16.60    1.30
  -3   4 -17   15.90    1.70
  -3   4 -17   15.50    1.40
   3  -4  17   16.00    2.10
   3  -4  17   19.50    3.60
   4   3 -17   27.80    2.50
  -4  -3  17   28.20    2.40
   3   3 -17  112.09    8.30
  -3  -3  17  100.39    7.80
  -3  -3  17   94.99    8.10
   2   3 -17  110.49    8.90
   2   3 -17  117.19    9.00
   2   3 -17  115.89    8.30
  -2  -3  17  100.29    9.70
  -2  -3  17   91.69    8.60
  -2  -3  17  115.69    8.50
   1   3 -17  114.79    8.10
   1   3 -17  114.69    7.90
   1   3 -17  103.69    8.50
  -1  -3  17   93.79    8.10
  -1  -3  17   84.99    9.20
  -1  -3  17   94.19    8.40
   0   3 -17  464.75   32.30
   0   3 -17  424.96   32.90
   0   3 -17  441.86   32.50
   0   3 -17  417.36   32.10
   0  -3  17  412.26   32.90
   0  -3  17  428.26   32.50
  -1   3 -17  106.79    8.10
  -1   3 -17  111.09    8.30
  -1   3 -17  101.79    8.20
  -1   3 -17  114.39    8.50
  -1   3 -17  113.49    9.20
   1  -3  17  109.59    9.10
   1  -3  17   95.39    9.70
   1  -3  17  104.59    8.50
  -2   3 -17  110.29    8.60
  -2   3 -17  117.19    8.70
  -2   3 -17  110.69    8.50
  -2   3 -17  120.59    8.90
   2  -3  17  110.39   10.10
   2  -3  17  114.69   10.10
   2  -3  17  102.69   15.40
  -3   3 -17  103.09    8.10
  -3   3 -17  110.19    8.40
  -3   3 -17  109.39    8.30
  -3   3 -17  103.29    8.20
   3  -3  17  104.99    9.10
   3  -3  17  117.19   10.30
  -4   3 -17   31.60    2.40
  -4   3 -17   30.80    2.60
   4  -3  17   29.50    4.20
   4  -3  17   32.20    3.60
   4   2 -17    8.70    1.20
  -4  -2  17    6.60    0.80
  -4  -2  17    7.90    1.20
   3   2 -17   78.89    6.40
   3   2 -17   72.89    5.90
  -3  -2  17   63.79    5.60
  -3  -2  17   63.89    5.70
  -3  -2  17   67.29    5.40
   2   2 -17  144.19   12.00
   2   2 -17  158.38   11.70
  -2  -2  17  151.78   11.40
  -2  -2  17  159.88   11.50
  -2  -2  17  140.59   11.80
   1   2 -17  104.29    8.90
   1   2 -17  110.49    8.50
   1   2 -17  114.79    8.30
  -1  -2  17  107.89    8.20
  -1  -2  17   99.79    8.60
  -1  -2  17  106.59    8.30
   0   2 -17  582.24   40.70
   0   2 -17  549.74   40.50
   0   2 -17  519.85   41.00
   0  -2  17  513.95   40.70
  -1   2 -17  115.89    8.50
  -1   2 -17  102.69    8.20
  -1   2 -17  112.39    9.20
  -1   2 -17  105.79    8.30
  -1   2 -17  118.79    8.70
   1  -2  17  116.19    8.70
   1  -2  17   91.99    9.90
  -2   2 -17  178.88   13.20
  -2   2 -17  181.28   13.10
  -2   2 -17  146.49   15.20
  -2   2 -17  166.78   12.80
  -2   2 -17  166.38   12.90
   2  -2  17  158.18   19.20
   2  -2  17  183.48   14.70
   2  -2  17  178.78   13.80
  -3   2 -17   71.79    5.80
  -3   2 -17   73.29    6.10
  -3   2 -17   78.49    5.90
  -3   2 -17   73.49    5.70
   3  -2  17   73.49    7.10
   3  -2  17   81.69    8.10
  -4   2 -17    8.20    1.00
  -4   2 -17    7.80    0.70
  -4   2 -17    6.70    0.90
   4  -2  17    6.00    1.30
   4  -2  17    7.50    2.10
   4   1 -17   18.80    2.30
   4   1 -17   14.00    1.60
  -4  -1  17   17.90    1.60
  -4  -1  17   17.60    1.50
  -4  -1  17   14.30    1.70
   3   1 -17   18.20    2.00
  -3  -1  17   22.70    1.90
  -3  -1  17   22.20    2.00
  -3  -1  17   21.90    2.30
   2   1 -17  189.38   13.50
   2   1 -17  138.49   12.60
   2   1 -17  167.68   12.90
   2   1 -17  161.88   12.70
  -2  -1  17  165.18   12.30
  -2  -1  17  156.28   12.70
   1   1 -17  122.79   10.70
   1   1 -17  131.59   10.40
   1   1 -17  137.69   10.10
   1   1 -17  136.19   10.40
  -1  -1  17  139.09   10.50
  -1  -1  17  129.49   10.10
  -1  -1  17  123.69   10.40
  -1  -1  17  138.89   10.10
   0   1 -17   97.09    7.80
   0   1 -17   75.49    7.50
   0   1 -17   96.09    7.10
   0  -1  17   85.49    7.00
   0  -1  17   96.79    7.50
   0  -1  17   94.49    7.00
  -1   1 -17  147.19   10.90
  -1   1 -17  158.08   11.50
  -1   1 -17  119.49   10.40
  -1   1 -17  128.89   10.40
  -1   1 -17  134.49   10.90
  -1   1 -17  148.19   10.60
   1  -1  17  133.99   12.30
   1  -1  17  113.89   18.40
   1  -1  17  148.59   10.90
  -2   1 -17  195.08   14.80
  -2   1 -17  186.28   14.40
  -2   1 -17  188.68   15.40
  -2   1 -17  186.18   14.60
  -2   1 -17  204.28   14.60
   2  -1  17  208.28   16.30
   2  -1  17  181.08   21.10
   2  -1  17  180.28   14.70
   2  -1  17  208.68   17.00
   2  -1  17  178.48   15.20
  -3   1 -17   27.80    2.20
  -3   1 -17   26.30    2.70
  -3   1 -17   25.60    2.20
  -3   1 -17   26.50    2.40
   3  -1  17   24.60    3.90
  -4   1 -17   16.90    1.80
  -4   1 -17   18.90    1.60
  -4   1 -17   20.50    1.80
   4  -1  17   21.20    2.80
   4   0 -17   59.89    5.70
   4   0 -17   59.79    4.70
   4   0 -17   62.89    5.10
  -4   0  17   64.49    4.70
  -4   0  17   62.49    4.60
  -4   0  17   49.50    4.80
   3   0 -17    1.80    0.90
   3   0 -17    1.30    1.20
   3   0 -17    2.30    0.70
   3   0 -17    0.90    1.40
  -3   0  17    1.30    0.70
  -3   0  17    0.40    0.50
  -3   0  17    1.30    0.80
   2   0 -17   48.00    4.40
   2   0 -17   43.00    4.00
   2   0 -17   36.10    3.90
  -2   0  17   48.00    3.70
  -2   0  17   42.80    3.90
   1   0 -17  489.05   36.40
   1   0 -17  483.75   36.00
   1   0 -17  487.25   36.60
  -1   0  17  498.25   36.00
  -1   0  17  442.26   36.30
  -1   0  17  457.75   36.00
  -1   0  17  514.65   36.50
   0   0 -17    0.60    1.30
   0   0 -17    0.10    1.50
   0   0 -17   -0.60    0.70
   0   0 -17    0.40    0.50
   0   0  17   -0.10    0.90
   0   0  17   -0.90    2.30
   0   0  17    0.50    0.90
   0   0  17    0.90    0.50
   0   0  17    0.30    0.60
  -1   0 -17  536.55   37.70
  -1   0 -17  463.75   37.50
  -1   0 -17  511.85   38.10
  -1   0 -17  515.75   37.30
   1   0  17  526.65   37.60
   1   0  17  481.55   38.80
   1   0  17  452.65   37.10
  -2   0 -17   46.90    4.20
  -2   0 -17   54.59    5.40
  -2   0 -17   48.90    4.00
  -2   0 -17   52.29    4.60
  -2   0 -17   52.89    4.30
   2   0  17   60.99   14.80
   2   0  17   62.69    6.30
   2   0  17   45.30    4.50
  -3   0 -17    0.80    1.50
  -3   0 -17    2.30    1.80
  -3   0 -17    2.70    0.70
  -3   0 -17    1.20    0.50
  -3   0 -17    1.40    0.60
   3   0  17    1.00    1.60
  -4   0 -17   78.69    5.80
  -4   0 -17   64.39    5.40
   4   0  17   74.49    7.60
   4  -1 -17   15.50    1.60
   4  -1 -17   15.30    2.10
   4  -1 -17   17.20    3.80
  -4   1  17   16.40    1.80
  -4   1  17   18.60    1.50
  -4   1  17   17.10    1.60
   3  -1 -17   22.90    2.40
   3  -1 -17   18.90    2.10
   3  -1 -17   27.10    2.90
   3  -1 -17   25.30    3.30
  -3   1  17   24.60    2.40
  -3   1  17   21.60    2.00
  -3   1  17   24.60    2.10
   2  -1 -17  164.88   11.80
   2  -1 -17  136.09   12.30
   2  -1 -17  148.39   11.50
   2  -1 -17  125.99   11.70
  -2   1  17  168.08   11.40
  -2   1  17  160.48   11.80
   1  -1 -17  143.09   10.90
   1  -1 -17  126.99   10.40
   1  -1 -17  137.09   10.70
   1  -1 -17  119.59   10.50
  -1   1  17  131.49   10.10
  -1   1  17  132.69   10.40
  -1   1  17  132.39   10.10
  -1   1  17  132.59   10.30
   0  -1 -17  109.19    8.70
   0  -1 -17   91.49    7.80
   0  -1 -17   94.89    7.70
   0  -1 -17  106.59    8.40
   0   1  17  102.49    7.70
   0   1  17   78.09   11.40
   0   1  17   95.89    7.80
   0   1  17   99.99    7.70
   0   1  17  105.79    8.10
  -1  -1 -17  145.29   10.70
  -1  -1 -17  134.79   11.10
  -1  -1 -17  123.89   10.80
  -1  -1 -17  146.39   11.70
   1   1  17  121.69   10.80
   1   1  17  156.48   11.10
   1   1  17  134.49   10.60
   1   1  17  146.79   12.60
  -2  -1 -17  175.78   15.50
  -2  -1 -17  181.78   15.00
  -2  -1 -17  194.98   14.70
   2   1  17  219.88   16.50
   2   1  17  188.98   14.90
  -3  -1 -17   26.90    3.60
  -3  -1 -17   27.10    2.50
   3   1  17   21.30    2.60
   3   1  17   28.60    4.20
  -4  -1 -17   17.40    2.00
   4   1  17   24.10    3.30
   4   1  17   16.60    3.50
   4  -2 -17    6.00    1.50
   4  -2 -17    7.60    1.70
   4  -2 -17    4.80    1.00
  -4   2  17    6.20    0.80
  -4   2  17    6.90    0.80
   3  -2 -17   65.99    7.10
   3  -2 -17   70.39    6.20
  -3   2  17   64.29    5.20
  -3   2  17   64.09    5.20
  -3   2  17   68.09    5.50
   2  -2 -17  140.49   12.80
   2  -2 -17  155.28   12.70
  -2   2  17  181.18   12.90
  -2   2  17  159.68   12.00
  -2   2  17  158.68   12.00
   1  -2 -17  115.19    9.30
   1  -2 -17  125.69   10.00
   1  -2 -17  105.69    9.10
   1  -2 -17  132.69   10.00
  -1   2  17  112.19    9.00
  -1   2  17  116.29    9.40
  -1   2  17  116.99    9.00
   0  -2 -17  521.35   42.90
   0  -2 -17  512.95   42.50
   0  -2 -17  637.24   42.80
   0   2  17  558.24   42.00
   0   2  17  593.94   42.00
   0   2  17  581.34   42.40
   0   2  17  529.65   42.10
  -1  -2 -17   91.59    9.10
  -1  -2 -17  108.29    8.70
   1   2  17  122.69   10.90
   1   2  17  121.49    9.10
   1   2  17  116.79    8.50
   1   2  17  110.29    8.60
  -2  -2 -17  135.89   12.80
  -2  -2 -17  159.18   12.00
   2   2  17  168.38   12.20
  -3  -2 -17   68.49    6.50
  -3  -2 -17   72.89    5.70
   3   2  17   64.59    5.70
   3   2  17   73.59    7.10
  -4  -2 -17    7.90    1.00
  -4  -2 -17    7.20    1.50
   4   2  17    5.70    1.70
   4  -3 -17   33.40    3.30
   4  -3 -17   30.60    2.50
   4  -3 -17   25.00    2.80
   4  -3 -17   31.80    2.90
  -4   3  17   27.60    2.30
   3  -3 -17  104.29    7.30
   3  -3 -17   75.59    8.50
  -3   3  17   98.49    7.20
  -3   3  17   94.79    7.10
   2  -3 -17  118.69    8.90
   2  -3 -17   97.99    9.40
  -2   3  17  117.19    8.70
  -2   3  17  113.69    8.80
  -2   3  17  127.09    9.20
   1  -3 -17  106.29    9.20
   1  -3 -17  115.89    8.60
   1  -3 -17   98.99    9.20
   1  -3 -17   98.69    9.20
  -1   3  17  120.19    8.90
  -1   3  17  119.39    8.50
  -1   3  17  112.19    8.50
   0  -3 -17  459.95   35.10
   0  -3 -17  427.66   35.30
   0   3  17  471.75   34.80
   0   3  17  473.65   34.40
   0   3  17  466.95   34.50
  -1  -3 -17   95.99    8.10
  -1  -3 -17   82.49    8.80
   1   3  17  107.99    8.20
   1   3  17  105.09    7.80
   1   3  17  110.49    7.80
  -2  -3 -17  123.69   10.10
  -2  -3 -17  104.19    9.00
   2   3  17  130.59   10.90
   2   3  17  110.49    9.30
  -3  -3 -17   98.69    8.00
  -3  -3 -17  113.49    8.90
   3   3  17   93.49    8.10
   3   3  17  106.89    9.30
  -4  -3 -17   24.50    3.00
  -4  -3 -17   32.10    2.40
   4   3  17   32.60    3.50
   3  -4 -17   11.60    2.70
   3  -4 -17   16.40    2.20
   3  -4 -17   13.90    1.60
  -3   4  17   15.50    1.40
  -3   4  17   15.90    1.60
   2  -4 -17   14.50    2.40
   2  -4 -17   16.10    1.80
   2  -4 -17   12.60    3.30
   2  -4 -17   10.50    2.20
  -2   4  17   14.80    1.50
  -2   4  17   17.80    1.50
  -2   4  17   19.90    2.60
   1  -4 -17  110.59   10.00
   1  -4 -17  113.49   11.80
  -1   4  17  134.69    9.60
  -1   4  17  145.79   10.10
  -1   4  17  128.59    9.60
   0  -4 -17   41.50    4.70
   0  -4 -17   43.50    5.80
   0  -4 -17   40.80    4.00
   0  -4 -17   53.09    4.80
   0   4  17   48.40    3.80
   0   4  17   53.59    4.30
   0   4  17   49.20    3.80
  -1  -4 -17   95.49   10.10
  -1  -4 -17  102.59    8.80
  -1  -4 -17  115.59    9.90
   1   4  17  124.99    9.20
   1   4  17  127.09    8.90
   1   4  17  125.29    8.80
  -2  -4 -17   10.90    2.60
   2   4  17   13.00    1.90
   2   4  17   11.50    1.40
   2   4  17   14.40    3.40
  -3  -4 -17   13.40    2.30
  -3  -4 -17   12.40    1.40
   3   4  17   16.10    1.70
   3  -5 -17   54.09    4.60
   3  -5 -17   57.59    5.20
  -3   5  17   50.69    4.20
   2  -5 -17   93.39    7.70
   2  -5 -17   93.39    8.80
   2  -5 -17   91.59    7.30
  -2   5  17   87.19    6.80
  -2   5  17   81.89    6.80
   1  -5 -17   35.30    3.60
   1  -5 -17   37.10    3.10
   1  -5 -17   28.20    4.50
  -1   5  17   28.40    3.00
  -1   5  17   37.70    3.60
  -1   5  17   32.20    2.70
   0  -5 -17   28.80    3.50
   0  -5 -17   35.50    3.10
   0   5  17   35.20    2.90
   0   5  17   34.10    2.80
   0   5  17   33.40    3.20
  -1  -5 -17   31.70    2.80
  -1  -5 -17   24.20    3.40
   1   5  17   30.70    2.40
   1   5  17   26.50    2.50
   1   5  17   30.30    2.90
  -2  -5 -17   72.99    6.90
   2   5  17   81.79    6.30
  -3  -5 -17   49.99    4.40
   3   5  17   46.50    3.90
   2  -6 -17   41.00    4.10
  -2   6  17   32.70    3.00
   1  -6 -17   53.09    5.30
   1  -6 -17   55.29    4.30
  -1   6  17   44.60    4.20
  -1   6  17   50.99    4.10
  -1   6  17   51.19    4.10
   0  -6 -17   40.90    4.70
   0  -6 -17   46.40    3.90
   0   6  17   49.50    3.90
   0   6  17   54.49    3.80
   0   6  17   49.60    4.10
  -1  -6 -17   47.10    4.10
   1   6  17   47.00    4.00
   1   6  17   46.70    3.70
  -2  -6 -17   25.10    2.60
   2   6  17   29.90    2.50
   1   6 -18   20.40    1.60
   1   6 -18   20.40    3.00
  -1  -6  18   14.60    2.40
   0   6 -18  114.59    8.70
   0   6 -18  115.59    8.80
  -1   6 -18   21.00    1.70
  -1   6 -18   20.00    1.80
   1  -6  18   18.40    3.20
   1  -6  18   17.90    2.20
   2   5 -18    7.70    1.50
   2   5 -18    9.60    0.90
  -2  -5  18    8.50    1.90
  -2  -5  18    8.70    1.20
   1   5 -18   10.50    1.90
   1   5 -18   13.00    1.20
   1   5 -18   12.20    1.40
  -1  -5  18   12.50    2.50
   0   5 -18   22.20    2.00
   0   5 -18   20.10    2.70
   0   5 -18   22.50    1.90
   0  -5  18   16.40    3.00
  -1   5 -18   12.20    1.10
  -1   5 -18   13.50    1.30
  -1   5 -18   14.70    1.50
  -1   5 -18   11.00    1.40
   1  -5  18   13.70    2.50
  -2   5 -18    7.30    0.70
  -2   5 -18    8.60    0.90
  -2   5 -18    8.10    1.00
   2  -5  18    7.20    1.60
   2  -5  18   10.10    2.70
   2  -5  18    6.80    1.90
   3   4 -18   28.20    2.50
  -3  -4  18   25.40    2.30
  -3  -4  18   19.60    3.30
   2   4 -18   62.99    5.10
   2   4 -18   57.89    4.50
  -2  -4  18   53.09    4.70
   1   4 -18  176.98   13.00
   1   4 -18  166.78   13.50
   1   4 -18  181.78   13.20
  -1  -4  18  160.48   13.10
   0   4 -18   93.29    6.80
   0   4 -18   85.69    6.50
   0   4 -18   79.09    7.10
   0  -4  18   78.79    6.60
  -1   4 -18  176.38   13.10
  -1   4 -18  192.38   14.90
  -1   4 -18  190.58   13.40
  -1   4 -18  162.28   12.90
  -1   4 -18  162.98   13.00
   1  -4  18  156.98   14.20
  -2   4 -18   59.89    4.70
  -2   4 -18   53.29    4.50
  -2   4 -18   58.79    4.60
  -2   4 -18   58.69    4.40
   2  -4  18   59.99    6.80
   2  -4  18   57.79    5.60
  -3   4 -18   29.60    2.30
  -3   4 -18   22.50    2.40
  -3   4 -18   25.80    2.10
   3  -4  18   30.20    3.60
   3  -4  18   33.60    3.50
   3   3 -18   21.70    2.30
  -3  -3  18   19.80    2.10
  -3  -3  18   20.90    2.20
   2   3 -18    7.70    0.90
   2   3 -18    7.10    1.70
  -2  -3  18    4.10    2.30
  -2  -3  18    6.00    1.10
   1   3 -18   49.80    3.90
   1   3 -18   54.69    4.20
   1   3 -18   51.69    4.40
   1   3 -18   45.50    4.50
  -1  -3  18   42.10    4.20
   0   3 -18  126.59    9.80
   0   3 -18  120.99   10.20
   0  -3  18  129.79   10.50
   0  -3  18  124.49   10.10
  -1   3 -18   48.70    3.90
  -1   3 -18   46.00    3.60
  -1   3 -18   45.10    3.80
  -1   3 -18   51.79    4.10
  -1   3 -18   45.90    4.70
   1  -3  18   45.70    4.10
   1  -3  18   48.60    5.50
   1  -3  18   51.09    4.90
  -2   3 -18    8.70    1.10
  -2   3 -18    7.20    1.00
  -2   3 -18    9.30    1.30
  -2   3 -18    7.30    0.80
   2  -3  18    7.50    2.10
  -3   3 -18   20.80    2.00
  -3   3 -18   16.60    1.90
  -3   3 -18   20.30    1.60
  -3   3 -18   19.70    1.70
   3  -3  18   21.50    3.50
   4   2 -18    2.50    0.60
  -4  -2  18    1.90    0.50
  -4  -2  18    1.10    0.50
   3   2 -18  108.29    7.80
  -3  -2  18   89.59    7.50
  -3  -2  18   88.59    7.30
  -3  -2  18   94.29    7.30
   2   2 -18   22.40    2.90
   2   2 -18   25.20    2.80
  -2  -2  18   23.50    2.60
  -2  -2  18   24.90    2.20
  -2  -2  18   26.00    2.10
   1   2 -18   61.49    5.00
   1   2 -18   58.99    4.50
   1   2 -18   55.99    5.20
   1   2 -18   62.29    4.80
  -1  -2  18   46.60    6.10
  -1  -2  18   57.39    4.90
  -1  -2  18   49.90    5.20
  -1  -2  18   59.89    4.50
   0   2 -18  128.29   10.20
   0   2 -18  132.39   10.80
   0   2 -18  133.19   10.40
   0  -2  18  139.19   10.50
  -1   2 -18   56.29    4.50
  -1   2 -18   64.29    5.00
  -1   2 -18   60.59    5.60
  -1   2 -18   53.79    4.60
  -1   2 -18   63.59    4.80
   1  -2  18   62.09    5.00
   1  -2  18   60.19    5.60
   1  -2  18   55.79    6.50
  -2   2 -18   19.80    3.50
  -2   2 -18   24.70    2.10
  -2   2 -18   26.60    2.60
  -2   2 -18   23.80    2.20
  -2   2 -18   29.60    2.40
   2  -2  18   28.40   12.50
   2  -2  18   31.30    4.20
   2  -2  18   28.70    5.60
   2  -2  18   26.70    4.80
  -3   2 -18   95.59    7.60
  -3   2 -18   96.09    7.60
  -3   2 -18   92.99    7.90
  -3   2 -18  102.49    7.80
   3  -2  18  114.39    9.40
   3  -2  18  105.59    8.90
  -4   2 -18    1.30    0.40
  -4   2 -18    1.60    0.30
   4  -2  18    2.90    1.70
   4   1 -18   32.30    3.10
  -4  -1  18   28.80    2.70
  -4  -1  18   33.40    2.50
   3   1 -18   56.99    5.40
   3   1 -18   63.89    4.90
  -3  -1  18   51.29    4.80
  -3  -1  18   54.99    4.50
   2   1 -18  135.19   11.30
   2   1 -18  122.29   11.10
  -2  -1  18  154.08   11.80
  -2  -1  18  153.78   10.90
  -2  -1  18  150.08   10.80
   1   1 -18   48.40    4.30
   1   1 -18   42.70    3.80
   1   1 -18   43.00    3.90
   1   1 -18   42.90    3.50
  -1  -1  18   40.50    3.50
  -1  -1  18   40.50    3.90
  -1  -1  18   43.00    3.50
   0   1 -18    3.70    1.30
   0   1 -18    1.80    0.80
   0   1 -18    2.10    0.60
   0  -1  18    2.10    1.00
   0  -1  18    1.70    1.90
   0  -1  18    3.70    0.60
  -1   1 -18   44.30    4.60
  -1   1 -18   49.70    3.80
  -1   1 -18   46.70    4.10
   1  -1  18   42.00    5.60
   1  -1  18   31.70   11.40
   1  -1  18   49.40    4.20
  -2   1 -18  166.68   12.60
  -2   1 -18  147.39   12.10
  -2   1 -18  182.98   13.30
  -2   1 -18  173.98   12.80
  -2   1 -18  155.28   12.20
   2  -1  18  161.58   13.40
   2  -1  18  158.78   14.70
   2  -1  18  146.89   12.50
   2  -1  18  190.18   28.50
  -3   1 -18   57.39    4.40
  -3   1 -18   62.49    4.60
  -3   1 -18   55.39    4.50
  -3   1 -18   50.19    4.70
   3  -1  18   60.99    6.00
  -4   1 -18   37.70    3.00
  -4   1 -18   31.50    2.80
   4  -1  18   36.10    3.60
   4  -1  18   40.40    4.30
   4   0 -18   -0.10    0.80
   4   0 -18    0.20    0.60
  -4   0  18    0.70    0.50
  -4   0  18    0.40    0.50
  -4   0  18    0.10    0.50
   3   0 -18    3.40    1.40
   3   0 -18    3.20    0.90
   3   0 -18    2.60    1.40
   3   0 -18    2.30    1.30
  -3   0  18    3.80    0.90
  -3   0  18    1.60    0.70
  -3   0  18    3.00    0.60
   2   0 -18  183.28   13.50
   2   0 -18  180.58   13.70
   2   0 -18  163.68   13.20
  -2   0  18  160.58   12.50
  -2   0  18  132.19   13.10
  -2   0  18  168.58   12.60
   1   0 -18   47.40    4.70
   1   0 -18   49.10    4.00
   1   0 -18   56.29    5.10
   1   0 -18   46.90    4.30
  -1   0  18   54.09    4.00
  -1   0  18   50.69    4.00
  -1   0  18   49.60    4.40
  -1   0  18   35.40    6.90
   0   0 -18 1088.79   77.19
   0   0 -18  897.21   77.69
   0   0 -18 1042.40   77.49
   0   0  18 1021.70   78.59
   0   0  18 1042.50   77.09
   0   0  18 1110.19   77.49
   0   0  18 1051.79   77.09
  -1   0 -18   52.99    4.40
  -1   0 -18   52.69    4.70
  -1   0 -18   51.09    5.30
   1   0  18   54.09    6.20
   1   0  18   55.29    4.70
  -2   0 -18  198.58   14.40
  -2   0 -18  169.78   15.40
  -2   0 -18  167.68   14.40
   2   0  18  211.98   16.80
  -3   0 -18    5.60    2.10
  -3   0 -18    3.00    0.70
  -3   0 -18    2.50    0.50
  -3   0 -18    1.80    0.90
   3   0  18    5.00    2.10
  -4   0 -18    0.20    0.40
   4   0  18    0.00    1.10
   4   0  18    0.40    1.50
   4  -1 -18   28.50    4.10
   4  -1 -18   31.20    3.40
  -4   1  18   30.50    2.40
  -4   1  18   28.40    2.40
  -4   1  18   29.40    2.50
   3  -1 -18   51.49    4.20
   3  -1 -18   52.99    4.70
  -3   1  18   52.49    4.20
  -3   1  18   49.70    4.40
  -3   1  18   53.39    4.10
   2  -1 -18  116.19   10.50
   2  -1 -18  130.99   11.90
   2  -1 -18  133.59   10.90
  -2   1  18  146.19   10.90
  -2   1  18  151.18   10.50
  -2   1  18  152.18   10.60
   1  -1 -18   42.00    4.50
   1  -1 -18   42.50    4.40
   1  -1 -18   45.40    4.30
   1  -1 -18   40.10    4.00
   1  -1 -18   40.90    3.90
  -1   1  18   41.90    4.00
  -1   1  18   46.10    3.50
  -1   1  18   45.50    3.60
   0  -1 -18    2.30    1.40
   0  -1 -18    1.10    0.90
   0  -1 -18    3.20    0.70
   0  -1 -18    2.10    1.30
   0   1  18    1.90    1.10
   0   1  18    1.50    0.60
   0   1  18   -1.50    2.40
   0   1  18    3.60    0.60
  -1  -1 -18   47.40    3.90
  -1  -1 -18   51.89    5.00
  -1  -1 -18   45.80    4.40
   1   1  18   46.60    5.90
   1   1  18   41.90    3.70
   1   1  18   47.60    4.30
  -2  -1 -18  182.78   14.60
  -2  -1 -18  186.98   15.40
   2   1  18  200.28   16.50
   2   1  18  179.48   14.90
  -3  -1 -18   59.79    4.90
  -3  -1 -18   57.39    5.70
   3   1  18   63.79    6.30
  -4  -1 -18   39.60    3.10
   4   1  18   39.30    4.60
   4   1  18   35.10    4.00
   4  -2 -18    1.70    0.90
   4  -2 -18    1.40    1.60
   4  -2 -18    1.10    0.80
  -4   2  18    1.00    0.30
   3  -2 -18   82.49    8.20
   3  -2 -18   84.29    6.80
  -3   2  18   91.29    6.60
  -3   2  18   89.19    6.90
  -3   2  18   86.99    6.70
   2  -2 -18   28.50    2.90
   2  -2 -18   18.60    2.90
   2  -2 -18   25.80    3.20
  -2   2  18   26.30    2.20
  -2   2  18   25.70    2.20
  -2   2  18   23.90    2.60
   1  -2 -18   54.79    5.50
   1  -2 -18   61.89    5.40
   1  -2 -18   58.49    5.60
   1  -2 -18   46.80    5.10
  -1   2  18   65.09    4.70
  -1   2  18   62.69    4.70
  -1   2  18   61.49    5.10
   0  -2 -18  135.29   11.30
   0  -2 -18  120.69   10.90
   0   2  18  145.89   10.80
   0   2  18  136.69   10.40
   0   2  18  137.49   10.30
  -1  -2 -18   60.29    6.00
  -1  -2 -18   55.99    5.50
  -1  -2 -18   58.69    5.00
   1   2  18   60.69    4.90
   1   2  18   61.09    4.80
   1   2  18   75.49    7.40
   1   2  18   62.19    5.40
  -2  -2 -18   20.50    3.30
  -2  -2 -18   20.20    2.70
  -2  -2 -18   25.50    2.30
   2   2  18   30.20    4.50
   2   2  18   25.60    2.70
  -3  -2 -18   94.09    8.20
  -3  -2 -18   98.89    7.50
   3   2  18   86.39    7.50
   3   2  18  104.69    8.90
  -4  -2 -18    3.70    1.50
   3  -3 -18   17.70    1.80
   3  -3 -18   17.40    2.60
   3  -3 -18   16.40    2.80
  -3   3  18   18.60    1.60
  -3   3  18   18.90    1.60
   2  -3 -18    9.40    2.00
   2  -3 -18    7.80    1.30
   2  -3 -18    6.60    2.50
   2  -3 -18    6.80    1.80
  -2   3  18    7.90    1.00
  -2   3  18    8.10    1.40
  -2   3  18    6.80    1.00
   1  -3 -18   59.09    5.10
   1  -3 -18   49.99    4.30
   1  -3 -18   52.09    5.00
  -1   3  18   47.70    4.20
  -1   3  18   51.59    4.20
  -1   3  18   53.99    4.60
   0   3  18  124.99    9.00
   0   3  18  111.59   10.10
   0   3  18  112.79    9.00
  -1  -3 -18   34.20    4.80
   1   3  18   48.50    3.70
   1   3  18   52.29    4.30
   1   3  18   44.60    3.80
   1   3  18   53.39    6.80
  -2  -3 -18    5.80    1.90
  -2  -3 -18    8.00    1.10
   2   3  18    6.60    1.30
   2   3  18    9.10    2.80
  -3  -3 -18   19.60    2.80
  -3  -3 -18   22.10    1.90
   3   3  18   21.20    2.10
   3   3  18   21.80    3.40
   3  -4 -18   22.90    2.20
   3  -4 -18   29.00    2.70
   3  -4 -18   25.40    3.30
  -3   4  18   25.10    2.10
   2  -4 -18   64.69    4.90
   2  -4 -18   62.89    6.60
  -2   4  18   59.59    4.70
  -2   4  18   57.99    4.80
  -2   4  18   59.39    5.10
   1  -4 -18  152.68   14.70
   1  -4 -18  149.69   13.00
   1  -4 -18  173.08   13.50
  -1   4  18  185.98   13.10
  -1   4  18  166.88   12.70
  -1   4  18  183.18   12.80
   0  -4 -18   86.49    7.00
   0  -4 -18   73.89    7.00
   0   4  18   82.79    6.60
   0   4  18   78.09    6.10
   0   4  18   74.29    6.20
  -1  -4 -18  146.29   12.60
   1   4  18  133.89   11.70
   1   4  18  162.88   11.70
   1   4  18  172.88   12.10
  -2  -4 -18   65.59    5.90
   2   4  18   62.19    6.80
   2   4  18   55.79    5.10
  -3  -4 -18   28.30    3.00
   3   4  18   29.60    4.00
   3   4  18   25.00    2.40
   2  -5 -18    8.70    1.40
   2  -5 -18    8.60    2.30
   2  -5 -18   11.00    1.70
  -2   5  18    8.20    1.10
  -2   5  18    8.40    0.90
   1  -5 -18   12.10    2.00
   1  -5 -18   14.50    3.60
   1  -5 -18   14.80    1.70
  -1   5  18   11.60    1.30
  -1   5  18   12.40    1.30
  -1   5  18   13.60    1.80
   0  -5 -18   17.70    3.20
   0  -5 -18   19.60    2.00
   0   5  18   20.70    1.80
   0   5  18   20.10    2.30
   0   5  18   18.40    1.80
  -1  -5 -18   10.70    2.30
   1   5  18   11.60    1.20
   1   5  18   13.00    1.70
  -2  -5 -18    4.70    1.30
   2   5  18    5.80    1.00
   1  -6 -18   19.90    2.70
   1  -6 -18   19.30    1.80
  -1   6  18   16.70    1.60
   0  -6 -18   97.49    8.20
   0   6  18   93.39    7.50
   0   6  18   97.49    7.30
   1   6  18   17.90    1.90
   1   6  18   18.10    1.70
   1   5 -19   85.89    6.90
   1   5 -19   90.79    6.80
   1   5 -19   89.89    7.20
   0   5 -19    9.10    1.00
   0   5 -19   10.50    2.10
   0   5 -19   10.10    1.20
  -1   5 -19   91.09    6.50
  -1   5 -19   82.69    6.30
   1  -5  19   74.39    7.00
  -2   5 -19   73.49    5.70
  -2   5 -19   74.09    5.60
   2  -5  19   73.09    6.80
   2  -5  19   73.69    6.00
  -3  -4  19    2.70    0.60
   2   4 -19   12.20    1.20
   2   4 -19   13.30    1.80
  -2  -4  19   12.10    1.50
  -2  -4  19   12.60    2.70
   1   4 -19   61.99    5.40
   1   4 -19   62.19    5.00
   1   4 -19   65.89    4.80
  -1  -4  19   51.99    6.00
  -1  -4  19   65.19    5.00
   0   4 -19    1.10    1.10
   0   4 -19    0.90    0.60
   0   4 -19    0.90    0.40
   0  -4  19   -0.20    0.80
   0  -4  19    0.70    1.30
  -1   4 -19   62.19    5.70
  -1   4 -19   55.99    4.70
  -1   4 -19   66.29    4.90
  -1   4 -19   69.59    5.10
   1  -4  19   57.69    6.00
  -2   4 -19   13.80    1.40
  -2   4 -19   13.80    1.30
  -2   4 -19   11.40    1.10
   2  -4  19   14.30    2.40
   2  -4  19   12.90    3.30
  -3   4 -19    4.50    0.70
   3   3 -19   64.99    5.60
  -3  -3  19   74.29    5.50
  -2  -3  19   25.30    4.10
   1   3 -19  206.98   15.10
   1   3 -19  202.58   15.40
   1   3 -19  196.88   14.90
  -1  -3  19  181.88   15.10
   0   3 -19   21.20    1.90
   0   3 -19   18.80    2.70
   0   3 -19   24.10    2.20
   0  -3  19   22.10    2.20
   0  -3  19   14.50    3.60
  -1   3 -19  183.88   15.40
  -1   3 -19  219.48   15.10
  -1   3 -19  180.38   14.60
  -1   3 -19  201.58   14.80
   1  -3  19  193.98   16.10
  -2   3 -19   39.60    3.30
  -2   3 -19   36.60    2.90
  -2   3 -19   34.70    3.10
  -2   3 -19   41.40    3.20
   2  -3  19   39.80    5.10
   2  -3  19   38.60    4.40
  -3   3 -19   79.99    6.10
  -3   3 -19   72.59    6.20
  -3   3 -19   73.89    5.90
   3  -3  19   79.29    6.60
   3  -3  19   89.79    7.80
  -3  -2  19   54.49    4.70
  -3  -2  19   57.79    4.40
   2   2 -19   76.79    7.00
  -2  -2  19   93.79    6.40
  -2  -2  19   90.09    6.80
  -2  -2  19   70.79    9.20
   1   2 -19   31.70    2.80
   1   2 -19   30.10    2.50
   1   2 -19   28.20    3.00
   1   2 -19   32.50    3.30
  -1  -2  19   24.70    2.90
   0   2 -19    1.80    0.70
   0   2 -19    1.90    0.80
   0   2 -19    1.00    1.20
   0  -2  19    1.90    1.30
   0  -2  19    0.10    1.70
   0  -2  19    4.00    1.10
  -1   2 -19   30.70    2.50
  -1   2 -19   27.80    3.40
  -1   2 -19   28.10    2.80
   1  -2  19   32.10    4.40
   1  -2  19   29.20    2.80
   1  -2  19   28.40    3.60
  -2   2 -19   87.19    7.20
  -2   2 -19   95.39    7.60
  -2   2 -19   99.39    8.30
  -2   2 -19   87.29    7.20
  -2   2 -19   97.59    7.40
   2  -2  19   97.49    8.70
   2  -2  19  105.89    9.60
  -3   2 -19   60.09    4.80
  -3   2 -19   58.29    4.70
  -3   2 -19   51.99    4.40
   3  -2  19   65.09    5.70
  -4  -1  19    8.30    1.30
  -4  -1  19   12.50    1.00
   3   1 -19   60.09    5.30
   3   1 -19   76.29    5.90
  -3  -1  19   65.49    5.00
  -3  -1  19   64.99    5.10
  -3  -1  19   59.79    5.30
   2   1 -19   30.60    2.90
   2   1 -19   21.30    2.70
  -2  -1  19   28.60    2.20
  -2  -1  19   24.80    2.30
  -2  -1  19   25.60    2.70
   1   1 -19  106.19    8.60
   1   1 -19   98.29    7.70
   1   1 -19   97.39    7.90
  -1  -1  19  102.29    7.50
  -1  -1  19   95.39    8.00
  -1  -1  19   93.39    7.60
   0   1 -19  221.28   16.20
   0   1 -19  236.78   16.60
   0   1 -19  209.88   15.90
   0  -1  19  225.08   16.20
   0  -1  19  181.98   17.20
   0  -1  19  184.08   15.70
  -1   1 -19  105.09    8.70
  -1   1 -19  126.29    8.80
   1  -1  19  113.09    9.40
   1  -1  19   89.79   11.30
  -2   1 -19   29.30    2.50
  -2   1 -19   28.00    3.70
  -2   1 -19   27.30    2.70
   2  -1  19   22.20    2.70
   2  -1  19   33.50    4.30
  -3   1 -19   56.19    4.90
  -3   1 -19   73.79    5.20
  -3   1 -19   57.89    5.20
   3  -1  19   74.79    6.40
  -4   1 -19   13.30    1.30
   4  -1  19   11.50    2.20
   4  -1  19   14.90    2.30
   4   0 -19   23.70    2.60
  -4   0  19   26.50    2.30
  -4   0  19   31.30    2.20
   3   0 -19   16.10    2.30
   3   0 -19   10.10    1.70
  -3   0  19   14.00    1.70
  -3   0  19   16.50    1.50
  -3   0  19   14.00    1.30
   2   0 -19    1.90    1.40
   2   0 -19    3.30    1.10
   2   0 -19    3.40    1.40
   2   0 -19    1.80    1.20
  -2   0  19    2.10    0.60
  -2   0  19    2.30    0.90
   1   0 -19  168.68   13.70
   1   0 -19  194.38   14.20
  -1   0  19  174.38   13.40
  -1   0  19  188.88   13.30
  -1   0  19  149.49   17.40
  -1   0  19  178.38   13.70
   0   0 -19    0.20    0.50
   0   0 -19    0.20    1.00
   0   0 -19    0.40    0.70
   0   0  19    0.60    0.70
   0   0  19   -0.10    0.40
   0   0  19   -0.60    0.80
   0   0  19   -1.60    2.10
  -1   0 -19  194.78   14.70
  -1   0 -19  187.48   15.00
  -1   0 -19  182.38   15.40
   1   0  19  196.88   15.00
   1   0  19  208.38   16.90
  -2   0 -19    3.30    0.70
  -2   0 -19    1.90    0.90
  -2   0 -19    2.60    1.30
   2   0  19    2.60    1.00
   2   0  19    4.40    2.20
  -3   0 -19   15.30    2.70
  -3   0 -19   14.40    1.50
  -3   0 -19   12.40    1.80
   3   0  19   18.10    3.20
  -4   0 -19   33.10    2.70
   4   0  19   32.90    3.60
   4   0  19   32.60    3.30
  -4   1  19   11.30    1.00
   3  -1 -19   62.09    6.50
   3  -1 -19   66.39    5.90
  -3   1  19   62.19    5.00
  -3   1  19   61.39    5.20
  -3   1  19   67.79    5.00
   2  -1 -19   27.80    3.30
   2  -1 -19   26.00    2.90
   2  -1 -19   29.40    3.10
  -2   1  19   25.00    2.70
  -2   1  19   27.50    2.40
  -2   1  19   26.30    2.30
   1  -1 -19   86.09    8.10
   1  -1 -19   83.79    8.10
   1  -1 -19  116.09    8.90
  -1   1  19  107.89    8.30
  -1   1  19  112.29    7.70
  -1   1  19   98.89    7.80
   0  -1 -19  193.58   16.20
   0  -1 -19  196.68   15.80
   0  -1 -19  209.68   16.30
   0  -1 -19  190.88   16.50
   0   1  19  202.48   15.70
   0   1  19  223.48   16.20
   0   1  19  245.28   18.90
   0   1  19  216.98   15.70
  -1  -1 -19   96.89    8.60
  -1  -1 -19  120.29    9.70
  -1  -1 -19   99.19    8.80
   1   1  19   90.69    8.10
   1   1  19  125.39   12.80
   1   1  19  118.49    8.80
  -2  -1 -19   27.50    2.50
  -2  -1 -19   32.60    3.60
  -2  -1 -19   23.00    2.80
   2   1  19   29.10    4.30
   2   1  19   25.00    2.80
  -3  -1 -19   71.09    5.60
  -3  -1 -19   69.59    6.30
   3   1  19   72.39    6.80
  -4  -1 -19   13.70    1.30
   4   1  19   14.00    3.50
   4   1  19   14.90    2.20
   3  -2 -19   62.99    6.80
  -3   2  19   54.79    4.40
  -3   2  19   52.69    4.60
  -3   2  19   57.29    4.40
   2  -2 -19   68.09    6.60
   2  -2 -19   70.89    6.40
   2  -2 -19   75.09    6.10
  -2   2  19   91.09    6.40
  -2   2  19   87.69    6.10
   1  -2 -19   32.10    3.50
   1  -2 -19   26.90    3.30
  -1   2  19   31.00    2.50
  -1   2  19   28.90    2.50
  -1   2  19   30.70    3.00
   0  -2 -19    1.20    1.00
   0  -2 -19    1.30    1.30
   0   2  19    2.00    0.60
   0   2  19    1.40    0.50
   0   2  19    0.90    1.10
  -1  -2 -19   28.50    2.50
  -1  -2 -19   24.50    3.10
  -1  -2 -19   28.20    3.70
   1   2  19   32.10    5.00
   1   2  19   24.80    2.70
   1   2  19   33.40    3.10
   1   2  19   29.80    2.40
  -2  -2 -19   91.69    8.30
  -2  -2 -19   90.89    7.30
   2   2  19   92.99    7.60
   2   2  19  102.59    9.00
  -3  -2 -19   57.29    4.40
  -3  -2 -19   56.99    5.20
   3   2  19   51.49    4.50
   3  -3 -19   78.89    6.40
   3  -3 -19   74.09    6.30
   3  -3 -19   70.39    7.00
   3  -3 -19   83.89    5.90
  -3   3  19   71.99    5.80
  -3   3  19   76.79    5.90
   2  -3 -19   35.00    4.80
   2  -3 -19   44.80    4.00
   2  -3 -19   44.20    4.00
  -2   3  19   38.70    3.20
  -2   3  19   35.50    3.20
   1  -3 -19  184.18   16.20
   1  -3 -19  174.38   14.70
   1  -3 -19  172.38   14.70
  -1   3  19  191.48   14.20
  -1   3  19  201.38   14.50
  -1   3  19  201.08   14.10
   0  -3 -19   22.10    3.10
   0  -3 -19   20.80    2.70
   0  -3 -19   15.70    3.60
   0   3  19   19.60    1.90
   0   3  19   21.40    2.40
   0   3  19   21.80    1.90
  -1  -3 -19  190.48   14.90
  -1  -3 -19  165.08   15.20
   1   3  19  202.78   14.30
   1   3  19  189.28   13.80
   1   3  19  168.08   13.90
  -2  -3 -19   35.30    3.10
  -2  -3 -19   41.30    4.20
   2   3  19   38.80    3.50
  -3  -3 -19   70.19    5.70
   3   3  19   72.59    5.80
   3   3  19   79.09    6.80
   2  -4 -19   14.70    2.20
   2  -4 -19   12.40    1.50
   2  -4 -19   13.20    4.30
  -2   4  19   12.70    1.30
  -2   4  19   12.90    1.20
  -2   4  19   14.00    2.10
   1  -4 -19   65.29    5.60
   1  -4 -19   52.39    5.00
   1  -4 -19   72.19    6.90
  -1   4  19   63.89    5.30
  -1   4  19   62.39    4.80
  -1   4  19   60.19    4.90
   0  -4 -19    1.40    1.10
   0  -4 -19    1.20    0.90
   0  -4 -19    0.80    1.50
   0  -4 -19    0.10    0.90
   0   4  19    0.90    0.80
   0   4  19    0.10    0.40
   0   4  19    0.30    0.50
  -1  -4 -19   61.49    5.60
   1   4  19   64.29    5.10
   1   4  19   55.39    4.60
   1   4  19   55.39    4.70
  -2  -4 -19   12.10    2.40
   2   4  19   12.70    1.90
   3   4  19    3.30    0.60
   2  -5 -19   78.79    6.20
   2  -5 -19   83.19    7.00
  -2   5  19   68.69    5.80
   1  -5 -19   84.39    7.60
   1  -5 -19   76.99    6.70
  -1   5  19   83.39    6.40
  -1   5  19   80.09    6.20
   0  -5 -19    7.20    2.20
   0  -5 -19    7.60    1.40
   0   5  19   10.00    1.20
   0   5  19    9.40    1.00
   0   5  19    8.70    1.30
  -1  -5 -19   77.19    6.40
   1   5  19   71.89    5.80
   1   5  19   80.89    6.20
  -2  -5 -19   71.99    5.80
   2   5  19   66.09    5.50
   1   5 -20   14.50    1.20
   1   5 -20   12.80    1.70
  -1  -5  20   12.80    2.20
   0   5 -20   68.89    5.60
   0   5 -20   76.39    6.20
   0   5 -20   73.69    5.50
   0  -5  20   65.79    6.20
  -1   5 -20   13.70    1.20
  -1   5 -20   13.20    1.30
   1  -5  20   13.10    2.00
   2   4 -20   80.69    6.00
  -2  -4  20   59.99    7.10
  -2  -4  20   73.69    5.70
   1   4 -20  100.29    7.60
   1   4 -20   99.69    7.80
   1   4 -20  100.09    7.30
  -1  -4  20   80.09    8.20
  -1  -4  20   97.69    7.40
   0   4 -20    5.70    0.80
   0   4 -20    5.40    1.30
   0   4 -20    5.80    1.00
   0  -4  20    3.30    1.40
  -1   4 -20  102.39    7.70
  -1   4 -20   92.39    8.20
  -1   4 -20  113.59    7.70
   1  -4  20   81.29    8.90
  -2   4 -20   75.29    5.70
  -2   4 -20   73.19    5.90
   2  -4  20   76.89    6.30
   2  -4  20   73.89    6.80
   3   3 -20   20.70    2.10
  -3  -3  20   22.80    2.00
   1   3 -20   29.30    2.40
   1   3 -20   27.00    2.60
   1   3 -20   29.60    3.00
  -1  -3  20   27.40    2.60
   0   3 -20    0.20    0.60
   0   3 -20    0.40    0.40
   0   3 -20    1.90    1.00
   0  -3  20    0.70    0.70
   0  -3  20    0.40    1.50
  -1   3 -20   31.10    3.60
  -1   3 -20   29.00    2.60
  -1   3 -20   27.30    2.40
   1  -3  20   24.40    3.70
  -2   3 -20  155.48   11.60
  -2   3 -20  149.99   11.70
  -2   3 -20  136.99   11.40
   2  -3  20  153.68   12.80
   2  -3  20  169.58   12.60
  -3   3 -20   23.10    1.90
   3  -3  20   21.50    2.50
   3   2 -20    4.90    1.20
  -3  -2  20    3.10    0.80
  -3  -2  20    3.90    0.80
   2   2 -20   21.00    2.30
  -2  -2  20   17.80    2.00
  -2  -2  20   15.40    1.60
  -2  -2  20   13.50    3.00
   1   2 -20   40.40    3.50
   1   2 -20   40.60    3.20
   1   2 -20   40.50    3.90
  -1  -2  20   40.50    3.60
  -1  -2  20   35.50    4.90
   0   2 -20   69.09    5.50
   0   2 -20   71.99    6.20
   0   2 -20   73.49    5.80
   0  -2  20   76.59    5.80
   0  -2  20   60.39    6.90
  -1   2 -20   40.50    3.90
  -1   2 -20   40.50    4.20
  -1   2 -20   43.10    3.40
   1  -2  20   43.60    3.60
   1  -2  20   42.70    5.00
  -2   2 -20   17.60    1.90
  -2   2 -20   13.30    2.80
  -2   2 -20   17.00    1.60
   2  -2  20   20.20    4.10
   2  -2  20   19.40    3.10
  -3   2 -20    5.20    0.80
   3  -2  20    4.70    1.40
   3   1 -20    8.90    1.30
  -3  -1  20    9.40    1.30
  -3  -1  20   10.10    1.20
   2   1 -20   32.90    3.00
  -2  -1  20   26.20    2.80
  -2  -1  20   23.50    2.40
  -2  -1  20   29.00    2.30
   1   1 -20  227.18   20.10
   1   1 -20  269.47   20.40
   1   1 -20  231.18   19.80
  -1  -1  20  281.07   19.90
  -1  -1  20  308.37   20.30
  -1  -1  20  276.57   21.40
   0   1 -20  117.59    9.40
   0   1 -20  110.69    8.90
   0   1 -20  110.79    8.60
   0  -1  20  117.59    9.00
   0  -1  20  107.79   10.10
  -1   1 -20  308.87   22.80
  -1   1 -20  301.97   22.50
  -1   1 -20  263.27   23.10
   1  -1  20  312.37   23.90
   1  -1  20  312.27   22.70
  -2   1 -20   26.80    3.50
  -2   1 -20   27.90    2.50
   2  -1  20   31.70    4.10
  -3   1 -20   10.00    1.10
   3  -1  20   10.90    2.30
   3   0 -20  162.88   13.00
  -3   0  20  156.58   13.10
  -3   0  20  179.48   12.90
  -3   0  20  189.08   13.00
   2   0 -20   47.90    4.10
  -2   0  20   45.10    3.60
  -2   0  20   42.90    3.90
  -2   0  20   43.70    3.80
   1   0 -20   47.80    4.30
   1   0 -20   50.59    4.40
  -1   0  20   41.00    3.90
  -1   0  20   43.00    3.50
  -1   0  20   37.40    3.50
   0   0 -20    3.70    1.00
   0   0 -20    4.10    0.70
   0   0  20    3.70    0.60
   0   0  20    5.00    2.40
   0   0  20    4.20    1.00
  -1   0 -20   37.30    4.10
  -1   0 -20   38.40    3.30
  -1   0 -20   37.10    3.60
   1   0  20   41.20    3.70
   1   0  20   45.10    5.20
  -2   0 -20   42.70    3.70
  -2   0 -20   41.70    4.00
  -2   0 -20   49.20    4.70
   2   0  20   49.00    5.30
   2   0  20   46.90    3.90
  -3   0 -20  183.08   13.60
  -3   0 -20  174.78   14.10
   3  -1 -20   10.00    1.70
   3  -1 -20    8.00    2.20
   3  -1 -20    6.70    1.50
  -3   1  20    9.30    0.90
  -3   1  20    7.10    1.00
  -3   1  20    9.60    1.20
   2  -1 -20   34.00    3.40
   2  -1 -20   33.10    3.00
   2  -1 -20   27.40    3.00
  -2   1  20   28.10    2.80
  -2   1  20   28.90    2.50
  -2   1  20   25.20    2.50
   1  -1 -20  248.58   20.80
   1  -1 -20  227.08   20.60
  -1   1  20  296.67   20.40
  -1   1  20  315.17   20.70
   0  -1 -20  102.19    8.90
   0  -1 -20  123.69    9.40
   0   1  20  113.19    8.50
   0   1  20  121.59    8.90
   0   1  20  106.09    8.50
   0   1  20   99.79   10.20
  -1  -1 -20  274.67   24.00
  -1  -1 -20  346.37   24.60
  -1  -1 -20  298.17   23.70
   1   1  20  340.87   25.20
   1   1  20  319.87   24.00
  -2  -1 -20   28.10    3.30
  -2  -1 -20   23.20    2.70
  -2  -1 -20   27.60    2.40
   2   1  20   29.90    4.10
   2   1  20   26.30    2.70
  -3  -1 -20    5.70    1.30
   3   1  20   10.70    2.40
   3  -2 -20    3.50    0.90
   3  -2 -20    3.20    1.40
   3  -2 -20    2.30    0.80
   3  -2 -20    3.30    1.00
  -3   2  20    3.20    0.60
  -3   2  20    2.80    0.80
  -3   2  20    3.90    0.50
   2  -2 -20   14.20    2.10
   2  -2 -20   12.60    3.00
   2  -2 -20   10.80    2.10
   2  -2 -20   12.40    1.80
  -2   2  20   16.10    1.80
  -2   2  20   18.60    1.40
  -2   2  20   17.50    1.50
   1  -2 -20   43.90    4.10
  -1   2  20   44.50    3.60
  -1   2  20   40.20    3.80
  -1   2  20   42.30    3.50
   0  -2 -20   58.09    6.10
   0  -2 -20   62.29    5.80
   0   2  20   72.29    5.20
   0   2  20   68.49    5.30
   0   2  20   75.79    5.70
  -1  -2 -20   47.40    4.50
   1   2  20   42.80    3.80
   1   2  20   41.40    5.60
   1   2  20   36.40    3.30
  -2  -2 -20   17.80    1.90
  -2  -2 -20   18.30    2.80
   2   2  20   19.60    3.50
   2   2  20   17.70    2.10
  -3  -2 -20    3.90    1.20
  -3  -2 -20    3.10    0.50
   3   2  20    5.00    1.60
   3   2  20    2.60    0.70
   3  -3 -20   22.60    2.80
  -3   3  20   21.20    1.80
   2  -3 -20  127.89   11.00
   2  -3 -20  166.38   12.80
   2  -3 -20  148.59   11.70
  -2   3  20  143.09   11.00
  -2   3  20  137.89   11.10
  -2   3  20  149.88   11.00
   1  -3 -20   29.30    3.10
   1  -3 -20   21.70    3.90
   1  -3 -20   28.20    2.90
  -1   3  20   26.90    2.70
  -1   3  20   27.00    2.30
  -1   3  20   29.00    2.30
   0  -3 -20   -0.20    1.30
   0  -3 -20    0.80    1.10
   0   3  20    0.20    0.70
   0   3  20    0.10    0.70
   0   3  20   -0.20    0.40
  -1  -3 -20   26.90    3.30
  -1  -3 -20   23.10    3.60
   1   3  20   26.30    5.10
   1   3  20   29.40    2.70
   1   3  20   25.80    2.20
  -2  -3 -20  131.29   13.20
   2   3  20  157.58   11.80
   2   3  20  153.58   12.40
   3   3  20   16.30    1.60
   2  -4 -20   73.29    6.70
  -2   4  20   72.89    5.70
  -2   4  20   69.79    5.60
  -2   4  20   71.29    5.50
  -1   4  20   87.59    7.00
  -1   4  20   88.99    6.90
  -1   4  20   97.09    7.20
   0  -4 -20    5.60    1.80
   0   4  20    7.10    1.20
   0   4  20    4.30    0.80
   0   4  20    4.60    0.70
   1   4  20   83.59    6.50
   1   4  20   89.09    7.20
  -2  -4 -20   69.89    6.00
   2   4  20   69.59    5.60
   1  -5 -20   13.40    2.20
  -1   5  20    9.10    1.40
  -1   5  20   12.90    1.10
   0  -5 -20   60.49    5.60
   0   5  20   63.99    4.90
   0   5  20   67.49    5.20
  -1  -5 -20   13.00    1.70
   1   5  20   12.40    1.50
   1   4 -21   11.90    1.50
   1   4 -21   11.80    1.70
   1   4 -21   13.10    1.10
  -1  -4  21   11.30    2.30
  -1  -4  21   12.10    1.30
   0   4 -21   80.79    5.80
   0   4 -21   70.39    6.20
   0  -4  21   75.79    6.70
  -1   4 -21   13.30    1.30
  -1   4 -21   13.70    1.40
   1  -4  21   14.00    2.20
   2   3 -21   26.00    2.60
  -2  -3  21   23.20    3.30
  -2  -3  21   28.30    2.40
   1   3 -21   26.70    2.00
   1   3 -21   19.60    2.90
   1   3 -21   23.30    2.30
  -1  -3  21   27.00    3.60
   0   3 -21    6.70    0.90
   0   3 -21    8.50    1.20
   0   3 -21    5.90    1.50
   0  -3  21    6.90    1.00
   0  -3  21    4.70    1.80
  -1   3 -21   29.40    2.30
  -1   3 -21   27.00    2.90
  -1   3 -21   26.70    2.50
   1  -3  21   25.30    3.50
  -2   3 -21   27.90    2.30
  -2   3 -21   27.30    2.40
   2  -3  21   26.40    3.60
   2  -3  21   29.40    3.20
   3   2 -21    8.80    1.10
  -3  -2  21    8.00    1.10
   2   2 -21   88.29    8.50
  -2  -2  21   89.39    9.90
  -2  -2  21  111.79    8.00
   1   2 -21   24.10    2.80
   1   2 -21   26.10    2.10
   1   2 -21   23.00    2.40
  -1  -2  21   28.30    2.50
   0   2 -21   42.50    3.70
   0   2 -21   51.19    4.20
   0   2 -21   40.20    3.40
   0  -2  21   43.80    3.70
   0  -2  21   38.00    4.90
  -1   2 -21   28.10    2.40
  -1   2 -21   31.40    3.30
  -1   2 -21   27.40    2.60
   1  -2  21   28.20    3.80
   1  -2  21   27.30    2.70
  -2   2 -21  105.59    7.30
  -2   2 -21   84.19    7.20
   2  -2  21   78.69    9.10
  -3   2 -21    7.80    0.90
   3  -2  21    7.50    1.60
   3   1 -21    2.10    0.60
  -3  -1  21    1.90    0.60
  -3  -1  21    1.10    0.50
   2   1 -21   38.70    3.40
  -2  -1  21   33.10    2.80
  -2  -1  21   34.50    3.20
   1   1 -21   26.80    2.80
   1   1 -21   32.50    3.20
  -1  -1  21   31.40    2.50
  -1  -1  21   33.00    3.00
   0   1 -21   22.10    2.70
   0   1 -21   21.60    1.90
   0   1 -21   21.40    2.30
   0  -1  21   23.00    3.60
   0  -1  21   22.90    2.30
  -1   1 -21   30.80    3.00
  -1   1 -21   34.40    3.50
  -1   1 -21   30.10    2.70
   1  -1  21   31.60    2.90
   1  -1  21   35.50    4.30
  -2   1 -21   33.80    3.50
  -2   1 -21   29.30    2.90
  -2   1 -21   33.90    2.80
   2  -1  21   38.20    4.10
  -3   1 -21    1.70    0.40
  -3   1 -21    0.10    0.90
   3  -1  21    2.20    1.10
   3   0 -21   66.79    6.40
  -3   0  21   76.69    5.50
  -3   0  21   72.39    5.60
  -2   0  21   29.30    2.30
  -2   0  21   26.60    2.60
  -2   0  21   27.60    2.40
   1   0 -21    0.80    0.90
   1   0 -21    0.80    0.80
  -1   0  21    1.10    0.40
  -1   0  21    1.60    0.80
  -1   0  21    1.10    0.70
   0   0 -21    0.10    0.50
   0   0 -21    0.40    0.90
   0   0  21    0.20    0.70
   0   0  21   -0.80    0.50
   0   0  21   -0.50    1.80
  -1   0 -21    1.10    0.50
  -1   0 -21    1.30    1.20
  -1   0 -21    1.00    0.80
   1   0  21    0.70    0.70
   1   0  21   -0.20    1.60
  -2   0 -21   23.00    2.40
  -2   0 -21   24.10    3.50
  -2   0 -21   26.90    2.20
   2   0  21   24.30    2.40
   2   0  21   30.30    3.70
  -3   0 -21   69.09    6.10
  -3   0 -21   71.99    5.60
   3   0  21   76.49    6.40
   3  -1 -21    1.60    1.20
  -3   1  21    1.10    0.40
  -3   1  21    1.70    0.60
   2  -1 -21   34.60    3.30
  -2   1  21   34.60    3.10
  -2   1  21   35.50    2.80
  -2   1  21   35.00    2.90
   1  -1 -21   37.50    3.40
   1  -1 -21   32.70    3.40
  -1   1  21   34.40    2.70
  -1   1  21   28.20    2.70
  -1   1  21   31.90    3.10
   0  -1 -21   21.50    2.80
   0   1  21   15.80    2.40
   0   1  21   19.70    1.80
   0   1  21   22.00    2.30
   0   1  21   20.00    4.90
  -1  -1 -21   28.30    2.50
   1   1  21   30.40    4.30
   1   1  21   32.30    2.90
  -2  -1 -21   20.80    4.30
  -2  -1 -21   30.70    2.50
  -2  -1 -21   26.10    2.70
   2   1  21   31.50    3.00
  -3  -1 -21    1.30    0.40
  -3  -1 -21    1.30    0.90
   3   1  21    1.90    1.20
   3  -2 -21    4.70    1.10
   3  -2 -21    7.00    1.80
  -3   2  21    6.90    0.70
  -3   2  21    5.60    0.90
   2  -2 -21  128.39    9.20
  -2   2  21  115.79    8.70
  -2   2  21  103.19    8.70
  -2   2  21  113.39    8.90
   1  -2 -21   29.40    3.00
   1  -2 -21   28.60    2.90
  -1   2  21   26.00    2.30
  -1   2  21   26.40    2.30
  -1   2  21   28.10    2.70
   0  -2 -21   37.80    3.90
   0   2  21   44.30    3.60
   0   2  21   34.40    3.20
   0   2  21   39.00    3.10
  -1  -2 -21   21.80    3.40
  -1  -2 -21   28.40    3.10
   1   2  21   26.90    4.20
   1   2  21   26.40    2.60
  -2  -2 -21  128.99    9.50
  -2  -2 -21  100.89    8.70
   2   2  21  108.99    8.90
   2   2  21  122.69    9.90
  -3  -2 -21   10.10    1.60
  -3  -2 -21    7.40    0.80
   3   2  21    7.60    1.90
   2  -3 -21   29.50    2.70
   2  -3 -21   27.70    3.50
  -2   3  21   29.30    2.20
  -2   3  21   25.70    2.40
  -2   3  21   22.60    2.20
   1  -3 -21   27.60    3.80
   1  -3 -21   22.80    2.40
   1  -3 -21   18.60    2.90
  -1   3  21   23.60    2.00
  -1   3  21   24.80    2.00
  -1   3  21   25.80    2.40
   0  -3 -21    5.80    2.40
   0  -3 -21    8.40    1.80
   0   3  21    5.10    0.90
   0   3  21    5.40    1.00
   0   3  21    5.80    0.70
  -1  -3 -21   27.20    3.10
   1   3  21   28.90    2.70
  -2  -3 -21   21.40    2.70
   2   3  21   26.30    2.30
   2   3  21   30.50    4.10
   1  -4 -21   12.60    2.40
   1  -4 -21   13.90    1.70
  -1   4  21   10.50    1.10
  -1   4  21   11.00    1.40
   0  -4 -21   75.19    5.90
   0  -4 -21   70.19    6.50
   0   4  21   73.19    5.50
   0   4  21   70.99    5.80
  -1  -4 -21   13.60    1.90
   1   4  21   13.10    1.50
   0   4 -22   79.39    6.20
   0   4 -22   77.39    6.00
   0   4 -22   78.19    5.90
   0  -4  22   73.09    6.60
  -2  -3  22   14.40    1.40
   1   3 -22   55.69    4.80
  -1  -3  22   51.19    5.30
  -1  -3  22   60.69    4.50
   0   3 -22    1.00    0.40
   0   3 -22    1.00    0.60
   0   3 -22    1.50    0.90
   0  -3  22    0.20    1.30
   0  -3  22    2.10    0.70
  -1   3 -22   65.69    4.90
  -1   3 -22   57.59    4.50
  -1   3 -22   53.09    5.10
   1  -3  22   56.99    5.40
   1  -3  22   57.59    5.70
  -2   3 -22   11.90    1.10
   2   2 -22   67.09    5.80
  -2  -2  22   77.19    5.70
   1   2 -22   17.90    1.90
   1   2 -22   18.40    3.20
  -1  -2  22   22.50    2.10
  -1  -2  22   16.50    3.10
   0   2 -22   76.59    6.00
   0   2 -22   75.39    6.30
   0  -2  22   79.69    7.30
   0  -2  22   85.09    6.40
  -1   2 -22   22.50    2.50
  -1   2 -22   21.40    1.90
  -1   2 -22   21.00    2.10
   1  -2  22   26.20    3.80
  -2   2 -22   60.59    5.40
  -2   2 -22   69.09    5.30
  -2   2 -22   69.19    5.80
   2  -2  22   74.69    6.10
   2   1 -22    0.70    0.70
  -2  -1  22    1.40    0.70
  -2  -1  22    1.00    0.60
   1   1 -22   19.70    2.10
   1   1 -22   19.10    2.30
  -1  -1  22   22.80    3.70
   0   1 -22   -0.40    0.40
   0   1 -22   -0.20    0.60
   0   1 -22    0.60    0.90
   0  -1  22    0.10    1.90
   0  -1  22    0.50    0.60
  -1   1 -22   23.40    2.10
  -1   1 -22   20.10    2.20
   1  -1  22   28.00    3.90
   1  -1  22   22.10    2.30
  -2   1 -22    1.40    0.40
  -2   1 -22    0.40    0.70
  -2   1 -22    1.00    0.90
   2  -1  22    1.40    1.20
   2   0 -22  125.49    9.60
  -2   0  22  119.39    9.30
  -2   0  22  125.49    9.50
   1   0 -22    2.10    0.90
   1   0 -22    2.20    0.80
  -1   0  22    2.70    0.50
  -1   0  22    3.10    0.80
   0   0 -22   10.70    2.00
   0   0 -22   10.20    1.50
   0   0  22   13.90    3.20
   0   0  22   11.30    1.60
  -1   0 -22    2.90    0.60
  -1   0 -22    2.40    0.80
  -1   0 -22    5.10    1.40
   1   0  22    2.20    2.70
   1   0  22    3.60    0.80
  -2   0 -22  108.39    8.00
  -2   0 -22   94.89    8.20
  -2   0 -22  108.89    8.50
   2   0  22   92.39    8.10
   2   0  22  121.29    9.10
   2  -1 -22    0.70    0.60
  -2   1  22    1.00    0.60
  -2   1  22    1.10    0.40
   1  -1 -22   26.80    2.60
  -1   1  22   23.10    2.00
  -1   1  22   24.60    2.30
  -1   1  22   18.30    2.30
   0  -1 -22   -0.40    0.70
   0  -1 -22    0.10    0.80
   0   1  22   -0.40    0.60
   0   1  22   -0.70    2.20
   0   1  22    0.60    0.70
  -1  -1 -22   18.70    2.30
  -1  -1 -22   26.60    2.80
   1   1  22   24.80    2.30
   1   1  22   23.70    3.50
  -2  -1 -22    1.10    1.00
  -2  -1 -22    0.60    0.40
  -2  -1 -22   -0.10    1.00
   2   1  22    0.40    0.50
   2   1  22    0.40    1.30
   2  -2 -22   60.69    6.10
  -2   2  22   71.59    5.00
  -2   2  22   64.79    5.20
   1  -2 -22   15.90    3.60
   1  -2 -22   19.90    2.20
  -1   2  22   17.10    1.80
  -1   2  22   21.50    1.70
  -1   2  22   25.00    2.10
   0  -2 -22   72.59    6.30
   0   2  22   77.39    6.00
   0   2  22   72.89    5.70
  -1  -2 -22   19.30    2.90
   1   2  22   19.70    2.20
   1   2  22   21.40    3.60
  -2  -2 -22   68.59    5.90
   2   2  22   68.89    5.50
   2   2  22   71.09    6.20
  -2   3  22    8.40    1.10
   1  -3 -22   47.80    5.00
  -1   3  22   49.70    4.10
  -1   3  22   53.29    3.90
   0  -3 -22    1.30    1.10
   0  -3 -22    0.80    0.80
   0   3  22    1.10    0.40
   0   3  22    0.90    0.70
  -1  -3 -22   50.49    4.70
   1   3  22   56.79    4.40
   2   3  22   13.90    1.60
   0  -4 -22   62.49    5.20
   0  -4 -22   61.69    5.60
   0   4  22   65.69    5.00
   0   4  22   73.49    5.20
  -1  -3  23   67.49    5.20
   0   3 -23   45.00    4.10
   0   3 -23   53.29    3.90
   0  -3  23   55.59    4.80
  -1   3 -23   62.19    4.80
   1   2 -23   21.40    2.20
  -1  -2  23   17.10    2.80
  -1  -2  23   20.10    1.90
   0   2 -23   68.99    6.10
   0   2 -23   74.49    6.30
   0   2 -23   73.29    6.00
   0  -2  23   83.49    6.00
   0  -2  23   87.59    6.90
  -1   2 -23   18.30    2.10
  -1   2 -23   17.90    1.50
  -1   2 -23   15.70    1.70
   1  -2  23   16.80    2.50
   2   1 -23   30.80    2.80
  -2  -1  23   33.90    2.70
   1   1 -23   25.40    2.50
   1   1 -23   19.70    2.20
  -1  -1  23   29.00    2.30
  -1  -1  23   21.40    3.70
   0   1 -23    5.70    1.00
   0   1 -23    4.60    1.10
   0  -1  23    4.40    1.60
   0  -1  23    6.60    0.90
  -1   1 -23   23.90    2.00
  -1   1 -23   21.50    2.30
  -1   1 -23   24.30    2.60
   1  -1  23   26.90    3.20
   1  -1  23   25.80    2.10
  -2   1 -23   31.50    2.90
  -2   1 -23   30.30    2.40
  -2   1 -23   25.70    2.60
   2  -1  23   34.70    3.30
   2   0 -23  100.89    7.70
  -2   0  23   97.09    7.60
   1   0 -23    7.00    1.30
   1   0 -23    8.40    1.50
  -1   0  23   11.30    1.30
   0   0 -23   -0.10    0.60
   0   0  23    0.80    0.80
   0   0  23    0.50    1.70
  -1   0 -23    9.30    1.20
  -1   0 -23   10.40    1.70
   1   0  23   11.10    2.40
   1   0  23   11.10    1.30
  -2   0 -23   76.99    5.70
  -2   0 -23   70.69    5.80
   2  -1 -23   31.40    3.40
  -2   1  23   31.20    2.60
   1  -1 -23   20.40    2.30
  -1   1  23   26.40    2.20
  -1   1  23   23.40    1.90
   0  -1 -23    7.60    1.50
   0   1  23    6.30    1.00
  -1  -1 -23   29.80    2.80
  -1  -1 -23   22.30    2.40
   1   1  23   25.90    2.30
   1   1  23   22.10    3.20
  -2  -1 -23   24.00    2.30
  -2  -1 -23   26.40    2.50
   2   1  23   27.90    3.80
   2   1  23   20.80    2.20
   1  -2 -23   13.50    2.30
   1  -2 -23   18.00    1.70
  -1   2  23   17.10    1.70
  -1   2  23   16.00    1.40
   0  -2 -23   54.09    4.90
   0  -2 -23   61.69    5.60
  -1  -2 -23   19.20    2.20
   1   2  23   19.10    1.80
   1   2  23   15.60    3.60
   0  -3 -23   48.90    4.70
   0  -3 -23   56.99    4.40
   0   3  23   52.59    4.20
   1   3  23   65.49    5.20
   0   2 -24   12.70    1.80
   0  -2  24   13.90    2.20
   1   1 -24   24.40    2.50
  -1  -1  24   28.60    2.30
   0   1 -24    0.00    0.50
   0   1 -24    0.00    0.60
   0  -1  24    0.80    0.50
   0  -1  24    0.70    1.20
  -1   1 -24   19.80    2.00
  -1   1 -24   26.00    2.80
   1   0 -24  105.39    8.30
  -1   0  24  107.29    8.20
   0   0 -24   23.10    2.50
   0   0 -24   21.90    2.30
   0   0  24   29.30    3.40
   0   0  24   30.10    2.30
  -1   0 -24   84.89    6.90
  -1   0 -24   75.79    6.70
   1   0  24   96.49    7.30
   1   0  24   88.69    6.60
   1  -1 -24   29.70    2.50
  -1   1  24   27.30    2.40
   0  -1 -24   -0.10    0.60
   0  -1 -24    0.80    0.80
   0   1  24    0.10    0.50
  -1  -1 -24   29.30    2.70
   1   1  24   26.30    3.20
   1   1  24   25.30    2.30
   0  -2 -24   15.00    1.60
   0   2  24   12.50    1.40
   0   0   0    0.00    0.00

_computing_structure_solution     'SHELXT 2018/2 (Sheldrick, 2018)'
;
_shelx_hkl_checksum              4050
_olex2_submission_special_instructions 'No special instructions were received'
loop_
_space_group_symop_operation_xyz
'x, y, z'
'x+1/2, -y+1/2, -z'
'-x, y+1/2, -z+1/2'
'-x+1/2, -y, z+1/2'
loop_
_atom_site_label
_atom_site_type_symbol
_atom_site_fract_x
_atom_site_fract_y
_atom_site_fract_z
_atom_site_U_iso_or_equiv
_atom_site_adp_type
_atom_site_occupancy
_atom_site_site_symmetry_order
_atom_site_calc_flag
_atom_site_refinement_flags_posn
_atom_site_refinement_flags_adp
_atom_site_refinement_flags_occupancy
_atom_site_disorder_assembly
_atom_site_disorder_group
O1 O 0.4694(2) 0.18691(16) 0.58027(5) 0.0234(3) Uani 1 1 d . . . . .
O2 O 0.7040(2) 0.01790(17) 0.64244(6) 0.0297(3) Uani 1 1 d . . . . .
O3 O 0.4140(3) 0.17766(15) 0.69142(6) 0.0247(3) Uani 1 1 d . . . . .
C1 C 0.1973(4) 0.7255(2) 0.58042(9) 0.0309(4) Uani 1 1 d . . . . .
H1A H 0.0249 0.7484 0.5647 0.037 Uiso 1 1 calc R U . . .
H1B H 0.3095 0.8141 0.5611 0.037 Uiso 1 1 calc R U . . .
C2 C 0.2798(4) 0.5457(2) 0.55803(9) 0.0258(4) Uani 1 1 d . . . . .
H2A H 0.4586 0.5285 0.5694 0.031 Uiso 1 1 calc R U . . .
H2B H 0.2638 0.5377 0.5098 0.031 Uiso 1 1 calc R U . . .
C3 C 0.1230(3) 0.4019(2) 0.58986(8) 0.0203(4) Uani 1 1 d . . . . .
H3 H -0.0528 0.4181 0.5740 0.024 Uiso 1 1 calc R U . . .
C4 C 0.2031(4) 0.2227(2) 0.56817(8) 0.0226(4) Uani 1 1 d . . . . .
H4A H 0.1009 0.1353 0.5916 0.027 Uiso 1 1 calc R U . . .
H4B H 0.1690 0.2102 0.5207 0.027 Uiso 1 1 calc R U . . .
C5 C 0.5384(3) 0.1218(2) 0.63830(8) 0.0200(4) Uani 1 1 d . . . . .
C6 C 0.3588(3) 0.3635(2) 0.69697(8) 0.0226(4) Uani 1 1 d . . . . .
H6A H 0.4972 0.4300 0.6766 0.027 Uiso 1 1 calc R U . . .
H6B H 0.3522 0.3952 0.7439 0.027 Uiso 1 1 calc R U . . .
C7 C 0.1137(3) 0.4158(2) 0.66477(8) 0.0198(4) Uani 1 1 d . . . . .
H7 H -0.0196 0.3350 0.6808 0.024 Uiso 1 1 calc R U . . .
C8 C 0.2040(4) 0.7398(2) 0.65510(9) 0.0268(4) Uani 1 1 d . . . . .
H8A H 0.3789 0.7271 0.6706 0.032 Uiso 1 1 calc R U . . .
H8B H 0.1430 0.8558 0.6686 0.032 Uiso 1 1 calc R U . . .
C9 C 0.0415(3) 0.6005(2) 0.68626(9) 0.0247(4) Uani 1 1 d . . . . .
H9A H -0.1359 0.6220 0.6745 0.030 Uiso 1 1 calc R U . . .
H9B H 0.0560 0.6089 0.7345 0.030 Uiso 1 1 calc R U . . .
loop_
_atom_site_aniso_label
_atom_site_aniso_U_11
_atom_site_aniso_U_22
_atom_site_aniso_U_33
_atom_site_aniso_U_23
_atom_site_aniso_U_13
_atom_site_aniso_U_12
O1 0.0284(6) 0.0222(6) 0.0197(5) 0.0025(5) 0.0040(5) 0.0062(6)
O2 0.0288(7) 0.0261(7) 0.0343(7) 0.0050(5) 0.0016(6) 0.0080(6)
O3 0.0374(7) 0.0166(6) 0.0202(6) 0.0019(5) 0.0038(5) 0.0053(6)
C1 0.0427(11) 0.0168(9) 0.0333(10) 0.0055(7) -0.0010(9) 0.0008(8)
C2 0.0360(10) 0.0181(8) 0.0233(8) 0.0039(7) 0.0022(7) 0.0008(8)
C3 0.0226(8) 0.0161(8) 0.0223(8) -0.0006(6) -0.0032(6) 0.0007(7)
C4 0.0282(9) 0.0191(8) 0.0207(8) -0.0016(7) -0.0042(7) 0.0006(8)
C5 0.0224(8) 0.0139(7) 0.0236(8) 0.0013(6) 0.0012(7) -0.0025(7)
C6 0.0321(9) 0.0147(8) 0.0209(8) -0.0032(6) -0.0026(7) 0.0021(7)
C7 0.0227(8) 0.0140(8) 0.0226(8) -0.0007(6) 0.0034(7) -0.0015(7)
C8 0.0314(9) 0.0133(8) 0.0356(9) -0.0046(7) -0.0011(8) 0.0018(8)
C9 0.0265(9) 0.0179(8) 0.0297(8) -0.0053(7) 0.0028(7) 0.0033(8)
loop_
_atom_type_symbol
_atom_type_description
_atom_type_scat_dispersion_real
_atom_type_scat_dispersion_imag
_atom_type_scat_source
C C 0.0181 0.0091 'International Tables Vol C Tables 4.2.6.8 and 6.1.1.4'
H H 0.0000 0.0000 'International Tables Vol C Tables 4.2.6.8 and 6.1.1.4'
O O 0.0492 0.0322 'International Tables Vol C Tables 4.2.6.8 and 6.1.1.4'
loop_
_geom_angle_atom_site_label_1
_geom_angle_atom_site_label_2
_geom_angle_atom_site_label_3
_geom_angle
_geom_angle_site_symmetry_1
_geom_angle_site_symmetry_3
_geom_angle_publ_flag
C5 O1 C4 119.05(13) . . ?
C5 O3 C6 118.37(13) . . ?
H1A C1 H1B 108.0 . . ?
C2 C1 H1A 109.4 . . ?
C2 C1 H1B 109.4 . . ?
C2 C1 C8 110.97(15) . . ?
C8 C1 H1A 109.4 . . ?
C8 C1 H1B 109.4 . . ?
C1 C2 H2A 109.2 . . ?
C1 C2 H2B 109.2 . . ?
C1 C2 C3 111.85(16) . . ?
H2A C2 H2B 107.9 . . ?
C3 C2 H2A 109.2 . . ?
C3 C2 H2B 109.2 . . ?
C2 C3 H3 106.5 . . ?
C2 C3 C7 112.94(14) . . ?
C4 C3 C2 112.43(15) . . ?
C4 C3 H3 106.5 . . ?
C4 C3 C7 111.42(13) . . ?
C7 C3 H3 106.5 . . ?
O1 C4 C3 113.34(14) . . ?
O1 C4 H4A 108.9 . . ?
O1 C4 H4B 108.9 . . ?
C3 C4 H4A 108.9 . . ?
C3 C4 H4B 108.9 . . ?
H4A C4 H4B 107.7 . . ?
O1 C5 O3 117.31(14) . . ?
O2 C5 O1 121.13(15) . . ?
O2 C5 O3 121.56(15) . . ?
O3 C6 H6A 108.9 . . ?
O3 C6 H6B 108.9 . . ?
O3 C6 C7 113.53(14) . . ?
H6A C6 H6B 107.7 . . ?
C7 C6 H6A 108.9 . . ?
C7 C6 H6B 108.9 . . ?
C3 C7 H7 107.8 . . ?
C3 C7 C9 110.94(14) . . ?
C6 C7 C3 112.65(14) . . ?
C6 C7 H7 107.8 . . ?
C6 C7 C9 109.76(14) . . ?
C9 C7 H7 107.8 . . ?
C1 C8 H8A 109.5 . . ?
C1 C8 H8B 109.5 . . ?
H8A C8 H8B 108.1 . . ?
C9 C8 C1 110.68(15) . . ?
C9 C8 H8A 109.5 . . ?
C9 C8 H8B 109.5 . . ?
C7 C9 H9A 109.0 . . ?
C7 C9 H9B 109.0 . . ?
C8 C9 C7 113.03(14) . . ?
C8 C9 H9A 109.0 . . ?
C8 C9 H9B 109.0 . . ?
H9A C9 H9B 107.8 . . ?
loop_
_geom_bond_atom_site_label_1
_geom_bond_atom_site_label_2
_geom_bond_distance
_geom_bond_site_symmetry_2
_geom_bond_publ_flag
O1 C4 1.468(2) . ?
O1 C5 1.338(2) . ?
O2 C5 1.195(2) . ?
O3 C5 1.342(2) . ?
O3 C6 1.466(2) . ?
C1 H1A 0.9900 . ?
C1 H1B 0.9900 . ?
C1 C2 1.524(2) . ?
C1 C8 1.529(3) . ?
C2 H2A 0.9900 . ?
C2 H2B 0.9900 . ?
C2 C3 1.533(3) . ?
C3 H3 1.0000 . ?
C3 C4 1.511(2) . ?
C3 C7 1.534(2) . ?
C4 H4A 0.9900 . ?
C4 H4B 0.9900 . ?
C6 H6A 0.9900 . ?
C6 H6B 0.9900 . ?
C6 C7 1.518(2) . ?
C7 H7 1.0000 . ?
C7 C9 1.538(2) . ?
C8 H8A 0.9900 . ?
C8 H8B 0.9900 . ?
C8 C9 1.519(3) . ?
C9 H9A 0.9900 . ?
C9 H9B 0.9900 . ?
loop_
_geom_torsion_atom_site_label_1
_geom_torsion_atom_site_label_2
_geom_torsion_atom_site_label_3
_geom_torsion_atom_site_label_4
_geom_torsion
_geom_torsion_site_symmetry_1
_geom_torsion_site_symmetry_2
_geom_torsion_site_symmetry_3
_geom_torsion_site_symmetry_4
_geom_torsion_publ_flag
O3 C6 C7 C3 -68.82(18) . . . . ?
O3 C6 C7 C9 167.03(14) . . . . ?
C1 C2 C3 C4 -179.91(15) . . . . ?
C1 C2 C3 C7 -52.8(2) . . . . ?
C1 C8 C9 C7 55.8(2) . . . . ?
C2 C1 C8 C9 -56.8(2) . . . . ?
C2 C3 C4 O1 56.22(18) . . . . ?
C2 C3 C7 C6 -73.28(19) . . . . ?
C2 C3 C7 C9 50.2(2) . . . . ?
C3 C7 C9 C8 -52.2(2) . . . . ?
C4 O1 C5 O2 143.58(16) . . . . ?
C4 O1 C5 O3 -36.3(2) . . . . ?
C4 C3 C7 C6 54.39(19) . . . . ?
C4 C3 C7 C9 177.90(15) . . . . ?
C5 O1 C4 C3 87.76(18) . . . . ?
C5 O3 C6 C7 87.99(18) . . . . ?
C6 O3 C5 O1 -43.1(2) . . . . ?
C6 O3 C5 O2 137.00(17) . . . . ?
C6 C7 C9 C8 72.90(18) . . . . ?
C7 C3 C4 O1 -71.73(18) . . . . ?
C8 C1 C2 C3 55.5(2) . . . . ?
