#------------------------------------------------------------------------------
#$Date: 2024-09-06 02:57:24 +0300 (Fri, 06 Sep 2024) $
#$Revision: 294491 $
#$URL: file:///home/coder/svn-repositories/cod/cif/1/57/23/1572301.cif $
#------------------------------------------------------------------------------
#
# This file is available in the Crystallography Open Database (COD),
# http://www.crystallography.net/
#
# All data on this site have been placed in the public domain by the
# contributors.
#
data_1572301
loop_
_publ_author_name
'Gao, Xin-Yu'
'Tang, Lei'
'Zhang, Xu'
'Feng, Jian-Jun'
_publ_section_title
;
 Palladium-catalyzed decarboxylative (4 + 3) cycloadditions of
 bicyclobutanes with 2-alkylidenetrimethylene carbonates for the synthesis
 of 2-oxabicyclo[4.1.1]octanes.
;
_journal_issue                   34
_journal_name_full               'Chemical science'
_journal_page_first              13942
_journal_page_last               13948
_journal_paper_doi               10.1039/d4sc02998d
_journal_volume                  15
_journal_year                    2024
_chemical_formula_moiety         'C25 H22 O2'
_chemical_formula_sum            'C25 H22 O2'
_chemical_formula_weight         354.42
_chemical_name_systematic
(Z)-(4-benzylidene-2-oxabicyclo[4.1.1]octan-6-yl)(naphthalen-2-yl)methanone
_space_group_crystal_system      triclinic
_space_group_IT_number           2
_space_group_name_Hall           '-P 1'
_space_group_name_H-M_alt        'P -1'
_atom_sites_solution_hydrogens   geom
_atom_sites_solution_primary     dual
_audit_creation_date             2024-01-12
_audit_creation_method
;
Olex2 1.5
(compiled 2021.07.19 svn.r715e62df for OlexSys, GUI svn.r6380)
;
_audit_update_record
;
2024-04-30 deposited with the CCDC.	2024-08-01 downloaded from the CCDC.
;
_cell_angle_alpha                113.1360(10)
_cell_angle_beta                 99.6000(10)
_cell_angle_gamma                90.4920(10)
_cell_formula_units_Z            2
_cell_length_a                   6.0617(2)
_cell_length_b                   11.9065(3)
_cell_length_c                   14.3836(4)
_cell_measurement_reflns_used    8009
_cell_measurement_temperature    150.00
_cell_measurement_theta_max      68.118
_cell_measurement_theta_min      2.331
_cell_volume                     938.11(5)
_computing_molecular_graphics    'Olex2 1.5 (Dolomanov et al., 2009)'
_computing_publication_material  'Olex2 1.5 (Dolomanov et al., 2009)'
_computing_structure_refinement  'SHELXL 2018/3 (Sheldrick, 2015)'
_computing_structure_solution    'SHELXT 2018/2 (Sheldrick, 2018)'
_diffrn_ambient_temperature      150.00
_diffrn_measured_fraction_theta_full 0.995
_diffrn_measured_fraction_theta_max 0.994
_diffrn_measurement_device_type  'Bruker APX-II'
_diffrn_radiation_type           CuK\a
_diffrn_radiation_wavelength     1.54178
_diffrn_reflns_av_R_equivalents  0.0463
_diffrn_reflns_av_unetI/netI     0.0453
_diffrn_reflns_Laue_measured_fraction_full 0.995
_diffrn_reflns_Laue_measured_fraction_max 0.994
_diffrn_reflns_limit_h_max       7
_diffrn_reflns_limit_h_min       -7
_diffrn_reflns_limit_k_max       14
_diffrn_reflns_limit_k_min       -14
_diffrn_reflns_limit_l_max       17
_diffrn_reflns_limit_l_min       -17
_diffrn_reflns_number            12220
_diffrn_reflns_point_group_measured_fraction_full 0.995
_diffrn_reflns_point_group_measured_fraction_max 0.994
_diffrn_reflns_theta_full        67.679
_diffrn_reflns_theta_max         68.263
_diffrn_reflns_theta_min         3.400
_diffrn_source_current           1.2
_diffrn_source_power             0.06
_diffrn_source_voltage           50.0
_exptl_absorpt_coefficient_mu    0.612
_exptl_absorpt_correction_T_max  0.975
_exptl_absorpt_correction_T_min  0.818
_exptl_absorpt_correction_type   multi-scan
_exptl_crystal_colour            'clear light colourless'
_exptl_crystal_colour_lustre     clear
_exptl_crystal_colour_modifier   light
_exptl_crystal_colour_primary    colourless
_exptl_crystal_density_diffrn    1.255
_exptl_crystal_description       needle
_exptl_crystal_F_000             376
_exptl_crystal_size_max          0.343
_exptl_crystal_size_mid          0.218
_exptl_crystal_size_min          0.042
_refine_diff_density_max         0.284
_refine_diff_density_min         -0.208
_refine_diff_density_rms         0.035
_refine_ls_extinction_coef       0.0030(6)
_refine_ls_extinction_expression Fc^*^=kFc[1+0.001xFc^2^\l^3^/sin(2\q)]^-1/4^
_refine_ls_extinction_method     'SHELXL-2018/3 (Sheldrick 2018)'
_refine_ls_goodness_of_fit_ref   1.074
_refine_ls_hydrogen_treatment    constr
_refine_ls_matrix_type           full
_refine_ls_number_parameters     245
_refine_ls_number_reflns         3424
_refine_ls_number_restraints     0
_refine_ls_restrained_S_all      1.074
_refine_ls_R_factor_all          0.0517
_refine_ls_R_factor_gt           0.0355
_refine_ls_shift/su_max          0.000
_refine_ls_shift/su_mean         0.000
_refine_ls_structure_factor_coef Fsqd
_refine_ls_weighting_details
'w=1/[\s^2^(Fo^2^)+(0.0444P)^2^+0.2247P] where P=(Fo^2^+2Fc^2^)/3'
_refine_ls_weighting_scheme      calc
_refine_ls_wR_factor_gt          0.0930
_refine_ls_wR_factor_ref         0.0958
_reflns_Friedel_coverage         0.000
_reflns_number_gt                3062
_reflns_number_total             3424
_reflns_threshold_expression     'I > 2\s(I)'
_cod_data_source_file            d4sc02998d2.cif
_cod_data_source_block           cu_2024011201_0m
_cod_depositor_comments          'Adding full bibliography for 1572301.cif.'
_cod_database_code               1572301
_shelx_shelxl_version_number     2018/3
_shelx_space_group_comment
;
The symmetry employed for this shelxl refinement is uniquely defined
by the following loop, which should always be used as a source of
symmetry information in preference to the above space-group names.
They are only intended as comments.
;
_shelx_estimated_absorpt_t_max   0.975
_shelx_estimated_absorpt_t_min   0.818
_olex2_refinement_description
;
1. Fixed Uiso
 At 1.2 times of:
  All C(H) groups, All C(H,H) groups
2.a Ternary CH refined with riding coordinates:
 C14(H14)
2.b Secondary CH2 refined with riding coordinates:
 C18(H18A,H18B), C13(H13A,H13B), C16(H16A,H16B), C15(H15A,H15B)
2.c Aromatic/amide H refined with riding coordinates:
 C1(H1), C19(H19), C21(H21), C25(H25), C3(H3), C8(H8), C4(H4), C22(H22),
 C24(H24), C5(H5), C23(H23), C7(H7), C6(H6)
;
_shelx_res_file
;
TITL cu_2024011201_0m_a.res in P-1
    cu_2024011201_0m.res
    created by SHELXL-2018/3 at 17:17:00 on 12-Jan-2024
REM Old TITL cu_2024011201_0m in P-1
REM SHELXT solution in P-1: R1 0.129, Rweak 0.010, Alpha 0.045
REM <I/s> 0.000 for 0 systematic absences, Orientation as input
REM Formula found by SHELXT: C25 O2
CELL 1.54178 6.0617 11.9065 14.3836 113.136 99.6 90.492
ZERR 2 0.0002 0.0003 0.0004 0.001 0.001 0.001
LATT 1
SFAC C H O
UNIT 50 44 4

L.S. 4 0 0
PLAN  1
SIZE 0.042 0.218 0.343
TEMP -123.15
CONF
BOND
list 4
fmap 2 53
MORE -1
BOND $H
ACTA
REM <olex2.extras>
REM <HklSrc "%.\\cu_2024011201_0m.hkl">
REM </olex2.extras>

WGHT    0.044400    0.224700
EXTI    0.002978
FVAR       0.76625
O2    3    0.748403    0.446057    0.044643    11.00000    0.03284    0.02398 =
         0.02528    0.00853    0.01338    0.00485
O1    3    0.230776    0.365177    0.267605    11.00000    0.01960    0.02859 =
         0.02402    0.01178    0.00477   -0.00098
C18   1    0.381287    0.448589    0.356971    11.00000    0.02148    0.02549 =
         0.01984    0.00909    0.00654    0.00336
AFIX  23
H18A  2    0.361325    0.431416    0.417180    11.00000   -1.20000
H18B  2    0.341602    0.533339    0.370362    11.00000   -1.20000
AFIX   0
C11   1    0.679948    0.520385    0.117954    11.00000    0.01905    0.02412 =
         0.01940    0.00995    0.00332    0.00481
C12   1    0.553931    0.475894    0.181447    11.00000    0.01975    0.02065 =
         0.01902    0.00804    0.00487    0.00345
C2    1    0.729290    0.654770    0.147973    11.00000    0.02382    0.02352 =
         0.01958    0.01015    0.00333    0.00347
C17   1    0.624101    0.439937    0.345998    11.00000    0.02017    0.02393 =
         0.01559    0.00549    0.00322   -0.00065
C1    1    0.894023    0.691044    0.107824    11.00000    0.02279    0.02439 =
         0.01992    0.00934    0.00251    0.00349
AFIX  43
H1    2    0.973010    0.630519    0.063437    11.00000   -1.20000
AFIX   0
C9    1    0.948536    0.815808    0.130913    11.00000    0.02663    0.02587 =
         0.02183    0.01084   -0.00034   -0.00106
C20   1    0.719952    0.293627    0.433134    11.00000    0.02460    0.02134 =
         0.01938    0.00606    0.00728    0.00481
C19   1    0.763921    0.371559    0.378685    11.00000    0.01928    0.02621 =
         0.01890    0.00749    0.00421   -0.00034
AFIX  43
H19   2    0.911716    0.373247    0.365087    11.00000   -1.20000
AFIX   0
C14   1    0.245923    0.374861    0.172531    11.00000    0.02019    0.02840 =
         0.02126    0.01077    0.00090    0.00012
AFIX  13
H14   2    0.111235    0.333146    0.118136    11.00000   -1.20000
AFIX   0
C13   1    0.302431    0.505287    0.181129    11.00000    0.02014    0.02806 =
         0.02359    0.01278    0.00431    0.00452
AFIX  23
H13A  2    0.276635    0.570815    0.245873    11.00000   -1.20000
H13B  2    0.231303    0.520764    0.120600    11.00000   -1.20000
AFIX   0
C16   1    0.699554    0.512693    0.289756    11.00000    0.01883    0.02445 =
         0.02028    0.00894    0.00338   -0.00008
AFIX  23
H16A  2    0.858106    0.499271    0.283031    11.00000   -1.20000
H16B  2    0.691052    0.601066    0.330578    11.00000   -1.20000
AFIX   0
C21   1    0.511396    0.231265    0.418532    11.00000    0.02603    0.02536 =
         0.03373    0.01094    0.00796    0.00345
AFIX  43
H21   2    0.389833    0.235019    0.369032    11.00000   -1.20000
AFIX   0
C25   1    0.897640    0.279976    0.502097    11.00000    0.02860    0.02641 =
         0.02585    0.01016    0.00500    0.00431
AFIX  43
H25   2    1.042144    0.317769    0.510000    11.00000   -1.20000
AFIX   0
C15   1    0.467798    0.338212    0.132333    11.00000    0.02476    0.02241 =
         0.01936    0.00708    0.00427    0.00120
AFIX  23
H15A  2    0.448772    0.300845    0.056372    11.00000   -1.20000
H15B  2    0.555477    0.287579    0.163196    11.00000   -1.20000
AFIX   0
C10   1    0.828493    0.905856    0.196538    11.00000    0.04003    0.02344 =
         0.02589    0.00836    0.00458    0.00095
C3    1    0.612896    0.745767    0.214851    11.00000    0.03303    0.02640 =
         0.02946    0.01113    0.01271    0.00587
AFIX  43
H3    2    0.500632    0.722032    0.243935    11.00000   -1.20000
AFIX   0
C8    1    1.116808    0.853646    0.088918    11.00000    0.03211    0.03221 =
         0.03313    0.01367    0.00503   -0.00340
AFIX  43
H8    2    1.199423    0.794304    0.045593    11.00000   -1.20000
AFIX   0
C4    1    0.660766    0.866975    0.237738    11.00000    0.04541    0.02539 =
         0.03346    0.00858    0.01774    0.00995
AFIX  43
H4    2    0.580099    0.926398    0.282134    11.00000   -1.20000
AFIX   0
C22   1    0.481911    0.163981    0.476223    11.00000    0.03634    0.02820 =
         0.05206    0.01874    0.02069    0.00474
AFIX  43
H22   2    0.339128    0.123528    0.466909    11.00000   -1.20000
AFIX   0
C24   1    0.868337    0.212407    0.559524    11.00000    0.04550    0.03133 =
         0.02921    0.01549    0.00506    0.00942
AFIX  43
H24   2    0.991062    0.205342    0.606936    11.00000   -1.20000
AFIX   0
C5    1    0.879372    1.030832    0.217488    11.00000    0.06314    0.02296 =
         0.03934    0.00735    0.01399    0.00180
AFIX  43
H5    2    0.800277    1.091937    0.261276    11.00000   -1.20000
AFIX   0
C23   1    0.658536    0.155298    0.547152    11.00000    0.05608    0.02953 =
         0.04153    0.02140    0.02341    0.01130
AFIX  43
H23   2    0.636147    0.110407    0.587192    11.00000   -1.20000
AFIX   0
C7    1    1.160306    0.975139    0.110617    11.00000    0.04643    0.03543 =
         0.04327    0.01757    0.00701   -0.01151
AFIX  43
H7    2    1.272119    0.999590    0.081723    11.00000   -1.20000
AFIX   0
C6    1    1.040622    1.064294    0.175468    11.00000    0.06435    0.02519 =
         0.04453    0.01241    0.00530   -0.01068
AFIX  43
H6    2    1.072509    1.148409    0.190045    11.00000   -1.20000
AFIX   0
HKLF 4




REM  cu_2024011201_0m_a.res in P-1
REM wR2 = 0.0958, GooF = S = 1.074, Restrained GooF = 1.074 for all data
REM R1 = 0.0355 for 3062 Fo > 4sig(Fo) and 0.0517 for all 3424 data
REM 245 parameters refined using 0 restraints

END

WGHT      0.0444      0.2247

REM Highest difference peak  0.284,  deepest hole -0.208,  1-sigma level  0.035
Q1    1   0.4400  0.5002  0.1843  11.00000  0.05    0.28
;
_shelx_res_checksum              54007
_shelx_hkl_file
;
  -1   0   0  199.98    6.80
  -1   0   0  199.78    7.20
   1   0   0  199.38   14.30
  -2   0   0  777.62   26.50
  -3   0   0   -0.10    1.30
  -3   0   0    3.00    0.70
   3   0   0  -32.30   26.90
  -4   0   0   12.50    2.70
  -4   0   0   11.20    1.50
  -4   0   0   11.70    1.00
  -4   0   0   11.80    1.50
  -4   0   0   11.70    0.80
   4   0   0   13.20    1.80
  -5   0   0  156.98    6.70
  -5   0   0  148.69    5.20
  -5   0   0  155.98    5.40
  -5   0   0  144.69    8.60
   5   0   0  145.69    5.10
   5   0   0  148.79    6.70
  -6   0   0   15.60    0.90
  -6   0   0   14.70    0.80
   6   0   0   15.90    0.70
  -7   0   0    0.60    0.20
  -7   0   0    0.80    0.20
   7   0   0    0.90    0.10
  -7   1   0    0.30    0.10
  -7   1   0    0.60    0.20
   6  -1   0  164.48    5.70
  -6   1   0  171.58    5.90
  -6   1   0  173.88    5.70
   5  -1   0   59.49    2.10
   5  -1   0   53.99    3.50
   5  -1   0   54.19    2.60
  -5   1   0   61.29    2.20
  -5   1   0   62.29    3.50
  -5   1   0   54.29    3.50
  -5   1   0   49.99    5.40
  -5   1   0   59.89    2.40
   4  -1   0  200.18    6.90
   4  -1   0  200.08    8.20
  -4   1   0  211.18    9.60
  -4   1   0  205.08    7.10
  -4   1   0  202.28    8.20
  -4   1   0  220.78    7.30
   3  -1   0  162.98   28.30
   3  -1   0  191.98    7.40
  -3   1   0  193.88    7.40
  -3   1   0  205.58    8.40
   2  -1   0  510.15   31.20
  -2   1   0  479.25   17.10
   1  -1   0 2010.40   72.39
  -1   1   0 2082.49   66.59
   0  -1   0 1729.33   57.79
  -1  -1   0 1204.08   39.40
   1   1   0 1190.38   47.20
  -2  -1   0 1873.41   64.09
   2   1   0 2045.50   84.59
  -3  -1   0  336.37   12.00
  -3  -1   0  354.86   12.60
   3   1   0  348.97   12.30
   3   1   0  423.76   45.80
  -4  -1   0  169.28    7.30
  -4  -1   0  163.98    6.10
  -4  -1   0  166.08    7.20
  -4  -1   0  174.08    8.90
  -4  -1   0  192.38    6.40
   4   1   0  176.08    7.10
  -5  -1   0    7.50    1.40
  -5  -1   0   10.90    0.70
  -5  -1   0   14.90    3.60
  -5  -1   0   11.70    1.80
  -5  -1   0   11.60    0.80
   5   1   0   11.90    0.70
  -6  -1   0    7.80    3.90
  -6  -1   0   10.50    0.60
  -6  -1   0   10.90    0.70
   6   1   0   10.60    0.60
  -7  -1   0    5.70    0.50
  -7  -1   0    6.90    0.40
  -7   2   0   50.09    1.80
  -7   2   0   52.69    2.10
   6  -2   0   49.40    1.80
  -6   2   0   48.40    1.90
   5  -2   0   33.20    1.30
   5  -2   0   25.50    1.60
   5  -2   0   29.60    2.60
  -5   2   0   24.90    3.50
  -5   2   0   32.90    2.30
  -5   2   0   33.50    1.40
  -5   2   0   33.10    1.50
   4  -2   0    0.30    0.20
   4  -2   0    0.60    1.00
  -4   2   0    0.40    0.20
  -4   2   0    0.60    1.90
  -4   2   0   -0.10    0.40
  -4   2   0    0.80    0.30
   3  -2   0  276.07   31.90
   3  -2   0  239.08    8.70
  -3   2   0  241.38    9.50
  -3   2   0  240.58    8.60
  -3   2   0  204.68    8.60
   2  -2   0  954.30   44.20
  -2   2   0  969.40   32.30
   1  -2   0  333.07   17.10
  -1   2   0  318.47   11.10
   0  -2   0   79.39    6.00
   0  -2   0   81.69    2.60
   0  -2   0   72.89    2.60
   0   2   0   72.59    2.70
   0   2   0   70.89    2.70
   0   2   0   73.19    2.90
  -1  -2   0   42.30    1.70
  -1  -2   0   41.80    1.60
  -1  -2   0   30.70    7.20
   1   2   0   42.60    1.70
   1   2   0   40.20    2.40
   1   2   0   41.10    1.80
  -2  -2   0  419.96   14.30
  -2  -2   0  400.96   15.10
   2   2   0  454.75   43.00
  -3  -2   0  112.39    4.50
  -3  -2   0  126.19    5.00
  -3  -2   0  113.59    6.20
  -3  -2   0  112.59    5.10
   3   2   0   77.29   41.30
   3   2   0  124.99    4.80
  -4  -2   0    9.00    1.40
  -4  -2   0    9.60    1.50
  -4  -2   0    9.00    0.70
  -4  -2   0   10.00    2.80
  -4  -2   0    8.40    0.80
   4   2   0    9.60    0.60
   4   2   0    8.60    1.20
  -5  -2   0    9.30    1.70
  -5  -2   0    8.70    0.60
  -5  -2   0    8.60    0.80
  -5  -2   0   10.70    1.70
  -5  -2   0   12.10    3.80
   5   2   0    6.80    1.10
   5   2   0    8.70    0.60
  -6  -2   0    1.10    0.30
  -6  -2   0    1.50    0.20
   6   2   0    1.40    0.20
  -7  -2   0    0.00    0.20
   7   2   0    0.00    0.10
  -7   3   0    3.90    0.30
   6  -3   0  141.19    4.70
   6  -3   0  142.49    5.00
  -6   3   0  142.49    4.90
  -6   3   0  140.99    5.00
  -6   3   0  154.48    9.40
   5  -3   0   12.60    0.60
   5  -3   0   12.80    0.80
  -5   3   0   14.70    3.20
  -5   3   0   13.80    0.70
  -5   3   0   12.50    1.80
  -5   3   0   12.00    0.80
  -5   3   0   16.10    2.20
   4  -3   0  130.79    4.60
   4  -3   0  129.99    4.80
   4  -3   0  128.69    6.10
  -4   3   0  141.49    5.80
  -4   3   0  142.19    4.70
  -4   3   0  143.79    7.10
  -4   3   0  138.19    4.80
   3  -3   0  437.26   44.50
   3  -3   0  456.05   15.90
  -3   3   0  435.86   16.00
  -3   3   0  465.45   15.60
   2  -3   0    6.80    0.90
   2  -3   0   19.20   10.00
  -2   3   0    5.60    1.20
  -2   3   0    5.10    0.80
  -2   3   0    6.10    0.70
   1  -3   0 1016.40   40.20
  -1   3   0 1002.60   33.30
   0  -3   0  244.88   13.60
   0   3   0  238.08    8.60
   0   3   0  244.28    8.20
  -1  -3   0  311.17   10.40
  -1  -3   0  299.87   19.20
   1   3   0  313.87   11.40
   1   3   0  313.07   10.70
  -2  -3   0  150.48    6.00
  -2  -3   0  154.38    5.70
  -2  -3   0  155.38    7.00
  -2  -3   0  150.68    5.40
   2   3   0  178.38   29.30
   2   3   0  152.88    5.60
  -3  -3   0  154.38    6.40
  -3  -3   0  146.19    6.00
  -3  -3   0  152.58    7.80
   3   3   0  154.68    5.90
  -4  -3   0   27.40    1.30
  -4  -3   0   27.40    1.40
  -4  -3   0   21.00    4.20
  -4  -3   0   30.40    2.20
  -4  -3   0   29.90    2.40
   4   3   0   30.90    2.00
   4   3   0   27.90    1.20
  -5  -3   0   12.30    0.90
  -5  -3   0   11.60    1.70
  -5  -3   0   12.30    0.70
  -5  -3   0   10.20    1.60
   5   3   0   12.90    0.70
   5   3   0   10.50    1.30
  -6  -3   0   39.80    1.70
   6   3   0   40.90    1.50
  -7   4   0    8.90    0.40
   6  -4   0    4.80    0.70
  -6   4   0    3.10    0.50
  -6   4   0    2.50    0.30
   5  -4   0   14.30    2.20
   5  -4   0   15.00    0.90
   5  -4   0   13.80    0.70
  -5   4   0   13.40    0.80
  -5   4   0   15.70    1.70
  -5   4   0   15.10    0.80
  -5   4   0   13.20    1.90
  -5   4   0   15.30    3.30
   4  -4   0  241.78    8.60
   4  -4   0  254.77    8.40
   4  -4   0  241.38   10.20
  -4   4   0  273.17    8.50
  -4   4   0  254.57    8.50
  -4   4   0  257.87    9.60
  -4   4   0  253.87   10.90
   3  -4   0    7.20    1.20
   3  -4   0    0.90   20.50
  -3   4   0    6.90    1.20
  -3   4   0    8.80    1.00
  -3   4   0    7.70    1.80
   2  -4   0  193.88   19.20
  -2   4   0  189.78    7.30
  -2   4   0  187.88    7.40
  -2   4   0  184.98    6.80
   1  -4   0   27.80    8.90
   1  -4   0   44.80    2.00
  -1   4   0   48.30    2.20
  -1   4   0   42.10    2.70
  -1   4   0   46.00    2.00
   0  -4   0    9.00    5.60
   0  -4   0   14.60    0.80
   0  -4   0   14.90    0.80
   0   4   0   13.40    1.60
   0   4   0   13.40    0.80
   0   4   0   13.50    0.90
  -1  -4   0  441.56   26.10
   1   4   0  452.95   15.20
   1   4   0  433.96   16.00
  -2  -4   0   66.49    2.90
  -2  -4   0   63.29    4.80
  -2  -4   0   66.29    3.30
  -2  -4   0   62.49    2.60
   2   4   0   66.29    2.70
   2   4   0   99.39   31.40
  -3  -4   0    9.70    0.90
  -3  -4   0   11.10    0.70
  -3  -4   0   13.10    1.20
  -3  -4   0   10.60    1.50
  -3  -4   0   11.80    2.70
   3   4   0   13.20    1.10
   3   4   0   11.20    0.60
  -4  -4   0   23.60    4.50
  -4  -4   0   29.50    2.90
  -4  -4   0   23.20    1.10
  -4  -4   0   26.90    2.10
  -4  -4   0   25.70    2.00
   4   4   0   23.80    1.70
  -5  -4   0   76.39    4.40
  -5  -4   0   79.09    3.10
  -5  -4   0   68.19    4.00
  -5  -4   0   78.69    8.00
   5   4   0   75.69    2.80
   5   4   0   77.89    3.70
  -6  -4   0   34.80    1.50
   6   4   0   34.20    1.30
   6  -5   0   11.70    0.50
   6  -5   0   12.10    0.70
  -6   5   0   11.10    0.90
   5  -5   0    4.60    0.50
   5  -5   0    4.80    1.50
  -5   5   0    6.20    1.30
  -5   5   0   -2.60    3.10
  -5   5   0    6.30    0.50
  -5   5   0    4.60    0.90
   4  -5   0   87.29    3.20
   4  -5   0   88.29    4.90
  -4   5   0   87.09    4.10
  -4   5   0   85.69    5.70
  -4   5   0   90.19    3.20
   3  -5   0    6.50    1.20
   3  -5   0   -5.80   21.60
  -3   5   0    5.70    0.50
  -3   5   0    4.30    1.80
  -3   5   0    5.80    0.90
  -3   5   0    4.80    1.20
   2  -5   0   39.40   13.00
   2  -5   0   13.90    1.30
  -2   5   0   12.60    1.10
  -2   5   0   14.30    2.00
  -2   5   0   12.30    1.50
   1  -5   0  149.29    5.60
   1  -5   0  164.78   15.30
  -1   5   0  147.99    6.20
  -1   5   0  144.29    5.50
  -1   5   0  146.99    5.70
   0  -5   0  136.99    5.00
   0  -5   0  139.59   14.70
   0  -5   0  140.99    5.00
   0   5   0  137.49    5.20
   0   5   0  136.09    6.00
  -1  -5   0  681.03   21.90
  -1  -5   0  631.14   36.70
   1   5   0  653.93   23.60
  -2  -5   0   87.69    3.70
  -2  -5   0   89.19    4.20
  -2  -5   0   85.69    5.40
   2   5   0   83.99    3.50
   2   5   0  111.59   43.50
  -3  -5   0  197.38    6.60
  -3  -5   0  173.28    8.50
  -3  -5   0  192.68    7.50
  -3  -5   0  195.08   10.20
  -3  -5   0  200.68    6.80
   3   5   0  188.48    6.50
   3   5   0  196.28    7.20
  -4  -5   0    0.10    0.30
  -4  -5   0    1.10    3.70
  -4  -5   0    0.30    0.50
  -4  -5   0    0.00    0.70
   4   5   0   -0.10    0.40
   4   5   0    0.20    0.20
  -5  -5   0  238.48   10.30
  -5  -5   0  239.18   13.30
  -5  -5   0  261.37    8.70
   5   5   0  258.67    8.40
  -6  -5   0   37.70    1.50
   6   5   0   37.10    1.40
   6  -6   0    2.70    0.20
   6  -6   0    2.80    0.40
  -6   6   0    3.20    0.30
   5  -6   0    2.30    0.20
   5  -6   0    2.80    0.40
  -5   6   0    5.00    4.10
  -5   6   0    2.60    1.30
  -5   6   0    2.90    0.50
   4  -6   0   37.50    1.30
   4  -6   0   37.30    1.60
   4  -6   0   31.00    2.90
  -4   6   0   37.60    2.40
  -4   6   0   41.50    4.90
  -4   6   0   37.50    1.50
   3  -6   0   35.00    2.60
   3  -6   0   34.90    1.50
   3  -6   0   35.30    1.30
   3  -6   0   79.09   26.20
  -3   6   0   35.40    1.40
  -3   6   0   36.40    2.20
  -3   6   0   34.90    1.30
  -3   6   0   33.30    3.60
   2  -6   0   60.99    2.00
   2  -6   0   64.19    3.30
   2  -6   0   51.99   15.10
  -2   6   0   55.89    3.30
  -2   6   0   56.29    2.80
   1  -6   0   23.40    1.70
   1  -6   0   21.80   10.10
  -1   6   0   22.00    1.60
  -1   6   0   21.50    1.40
  -1   6   0   20.80    2.60
   0  -6   0  417.56   27.60
   0  -6   0  391.66   13.70
   0   6   0  404.06   13.80
   0   6   0  409.16   15.20
   0   6   0  393.36   13.90
  -1  -6   0   49.90    2.30
  -1  -6   0   50.99    2.30
  -1  -6   0   55.29   15.30
   1   6   0   50.69    2.80
   1   6   0   51.19    2.30
   1   6   0   48.20    5.50
  -2  -6   0    1.50    0.30
  -2  -6   0    0.70    0.70
  -2  -6   0    2.10    2.30
  -2  -6   0    1.50    0.50
  -2  -6   0    0.90    0.30
   2   6   0    1.20    0.20
   2   6   0    1.50    0.50
  -3  -6   0   60.89    3.80
  -3  -6   0   56.19    3.00
  -3  -6   0   57.89    2.50
  -3  -6   0   60.19    2.30
  -3  -6   0   61.69    6.30
   3   6   0   59.79    2.20
   3   6   0   57.29    2.90
  -4  -6   0    3.20    5.90
  -4  -6   0    7.60    0.80
  -4  -6   0    6.30    1.10
  -4  -6   0    5.90    1.40
   4   6   0    7.80    0.60
   4   6   0    8.50    1.20
  -5  -6   0  444.86   14.80
  -6  -6   0    0.10    0.10
   6   6   0    0.00    0.10
   6  -7   0    5.80    0.50
  -6   7   0    5.80    0.40
   5  -7   0    8.70    0.40
   5  -7   0    9.80    0.70
  -5   7   0    9.30    0.60
   4  -7   0   56.69    2.20
   4  -7   0   57.39    2.00
  -4   7   0   57.29    2.20
  -4   7   0   60.99    6.20
  -4   7   0   58.29    3.30
   3  -7   0   27.00   32.90
   3  -7   0   73.49    2.40
   3  -7   0   68.99    4.20
   3  -7   0   70.69    2.70
  -3   7   0   84.99    9.00
  -3   7   0   73.19    2.60
  -3   7   0   72.39    3.70
  -3   7   0   71.59    2.50
   2  -7   0   27.30    2.20
   2  -7   0   26.30    0.90
   2  -7   0   -2.40   17.30
   2  -7   0   25.20    1.10
  -2   7   0   25.00    1.10
  -2   7   0   26.20    2.30
  -2   7   0   26.80    1.00
  -2   7   0   28.30    1.90
  -2   7   0   21.30    3.20
   1  -7   0   90.79   17.00
   1  -7   0  118.09    3.90
   1  -7   0  122.79    5.10
   1  -7   0  117.99    4.10
  -1   7   0  115.39    5.00
  -1   7   0  122.69    4.00
  -1   7   0  112.89    6.40
  -1   7   0  112.69    5.30
   0  -7   0   26.10    1.20
   0  -7   0   21.90   13.50
   0  -7   0   27.40    1.80
   0   7   0   26.40    3.60
   0   7   0   27.70    1.90
   0   7   0   27.20    1.00
   0   7   0   27.40    1.80
  -1  -7   0   46.10   18.00
  -1  -7   0   48.40    2.40
  -1  -7   0   47.00    2.00
   1   7   0   49.80    2.50
   1   7   0   47.50    1.80
  -2  -7   0   10.90    1.10
  -2  -7   0   12.90    0.90
  -2  -7   0   12.20    0.80
  -2  -7   0   12.80    1.80
   2   7   0   12.40    0.70
   2   7   0   12.10    1.20
  -3  -7   0    2.40    1.00
  -3  -7   0    3.40    0.60
  -3  -7   0    2.80    0.70
  -3  -7   0   -0.70    3.80
   3   7   0    2.00    0.70
   3   7   0    2.40    0.30
  -4  -7   0  363.66   18.10
  -4  -7   0  410.46   13.10
   4   7   0  385.36   12.50
   4   7   0  339.67   13.40
  -5  -7   0    8.80    0.70
   5   7   0    8.40    0.50
   6  -8   0   10.90    0.70
  -6   8   0   12.40    0.60
   5  -8   0    2.90    0.20
  -5   8   0    3.50    0.40
  -4   8   0    1.70    4.80
  -4   8   0    1.20    0.30
   3  -8   0    4.90    0.30
   3  -8   0    5.30    0.60
  -3   8   0    4.80    0.30
  -3   8   0    4.40    4.00
  -3   8   0    5.00    0.50
  -3   8   0    5.60    1.10
   2  -8   0  207.18    6.80
   2  -8   0  136.59   28.70
   2  -8   0  212.88    7.10
   2  -8   0  214.18    9.50
  -2   8   0  218.38    7.10
  -2   8   0  206.18   11.90
  -2   8   0  197.38   10.70
  -2   8   0  209.48    6.90
   1  -8   0  373.66   12.50
   1  -8   0  368.06   38.60
   1  -8   0  387.96   12.70
  -1   8   0  382.86   12.70
  -1   8   0  385.36   12.50
  -1   8   0  382.06   16.20
  -1   8   0  398.36   14.10
   0  -8   0   19.00    0.90
   0  -8   0   16.70    0.90
   0  -8   0   -1.30   18.10
   0   8   0   16.80    0.80
   0   8   0   18.30    1.70
   0   8   0   16.30    0.90
  -1  -8   0   39.80    1.60
  -1  -8   0   70.89   29.90
  -1  -8   0   40.80    1.80
   1   8   0   40.00    2.40
   1   8   0   39.30    1.50
   1   8   0   39.20    1.80
  -2  -8   0   53.19    2.30
  -2  -8   0   51.59    3.60
  -2  -8   0   53.19    2.10
  -2  -8   0   50.09    6.00
   2   8   0   50.79    2.00
   2   8   0   54.59    2.90
  -3  -8   0    9.00    5.20
  -3  -8   0    6.80    0.70
  -3  -8   0    6.70    1.60
  -3  -8   0    6.10    0.80
   3   8   0    4.50    0.90
   3   8   0    5.90    0.50
  -4  -8   0   44.00    2.00
   4   8   0   45.70    1.70
  -5  -8   0   18.20    0.90
   5   8   0   17.80    0.70
   5  -9   0   19.60    0.90
   4  -9   0    1.30    0.30
  -4   9   0    1.50    0.30
   3  -9   0  193.18    6.40
   3  -9   0  182.98    6.10
  -3   9   0  192.88    6.40
  -3   9   0  166.68   12.40
   2  -9   0  127.69    4.30
   2  -9   0  130.99    4.60
   2  -9   0  100.29   35.90
  -2   9   0  134.09    4.40
  -2   9   0  142.89   11.30
  -2   9   0  129.49    4.60
   1  -9   0   43.10   28.00
   0  -9   0    6.90    0.60
   0  -9   0   -6.20   25.00
   0  -9   0    6.80    0.70
   0   9   0    6.00    1.30
   0   9   0    5.80    0.80
   0   9   0    6.50    0.50
  -1  -9   0   62.89    2.60
  -1  -9   0   61.39    2.40
  -1  -9   0   82.69   32.60
   1   9   0   61.69    2.60
   1   9   0   62.19    3.80
   1   9   0   64.19    2.30
  -2  -9   0  138.99    7.10
  -2  -9   0  145.09    5.20
  -2  -9   0  150.98   10.60
  -2  -9   0  146.49    5.40
   2   9   0  151.08    5.00
   2   9   0  147.49    6.40
   2   9   0  147.39    5.40
  -3  -9   0   18.00    1.20
   3   9   0   20.10    0.90
  -4  -9   0   28.20    1.30
   4   9   0   28.10    1.10
   5 -10   0   14.00    0.70
  -5  10   0   14.30    0.70
  -4  10   0    1.80    0.30
   3 -10   0    0.50    0.30
  -3  10   0    1.00    0.30
   2 -10   0   55.99   52.59
   2 -10   0   32.40    1.60
  -2  10   0   41.20    2.00
   1 -10   0   32.50   40.20
   1 -10   0   10.50    0.80
  -1  10   0   10.70    0.60
  -1  10   0   11.00    0.80
   0 -10   0   50.39   43.30
   0 -10   0   68.49    2.70
   0  10   0   65.29    2.70
   0  10   0   63.79    2.40
  -1 -10   0  131.39    6.80
  -1 -10   0  123.09   10.70
  -1 -10   0  140.19    5.00
   1  10   0  140.29    4.70
  -2 -10   0    5.40    0.70
  -2 -10   0   14.60    8.40
   2  10   0    5.80    0.50
   2  10   0    6.20    0.80
  -3 -10   0    1.50    0.30
   3  10   0    2.30    0.30
  -4 -10   0    0.10    0.20
   4 -11   0   79.99    2.90
  -4  11   0   80.29    2.80
   3 -11   0   27.30    1.30
  -3  11   0   28.50    1.20
   2 -11   0   40.80    1.80
  -2  11   0   41.30    1.70
   1 -11   0   -0.30    0.20
  -1  11   0    0.00    0.20
  -1  11   0    0.00    0.30
   0 -11   0    2.70   58.49
   0 -11   0   13.40    0.90
   0  11   0   12.80    0.60
   0  11   0   11.70    0.90
  -1 -11   0    9.20    0.80
   1  11   0    9.00    0.50
  -2 -11   0    3.60    0.50
   2  11   0    5.70    0.40
   2  11   0    5.30    0.60
  -3 -11   0   10.30    0.70
   3 -12   0    0.80    0.30
  -3  12   0    1.80    0.30
   2 -12   0   17.60    0.90
  -2  12   0   16.90    0.90
   1 -12   0   40.50    1.70
  -1  12   0   37.50    1.70
   0 -12   0    9.40    0.70
   0  12   0    9.80    0.80
  -1 -12   0   10.50    1.20
   1  12   0   10.80    1.30
  -2 -12   0   48.50    1.90
   1 -13   0   13.00    0.70
  -1  13   0   11.40    0.70
   0 -13   0    1.10    0.30
   0  13   0    1.20    0.50
  -1 -13   1   41.60    1.70
   0 -13   1  135.79    4.70
  -1  13  -1    0.60    0.30
   1 -13   1    0.60    0.30
  -2  13  -1   14.00    0.80
   2 -13   1   15.60    0.80
   2  12  -1   53.89    1.90
  -2 -12   1   56.09    2.20
   1  12  -1   -0.10    0.30
   1  12  -1   -0.30    0.30
  -1 -12   1    0.00    0.20
   0  12  -1   44.00    1.90
   0  12  -1   42.40    1.60
   0 -12   1   43.70    1.90
  -1  12  -1    0.30    0.40
  -1  12  -1    0.30    0.20
   1 -12   1    0.20    0.30
  -2  12  -1   23.90    1.20
   2 -12   1   24.40    1.20
   2 -12   1   22.60    1.00
  -3  12  -1   22.00    1.00
   3 -12   1   23.70    1.10
   3  11  -1    3.10    0.30
  -3 -11   1    2.70    0.40
   2  11  -1   46.40    1.80
  -2 -11   1   48.80    2.00
   1  11  -1    9.90    0.90
   1  11  -1    9.10    0.60
  -1 -11   1   -1.80    9.20
  -1 -11   1    8.50    0.80
   0 -11   1   51.79   42.90
  -1  11  -1    0.60    0.30
  -1  11  -1    0.30    0.20
   1 -11   1  -70.39   44.50
   1 -11   1    0.00    0.20
   1 -11   1    0.20    0.30
  -2  11  -1   10.70    0.50
  -2  11  -1   11.80    0.80
   2 -11   1   12.00    0.80
  -3  11  -1    7.20    0.60
   3 -11   1    7.20    0.60
  -4  11  -1   54.29    2.00
   4 -11   1   55.09    2.10
   4  10  -1    8.10    0.40
  -4 -10   1    7.10    0.50
   3  10  -1    0.20    0.20
  -3 -10   1   -0.10    0.30
   2  10  -1   42.80    1.70
   2  10  -1   36.00    3.00
  -2 -10   1   42.10    1.80
  -2 -10   1   48.30    6.70
  -2 -10   1   43.20    1.90
   1  10  -1    9.10    0.90
   1  10  -1    9.00    0.60
   1  10  -1    8.30    1.40
  -1 -10   1    9.60    0.70
  -1 -10   1    9.90    0.80
   0  10  -1   13.40    0.70
   0  10  -1   12.50    0.90
   0  10  -1   12.20    1.80
   0 -10   1   12.30    0.80
   0 -10   1   12.20    0.80
   0 -10   1   50.99   30.50
   0 -10   1   14.30    0.90
  -1  10  -1   89.79    5.30
  -1  10  -1   87.99    3.10
  -1  10  -1   92.89    3.40
   1 -10   1   49.60   32.70
   1 -10   1   89.29    3.30
  -2  10  -1   93.79    3.50
  -2  10  -1   97.79    3.30
   2 -10   1   95.69    3.50
   2 -10   1   28.30   38.80
  -3  10  -1   63.79    2.40
   3 -10   1   64.39    2.50
  -4  10  -1  137.49    4.80
   4 -10   1  139.89    4.80
  -5  10  -1    0.00    0.10
   5 -10   1   -0.20    0.20
   5   9  -1    1.60    0.20
   4   9  -1   50.09    1.80
  -4  -9   1   47.30    2.00
   3   9  -1   11.10    1.50
  -3  -9   1   11.70    0.80
  -3  -9   1   12.60    1.00
  -3  -9   1    4.70    4.80
   2   9  -1    6.10    0.50
   2   9  -1    5.60    1.10
  -2  -9   1    6.10    1.40
  -2  -9   1    6.30    0.60
  -2  -9   1    6.50    0.80
  -2  -9   1    9.80    4.30
   1   9  -1   12.40    0.70
   1   9  -1   14.30    1.80
   1   9  -1   13.00    1.00
  -1  -9   1   12.00    0.80
  -1  -9   1   12.60    0.90
  -1  -9   1   12.50   24.20
   0   9  -1   57.19    2.10
   0   9  -1   52.49    2.30
   0   9  -1   55.59    3.40
   0  -9   1   61.89    2.30
   0  -9   1   58.29   22.20
   0  -9   1   57.99    2.20
  -1   9  -1   17.10    2.30
  -1   9  -1   13.90    0.80
  -1   9  -1   13.80    0.70
   1  -9   1   14.30    0.80
   1  -9   1    7.20   20.20
  -2   9  -1   77.59    5.10
  -2   9  -1   86.39    2.90
  -2   9  -1   87.09    3.10
   2  -9   1   85.29    3.10
   2  -9   1   56.39   27.70
  -3   9  -1  471.95   15.20
  -3   9  -1  452.65   15.00
  -4   9  -1  116.49    4.20
   4  -9   1  122.19    4.20
  -5   9  -1   -0.10    0.20
   5  -9   1   -0.20    0.20
   5   8  -1    2.00    0.30
  -5  -8   1    2.00    0.30
   4   8  -1   72.79    2.70
  -4  -8   1   73.29    2.90
   3   8  -1    6.20    1.00
   3   8  -1    6.50    0.50
  -3  -8   1    5.90    0.60
  -3  -8   1    4.80    4.00
  -3  -8   1    4.40    1.10
  -3  -8   1    5.60    1.10
  -3  -8   1    6.60    0.80
   2   8  -1   10.80    0.60
   2   8  -1   10.10    1.20
  -2  -8   1   10.80    1.70
  -2  -8   1   11.60    0.90
  -2  -8   1   10.60    0.70
  -2  -8   1   13.50    3.60
  -2  -8   1   10.90    1.50
   1   8  -1   15.00    1.00
   1   8  -1   13.80    0.70
   1   8  -1   14.40    1.30
  -1  -8   1   13.70    0.80
  -1  -8   1    1.40   18.60
  -1  -8   1   14.50    0.90
  -1  -8   1   14.20    0.90
  -1  -8   1   13.50    1.30
   0   8  -1   11.20    0.70
   0   8  -1   12.80    0.60
   0   8  -1   12.80    1.60
   0  -8   1   11.70    0.70
   0  -8   1   11.30    0.70
   0  -8   1   16.90   14.40
  -1   8  -1    2.40    0.40
  -1   8  -1    2.10    0.20
  -1   8  -1    1.40    0.70
   1  -8   1    7.10   14.00
   1  -8   1    2.00    0.20
   1  -8   1    2.50    0.40
  -2   8  -1  338.37   13.70
  -2   8  -1  348.27   12.90
  -2   8  -1  358.46   15.30
  -2   8  -1  356.06   11.30
  -2   8  -1  348.97   11.50
   2  -8   1  326.87   39.00
   2  -8   1  343.27   11.50
   2  -8   1  344.27   11.30
  -3   8  -1   78.99    8.10
  -3   8  -1   84.89    3.00
  -3   8  -1   81.39    2.80
   3  -8   1   83.19    2.80
   3  -8   1   81.89    3.00
   3  -8   1   42.10   34.70
  -4   8  -1    3.50    0.40
  -4   8  -1    0.10    1.30
  -4   8  -1    2.00    5.80
   4  -8   1    2.80    0.30
   4  -8   1    3.70    0.50
  -5   8  -1   22.10    1.00
   5  -8   1   22.00    1.00
  -6   8  -1   32.20    1.20
   6  -8   1   32.80    1.20
   5   7  -1   10.90    0.60
  -5  -7   1   11.70    0.80
   4   7  -1  172.88    5.80
   4   7  -1  172.18    6.80
  -4  -7   1  171.58    6.10
  -4  -7   1  173.88    7.80
  -4  -7   1  170.88    5.90
  -4  -7   1  167.78   11.00
  -4  -7   1  155.38    7.10
   3   7  -1  127.59    5.30
   3   7  -1  132.59    4.50
  -3  -7   1  130.79    4.60
  -3  -7   1  141.09    9.00
  -3  -7   1  127.89    4.80
  -3  -7   1  122.99    5.60
  -3  -7   1  123.59    6.20
   2   7  -1   81.49    2.90
   2   7  -1   82.89    3.60
  -2  -7   1   83.79    4.30
  -2  -7   1   87.59    5.90
  -2  -7   1   83.59    3.00
  -2  -7   1   87.19    3.80
  -2  -7   1   71.69    3.50
  -2  -7   1   83.59    3.20
   1   7  -1    0.00    0.10
   1   7  -1    0.40    0.40
  -1  -7   1    0.20    0.40
  -1  -7   1    0.00    0.20
  -1  -7   1    0.80   12.70
  -1  -7   1    0.60    0.40
   0   7  -1   14.10    1.20
   0   7  -1   12.50    0.60
   0   7  -1   14.00    1.30
   0   7  -1   18.00    3.40
   0  -7   1   16.40   10.90
   0  -7   1   15.40    1.30
   0  -7   1   15.20    0.80
  -1   7  -1    0.90    0.20
  -1   7  -1    1.20    0.50
  -1   7  -1   -0.10    2.20
   1  -7   1    0.20    9.20
   1  -7   1    1.00    0.20
   1  -7   1    1.40    0.60
  -2   7  -1   13.90    1.90
  -2   7  -1   12.00    2.90
  -2   7  -1   17.90    0.90
  -2   7  -1   15.50    1.40
  -2   7  -1   17.00    0.70
   2  -7   1   15.20    0.80
   2  -7   1   17.20    1.90
   2  -7   1   20.90   15.90
  -3   7  -1   94.99    3.30
  -3   7  -1   87.39    6.70
  -3   7  -1   92.89    3.10
  -3   7  -1   88.29    5.30
   3  -7   1   93.29    3.10
   3  -7   1   83.69   29.50
   3  -7   1   95.49    3.30
   3  -7   1   77.29    6.40
  -4   7  -1    4.00    3.80
  -4   7  -1    0.50    0.20
  -4   7  -1   -0.40    1.00
   4  -7   1    0.50    0.10
   4  -7   1    0.70    0.30
  -5   7  -1   29.00    1.20
   5  -7   1   28.40    1.00
   5  -7   1   30.60    1.30
  -6   7  -1    1.50    0.20
   6  -7   1    2.00    0.40
   6   6  -1    0.60    0.20
  -6  -6   1    0.80    0.20
   5   6  -1  251.07    8.40
  -5  -6   1  250.37    8.60
  -5  -6   1  255.67   15.50
   4   6  -1   20.90    1.60
  -4  -6   1   18.90    1.80
  -4  -6   1   17.80    2.20
  -4  -6   1   18.60    1.00
  -4  -6   1   18.90    1.10
  -4  -6   1   19.70    1.20
  -4  -6   1   15.90    4.40
   3   6  -1    0.00    0.30
   3   6  -1    0.10    0.20
  -3  -6   1    0.30    0.30
  -3  -6   1   -1.60    2.50
  -3  -6   1    0.00    0.40
  -3  -6   1   -0.10    0.20
  -3  -6   1    0.40    0.60
  -3  -6   1    0.30    0.40
   2   6  -1   76.89    3.10
   2   6  -1   68.49    2.50
  -2  -6   1   66.99    3.20
  -2  -6   1   68.69    2.70
  -2  -6   1   74.99    2.60
  -2  -6   1   73.89    3.80
  -2  -6   1   74.69    5.20
   1   6  -1   72.69    2.80
   1   6  -1   63.99    6.10
   1   6  -1   65.89    3.30
  -1  -6   1   46.00   12.50
  -1  -6   1   64.39    2.90
  -1  -6   1   64.39    3.00
   0   6  -1  705.13   24.70
   0   6  -1  704.13   25.40
   0  -6   1  734.63   24.30
   0  -6   1  748.43   24.30
   0  -6   1  758.12   35.80
  -1   6  -1   55.99    2.90
  -1   6  -1   56.59    2.60
  -1   6  -1   59.39    3.80
   1  -6   1   46.40   11.00
   1  -6   1   55.49    2.80
  -2   6  -1   14.60    1.80
  -2   6  -1   16.00    2.50
   2  -6   1   13.20    1.60
   2  -6   1    9.80   16.50
  -3   6  -1   40.00    1.40
  -3   6  -1   41.00    1.60
  -3   6  -1   41.40    2.40
  -3   6  -1   40.30    3.00
  -3   6  -1   36.60    3.90
   3  -6   1   32.60   21.90
   3  -6   1   39.30    1.60
   3  -6   1   41.00    1.40
   3  -6   1   37.90    2.80
  -4   6  -1   13.40    0.70
  -4   6  -1    9.50    3.40
  -4   6  -1   11.40    1.50
   4  -6   1   15.10    2.10
   4  -6   1   12.30    0.60
   4  -6   1   13.00    0.80
  -5   6  -1    1.40    0.90
  -5   6  -1    2.10    0.50
  -5   6  -1    1.30    4.50
  -5   6  -1    2.50    1.30
   5  -6   1    0.90    0.30
   5  -6   1    1.20    0.20
  -6   6  -1    0.70    0.20
   6  -6   1    0.40    0.20
   6   5  -1    9.40    0.70
  -6  -5   1   11.40    0.70
   5   5  -1    5.40    1.00
   5   5  -1    8.90    0.80
  -5  -5   1    5.90    0.50
  -5  -5   1    8.20    1.10
  -5  -5   1    4.50    1.00
  -5  -5   1    6.40    1.70
  -5  -5   1    7.50    3.90
   4   5  -1  110.39    3.90
   4   5  -1  113.89    4.80
  -4  -5   1  115.09    5.70
  -4  -5   1  117.49    8.10
  -4  -5   1  112.29    5.20
  -4  -5   1  109.99    4.00
  -4  -5   1  111.99    4.20
  -4  -5   1  109.39    4.00
   3   5  -1    7.40    0.60
   3   5  -1    6.50    0.80
  -3  -5   1    6.60    2.40
  -3  -5   1    7.40    0.60
  -3  -5   1    6.50    1.70
  -3  -5   1    7.20    0.70
   2   5  -1    0.80    0.30
  -2  -5   1    0.10    0.40
  -2  -5   1    1.20    1.40
  -2  -5   1    0.30    0.30
   1   5  -1 1310.97   46.80
  -1  -5   1 1467.85   57.99
   0   5  -1    9.30    0.80
   0   5  -1    9.20    1.80
   0   5  -1    9.20    0.80
   0  -5   1   13.50    5.90
   0  -5   1    9.80    0.80
  -1   5  -1  350.36   12.80
  -1   5  -1  355.16   12.10
   1  -5   1  360.46   12.30
   1  -5   1  345.97   21.70
  -2   5  -1  123.89    5.60
  -2   5  -1  133.89    5.10
  -2   5  -1  133.29    5.90
   2  -5   1  135.19    5.80
   2  -5   1  136.19   16.70
  -3   5  -1  603.94   21.60
  -3   5  -1  621.54   20.60
  -3   5  -1  604.74   21.50
   3  -5   1  581.04   21.10
   3  -5   1  584.64   45.10
  -4   5  -1    4.90    4.30
  -4   5  -1    1.40    0.20
  -4   5  -1    2.00    0.30
  -4   5  -1    0.80    0.60
   4  -5   1    1.10    0.90
   4  -5   1    2.00    0.40
  -5   5  -1   10.70    4.00
  -5   5  -1   12.60    1.60
  -5   5  -1   13.50    0.80
   5  -5   1   15.00    0.90
  -6   5  -1    1.40    0.20
   6  -5   1    1.00    0.30
   6  -5   1    1.30    0.20
   6   4  -1   74.99    2.60
  -6  -4   1   77.79    2.70
  -6  -4   1   67.29    2.50
   5   4  -1  149.88    5.10
   5   4  -1  147.29    6.20
  -5  -4   1  138.49    6.60
  -5  -4   1  152.78    5.30
  -5  -4   1  154.28    6.80
  -5  -4   1  144.29    5.10
  -5  -4   1  145.99    9.30
   4   4  -1   79.89    2.90
   4   4  -1   76.69    3.70
  -4  -4   1   78.89    3.00
  -4  -4   1   80.09    3.00
  -4  -4   1   79.99    3.10
  -4  -4   1   87.99    4.50
  -4  -4   1   81.69    4.10
  -4  -4   1   89.99    6.70
   3   4  -1  101.99    4.10
  -3  -4   1   98.59    4.70
  -3  -4   1  100.29    6.00
  -3  -4   1   95.19    3.70
  -3  -4   1  104.69    4.40
   2   4  -1  -10.90   43.80
   1   4  -1  277.47   10.70
   1   4  -1  279.37    9.80
  -1  -4   1  291.77   18.30
  -1  -4   1  287.37    9.50
   0   4  -1   10.50    0.70
   0   4  -1   10.30    1.40
   0   4  -1    9.60    0.70
   0  -4   1   11.80    4.50
   0  -4   1   10.10    0.70
  -1   4  -1  792.82   26.40
   1  -4   1  774.22   34.10
  -2   4  -1   70.79    3.70
  -2   4  -1   73.29    3.10
  -2   4  -1   73.19    3.50
   2  -4   1   72.39    3.30
   2  -4   1   56.49   11.80
  -3   4  -1   94.59    5.60
  -3   4  -1  128.79    8.10
  -3   4  -1  103.29    4.40
   3  -4   1  103.19    4.80
   3  -4   1   91.59   22.50
  -4   4  -1    4.60    0.50
  -4   4  -1    3.70    1.30
  -4   4  -1    4.10    0.40
  -4   4  -1    2.50    2.20
   4  -4   1    2.50    0.90
   4  -4   1    4.20    0.30
   4  -4   1   10.00   51.79
   4  -4   1    4.40    0.50
  -5   4  -1  116.79    7.80
  -5   4  -1  125.89    5.70
  -5   4  -1  126.69    4.50
   5  -4   1  117.79    6.30
   5  -4   1  131.09    4.20
   5  -4   1  129.99    4.60
  -6   4  -1   13.20    0.70
   6  -4   1   12.00    0.50
   6  -4   1   15.20    1.00
   6   3  -1   25.80    1.10
  -6  -3   1   26.10    1.20
  -6  -3   1   24.90    1.10
   5   3  -1  121.19    4.30
   5   3  -1  115.59    5.40
  -5  -3   1  122.29    8.10
  -5  -3   1  124.29    4.30
  -5  -3   1  129.59    5.90
  -5  -3   1  127.49    4.50
  -5  -3   1  119.59    5.80
   4   3  -1   41.10    2.40
  -4  -3   1   30.80    5.20
  -4  -3   1   38.60    1.60
  -4  -3   1   39.70    1.70
  -4  -3   1   39.50    2.60
  -4  -3   1   39.50    1.80
  -4  -3   1   39.90    2.70
   3   3  -1    4.00    0.70
  -3  -3   1    2.90    1.60
  -3  -3   1    4.50    0.90
  -3  -3   1    4.40    0.90
  -2  -3   1  240.38    8.80
  -2  -3   1  250.57    9.70
   1   3  -1   91.19    3.50
   1   3  -1   91.09    3.30
  -1  -3   1  101.59   10.00
  -1  -3   1   93.99    3.50
  -1  -3   1   94.09    3.30
   0   3  -1 1172.78   39.00
   0  -3   1 1209.18   43.50
  -1   3  -1 1109.79   36.80
   1  -3   1 1125.99   43.80
  -2   3  -1  211.78    8.20
  -2   3  -1  208.48    7.80
  -2   3  -1  209.98    7.50
   2  -3   1  212.08    7.70
   2  -3   1  179.48   21.70
  -3   3  -1   44.00    2.70
  -3   3  -1   48.40    2.50
  -3   3  -1   44.80    3.50
   3  -3   1   48.20    2.70
   3  -3   1   51.39   21.50
   4  -3   1   57.99   48.30
  -5   3  -1    0.50    0.20
  -5   3  -1    0.80    0.70
  -5   3  -1    0.20    3.00
  -5   3  -1    0.10    0.30
   5  -3   1    0.30    0.30
   5  -3   1    0.40    0.20
   5  -3   1    0.50    1.10
  -6   3  -1    1.90    0.30
   6  -3   1    1.80    0.20
   6  -3   1    2.00    0.30
  -7   3  -1   46.00    1.60
   7   2  -1    1.10    0.10
  -7  -2   1    1.40    0.30
  -7  -2   1    1.00    0.20
   6   2  -1   11.30    0.60
  -6  -2   1   10.90    3.60
  -6  -2   1   12.50    0.80
  -6  -2   1   10.90    0.60
   5   2  -1   83.49    4.30
   5   2  -1   84.79    3.00
  -5  -2   1   85.39    4.60
  -5  -2   1   85.49    3.10
  -5  -2   1   83.09    3.20
  -5  -2   1   84.79    6.50
  -5  -2   1   80.49    5.20
   4   2  -1   52.79    2.00
   4   2  -1   56.49    3.00
  -4  -2   1   51.99    2.20
  -4  -2   1   61.19    4.80
  -4  -2   1   49.80    2.10
  -4  -2   1   55.59    3.10
  -4  -2   1   66.69    3.70
   3   2  -1    1.00    0.50
  -3  -2   1    0.00    1.30
  -3  -2   1    1.00    0.50
  -3  -2   1    0.90    0.50
   2   2  -1  115.39    4.40
  -2  -2   1  117.19    4.50
  -2  -2   1  113.79    4.50
  -2  -2   1  118.19    5.20
   1   2  -1  300.37   10.00
  -1  -2   1  299.87    9.90
  -1  -2   1  294.37   15.10
   0   2  -1   60.19    2.20
   0  -2   1   62.99    5.20
   0  -2   1   64.29    2.30
   0  -2   1   60.89    2.20
  -1   2  -1   18.00    1.10
  -1   2  -1   18.00    1.40
  -1   2  -1   19.00    1.00
   1  -2   1   18.40    1.10
   1  -2   1   18.10    6.30
  -2   2  -1    0.90    1.10
  -2   2  -1    1.60    0.50
  -2   2  -1    3.40    0.70
   2  -2   1    2.00    0.50
   2  -2   1  -16.00   10.20
  -3   2  -1    8.50    1.20
  -3   2  -1    7.50    1.10
  -3   2  -1    7.40    1.80
   3  -2   1   -9.70   20.10
   3  -2   1    9.90    1.30
  -4   2  -1    3.80    2.10
  -4   2  -1    4.70    0.60
  -4   2  -1    5.50    1.00
  -4   2  -1    4.80    0.40
   4  -2   1    4.90    0.40
   4  -2   1    4.40    1.00
   4  -2   1    5.70    0.60
  -5   2  -1  250.77   10.20
  -5   2  -1  270.37    8.70
  -5   2  -1  253.17   12.10
  -5   2  -1  260.17    8.80
  -5   2  -1  260.47   10.60
   5  -2   1  245.18   10.70
   5  -2   1  269.17    8.60
   5  -2   1  256.27    8.90
  -6   2  -1   28.20    5.80
  -6   2  -1   26.60    1.20
   6  -2   1   27.60    1.30
   6  -2   1   26.40    1.00
  -7   2  -1  101.79    3.60
  -7   2  -1  111.49    3.60
   7   1  -1    0.80    0.10
  -7  -1   1    0.60    0.20
  -7  -1   1    0.60    0.10
   6   1  -1   10.40    0.60
  -6  -1   1    2.10    4.60
  -6  -1   1   10.30    0.70
  -6  -1   1    9.10    0.60
   5   1  -1   38.70    1.50
   5   1  -1   36.10    2.60
  -5  -1   1   37.90    2.60
  -5  -1   1   37.30    1.70
  -5  -1   1   46.50    3.80
  -5  -1   1   38.10    1.60
  -5  -1   1   31.30    4.10
   4   1  -1    1.40    0.30
   4   1  -1    0.90    0.60
  -4  -1   1    1.40    1.90
  -4  -1   1    0.80    0.30
  -4  -1   1    1.00    0.60
  -4  -1   1    0.90    0.60
   3   1  -1  111.39    4.60
  -3  -1   1  114.19    4.70
  -3  -1   1  108.49    4.60
  -3  -1   1  108.89    5.60
   2   1  -1   85.39    3.30
  -2  -1   1   83.09    4.00
  -2  -1   1   84.09    3.40
  -2  -1   1   80.59    3.30
  -1  -1   1  436.56   14.70
   0   1  -1   48.50    1.70
   0  -1   1   49.10    1.70
   0  -1   1   47.30    3.30
   0  -1   1   50.69    1.80
   0  -1   1   50.89    1.70
  -1   1  -1 1434.46   46.80
   1  -1   1 1419.16   53.79
  -2   1  -1  173.78    7.10
  -2   1  -1  169.78    6.30
  -2   1  -1  172.38    6.30
   2  -1   1  169.38    6.20
   2  -1   1  153.48   18.60
  -3   1  -1   64.49    3.20
  -3   1  -1   61.69    3.10
  -3   1  -1   63.79    4.50
   3  -1   1   66.39    3.10
  -4   1  -1   40.20    4.10
  -4   1  -1   37.00    1.50
  -4   1  -1   37.60    2.50
  -4   1  -1   36.20    1.60
   4  -1   1   35.00    2.40
  -5   1  -1   84.79    3.00
  -5   1  -1   82.39    4.80
  -5   1  -1   89.39    3.20
  -5   1  -1   83.29    6.80
  -5   1  -1   78.49    4.30
   5  -1   1   80.09    3.20
   5  -1   1   84.99    3.00
   5  -1   1   81.79    4.50
  -6   1  -1    2.10    0.40
  -6   1  -1    5.20    4.40
   6  -1   1    1.90    0.20
   6  -1   1    3.80    0.50
  -7   1  -1   35.10    1.40
  -7   1  -1   39.80    1.40
   7   0  -1    5.70    0.30
  -7   0   1    4.90    0.40
  -7   0   1    5.80    0.30
   6   0  -1    0.40    0.20
  -6   0   1    0.40    0.20
  -6   0   1    0.30    0.20
  -6   0   1    0.20    0.60
  -6   0   1    4.50    3.10
   5   0  -1    7.50    1.50
   5   0  -1    7.70    0.50
  -5   0   1    7.60    0.70
  -5   0   1    6.70    1.20
  -5   0   1    7.50    0.60
  -5   0   1    7.30    2.70
  -5   0   1    8.30    1.50
   4   0  -1    1.60    1.00
   4   0  -1    1.00    0.20
  -4   0   1    0.80    0.60
  -4   0   1    1.40    0.30
  -4   0   1    1.80    0.70
  -4   0   1    2.70    1.70
   3   0  -1  118.79    4.90
   3   0  -1   88.59   33.20
  -3   0   1  122.79    6.20
  -3   0   1  127.09    5.00
   2   0  -1    9.50    0.80
  -2   0   1    9.20    0.80
  -2   0   1   11.60    1.40
  -2   0   1    8.30    0.70
   1   0  -1   38.00    1.50
  -1   0   1   37.10    1.50
  -1   0   1   37.30    1.80
   0   0  -1   48.40    1.60
   0   0   1   46.70    1.70
   0   0   1   48.50    1.60
   0   0   1   46.60    1.60
  -1   0  -1 2101.69   66.69
   1   0   1 1965.80   74.39
  -2   0  -1  367.66   12.90
  -2   0  -1  389.36   14.00
  -2   0  -1  376.26   13.10
   2   0   1  373.66   30.20
   2   0   1  378.16   12.90
  -3   0  -1   36.30    3.50
  -3   0  -1   29.90    2.00
  -3   0  -1   28.00    1.80
   3   0   1   12.80   24.90
   3   0   1   28.80    1.80
  -4   0  -1   75.49    6.00
  -4   0  -1   83.59    4.20
  -4   0  -1   76.49    3.00
   4   0   1   77.29    2.70
   4   0   1   73.79    5.10
  -5   0  -1    8.10    0.60
  -5   0  -1   10.80    3.90
  -5   0  -1    7.40    1.50
  -5   0  -1    8.10    1.60
  -5   0  -1    8.50    0.70
   5   0   1    8.80    0.60
   5   0   1    7.40    0.70
  -6   0  -1   21.60    1.10
  -6   0  -1   15.60    5.20
   6   0   1   22.80    1.20
   6   0   1   23.00    0.90
  -7   0  -1   24.80    1.10
  -7   0  -1   25.50    1.00
   7  -1  -1    0.40    0.10
  -7   1   1    0.40    0.20
  -7   1   1    0.30    0.10
   6  -1  -1   12.30    0.60
  -6   1   1   10.20    3.20
  -6   1   1   13.20    0.80
  -6   1   1   13.80    1.70
  -6   1   1   12.40    0.70
   5  -1  -1   42.80    3.00
  -5   1   1   41.50    2.60
  -5   1   1   43.00    3.00
  -5   1   1   43.70    1.70
  -5   1   1   42.20    4.50
  -5   1   1   42.60    1.80
   4  -1  -1  192.28    9.70
  -4   1   1  199.08    7.60
  -4   1   1  197.68    9.50
  -4   1   1  188.38    6.60
  -4   1   1  195.08    6.60
  -4   1   1  195.68    8.80
   3  -1  -1  279.77   38.00
   3  -1  -1  298.77   10.50
  -3   1   1  278.37   10.30
  -3   1   1  301.57   10.40
  -3   1   1  293.47   11.80
   2  -1  -1   68.59   14.60
   2  -1  -1   57.19    2.40
  -2   1   1   54.39    2.50
  -2   1   1   60.29    3.00
  -2   1   1   58.59    2.40
   0  -1  -1    8.40    0.30
   0  -1  -1    7.80    3.20
   0  -1  -1    8.60    0.50
   0   1   1    8.40    0.70
   0   1   1    9.20    0.50
   0   1   1    8.80    0.40
  -1  -1  -1   13.60    0.90
  -1  -1  -1   14.00    1.40
   1   1   1    8.10    7.30
   1   1   1   13.50    0.80
  -2  -1  -1   29.40    2.60
  -2  -1  -1   30.20    1.60
  -2  -1  -1   32.30    1.80
   2   1   1   18.20   14.00
   2   1   1   32.10    1.60
  -3  -1  -1    6.40    0.90
  -3  -1  -1    5.70    1.00
   3   1   1    7.80    1.10
   3   1   1   14.20   26.80
  -4  -1  -1 1067.59   34.20
  -4  -1  -1  990.00   35.20
   4   1   1  953.60   32.70
   4   1   1  884.21   31.70
  -5  -1  -1   -0.10    0.30
  -5  -1  -1    0.10    0.50
  -5  -1  -1    5.30    3.60
   5   1   1    0.90    0.60
   5   1   1    0.20    0.20
   5   1   1    0.00    0.30
  -6  -1  -1   59.19    2.40
   6   1   1   64.29    2.20
  -7  -1  -1    1.40    0.20
   7  -2  -1    3.10    0.20
  -7   2   1    3.30    0.30
  -7   2   1    3.60    0.40
   6  -2  -1   78.99    2.70
  -6   2   1   80.39    2.80
  -6   2   1   77.39    3.00
  -6   2   1   79.79    2.90
   5  -2  -1    9.50    0.60
   5  -2  -1    7.00    1.40
  -5   2   1   10.50    1.40
  -5   2   1    7.30    2.70
  -5   2   1   10.20    0.70
  -5   2   1    8.30    1.50
  -5   2   1   10.40    0.70
   4  -2  -1  199.18    6.60
   4  -2  -1  193.98    8.20
  -4   2   1  202.78    6.70
  -4   2   1  200.78    6.80
  -4   2   1  202.48    7.70
  -4   2   1  191.68    8.60
   3  -2  -1   88.09   27.30
   3  -2  -1  120.19    5.00
  -3   2   1  116.39    4.90
  -3   2   1  126.39    5.50
  -3   2   1  120.39    4.80
   2  -2  -1  792.92   45.90
  -2   2   1 1006.70   31.10
   1  -2  -1  339.47   17.30
  -1   2   1  336.47   11.50
   0  -2  -1 5680.33  188.28
  -1  -2  -1    9.10    0.60
  -1  -2  -1    3.20    6.50
   1   2   1    9.40    0.60
   1   2   1    8.30    0.70
   1   2   1    9.30    1.30
  -2  -2  -1  218.68    9.20
  -2  -2  -1  219.98    7.70
  -2  -2  -1  216.98    8.20
  -2  -2  -1  221.48    7.90
   2   2   1  219.38    7.70
   2   2   1  220.78   27.90
  -3  -2  -1  119.59    5.00
  -3  -2  -1  111.39    5.20
  -3  -2  -1  116.69    6.60
   3   2   1  117.49    4.70
  -4  -2  -1   12.00    1.70
  -4  -2  -1    8.90    1.50
  -4  -2  -1    6.70    0.80
  -4  -2  -1    6.90    3.00
  -4  -2  -1    8.90    0.80
   4   2   1    8.80    1.30
   4   2   1    9.30    0.60
  -5  -2  -1    0.50    0.20
  -5  -2  -1    0.20    0.30
  -5  -2  -1    1.00    0.70
  -5  -2  -1    5.60    5.60
  -5  -2  -1    0.40    0.70
   5   2   1    0.30    0.20
   5   2   1    0.70    0.40
   5   2   1    0.70    0.60
  -6  -2  -1   73.09    2.90
   6   2   1   78.49    2.60
   7  -3  -1   69.59    2.40
  -7   3   1   74.29    2.40
  -6   3   1  326.27   10.50
  -6   3   1  298.77   13.20
   5  -3  -1   11.10    1.90
  -5   3   1   15.20    0.80
  -5   3   1   17.30    2.30
  -5   3   1   15.70    0.80
  -5   3   1   17.20    3.20
   4  -3  -1   54.39    3.40
  -4   3   1   58.09    2.20
  -4   3   1   52.69    3.90
  -4   3   1   58.59    2.10
  -4   3   1   59.69    4.20
   3  -3  -1  167.18   29.30
   3  -3  -1  236.38    8.90
  -3   3   1  241.78    9.30
  -3   3   1  230.98    9.00
  -3   3   1  243.68    8.50
   2  -3  -1   49.90    2.60
   2  -3  -1   47.90   12.60
  -2   3   1   51.29    2.20
  -2   3   1   50.19    2.50
  -2   3   1   49.10    2.60
   1  -3  -1  585.64   27.80
  -1   3   1  613.34   20.30
   0  -3  -1  108.09    4.10
   0  -3  -1  118.89    4.00
   0  -3  -1  120.19   11.80
   0   3   1  120.99    4.20
   0   3   1  115.99    4.70
   0   3   1  119.89    4.40
  -1  -3  -1  118.89   14.10
  -1  -3  -1  125.19    4.50
  -1  -3  -1  120.79    4.40
   1   3   1  123.69    5.00
   1   3   1  128.99    4.40
   1   3   1  118.09    5.40
  -2  -3  -1  437.36   14.80
  -2  -3  -1  422.76   14.50
  -2  -3  -1  432.56   15.20
  -2  -3  -1  436.76   16.40
   2   3   1  417.46   42.00
  -3  -3  -1   10.60    1.10
  -3  -3  -1   10.40    0.80
  -3  -3  -1    9.80    1.50
  -3  -3  -1   14.80    3.20
  -3  -3  -1   10.20    0.80
   3   3   1  -21.30   45.40
   3   3   1   10.80    1.00
   3   3   1   10.20    0.60
  -4  -3  -1    2.20    0.50
  -4  -3  -1    3.10    1.10
  -4  -3  -1    0.00    3.40
  -4  -3  -1    2.50    0.60
  -4  -3  -1    2.30    0.80
   4   3   1    2.40    0.70
   4   3   1    1.50    0.50
   4   3   1    1.90    0.30
  -5  -3  -1   85.39    3.30
  -5  -3  -1   77.49    4.30
   5   3   1   87.29    3.00
   5   3   1   81.29    4.00
   5   3   1   79.09    3.30
  -6  -3  -1   15.40    0.90
   6   3   1   16.30    0.70
  -7   4   1   13.10    0.50
  -6   4   1   11.50    0.60
  -6   4   1   12.10    0.80
   5  -4  -1   93.69    5.40
   5  -4  -1   96.19    3.70
   5  -4  -1  104.09    3.40
  -5   4   1   97.49    3.60
  -5   4   1  102.19    4.60
  -5   4   1  110.59    3.60
  -5   4   1  105.19    6.50
  -5   4   1   93.49    5.00
  -5   4   1  101.49    3.60
   4  -4  -1    1.90    0.20
   4  -4  -1    2.40    0.90
  -4   4   1    2.20    0.30
  -4   4   1    1.60    0.30
  -4   4   1    3.80    3.20
  -4   4   1    2.30    0.30
  -4   4   1    1.80    0.60
   3  -4  -1   35.40    2.30
   3  -4  -1   11.10   24.20
  -3   4   1   35.30    1.90
  -3   4   1   38.80    2.80
  -3   4   1   32.40    2.40
   2  -4  -1   23.50    1.50
   2  -4  -1   23.50   12.80
  -2   4   1   22.60    1.30
  -2   4   1   22.50    1.70
  -2   4   1   22.50    1.90
   1  -4  -1  231.48    7.70
   1  -4  -1  209.88   17.80
  -1   4   1  215.68    8.30
  -1   4   1  211.68    7.90
  -1   4   1  222.58    7.70
   0  -4  -1    1.00    6.30
   0  -4  -1    8.30    0.60
   0  -4  -1    7.70    0.50
   0   4   1    8.80    0.70
   0   4   1    8.60    0.70
  -1  -4  -1  613.14   35.00
   1   4   1  603.74   21.70
   1   4   1  619.64   20.80
  -2  -4  -1  165.08    6.30
  -2  -4  -1  171.48    6.40
  -2  -4  -1  172.38    7.00
   2   4   1  188.78   43.70
   2   4   1  181.08    6.30
  -3  -4  -1   34.70    2.60
  -3  -4  -1   33.80    1.60
  -3  -4  -1   31.50    2.10
  -3  -4  -1   36.20    4.60
  -3  -4  -1   31.90    1.40
   3   4   1   33.00    1.30
   3   4   1   31.90    1.90
  -4  -4  -1   25.10    2.10
  -4  -4  -1   28.70    3.10
  -4  -4  -1   29.80    1.50
  -4  -4  -1   27.40    5.40
   4   4   1   27.20    1.50
   4   4   1   30.90    2.00
   4   4   1   27.20    1.20
  -5  -4  -1   45.60    3.00
  -5  -4  -1   38.90    6.00
  -5  -4  -1   45.30    2.00
   5   4   1   40.50    2.00
   5   4   1   37.50    2.60
   5   4   1   46.20    1.70
  -6  -4  -1   13.00    1.00
   6   4   1   10.50    0.50
   6  -5  -1   60.79    2.10
  -6   5   1   63.09    2.20
   5  -5  -1   11.50    2.00
   5  -5  -1    6.70    0.60
  -5   5   1    5.80    1.00
  -5   5   1    8.80    3.10
  -5   5   1    8.00    0.60
  -5   5   1    5.90    1.30
   4  -5  -1   37.10    1.60
   4  -5  -1   39.50    3.00
  -4   5   1   43.20    4.20
  -4   5   1   38.20    2.30
   3  -5  -1  -18.40   25.70
   2  -5  -1   95.39   17.50
   2  -5  -1   81.29    3.70
  -2   5   1   69.09    5.60
  -2   5   1   85.79    3.50
  -2   5   1   83.39    4.00
   1  -5  -1   81.79    3.40
   1  -5  -1   69.09   12.80
  -1   5   1   83.89    4.20
  -1   5   1   81.89    3.40
  -1   5   1   81.99    3.60
   0  -5  -1  182.58    6.70
   0  -5  -1  209.08   20.20
   0   5   1  191.38    6.90
   0   5   1  186.58    7.90
  -1  -5  -1    6.10    0.70
  -1  -5  -1    5.60    0.60
  -1  -5  -1   -4.80   11.80
   1   5   1    6.70    0.80
   1   5   1    5.60    1.00
   1   5   1    6.10    2.30
  -2  -5  -1  301.77   10.20
  -2  -5  -1  309.27   11.50
  -2  -5  -1  307.07   10.00
  -2  -5  -1  286.17   10.60
  -2  -5  -1  311.27   13.30
  -2  -5  -1  307.47   10.50
   2   5   1  286.77    9.90
   2   5   1  301.97   10.50
   2   5   1  298.47   49.40
  -3  -5  -1   33.00    1.60
  -3  -5  -1   32.70    2.70
  -3  -5  -1   30.20    2.00
  -3  -5  -1   31.80    1.50
  -3  -5  -1   27.50    4.70
   3   5   1   29.40    1.60
   3   5   1   31.80    1.90
   3   5   1   32.00    1.30
  -4  -5  -1   73.59    3.90
  -4  -5  -1   77.19    5.90
  -4  -5  -1   74.59    3.10
  -4  -5  -1   76.99    8.60
   4   5   1   77.99    3.60
   4   5   1   77.09    2.80
   4   5   1   75.39    3.20
  -5  -5  -1   49.20    7.20
  -5  -5  -1   70.19    2.80
   5   5   1   72.39    2.50
  -6  -5  -1    1.10    0.20
   6   5   1    0.90    0.10
   6  -6  -1    4.80    0.30
  -6   6   1    5.20    0.40
   5  -6  -1   11.40    0.50
   5  -6  -1   11.00    0.70
  -5   6   1   11.90    0.70
  -5   6   1    6.10    3.60
   4  -6  -1  301.47    9.80
   4  -6  -1  296.47   10.00
   4  -6  -1  298.67   12.20
  -4   6   1  300.27    9.90
   3  -6  -1   10.60    1.70
   3  -6  -1   10.20    0.50
   3  -6  -1   10.80    0.70
  -3   6   1    9.10    2.50
  -3   6   1   10.20    0.60
   2  -6  -1   98.89   20.70
   2  -6  -1  131.19    4.20
   2  -6  -1  128.19    5.40
  -2   6   1  122.99    4.30
  -2   6   1  126.09    6.20
  -2   6   1  121.39    5.10
  -2   6   1  124.39    5.90
   1  -6  -1   12.10   11.90
   1  -6  -1    3.70    0.70
  -1   6   1    3.60    0.90
  -1   6   1    2.90    0.60
  -1   6   1    1.80    1.50
   0  -6  -1    5.10    0.80
   0  -6  -1    6.40   11.80
   0   6   1    5.10    1.90
   0   6   1    5.80    0.90
   0   6   1    5.60    0.90
  -1  -6  -1   88.59   18.80
  -1  -6  -1   70.89    2.90
  -1  -6  -1   67.59    2.60
  -1  -6  -1   65.59    3.00
   1   6   1   56.99    5.80
   1   6   1   73.69    3.10
   1   6   1   72.09    3.70
   1   6   1   67.59    2.40
  -2  -6  -1  129.09    4.70
  -2  -6  -1  130.29    4.50
  -2  -6  -1  132.99    6.10
  -2  -6  -1  126.29    5.10
  -2  -6  -1  115.09    8.10
   2   6   1  125.99    4.40
  -3  -6  -1    6.00    0.80
  -3  -6  -1   -0.70    3.80
  -3  -6  -1    5.20    1.30
  -3  -6  -1    5.30    0.60
  -3  -6  -1    5.20    1.00
   3   6   1    4.30    0.40
   3   6   1    3.70    0.60
   3   6   1    3.50    0.70
  -4  -6  -1    4.00    0.60
  -4  -6  -1    4.60    5.30
  -4  -6  -1    2.50    1.20
  -4  -6  -1    2.10    0.70
   4   6   1    3.60    0.60
   4   6   1    3.20    0.40
   4   6   1    3.10    0.80
  -5  -6  -1   11.10    0.80
   5   6   1   11.40    0.60
  -6   7   1   15.00    0.70
   5  -7  -1   36.20    1.30
   5  -7  -1   38.60    1.60
  -5   7   1   36.90    1.50
   4  -7  -1  121.89    6.60
   4  -7  -1  128.69    4.20
   4  -7  -1  125.39    4.50
  -4   7   1  128.89    5.80
  -4   7   1  131.49    4.40
   3  -7  -1    6.10    0.40
   3  -7  -1    5.70    0.50
   3  -7  -1    5.00    1.30
  -3   7   1    6.30    0.50
  -3   7   1    6.20    2.90
  -3   7   1    6.60    1.10
   2  -7  -1   71.69    2.70
   2  -7  -1   70.59    3.90
   2  -7  -1   87.29   23.60
   2  -7  -1   73.89    2.50
  -2   7   1   73.99    2.60
  -2   7   1   73.29    5.40
  -2   7   1   67.69    4.20
  -2   7   1   72.29    2.50
  -2   7   1   77.99    3.60
   1  -7  -1   43.10    1.50
   1  -7  -1   42.40    2.50
   1  -7  -1   43.50   17.90
  -1   7   1   40.70    4.00
  -1   7   1   41.80    1.50
  -1   7   1   44.10    2.80
  -1   7   1   43.40    2.50
   0  -7  -1   65.59    2.20
   0  -7  -1   63.49    3.10
   0  -7  -1   66.49    2.50
   0  -7  -1   58.19   19.10
   0   7   1   64.09    3.30
   0   7   1   69.39    6.40
   0   7   1   62.99    3.40
   0   7   1   65.09    2.50
   0   7   1   65.49    2.30
  -1  -7  -1  347.47   11.50
  -1  -7  -1  348.37   11.30
  -1  -7  -1  337.97   11.10
  -1  -7  -1  332.77   40.00
   1   7   1  362.96   12.60
   1   7   1  323.57   11.50
   1   7   1  343.67   11.20
   1   7   1  328.47   13.00
  -2  -7  -1   50.39    3.50
  -2  -7  -1   57.19    6.50
  -2  -7  -1   50.69    2.10
  -2  -7  -1   50.59    2.50
   2   7   1   49.10    2.70
  -3  -7  -1   73.69    4.70
  -3  -7  -1   79.29    3.10
  -3  -7  -1   71.09    8.00
   3   7   1   75.39    2.70
   3   7   1   76.99    3.70
   3   7   1   71.29    3.10
  -4  -7  -1   -0.70    8.30
  -4  -7  -1    0.40    0.40
   4   7   1    0.80    0.20
   4   7   1    0.70    0.40
  -5  -7  -1    0.40    0.30
   5   7   1    0.30    0.10
   5  -8  -1   67.69    2.50
   4  -8  -1    0.00    0.30
   4  -8  -1    0.10    0.10
  -4   8   1   -3.30    4.40
  -4   8   1    0.10    0.20
  -4   8   1   -0.50    0.60
   3  -8  -1   31.00    1.10
   3  -8  -1   32.00    1.40
  -3   8   1   27.00    3.40
  -3   8   1   32.00    1.40
  -3   8   1   33.90    4.90
   2  -8  -1   36.70   34.20
   2  -8  -1   69.29    2.30
   2  -8  -1   69.09    4.10
  -2   8   1   60.89    6.60
  -2   8   1   69.99    2.60
  -2   8   1   67.09    2.40
  -2   8   1   69.69    3.80
   1  -8  -1   47.70   25.90
   1  -8  -1   82.79    3.00
   1  -8  -1   81.99    2.80
   1  -8  -1   83.49    4.30
  -1   8   1   76.19    4.10
  -1   8   1   83.39    2.80
  -1   8   1   83.99    3.00
  -1   8   1   74.49    6.70
   0  -8  -1   18.50   25.20
   0   8   1    2.90    4.70
  -1  -8  -1  128.69    4.90
  -1  -8  -1  118.49   34.10
  -1  -8  -1  139.49    4.80
   1   8   1  135.39    5.80
   1   8   1  126.39    4.80
   1   8   1  131.69    4.50
  -2  -8  -1    5.30    1.90
  -2  -8  -1   10.00    5.10
  -2  -8  -1    6.30    0.70
  -2  -8  -1    6.70    0.80
   2   8   1    7.30    0.90
   2   8   1    5.90    0.50
  -3  -8  -1   21.60    6.20
  -3  -8  -1   15.50    2.50
  -3  -8  -1   25.70    1.80
   3   8   1   20.80    2.00
   3   8   1   21.10    1.30
  -4  -8  -1   47.20    2.00
   4   8   1   47.70    1.70
   4   8   1   37.30    2.00
  -5  -8  -1    0.00    0.20
   5  -9  -1   29.30    1.30
  -5   9   1   28.60    1.20
   4  -9  -1    0.10    0.10
   4  -9  -1   -0.10    0.20
  -4   9   1    0.00    0.20
  -3   9   1   60.79    2.60
   2  -9  -1  219.88    7.30
   2  -9  -1  215.08    7.00
  -2   9   1  226.98    7.30
  -2   9   1  206.58    7.00
  -2   9   1  188.08    8.70
   1  -9  -1  119.69    4.20
   1  -9  -1  116.09    3.90
   1  -9  -1   37.20   38.50
  -1   9   1  117.79    4.00
  -1   9   1  116.69    4.20
  -1   9   1  110.89   11.20
   0  -9  -1    9.20   37.30
   0  -9  -1    0.60    0.40
   0   9   1    0.20    0.20
   0   9   1    0.20    0.30
   0   9   1    1.30    0.90
  -1  -9  -1    0.50    0.40
   1   9   1    0.70    0.80
   1   9   1   -0.10    0.30
   1   9   1    0.30    0.20
  -2  -9  -1    5.30    0.70
  -2  -9  -1   -2.70    5.90
  -2  -9  -1    6.10    1.70
   2   9   1    4.10    0.40
   2   9   1    2.20    0.70
  -3  -9  -1   55.39    2.40
   3   9   1   56.79    2.50
   3   9   1   55.89    2.00
  -4  -9  -1    2.70    0.40
   4   9   1    2.40    0.20
   4 -10  -1    8.80    0.60
  -4  10   1    8.70    0.60
   3 -10  -1    0.20    0.20
  -3  10   1    0.20    0.20
   2 -10  -1   41.50    1.80
  -2  10   1   42.00    1.80
   1 -10  -1   59.49    2.40
   1 -10  -1  119.29   59.79
  -1  10   1   57.89    2.80
   0 -10  -1    1.40    0.40
   0 -10  -1  -27.90   53.69
  -1 -10  -1   17.10    1.10
  -1 -10  -1   18.20    2.70
  -1 -10  -1   15.30    7.90
   1  10   1   15.90    1.10
   1  10   1   18.10    0.80
  -2 -10  -1   43.20    2.00
   2  10   1   42.70    1.60
   2  10   1   43.20    2.00
  -3 -10  -1    2.70    0.50
   3  10   1    3.40    0.70
   3  10   1    3.10    0.30
   4 -11  -1   29.00    1.20
  -4  11   1   30.50    1.20
   3 -11  -1    0.80    0.30
  -3  11   1    0.80    0.30
   2 -11  -1    7.50    0.70
  -2  11   1    8.10    0.70
   1 -11  -1    9.40    0.80
  -1  11   1    9.80    0.80
   0 -11  -1    0.40    0.30
   0  11   1    0.20    0.30
  -1 -11  -1   11.90    0.90
   1  11   1   12.60    1.20
   1  11   1   12.80    0.70
   2  11   1    0.10    0.30
  -3 -11  -1   20.00    0.90
   3 -12  -1    0.10    0.20
  -3  12   1    0.00    0.20
   2 -12  -1   14.10    0.80
  -2  12   1   14.70    0.80
   1 -12  -1    0.00    0.20
  -1  12   1   -0.10    0.20
   0 -12  -1    0.30    0.30
  -1 -12  -1   28.90    1.30
   1  12   1   27.70    1.30
   1  13  -2  143.99    4.80
  -1 -13   2  145.79    5.00
   0  13  -2   23.30    0.90
   0 -13   2   24.30    1.10
  -1  13  -2    6.40    0.60
   1 -13   2    5.60    0.50
  -2  13  -2    0.20    0.20
   2 -13   2    0.70    0.20
   3  12  -2    2.40    0.20
  -3 -12   2    2.70    0.30
   1  12  -2    8.20    0.50
  -1 -12   2    8.80    0.70
   0  12  -2   22.60    1.20
   0  12  -2   22.70    1.00
   0 -12   2   22.60    1.20
  -1  12  -2    6.20    0.40
  -1  12  -2    4.70    0.80
   1 -12   2    7.00    0.60
   1 -12   2    4.60    0.70
  -2  12  -2    0.70    0.30
  -2  12  -2    0.70    0.20
   2 -12   2    1.30    0.30
  -3  12  -2   41.20    1.60
   3 -12   2   41.10    1.60
   4  11  -2    8.60    0.40
  -4 -11   2    7.40    0.40
   3  11  -2    2.10    0.30
  -3 -11   2    1.90    0.40
   2  11  -2    8.10    0.50
  -2 -11   2    8.40    0.70
  -2 -11   2    9.10    0.70
  -2 -11   2    8.90    6.30
   1  11  -2   24.40    1.10
  -1 -11   2   19.20    2.40
  -1 -11   2   25.60    1.30
  -1 -11   2   14.70    5.10
  -1 -11   2   24.20    1.20
   0  11  -2    0.70    0.30
   0  11  -2    1.20    1.10
   0 -11   2    1.70    0.40
   0 -11   2  -18.60   32.70
   0 -11   2    1.00    0.30
  -1  11  -2    0.00    0.20
  -1  11  -2    0.00    0.20
   1 -11   2  -47.70   33.10
   1 -11   2   -0.40    0.30
  -2  11  -2    3.00    0.40
  -2  11  -2    4.40    0.40
   2 -11   2    3.40    0.40
   2 -11   2   -0.30   46.00
  -3  11  -2   46.20    1.80
   3 -11   2   44.80    1.80
  -4  11  -2    5.70    0.50
   4 -11   2    6.20    0.50
  -4 -10   2    0.60    0.20
   3  10  -2   11.30    0.60
  -3 -10   2   10.80    0.80
  -3 -10   2   12.00    4.80
  -3 -10   2    9.60    0.80
   2  10  -2  148.89    5.10
   2  10  -2  146.19    6.60
  -2 -10   2  150.78    5.20
  -2 -10   2  152.68    5.40
  -2 -10   2  145.09    9.90
  -2 -10   2  150.48    7.00
   1  10  -2    5.30    0.50
   1  10  -2    5.40    1.20
  -1 -10   2    5.20    0.50
  -1 -10   2    5.00    0.50
  -1 -10   2    5.00    0.60
   0  10  -2    0.90    0.70
   0  10  -2    0.60    0.40
   0  10  -2    0.30    0.20
   0 -10   2  -21.40   21.90
   0 -10   2    0.30    0.30
  -1  10  -2   28.40    1.10
  -1  10  -2   26.30    1.30
  -1  10  -2   30.10    3.30
   1 -10   2   28.20    1.30
   1 -10   2   20.00   22.70
  -2  10  -2  138.99    4.80
  -2  10  -2  143.19    5.00
   2 -10   2  139.29   43.40
   2 -10   2  147.39    5.00
  -3  10  -2   80.69    3.00
  -3  10  -2   79.59    2.70
   3 -10   2   58.79   59.69
   3 -10   2   83.39    3.00
  -4  10  -2    6.70    0.50
   4 -10   2    6.80    0.60
  -5  10  -2    0.90    0.20
   5 -10   2    0.50    0.20
   5   9  -2    3.40    0.30
  -5  -9   2    3.10    0.30
   4   9  -2    5.60    0.50
  -4  -9   2    6.00    0.60
   3   9  -2   19.50    1.00
   3   9  -2   19.40    1.70
  -3  -9   2   20.90    1.20
  -3  -9   2   22.30    4.80
  -3  -9   2   19.90    1.10
  -3  -9   2   18.70    2.30
   2   9  -2   65.49    3.40
   2   9  -2   66.89    2.30
  -2  -9   2   64.89    2.60
  -2  -9   2   62.59    6.40
  -2  -9   2   60.69    2.50
  -2  -9   2   54.99    3.70
  -2  -9   2   65.99    2.40
  -1  -9   2   10.50   19.90
   0   9  -2    0.80    0.20
   0   9  -2    0.20    0.50
   0   9  -2    0.70    0.30
   0  -9   2    1.30    0.30
   0  -9   2  -17.40   15.50
   0  -9   2    1.00    0.30
  -1   9  -2   33.50    1.50
  -1   9  -2   32.20    2.70
   1  -9   2   36.10    1.90
   1  -9   2   50.29   17.70
  -2   9  -2   67.69    4.60
  -2   9  -2   70.49    2.60
  -2   9  -2   71.29    2.40
   2  -9   2   69.89    2.60
   2  -9   2   52.59   21.90
   3  -9   2  -13.50   69.79
  -4   9  -2   30.80    1.30
   4  -9   2   29.40    1.30
  -5   9  -2    1.00    0.20
   5  -9   2    0.80    0.20
   5   8  -2   15.50    0.70
  -5  -8   2   14.20    0.80
  -5  -8   2   14.40    0.80
   4   8  -2    2.80    0.40
   4   8  -2    1.20    0.70
  -4  -8   2   -2.90    4.10
  -4  -8   2    2.00    0.40
  -4  -8   2    1.90    0.40
  -4  -8   2    2.20    1.20
   3   8  -2   24.50    1.80
   3   8  -2   23.90    1.10
  -3  -8   2   25.90    3.30
  -3  -8   2   23.50    1.30
  -3  -8   2   23.80    1.20
  -3  -8   2   24.90    4.60
  -3  -8   2   22.10    2.80
  -3  -8   2   24.40    1.20
   2   8  -2   76.29    2.70
   2   8  -2   78.19    3.50
  -2  -8   2   72.79    3.00
  -2  -8   2   74.29    3.80
  -2  -8   2   74.29    2.90
  -2  -8   2   78.59    2.80
  -2  -8   2   73.49    4.10
  -2  -8   2   74.29    6.00
   1   8  -2   52.39    1.90
   1   8  -2   51.09    2.70
  -1  -8   2   59.89   17.00
  -1  -8   2   53.79    2.90
  -1  -8   2   55.69    2.00
  -1  -8   2   51.69    2.10
   0   8  -2  290.57    9.70
   0   8  -2  293.67   11.00
   0  -8   2  300.97    9.90
   0  -8   2  304.57   26.80
   0  -8   2  297.97    9.80
  -1   8  -2   16.30    0.70
  -1   8  -2   14.10    0.80
   1  -8   2   16.10    0.80
   1  -8   2   13.60   12.30
  -2   8  -2   13.90    0.60
  -2   8  -2   13.60    2.10
  -2   8  -2   13.10    0.70
   2  -8   2   13.00    0.70
   2  -8   2    3.50   16.20
  -3   8  -2    6.70    0.40
  -3   8  -2    5.90    0.50
  -3   8  -2    5.20    1.70
   3  -8   2    1.10   28.30
   3  -8   2    6.10    0.60
  -4   8  -2   86.89    3.10
   4  -8   2   86.09    3.20
  -5   8  -2    0.40    0.20
   5  -8   2    0.20    0.20
  -6   8  -2   21.50    0.90
   6  -8   2   20.70    0.90
   6   7  -2   16.00    0.60
  -6  -7   2   14.40    0.60
   5   7  -2   38.10    1.50
  -5  -7   2   36.70    1.60
   4   7  -2  220.28    7.40
   4   7  -2  226.88    8.40
  -4  -7   2  212.48    8.90
  -4  -7   2  227.88    7.60
  -4  -7   2  219.58    7.70
  -4  -7   2  213.28    7.50
  -4  -7   2  221.48    9.20
  -4  -7   2  222.18   11.90
   3   7  -2  102.99    4.30
  -3  -7   2   91.49    3.60
  -3  -7   2  102.09    3.80
  -3  -7   2  110.29    7.40
  -3  -7   2  103.09    5.20
  -3  -7   2  101.89    3.60
  -3  -7   2   98.39    4.70
   2   7  -2   10.30    1.00
   2   7  -2    8.40    0.50
  -2  -7   2   12.80    1.70
  -2  -7   2    9.00    0.70
  -2  -7   2   10.60    2.60
  -2  -7   2    7.90    0.60
  -2  -7   2    8.30    1.20
  -2  -7   2    8.10    0.70
   1   7  -2   74.29    3.10
  -1  -7   2   70.89    3.30
  -1  -7   2   65.19    2.60
  -1  -7   2   64.89   14.70
  -1  -7   2   75.59    2.60
   0   7  -2  350.76   13.20
   0   7  -2  372.46   12.70
   0  -7   2  347.07   24.80
  -1   7  -2    0.20    0.30
  -1   7  -2   -0.70    2.90
  -1   7  -2    0.80    0.50
   1  -7   2    0.90    0.30
   1  -7   2   -5.10    8.30
   1  -7   2    1.10    0.60
  -2   7  -2   87.89    6.20
  -2   7  -2   87.09    2.90
  -2   7  -2   84.39    3.10
  -2   7  -2   86.39    3.90
  -2   7  -2   87.19    4.60
   2  -7   2   88.69    2.90
   2  -7   2   80.59   16.50
   2  -7   2   85.79    3.10
  -3   7  -2    0.10    0.50
  -3   7  -2   -0.20    0.80
  -3   7  -2   -1.10    3.20
  -3   7  -2    0.80    0.20
  -3   7  -2    0.90    0.30
   3  -7   2   13.60   23.70
   3  -7   2    0.90    0.10
   3  -7   2    0.90    0.30
  -4   7  -2   39.50    5.80
  -4   7  -2   46.30    1.70
  -4   7  -2   49.99    1.90
   4  -7   2   31.60   49.00
   4  -7   2   48.50    1.60
   4  -7   2   48.90    2.00
  -5   7  -2    0.40    0.20
   5  -7   2    0.60    0.30
  -6   7  -2    2.00    0.20
   6  -7   2    3.00    0.30
   6   6  -2    4.00    0.30
  -6  -6   2    4.20    0.30
   5   6  -2   13.10    0.70
  -5  -6   2    9.80    1.40
  -5  -6   2   11.80    0.70
  -5  -6   2   11.50    0.80
  -5  -6   2    9.70    3.80
   4   6  -2  637.74   21.80
  -4  -6   2  674.63   25.60
  -4  -6   2  603.84   20.80
  -4  -6   2  639.54   24.80
   3   6  -2   -0.10    0.20
   3   6  -2   -0.10    0.30
  -3  -6   2    0.10    0.20
  -3  -6   2   -0.20    0.30
  -3  -6   2    0.00    0.30
  -3  -6   2    0.20    0.30
  -3  -6   2   -0.20    0.50
   2   6  -2  106.59    4.10
  -2  -6   2  110.89    4.80
  -2  -6   2   99.29    5.80
  -2  -6   2  104.19    3.60
  -2  -6   2  102.39    3.80
  -2  -6   2  106.79    4.50
   1   6  -2    1.50    0.40
  -1  -6   2    1.30    0.40
  -1  -6   2    0.40    7.50
   0   6  -2   64.49    2.80
   0   6  -2   59.89    2.80
   0   6  -2   63.09    4.60
   0  -6   2   54.29   11.50
   0  -6   2   61.39    2.80
   0  -6   2   64.19    2.90
  -1   6  -2    9.50    1.00
  -1   6  -2    6.70    1.00
  -1   6  -2    5.10    2.10
   1  -6   2    9.50    1.20
   1  -6   2    1.60    7.30
  -2   6  -2   18.20    1.70
  -2   6  -2   18.90    2.70
  -2   6  -2   16.40    1.30
   2  -6   2   18.20    1.60
   2  -6   2   29.00   12.50
  -3   6  -2   52.29    5.00
  -3   6  -2   56.19    3.00
  -3   6  -2   50.59    3.50
  -3   6  -2   55.09    1.90
  -3   6  -2   52.29    2.00
   3  -6   2   54.49    1.80
   3  -6   2   62.99   22.80
   3  -6   2   52.49    3.40
   3  -6   2   55.99    2.10
  -4   6  -2   10.20    3.90
  -4   6  -2   10.20    0.70
  -4   6  -2    8.90    1.30
  -4   6  -2    9.50    0.40
   4  -6   2   10.00    0.70
   4  -6   2   -8.50   40.70
   4  -6   2    9.50    0.50
  -5   6  -2    0.00    0.70
  -5   6  -2    0.40    0.30
  -5   6  -2    0.00    5.40
   5  -6   2    0.10    0.20
   5  -6   2    0.60    0.10
  -6   6  -2    7.00    0.50
   6  -6   2    5.10    0.50
   6   5  -2    0.30    0.20
  -6  -5   2    0.20    0.20
   5   5  -2   34.20    2.10
   5   5  -2   29.80    1.30
  -5  -5   2   26.50    2.20
  -5  -5   2   30.50    2.40
  -5  -5   2   30.60    1.50
  -5  -5   2   28.10    4.30
   4   5  -2    0.20    0.40
  -4  -5   2    0.00    2.50
  -4  -5   2    0.10    0.60
  -4  -5   2    0.60    0.30
  -4  -5   2    0.90    0.70
  -4  -5   2    0.50    0.30
   3   5  -2    0.00    0.30
   3   5  -2   -0.10    0.20
  -3  -5   2   -0.40    0.40
  -3  -5   2    0.00    1.60
  -3  -5   2    0.30    0.40
   2   5  -2    0.30    0.30
  -2  -5   2    0.50    0.40
  -2  -5   2    0.10    0.30
  -2  -5   2    1.20    1.20
  -2  -5   2    0.50    0.40
   1   5  -2  153.38    6.10
   1   5  -2  171.18    5.80
  -1  -5   2  178.78   14.90
   0   5  -2  124.89    4.70
   0   5  -2  128.79    4.70
   0   5  -2  121.59    5.60
   0  -5   2  124.49    4.70
   0  -5   2  138.79    4.90
   0  -5   2  123.29   10.90
  -1   5  -2  198.38    7.80
  -1   5  -2  208.48    7.40
  -1   5  -2  200.68    7.10
   1  -5   2  189.48    7.20
   1  -5   2  184.38   15.40
  -2   5  -2   21.10    1.70
  -2   5  -2   22.10    1.40
  -2   5  -2   19.80    2.40
   2  -5   2   20.70    1.60
   2  -5   2   23.70   10.50
  -3   5  -2   48.90    1.90
  -3   5  -2   49.50    3.20
  -3   5  -2   53.09    2.70
  -3   5  -2   49.20    1.70
  -3   5  -2   49.20    4.50
   3  -5   2   48.60    1.90
   3  -5   2   47.50   20.90
   3  -5   2   50.39    3.00
  -4   5  -2  162.38    5.50
  -4   5  -2  163.08   11.50
  -4   5  -2  172.48    7.00
  -4   5  -2  172.68    5.80
   4  -5   2  167.48    5.80
   4  -5   2  156.58    7.40
   4  -5   2  192.58   43.40
  -5   5  -2   11.20    0.70
  -5   5  -2   11.00    1.70
  -5   5  -2    9.80    5.00
   5  -5   2    9.90    0.70
   5  -5   2   10.00    0.50
  -6   5  -2    0.00    0.20
   6  -5   2    0.20    0.20
   6   4  -2    0.10    0.20
  -6  -4   2    0.10    0.20
   5   4  -2   17.00    1.50
   5   4  -2   15.30    0.80
  -5  -4   2   15.30    2.00
  -5  -4   2   20.20    2.10
  -5  -4   2   15.30    1.00
  -5  -4   2   14.60    0.90
   4   4  -2   15.40    0.80
   4   4  -2   14.80    1.30
  -4  -4   2   15.20    0.90
  -4  -4   2   14.80    0.90
  -4  -4   2   15.10    0.90
  -4  -4   2   14.20    1.50
  -4  -4   2   12.80    1.70
  -4  -4   2   13.30    3.00
   3   4  -2   36.90    2.00
  -3  -4   2   35.60    2.20
  -3  -4   2   36.10    3.40
  -3  -4   2   38.40    2.30
   2   4  -2   29.80    1.50
  -2  -4   2   28.70    1.60
  -2  -4   2   32.10    3.10
  -2  -4   2   33.40    1.80
  -2  -4   2   34.80    1.80
  -2  -4   2   33.50    2.90
   1   4  -2    9.00    0.60
  -1  -4   2    9.20    0.70
  -1  -4   2   12.40    1.50
  -1  -4   2    9.20    5.10
   0   4  -2  115.29    4.30
   0   4  -2  124.89    4.20
   0  -4   2  108.39    4.70
   0  -4   2  125.79    9.40
   0  -4   2  126.79    4.50
   0  -4   2  118.59    4.30
  -1   4  -2   62.99    2.70
  -1   4  -2   55.89    3.00
  -1   4  -2   60.29    2.40
   1  -4   2   51.19    8.10
   1  -4   2   60.29    2.70
  -2   4  -2  156.38    6.80
  -2   4  -2  163.88    6.00
   2  -4   2  181.38   20.10
   2  -4   2  155.08    6.20
  -3   4  -2   24.60    2.00
  -3   4  -2   20.10    2.80
  -3   4  -2   24.00    1.70
   3  -4   2   28.70   18.70
   3  -4   2   24.10    1.90
  -4   4  -2    2.50    0.20
  -4   4  -2    2.30    0.40
  -4   4  -2    5.90    3.20
   4  -4   2    3.50    1.20
   4  -4   2    2.00    0.20
   4  -4   2   12.20   39.10
   4  -4   2    2.20    0.40
  -5   4  -2   24.90    7.20
  -5   4  -2   20.10    1.10
  -5   4  -2   22.00    2.30
   5  -4   2   20.10    0.80
   5  -4   2   20.10    1.10
  -6   4  -2    4.20    0.40
  -6   4  -2    3.50    0.40
   6  -4   2    3.70    0.20
   6  -4   2    4.50    0.60
   7   3  -2   80.99    2.70
  -7  -3   2   83.39    2.90
   6   3  -2   27.50    1.20
  -6  -3   2   32.00    4.40
  -6  -3   2   28.10    1.30
  -6  -3   2   29.10    1.20
   5   3  -2    0.90    0.60
   5   3  -2    1.60    0.30
  -5  -3   2    2.30    0.40
  -5  -3   2    2.40    2.60
  -5  -3   2    2.00    0.80
  -5  -3   2    1.70    0.40
  -5  -3   2    2.00    0.80
   4   3  -2    0.10    0.40
   4   3  -2    0.50    0.20
  -4  -3   2    0.80    0.30
  -4  -3   2    0.80    1.80
  -4  -3   2    1.40    0.70
  -4  -3   2    1.50    0.60
  -4  -3   2    0.70    0.30
   3   3  -2    0.50    0.40
  -3  -3   2    0.60    0.50
  -3  -3   2    0.80    0.40
  -3  -3   2    0.30    0.40
  -3  -3   2    1.50    1.30
   2   3  -2    8.00    0.70
  -2  -3   2    7.90    0.60
  -2  -3   2    7.40    0.90
  -2  -3   2    8.20    1.40
  -2  -3   2    7.80    0.80
  -2  -3   2    7.00    1.60
  -1  -3   2  407.66   18.70
  -1  -3   2  386.66   13.30
   0   3  -2   87.69    3.10
   0  -3   2   80.89    3.10
   0  -3   2   88.99    3.30
  -1   3  -2  617.74   21.70
   1  -3   2  687.43   29.80
  -2   3  -2  325.27   11.20
  -2   3  -2  327.97   12.70
  -2   3  -2  322.57   11.40
   2  -3   2  308.97   11.20
   2  -3   2  295.37   24.80
  -3   3  -2  478.75   18.20
  -3   3  -2  497.35   17.50
   3  -3   2  516.65   41.30
   3  -3   2  493.15   17.20
  -4   3  -2   55.79    3.30
  -4   3  -2   54.49    5.10
  -4   3  -2   61.89    2.40
  -4   3  -2   62.99    2.10
   4  -3   2   62.99    3.60
   4  -3   2   61.89    2.40
   4  -3   2   56.99   40.30
   4  -3   2   63.29    2.20
  -5   3  -2  203.28    6.80
  -5   3  -2  196.88   10.80
  -5   3  -2  194.18    8.30
   5  -3   2  176.58    8.30
   5  -3   2  198.78    6.50
   5  -3   2  196.68    6.80
  -6   3  -2   36.30    1.50
   6  -3   2   35.60    1.50
   7   2  -2    0.00    0.10
  -7  -2   2    0.00    0.20
  -7  -2   2    0.10    0.10
   6   2  -2    5.20    0.50
  -6  -2   2    6.00    3.70
  -6  -2   2    5.10    0.50
  -6  -2   2    4.80    0.50
   5   2  -2    1.50    0.30
  -5  -2   2    1.90    0.40
  -5  -2   2    3.00    1.60
  -5  -2   2    1.90    0.40
  -5  -2   2    2.50    0.80
  -5  -2   2    0.60    2.20
   4   2  -2   79.39    3.80
   4   2  -2   73.29    2.70
  -4  -2   2   75.39    2.90
  -4  -2   2   79.49    4.00
  -4  -2   2   73.19    2.90
  -4  -2   2   80.59    5.20
  -4  -2   2   78.09    3.90
  -3  -2   2 1580.34   53.49
  -3  -2   2 1683.13   54.59
   2   2  -2   89.59    3.30
  -2  -2   2   80.69    3.20
  -2  -2   2   83.49    3.90
  -2  -2   2   83.69    3.40
  -2  -2   2   83.49    3.30
   1   2  -2   10.90    0.50
   1   2  -2   11.20    0.60
  -1  -2   2   12.60    0.90
  -1  -2   2   11.50    0.60
  -1  -2   2   11.60    0.80
  -1  -2   2   11.00    0.70
  -1  -2   2   11.00    0.60
   0  -2   2 1246.28   41.80
   0  -2   2 1166.18   39.20
  -1   2  -2   32.10    1.60
  -1   2  -2   30.90    2.10
  -1   2  -2   31.80    1.50
   1  -2   2   32.60    1.50
   1  -2   2   41.00    7.70
  -2   2  -2  675.43   24.00
  -2   2  -2  689.93   23.10
   2  -2   2  711.73   37.30
  -3   2  -2    2.60    1.90
  -3   2  -2    5.00    1.00
  -3   2  -2    5.80    1.10
   3  -2   2    2.90   19.70
   3  -2   2    5.10    0.90
  -4   2  -2   59.69    3.50
  -4   2  -2   66.09    5.80
  -4   2  -2   59.79    2.40
  -4   2  -2   63.99    2.20
   4  -2   2   61.69    3.50
   4  -2   2   59.59    2.50
   4  -2   2   61.69    2.20
   4  -2   2   34.20   43.30
  -5   2  -2  471.35   17.40
  -5   2  -2  490.75   19.70
   5  -2   2  443.76   18.50
   5  -2   2  460.65   15.50
  -6   2  -2   43.90    1.80
   6  -2   2   43.40    1.50
   6  -2   2   46.00    1.80
  -7   2  -2   26.70    1.00
  -7   2  -2   23.50    1.00
   7   1  -2    4.60    0.30
  -7  -1   2    4.60    0.40
  -7  -1   2    4.40    0.30
   6   1  -2    3.10    0.40
  -6  -1   2    1.60    2.70
  -6  -1   2    3.30    0.40
  -6  -1   2    3.80    0.40
  -6  -1   2    3.20    0.80
   5   1  -2    0.20    0.50
   5   1  -2    0.00    0.20
  -5  -1   2    3.20    2.10
  -5  -1   2   -0.40    0.40
  -5  -1   2    0.00    0.30
  -5  -1   2    0.30    0.40
  -5  -1   2    0.20    0.30
   4   1  -2   25.30    1.90
   4   1  -2   23.40    1.10
  -4  -1   2   26.70    1.90
  -4  -1   2   27.00    2.00
  -4  -1   2   24.80    3.00
  -4  -1   2   26.70    1.30
   3   1  -2   12.20    1.10
  -3  -1   2   13.30    1.20
  -3  -1   2   16.10    2.00
  -3  -1   2   12.30    1.10
   2   1  -2   31.80    1.50
  -2  -1   2   32.80    1.70
  -2  -1   2   31.20    2.00
  -2  -1   2   29.80    1.50
  -2  -1   2   27.00   11.70
  -1  -1   2  277.47   12.50
  -1  -1   2  265.27    9.10
   0  -1   2  486.35   19.00
   0  -1   2  522.15   16.60
  -1   1  -2 4585.24  146.89
   1  -1   2 4470.95  155.18
  -2   1  -2   12.50    1.10
  -2   1  -2    9.40    1.80
  -2   1  -2   12.30    1.10
   2  -1   2   11.50    0.90
  -3   1  -2    2.70    0.70
  -3   1  -2    3.40    2.10
   3  -1   2    4.00    0.80
   3  -1   2    1.00   21.50
  -4   1  -2    5.70    0.30
  -4   1  -2    6.20    0.50
  -4   1  -2    7.70    0.80
  -4   1  -2    8.80    3.00
  -4   1  -2    6.00    1.20
   4  -1   2    6.20    0.40
   4  -1   2    5.50    1.00
  -5   1  -2    2.50    0.50
  -5   1  -2    1.80    0.90
  -5   1  -2    2.40    3.90
  -5   1  -2    3.20    0.40
   5  -1   2    2.50    1.20
   5  -1   2    3.50    0.60
   5  -1   2    2.10    0.30
  -6   1  -2    8.30    0.60
   6  -1   2    8.10    0.40
   6  -1   2    8.30    0.70
  -7   1  -2   27.80    1.10
  -7   1  -2   30.20    1.10
   7   0  -2    0.20    0.10
  -7   0   2    0.10    0.10
  -7   0   2    0.20    0.20
   6   0  -2    2.10    0.30
  -6   0   2    1.80    0.30
  -6   0   2    1.00    2.50
  -6   0   2    1.50    0.60
  -6   0   2    1.20    1.40
  -6   0   2    1.70    0.30
   5   0  -2   21.10    1.00
   5   0  -2   21.70    2.10
  -5   0   2   20.50    1.70
  -5   0   2   26.80    3.30
  -5   0   2   21.40    1.10
  -5   0   2   22.30    1.10
  -5   0   2   22.30    2.10
   4   0  -2    3.30    1.10
   4   0  -2    4.30    0.40
  -4   0   2    4.70    0.80
  -4   0   2    3.10    1.50
   3   0  -2  410.96   14.80
  -3   0   2  445.66   15.50
  -2   0   2  413.96   27.60
  -2   0   2  411.16   14.20
   1   0  -2   19.20    0.90
  -1   0   2   20.60    0.90
  -1   0   2   19.80    1.00
  -1   0   2   19.70    0.80
  -1   0   2   22.70    5.10
   0   0   2  421.96   14.00
  -1   0  -2  105.99    4.00
  -1   0  -2  101.49    4.70
  -1   0  -2  107.69    4.10
   1   0   2  111.29   13.30
   1   0   2  108.79    3.80
  -2   0  -2   58.79    2.70
  -2   0  -2   56.69    2.80
  -2   0  -2   51.19    3.80
   2   0   2   59.99    2.60
   2   0   2   66.39   17.30
  -3   0  -2    2.70    0.70
  -3   0  -2    2.60    0.70
  -3   0  -2    1.20    1.80
   3   0   2  -32.70   22.80
   3   0   2    1.60    0.60
  -4   0  -2    9.50    0.80
  -4   0  -2    9.50    1.60
  -4   0  -2    9.00    0.50
  -4   0  -2    6.30    3.40
   4   0   2    9.50    0.60
   4   0   2    2.50   64.69
   4   0   2    9.40    0.90
  -5   0  -2   83.29    8.40
  -5   0  -2   92.99    3.30
  -5   0  -2   97.69    3.70
  -5   0  -2   94.69    5.20
  -5   0  -2   96.89    5.10
   5   0   2   95.19    4.70
   5   0   2   98.99    3.30
   5   0   2   97.79    3.70
  -6   0  -2    7.00    0.60
   6   0   2    6.50    0.40
   6   0   2    5.80    0.70
   7  -1  -2    6.60    0.30
  -7   1   2    6.90    0.50
  -7   1   2    6.90    0.40
   6  -1  -2   14.10    0.70
  -6   1   2    7.90    2.90
  -6   1   2   14.00    0.70
  -6   1   2   13.20    0.70
  -6   1   2   11.10    1.30
   5  -1  -2   26.20    2.30
   5  -1  -2   26.60    1.20
  -5   1   2   30.10    1.30
  -5   1   2   28.80    1.30
  -5   1   2   26.40    3.30
  -5   1   2   31.60    2.10
  -5   1   2   27.10    2.30
   4  -1  -2    2.80    0.30
   4  -1  -2    2.10    0.70
  -4   1   2    2.70    0.70
  -4   1   2    3.30    1.50
  -4   1   2    3.10    0.40
  -4   1   2    3.20    1.00
  -4   1   2    3.00    0.40
   3  -1  -2  145.59    5.70
  -3   1   2  150.58    5.50
  -3   1   2  145.09    6.20
   2  -1  -2   63.29    2.60
  -2   1   2   67.49    3.00
  -2   1   2   67.29    2.60
   0   1   2 1918.31   62.29
  -1  -1  -2  442.66   15.30
  -1  -1  -2  465.05   16.00
   1   1   2  459.85   25.40
  -2  -1  -2   79.19    4.60
  -2  -1  -2   83.89    3.40
  -2  -1  -2   77.99    3.70
   2   1   2   83.89    3.30
   2   1   2   71.99   26.30
  -3  -1  -2   27.80    1.80
  -3  -1  -2   33.30    2.30
   3   1   2    7.20   25.60
   3   1   2   30.10    1.80
  -4  -1  -2   26.30    2.20
  -4  -1  -2   26.60    4.60
  -4  -1  -2   29.50    1.50
  -4  -1  -2   30.20    3.10
   4   1   2   28.40    1.50
   4   1   2   29.00    1.20
   4   1   2   28.80    2.00
  -5  -1  -2    5.50    0.70
  -5  -1  -2    6.20    1.40
  -5  -1  -2    3.40    1.10
  -5  -1  -2    4.30    0.40
  -5  -1  -2    9.60    6.80
   5   1   2    4.90    1.10
   5   1   2    4.00    0.60
   5   1   2    5.20    0.40
  -6  -1  -2    1.80    0.40
   6   1   2    1.50    0.20
   6   1   2    0.90    0.30
  -7   2   2   55.39    2.00
  -7   2   2   56.69    1.90
   6  -2  -2    2.20    0.30
  -6   2   2    2.30    0.40
  -6   2   2    1.70    4.20
  -6   2   2    2.30    0.30
  -6   2   2    2.10    0.30
   5  -2  -2  236.28   10.30
   5  -2  -2  233.88    7.80
  -5   2   2  221.08    9.60
  -5   2   2  234.98    7.90
  -5   2   2  240.08    7.90
  -5   2   2  243.08    9.00
  -5   2   2  242.98   10.20
   4  -2  -2   90.19    4.30
   4  -2  -2   81.39    2.90
  -4   2   2   83.39    3.00
  -4   2   2   86.69    4.80
  -4   2   2   81.09    3.00
  -3   2   2  503.85   17.70
  -2   2   2  414.46   13.80
  -2   2   2  382.86   13.60
   1  -2  -2   27.20    1.20
   1  -2  -2   42.80    8.30
  -1   2   2   24.10    1.30
  -1   2   2   24.90    1.20
  -1   2   2   28.50    1.50
   0  -2  -2 1709.63   62.59
   0   2   2 1691.93   55.49
  -2  -2  -2   57.49    4.10
  -2  -2  -2   53.69    2.50
  -2  -2  -2   56.69    2.90
   2   2   2   56.59    2.40
   2   2   2   53.19   19.20
  -3  -2  -2    5.00    0.80
  -3  -2  -2    4.10    0.90
  -3  -2  -2    3.80    1.00
  -3  -2  -2    4.30    2.40
   3   2   2    5.00    0.40
   3   2   2   17.80   33.20
   3   2   2    4.60    0.80
  -4  -2  -2   11.10    1.90
  -4  -2  -2   11.40    1.60
  -4  -2  -2   11.60    0.90
   4   2   2   12.20    0.90
   4   2   2   11.80    0.70
   4   2   2    9.90    1.30
  -5  -2  -2    0.20    0.30
  -5  -2  -2    0.60    0.80
  -5  -2  -2    0.30    0.60
  -5  -2  -2   10.10    5.00
   5   2   2   -0.20    0.60
   5   2   2    0.20    0.20
   5   2   2    0.40    0.40
  -6  -2  -2    1.20    0.30
   6   2   2    1.20    0.20
   6   2   2    1.30    0.30
   7  -3  -2   38.20    1.30
  -7   3   2   38.30    1.30
   6  -3  -2   13.90    0.60
  -6   3   2   13.60    0.80
  -6   3   2   14.40    0.70
  -6   3   2   12.90    3.20
   5  -3  -2    9.70    1.60
   5  -3  -2   13.60    0.70
  -5   3   2   12.90    0.70
  -5   3   2   12.70    0.80
  -5   3   2   13.30    0.80
  -5   3   2   10.90    1.60
  -5   3   2   19.60    3.00
   4  -3  -2  326.07   13.00
   4  -3  -2  353.56   11.40
  -4   3   2  339.17   12.80
  -4   3   2  351.96   13.40
  -4   3   2  350.56   11.50
  -4   3   2  363.76   12.40
  -3   3   2  692.43   23.90
   2  -3  -2  224.28    7.90
   2  -3  -2  221.48   25.20
  -2   3   2  211.98    8.10
  -2   3   2  224.68    8.30
   1  -3  -2   17.10    0.90
   1  -3  -2    7.20    8.20
  -1   3   2   16.40    1.00
  -1   3   2   16.30    1.10
  -1   3   2   17.50    1.40
   0  -3  -2   98.89   12.50
   0  -3  -2   85.49    3.10
   0   3   2   80.89    3.20
   0   3   2   79.69    3.10
   0   3   2   83.59    3.80
  -1  -3  -2   21.20    1.20
  -1  -3  -2   21.90    1.10
  -1  -3  -2   14.30   11.20
   1   3   2   21.50    1.10
   1   3   2   22.00    2.50
   1   3   2   20.00    1.40
  -2  -3  -2    4.00    0.70
  -2  -3  -2    3.40    0.80
  -2  -3  -2   -0.10    1.80
  -2  -3  -2    3.20    0.60
   2   3   2    3.10    0.50
   2   3   2   10.80   19.00
  -3  -3  -2   18.20    2.20
  -3  -3  -2   23.50    4.00
  -3  -3  -2   18.40    1.40
  -3  -3  -2   18.60    1.50
   3   3   2   55.89   44.50
   3   3   2   17.50    1.30
  -4  -3  -2   89.59    5.20
  -4  -3  -2   91.99    3.60
  -4  -3  -2   89.19    8.50
  -4  -3  -2   87.19    4.40
   4   3   2   93.29    4.10
   4   3   2   92.69    3.20
   4   3   2   89.99    3.60
  -5  -3  -2    6.10    5.60
  -6  -3  -2    8.80    0.90
   6   3   2    7.70    0.40
   6   3   2    7.50    0.60
   7  -4  -2   13.80    0.50
  -6   4   2   38.50    1.70
  -6   4   2   38.00    1.50
   5  -4  -2   43.30    3.30
   5  -4  -2   40.30    1.50
  -5   4   2   40.20    2.40
  -5   4   2   40.50    1.60
  -5   4   2   41.00    1.60
  -5   4   2   34.10    2.60
  -5   4   2   38.10    1.60
   4  -4  -2  214.08    9.10
   4  -4  -2  222.88    7.30
  -4   4   2  222.68    8.60
  -4   4   2  226.38    8.30
  -4   4   2  224.78    7.40
  -4   4   2  208.48    7.40
  -4   4   2  224.08    9.50
  -4   4   2  225.28    7.40
   3  -4  -2  427.36   14.50
   3  -4  -2  452.35   15.90
  -3   4   2  465.95   14.70
  -3   4   2  440.16   14.60
  -3   4   2  449.26   15.30
  -3   4   2  450.55   16.30
   2  -4  -2  868.01   46.40
  -2   4   2  799.62   29.60
  -2   4   2  914.41   29.30
   1  -4  -2  345.87   24.50
  -1   4   2  381.76   13.30
  -1   4   2  360.06   12.90
  -1   4   2  379.36   12.60
   0  -4  -2    0.10    0.20
   0  -4  -2   -2.10    9.60
   0   4   2    0.20    0.30
   0   4   2   -1.30    0.90
   0   4   2    0.10    0.30
  -1  -4  -2  251.47    8.60
  -1  -4  -2  253.97   27.60
  -1  -4  -2  237.88    8.40
   1   4   2  245.68   10.30
   1   4   2  252.37    8.70
   1   4   2  245.88    9.10
  -2  -4  -2  764.72   27.90
  -2  -4  -2  781.02   26.30
  -2  -4  -2  740.13   25.30
   2   4   2  732.53   61.19
  -3  -4  -2   10.70    0.90
  -3  -4  -2    9.40    1.70
  -3  -4  -2   11.00    2.00
  -3  -4  -2    8.30    3.70
   3   4   2   10.90    1.00
   3   4   2   11.00    1.30
   3   4   2   10.80    0.60
  -4  -4  -2   12.70    5.40
  -4  -4  -2   10.60    2.00
  -4  -4  -2    9.80    0.90
   4   4   2   10.40    0.60
   4   4   2    8.70    0.90
   4   4   2    7.50    1.10
  -5  -4  -2   13.90    1.00
  -5  -4  -2    4.50    7.40
   5   4   2   12.70    1.00
   5   4   2   12.70    0.70
  -6  -4  -2   12.70    0.70
   6  -5  -2  178.78    5.80
  -6   5   2  176.38    5.90
   5  -5  -2    2.50    0.30
   5  -5  -2    2.70    1.30
  -5   5   2    1.20    0.60
  -5   5   2    2.60    0.30
  -5   5   2    2.60    2.80
   4  -5  -2  121.09    4.50
   4  -5  -2  131.49    6.30
  -4   5   2  128.19    5.50
  -4   5   2  136.19    4.40
  -4   5   2  127.59    5.40
  -4   5   2  121.39    6.70
   3  -5  -2    1.00    0.90
  -3   5   2    0.30    1.60
  -3   5   2    1.60    0.50
  -3   5   2    1.10    0.40
  -3   5   2    0.80    0.20
   2  -5  -2   -2.00   18.30
   2  -5  -2   18.30    1.40
  -2   5   2   18.50    2.30
  -2   5   2   20.10    1.40
  -2   5   2   19.90    1.80
   1  -5  -2  295.17   27.30
   1  -5  -2  316.37   10.60
  -1   5   2  306.47   11.50
  -1   5   2  304.17   10.70
  -1   5   2  284.37   10.90
   0  -5  -2   51.89    2.30
   0  -5  -2   30.40   14.00
   0   5   2   48.60    2.50
   0   5   2   51.19    2.40
   0   5   2   45.80    3.40
  -1  -5  -2 1024.10   57.79
   1   5   2 1015.10   34.40
   1   5   2 1026.70   35.80
  -2  -5  -2   29.80    1.30
  -2  -5  -2   28.80    2.40
  -2  -5  -2   30.80    1.70
  -2  -5  -2   32.40    4.70
  -2  -5  -2   30.00    1.90
  -2  -5  -2   26.80    1.50
  -2  -5  -2   27.00    1.10
   2   5   2   29.70    1.70
   2   5   2   27.30    1.20
   2   5   2   24.60   38.30
  -3  -5  -2   22.30    2.70
  -3  -5  -2   29.70    5.60
  -3  -5  -2   21.80    1.30
  -3  -5  -2   19.90    1.60
   3   5   2   20.00    1.30
   3   5   2   24.20    1.30
   3   5   2   21.40    1.60
  -4  -5  -2   -0.30    7.50
  -4  -5  -2   -0.10    0.80
  -4  -5  -2    0.20    0.40
  -4  -5  -2    0.00    0.50
   4   5   2    0.30    0.20
   4   5   2    0.00    0.40
   4   5   2    0.30    0.40
  -5  -5  -2   21.30    1.20
   5   5   2   21.50    0.90
   5   5   2   23.50    1.50
  -6  -5  -2   63.89    2.30
   6  -6  -2    4.80    0.30
   5  -6  -2    0.50    0.30
   5  -6  -2    0.40    0.20
  -5   6   2    1.00    0.60
  -5   6   2    0.10    3.30
  -5   6   2    1.00    0.30
   4  -6  -2   55.49    1.90
   4  -6  -2   52.59    2.10
  -4   6   2   52.69    4.90
  -4   6   2   51.49    3.70
  -4   6   2   53.59    2.00
   3  -6  -2   51.59    3.20
   3  -6  -2   43.60    1.80
   3  -6  -2   47.60    1.60
  -3   6   2   46.90    1.80
  -3   6   2   44.80    2.60
   2  -6  -2   47.90    1.70
   2  -6  -2   45.80    1.90
   2  -6  -2   43.80   24.00
   2  -6  -2   46.40    2.70
  -2   6   2   48.20    1.80
  -2   6   2   49.80    3.90
  -2   6   2   51.89    2.60
   1  -6  -2    5.10    0.80
   1  -6  -2   -9.10   16.30
   1  -6  -2    4.10    0.30
  -1   6   2    2.80    1.70
  -1   6   2    2.50    0.80
  -1   6   2    4.00    0.80
  -1   6   2    4.10    0.40
   0  -6  -2   33.80    1.80
   0  -6  -2   31.70    1.20
   0  -6  -2    9.80   17.00
   0   6   2   31.00    1.20
   0   6   2   31.90    2.00
   0   6   2   32.40    2.10
   0   6   2   34.10    5.60
  -1  -6  -2   65.09    3.00
  -1  -6  -2   57.89   23.60
  -1  -6  -2   67.89    2.50
  -1  -6  -2   66.89    2.30
   1   6   2   63.99    2.30
   1   6   2   66.39    3.60
   1   6   2   63.89    2.60
   1   6   2   66.69    3.10
   1   6   2   74.99    6.90
  -2  -6  -2   19.60    2.60
  -2  -6  -2   18.40    0.70
  -2  -6  -2   19.60    1.00
  -2  -6  -2   14.30    1.50
  -2  -6  -2   18.70    1.20
  -2  -6  -2   18.00    4.60
   2   6   2   19.20    1.50
   2   6   2   18.50    0.90
   2   6   2   -2.90   54.09
  -3  -6  -2   19.10    2.70
  -3  -6  -2   19.50    5.70
  -3  -6  -2   22.60    1.40
   3   6   2   24.50    1.40
   3   6   2   22.00    1.70
   3   6   2   24.10    1.10
  -4  -6  -2   15.60    1.10
  -4  -6  -2    8.60    6.90
  -4  -6  -2   12.10    2.30
   4   6   2   15.40    0.80
   4   6   2   16.50    1.10
   5   6   2  118.89    4.40
   5   6   2  122.49    4.00
   6  -7  -2   28.70    1.00
  -6   7   2   31.80    1.20
   5  -7  -2   75.19    2.60
  -5   7   2   77.69    2.70
   4  -7  -2    1.80    1.30
   4  -7  -2    1.90    0.20
   4  -7  -2    1.50    0.30
  -4   7   2    2.40    0.40
  -4   7   2    1.40    0.60
  -4   7   2    5.00    3.20
   3  -7  -2  165.48    6.10
   3  -7  -2  178.88    5.80
   3  -7  -2  176.28    7.90
  -3   7   2  185.48    6.00
  -3   7   2  168.58    7.10
  -3   7   2  172.78    8.90
   2  -7  -2   59.99    2.00
   2  -7  -2   55.29    3.30
   2  -7  -2   53.79    2.20
  -2   7   2   54.59    2.00
  -2   7   2   57.09    3.10
  -2   7   2   62.79    4.70
  -2   7   2   56.89    2.10
   1  -7  -2  118.79   28.40
   1  -7  -2  101.79    4.50
   1  -7  -2   98.99    3.20
   1  -7  -2   95.99    3.50
  -1   7   2   89.79    4.80
  -1   7   2   95.89    4.50
  -1   7   2   97.69    3.30
  -1   7   2   92.19    6.30
  -1   7   2   98.49    3.50
   0  -7  -2  316.67   10.40
   0  -7  -2  317.47   10.00
   0  -7  -2  308.67   11.10
   0   7   2  300.77   10.30
   0   7   2  300.97   13.50
   0   7   2  321.37   11.80
   0   7   2  294.67   10.10
   0   7   2  299.57   11.40
  -1  -7  -2   12.40    0.60
  -1  -7  -2  -33.40   29.80
  -1  -7  -2   13.30    0.90
  -1  -7  -2   12.70    0.80
   1   7   2   12.80    0.70
   1   7   2   14.60    2.00
   1   7   2   12.80    0.90
   1   7   2   11.90    1.40
   1   7   2    8.20    5.30
  -2  -7  -2  195.58    8.90
  -2  -7  -2  200.48    6.90
  -2  -7  -2  204.48   11.90
   2   7   2  187.28    6.90
   2   7   2  192.38    6.50
   2   7   2  182.58    7.50
  -3  -7  -2    1.20    0.40
  -3  -7  -2   -0.20    0.90
  -3  -7  -2   11.00    5.90
   3   7   2    0.60    0.40
   3   7   2    1.00    0.30
   3   7   2    0.50    0.60
  -4  -7  -2   30.10    1.50
   4   7   2   28.00    1.50
   4   7   2   26.90    1.10
  -5  -7  -2    0.20    0.20
   5  -8  -2   24.40    1.10
   5  -8  -2   22.70    0.90
   4  -8  -2   29.00    1.10
   4  -8  -2   30.00    1.30
  -4   8   2   29.00    1.30
   3  -8  -2  151.78    7.70
   3  -8  -2  166.58    5.70
   3  -8  -2  163.38    5.40
  -3   8   2  170.88    5.70
   2  -8  -2  561.44   21.60
   2  -8  -2  602.94   19.90
  -2   8   2  639.54   23.60
  -2   8   2  615.54   21.40
   1  -8  -2  207.68    8.40
   1  -8  -2  132.19   48.70
   1  -8  -2  211.88    6.80
  -1   8   2  201.68    8.50
  -1   8   2  206.48   11.10
  -1   8   2  191.78    6.80
  -1   8   2  212.28    7.10
   0  -8  -2  123.79    4.30
   0  -8  -2   99.99    4.00
   0  -8  -2  128.29   39.30
   0   8   2  102.69    5.50
   0   8   2  120.79    5.90
   0   8   2  120.19    4.00
  -1  -8  -2    9.50    0.90
   1   8   2   12.80    1.70
   1   8   2    9.10    0.80
   1   8   2    9.40    0.60
  -2  -8  -2    7.10    8.20
  -2  -8  -2   12.10    2.10
  -2  -8  -2   15.70    1.10
   2   8   2   15.20    1.10
   2   8   2   13.50    0.70
  -3  -8  -2    5.70   12.70
   4   8   2    7.20    0.40
   4   8   2    7.10    0.70
   5  -9  -2   -0.20    0.20
  -5   9   2   -0.20    0.10
   4  -9  -2    0.00    0.10
  -4   9   2    0.20    0.20
   3  -9  -2  106.09    3.50
   3  -9  -2  104.39    3.90
  -3   9   2  112.29   12.80
  -3   9   2  109.19    3.80
   2  -9  -2   14.60    0.60
   2  -9  -2   13.20    0.90
  -2   9   2   11.00    1.70
  -2   9   2   13.50    0.80
  -2   9   2   21.90    5.90
   1  -9  -2  129.89    4.70
   1  -9  -2  129.39    4.30
  -1   9   2  128.29    6.30
  -1   9   2  132.69    4.60
  -1   9   2  123.09   10.60
  -1   9   2  123.09    4.30
   0  -9  -2   -2.00   54.19
   0  -9  -2    8.90    0.80
   0   9   2    8.00    0.50
   0   9   2    8.50    0.80
  -1  -9  -2  130.19    4.80
  -1  -9  -2  125.59    6.80
  -1  -9  -2  110.69   12.90
   1   9   2  130.79    4.40
   1   9   2  130.09    4.80
  -2  -9  -2   48.50    2.20
   2   9   2   45.60    2.20
   2   9   2   48.50    1.80
  -3  -9  -2   54.29    2.20
   3   9   2   45.30    1.90
   3   9   2   54.49    2.20
  -4  -9  -2   43.80    1.80
   4 -10  -2    0.10    0.20
  -4  10   2    0.30    0.20
   3 -10  -2   62.99    2.50
  -3  10   2   65.19    2.40
   2 -10  -2    0.20    0.30
  -2  10   2    0.20    0.30
   1 -10  -2   37.40    1.70
  -1  10   2   36.50    1.70
   0 -10  -2    1.00    0.40
   0  10   2    1.20    0.40
  -1 -10  -2   40.50    1.80
   1  10   2   36.90    1.40
  -2 -10  -2   30.10    1.50
   2  10   2   32.80    1.70
  -3 -10  -2   51.09    2.10
   3  10   2   52.39    2.10
   3 -11  -2   41.80    1.70
  -3  11   2   43.10    1.70
  -2  11   2    6.20    0.60
   1 -11  -2    2.10    0.40
  -1  11   2    1.40    0.30
   0 -11  -2    1.10    0.30
   0  11   2    1.90    0.40
  -1 -11  -2   15.10    1.00
   1  11   2   14.50    0.90
  -2 -11  -2    0.50    0.30
   2  11   2    0.60    0.30
   2 -12  -2    0.30    0.20
  -2  12   2    0.10    0.20
   1 -12  -2   19.80    1.00
  -1  12   2   19.10    1.00
   0 -12  -2    2.10    0.30
   0  12   2    3.10    0.40
  -1 -12  -2    3.30    0.40
   1  12   2    4.30    0.40
   2  13  -3    1.50    0.20
  -2 -13   3    1.70    0.20
   1  13  -3    2.80    0.30
  -1 -13   3    2.80    0.40
   0  13  -3    0.10    0.20
  -1  13  -3   15.60    0.70
  -2  13  -3    0.30    0.30
   2 -13   3    0.30    0.30
   2 -13   3    0.30    0.20
  -3  13  -3   39.40    1.60
   3 -13   3   40.30    1.50
   3  12  -3   29.10    1.10
  -3 -12   3   27.70    1.10
   2  12  -3   52.19    1.90
  -2 -12   3   51.29    2.10
  -2 -12   3   52.99    2.10
   1  12  -3  154.58    5.20
  -1 -12   3  157.38    5.40
  -1 -12   3  149.49    5.30
   0  12  -3   21.10    0.90
   0 -12   3   47.30   46.00
   0 -12   3   18.90    1.00
   0 -12   3   17.40    1.10
   0 -12   3   20.30    1.10
  -1  12  -3    2.50    0.70
  -1  12  -3    5.80    0.40
   1 -12   3    4.50    0.50
   1 -12   3    4.40    0.50
  -2  12  -3   33.30    1.20
  -2  12  -3   32.90    1.50
   2 -12   3   34.70    1.50
  -3  12  -3   32.70    1.40
   3 -12   3   40.40    1.60
  -4  12  -3   11.40    0.60
   4 -12   3   12.80    0.60
   4  11  -3    0.90    0.20
   3  11  -3   42.80    1.60
  -3 -11   3   42.60    1.70
  -3 -11   3   42.20    1.70
   2  11  -3   41.80    1.60
  -2 -11   3   42.90    1.80
  -2 -11   3   27.80    6.50
  -2 -11   3   41.00    1.70
   1  11  -3  167.68    7.90
  -1 -11   3  169.08    6.00
  -1 -11   3  184.98    6.00
   0  11  -3    4.50    1.20
   0  11  -3    5.60    0.50
   0 -11   3    7.60    0.60
   0 -11   3    5.80    0.60
   0 -11   3    4.10    0.50
   0 -11   3    8.70   28.90
  -1  11  -3  103.19    3.50
  -1  11  -3   96.69    4.00
   1 -11   3  106.39    3.70
   1 -11   3   49.60   29.50
  -2  11  -3   45.00    1.60
  -2  11  -3   43.60    1.80
   2 -11   3   57.09   34.10
   2 -11   3   43.10    1.80
  -3  11  -3   43.40    1.60
  -3  11  -3   45.80    1.80
   3 -11   3   46.10    1.80
  -4  11  -3    1.70    0.20
   4 -11   3    2.00    0.30
   4  10  -3   12.30    0.60
  -4 -10   3   11.20    0.70
   3  10  -3    3.90    0.40
  -3 -10   3   -1.90    5.80
  -3 -10   3    4.40    0.50
  -3 -10   3    4.60    0.60
   2  10  -3   18.50    2.00
   2  10  -3   18.50    0.90
  -2 -10   3   18.70    1.10
  -2 -10   3   17.90    1.00
  -2 -10   3   14.60    4.00
  -2 -10   3   13.30    1.80
  -2 -10   3   17.50    1.00
   1  10  -3   82.29    4.20
   1  10  -3   74.99    2.70
  -1 -10   3   71.79    2.90
  -1 -10   3   76.59    2.80
  -1 -10   3   68.59   25.00
  -1 -10   3   77.09    2.90
   0  10  -3    4.10    0.40
   0 -10   3    3.20    0.40
   0 -10   3    9.70   19.00
   0 -10   3    4.00    0.40
  -1  10  -3   56.59    1.90
  -1  10  -3   50.89    2.10
   1 -10   3   52.79    2.10
   1 -10   3   36.90   20.40
  -2  10  -3   49.10    1.70
  -2  10  -3   43.80    3.80
  -2  10  -3   44.50    1.90
   2 -10   3    9.50   33.30
   2 -10   3   45.80    1.90
  -3  10  -3   66.69    2.50
  -3  10  -3   67.99    2.30
   3 -10   3    4.50   35.00
   3 -10   3   69.89    2.60
  -4  10  -3  104.09    3.70
   4 -10   3  107.99    3.80
  -5  10  -3   12.30    0.60
   5 -10   3   13.60    0.70
   5   9  -3    0.80    0.20
   4   9  -3    2.10    0.30
  -4  -9   3    1.60    0.40
  -4  -9   3    2.00    4.60
  -4  -9   3    2.00    0.40
   3   9  -3   10.00    1.20
   3   9  -3   10.80    0.70
  -3  -9   3   10.60    0.70
  -3  -9   3   11.30    0.80
  -3  -9   3    6.70    3.60
  -3  -9   3   11.00    1.70
  -3  -9   3    9.60    0.70
  -3  -9   3   10.10    1.60
   2   9  -3   28.20    1.20
  -2  -9   3   26.30    1.40
  -2  -9   3   30.80    2.30
  -2  -9   3   30.30    1.30
  -2  -9   3   27.90    4.20
  -2  -9   3   31.60    2.40
  -2  -9   3   31.70    1.50
   1   9  -3   21.10    1.70
   1   9  -3   17.60    0.80
  -1  -9   3   16.90    1.70
  -1  -9   3   17.90    1.00
  -1  -9   3   18.50    0.90
  -1  -9   3   28.00   17.70
   0   9  -3   89.19    3.10
   0   9  -3   94.49    4.50
   0  -9   3   91.19    3.20
   0  -9   3   94.59    3.30
   0  -9   3   45.20   15.90
  -1   9  -3   26.30    1.20
  -1   9  -3   22.20    2.20
  -1   9  -3   24.80    1.00
   1  -9   3   25.00    1.10
   1  -9   3    7.40   14.30
  -2   9  -3  116.69    6.30
  -2   9  -3  117.99    4.00
   2  -9   3  118.79    4.10
   2  -9   3   80.79   21.80
  -3   9  -3  156.28    5.10
  -3   9  -3  156.58    5.30
   3  -9   3  154.78    5.40
   3  -9   3   57.49   33.80
  -4   9  -3   17.10    0.90
  -4   9  -3   16.30    0.70
   4  -9   3   18.20    0.90
  -5   9  -3    0.00    0.20
   5  -9   3    0.10    0.20
   5   8  -3    2.30    0.30
  -5  -8   3    3.10    0.30
   4   8  -3  123.69    4.20
   4   8  -3  108.39    5.30
  -4  -8   3  116.19    4.50
  -4  -8   3  112.49    5.50
  -4  -8   3  126.19    4.30
  -4  -8   3  120.59    8.00
  -4  -8   3  118.79    5.70
  -4  -8   3  112.19    4.10
   3   8  -3   87.19    3.90
   3   8  -3   79.59    2.90
  -3  -8   3   81.29    3.20
  -3  -8   3   82.49    6.60
  -3  -8   3   80.39    4.50
  -3  -8   3   86.39    4.70
  -3  -8   3   81.89    3.00
  -3  -8   3   77.19    3.10
   2   8  -3    3.30    0.70
   2   8  -3    2.70    0.30
  -2  -8   3    2.70    0.40
  -2  -8   3    3.40    0.50
  -2  -8   3    3.20    0.50
  -2  -8   3    2.20    0.80
  -2  -8   3    2.30    2.10
  -2  -8   3    2.80    0.80
   1   8  -3   19.30    0.90
   1   8  -3   21.30    1.50
  -1  -8   3    9.40   13.00
  -1  -8   3   22.30    1.10
  -1  -8   3   23.10    1.70
  -1  -8   3   22.10    0.90
  -1  -8   3   20.90    1.10
   0   8  -3   85.89    4.00
   0  -8   3   86.09    3.00
   0  -8   3   86.69    3.00
   0  -8   3   56.39   13.20
  -1   8  -3  168.58    7.20
  -1   8  -3  173.18    5.60
   1  -8   3  167.98    5.80
   1  -8   3  165.68   19.70
  -2   8  -3   63.39    2.40
  -2   8  -3   68.59    2.30
  -2   8  -3   64.79    4.10
   2  -8   3   73.39   17.50
   2  -8   3   64.69    2.40
  -3   8  -3   39.10    1.40
  -3   8  -3   34.70    3.40
  -3   8  -3   36.30    1.50
   3  -8   3   37.40   26.00
   3  -8   3   39.00    1.60
  -4   8  -3   12.30    0.70
  -4   8  -3   11.80    0.50
   4  -8   3   13.20    0.80
   4  -8   3   30.90   47.60
  -5   8  -3    2.10    0.30
   5  -8   3    1.50    0.30
  -6   8  -3    0.50    0.20
   6  -8   3    0.50    0.20
   6   7  -3    0.30    0.20
  -6  -7   3    0.30    0.20
   5   7  -3   30.70    1.30
  -5  -7   3   30.40    1.30
  -5  -7   3   31.60    1.40
   4   7  -3  222.58    8.00
  -4  -7   3  201.48    8.50
  -4  -7   3  194.98    8.50
  -4  -7   3  205.38    7.20
  -4  -7   3  213.78    7.20
  -4  -7   3  215.08    7.30
   3   7  -3   48.10    2.40
   3   7  -3   47.50    1.80
  -3  -7   3   49.99    2.90
  -3  -7   3   49.10    3.10
  -3  -7   3   48.50    2.00
  -3  -7   3   48.20    1.90
  -3  -7   3   53.09    5.10
  -3  -7   3   49.00    2.10
   2   7  -3   19.70    1.30
   2   7  -3   18.20    0.80
  -2  -7   3   18.70    1.00
  -2  -7   3   12.00    2.50
  -2  -7   3   20.50    0.90
  -2  -7   3   18.60    2.60
  -2  -7   3   18.90    1.00
  -2  -7   3   19.70    1.60
   1   7  -3   61.49    2.60
  -1  -7   3   30.50   10.40
  -1  -7   3   54.19    2.90
   0   7  -3   24.90    1.60
   0  -7   3   29.10    8.60
   0  -7   3   25.30    1.80
  -1   7  -3  116.39    5.10
   1  -7   3  103.49   14.90
  -2   7  -3   15.60    0.60
  -2   7  -3   15.00    1.30
  -2   7  -3   16.30    2.00
  -2   7  -3   14.60    3.90
   2  -7   3   13.00   11.90
   2  -7   3   16.50    0.80
  -3   7  -3   20.20    0.80
  -3   7  -3   20.80    2.20
  -3   7  -3   20.30    1.00
  -3   7  -3   27.20    5.30
  -3   7  -3   17.50    2.40
   3  -7   3   19.60    0.70
   3  -7   3   21.40    1.00
   3  -7   3   39.90   21.70
  -4   7  -3    9.50    0.60
  -4   7  -3    9.30    0.50
   4  -7   3    9.50   39.40
   4  -7   3    9.20    0.40
   4  -7   3   10.00    0.70
  -5   7  -3    1.20    0.30
   5  -7   3    1.90    0.30
  -6   7  -3   23.90    1.00
   6  -7   3   24.10    1.00
   6   6  -3   12.40    0.70
  -6  -6   3   13.40    0.70
  -6  -6   3   13.20    0.50
   5   6  -3   78.99    3.60
   5   6  -3   74.69    2.70
  -5  -6   3   72.29    4.00
  -5  -6   3   63.99    5.60
  -5  -6   3   70.79    4.10
  -5  -6   3   76.59    2.80
  -5  -6   3   71.69    2.80
   4   6  -3   17.00    0.90
  -4  -6   3   16.40    1.00
  -4  -6   3   15.50    1.00
  -4  -6   3   16.20    1.90
  -4  -6   3   11.50    3.20
  -4  -6   3   16.30    2.20
  -4  -6   3   18.10    1.00
   3   6  -3    3.80    0.40
   3   6  -3    2.70    0.60
  -3  -6   3    3.90    0.40
  -3  -6   3    5.60    2.60
  -3  -6   3    3.50    0.80
  -3  -6   3    3.90    0.50
  -3  -6   3    3.00    0.80
  -3  -6   3    3.00    0.50
   2   6  -3   76.29    3.00
  -2  -6   3   70.79    4.50
  -2  -6   3   74.29    3.50
  -2  -6   3   78.29    3.60
   1   6  -3  133.09    4.80
  -1  -6   3  125.59   14.50
  -1  -6   3  114.79    4.90
  -1  -6   3  149.09    8.50
  -1  -6   3  134.19    5.20
   0   6  -3 1542.05   51.69
   0  -6   3 1629.54   60.79
  -1   6  -3   33.10    3.80
  -1   6  -3   36.00    2.10
  -1   6  -3   37.40    1.90
   1  -6   3   34.70    8.40
   1  -6   3   34.10    2.00
  -2   6  -3  214.98    9.00
  -2   6  -3  204.58    7.70
  -2   6  -3  207.88    8.40
   2  -6   3  199.68    8.00
   2  -6   3  181.48   21.30
  -3   6  -3   50.99    2.80
  -3   6  -3   47.70    1.90
  -3   6  -3   50.99    5.50
  -3   6  -3   49.60    1.70
  -3   6  -3   50.19    3.40
   3  -6   3   48.70    1.90
   3  -6   3   34.50   19.90
   3  -6   3   49.70    1.70
   3  -6   3   44.20    3.10
  -4   6  -3   23.20    4.70
  -4   6  -3   26.80    1.00
  -4   6  -3   26.60    1.20
  -4   6  -3   26.50    2.20
   4  -6   3   27.30    1.30
   4  -6   3   22.60   37.70
   4  -6   3   27.20    1.00
  -5   6  -3   24.70    1.10
   5  -6   3   24.60    1.20
   6  -6   3   28.80    1.20
   6   5  -3   10.00    0.60
  -6  -5   3   10.10    0.60
   5   5  -3   88.99    3.20
   5   5  -3   88.49    4.10
  -5  -5   3   89.19    3.30
  -5  -5   3   85.29    4.60
  -5  -5   3   89.29    6.10
  -5  -5   3   99.29    4.40
  -5  -5   3   93.19    3.40
   4   5  -3   51.59    2.00
   4   5  -3   56.39    2.80
  -4  -5   3   51.59    2.20
  -4  -5   3   54.59    4.90
  -4  -5   3   51.09    2.10
  -4  -5   3   54.49    3.10
  -4  -5   3   54.89    3.20
  -4  -5   3   51.79    2.20
  -3  -5   3   23.60    1.20
  -3  -5   3   26.20    1.10
  -3  -5   3   25.10    1.20
  -3  -5   3   26.60    2.00
  -3  -5   3   23.10    3.10
  -3  -5   3   27.60    1.90
   2   5  -3   65.89    2.60
  -2  -5   3   69.59    3.00
  -2  -5   3   65.89    3.00
  -2  -5   3   66.39    3.80
  -2  -5   3   59.49    2.60
  -2  -5   3   57.99    3.90
   1   5  -3  186.18    6.30
  -1  -5   3  178.08    6.40
  -1  -5   3  186.38    6.70
  -1  -5   3  183.58   14.20
  -1  -5   3  175.08    7.00
   0  -5   3 1211.58   40.50
   0  -5   3 1249.07   46.80
  -1   5  -3    0.10    1.60
  -1   5  -3    0.30    0.40
  -1   5  -3    0.40    0.30
   1  -5   3    0.80    0.40
   1  -5   3    4.60    5.60
  -2   5  -3  107.89    4.40
  -2   5  -3  109.69    4.90
   2  -5   3   99.99   15.30
   2  -5   3  107.79    4.70
  -3   5  -3   26.00    0.90
  -3   5  -3   25.30    1.20
  -3   5  -3   27.60    1.90
  -3   5  -3   31.00    4.00
  -3   5  -3   24.30    2.20
   3  -5   3   24.10    1.30
   3  -5   3   21.80    1.90
   3  -5   3    9.60   18.50
  -4   5  -3   22.10    5.10
  -4   5  -3   19.30    2.10
  -4   5  -3   19.80    3.00
  -4   5  -3   23.10    0.90
   4  -5   3   47.80   60.79
  -5   5  -3   82.39    3.10
  -5   5  -3   88.49    9.70
   5  -5   3   86.59    3.20
  -6   5  -3   28.20    1.20
   6  -5   3   28.20    1.20
   6   4  -3   24.90    1.00
  -6  -4   3   22.00    1.00
  -6  -4   3   22.20    1.00
   5   4  -3   15.40    1.70
   5   4  -3   12.80    0.80
  -5  -4   3   11.30    1.60
  -5  -4   3   14.00    0.90
  -5  -4   3   13.60    0.90
  -5  -4   3   13.30    1.50
  -5  -4   3   12.50    4.40
   4   4  -3   17.80    0.90
   4   4  -3   19.00    1.50
  -4  -4   3   18.80    1.10
  -4  -4   3   21.00    1.70
  -4  -4   3   19.50    1.80
  -4  -4   3   19.00    1.00
  -4  -4   3   17.60    2.80
  -4  -4   3   19.30    1.00
   3   4  -3    0.80    0.40
  -3  -4   3    1.50    1.30
  -3  -4   3    1.40    0.40
  -3  -4   3    1.60    0.60
  -3  -4   3   -0.30    2.20
  -3  -4   3    1.50    0.60
   2   4  -3  104.29    3.90
  -2  -4   3  108.59    4.30
  -2  -4   3  106.89    4.60
  -2  -4   3  103.79    3.90
   1   4  -3   29.70    1.20
  -1  -4   3   30.70    5.80
  -1  -4   3   27.10    1.20
  -1  -4   3   28.50    1.50
  -1  -4   3   30.80    1.80
   0   4  -3   49.00    1.90
   0  -4   3   44.50    2.00
   0  -4   3   46.90    2.80
   0  -4   3   51.29    2.20
   0  -4   3   52.59    6.10
  -1   4  -3  130.49    5.00
  -1   4  -3  128.49    5.50
  -1   4  -3  130.19    4.80
   1  -4   3  128.29    4.90
   1  -4   3  134.69   12.60
  -2   4  -3   28.80    1.90
  -2   4  -3   25.60    1.60
  -2   4  -3   30.10    3.10
   2  -4   3   28.90   11.50
   2  -4   3   25.70    1.70
  -3   4  -3   33.10    2.40
  -3   4  -3   34.00    4.00
  -3   4  -3   33.90    1.20
   3  -4   3   31.90   19.30
   3  -4   3   33.10    2.30
  -4   4  -3  135.39    8.30
  -4   4  -3  129.39    4.60
  -4   4  -3  118.89    6.20
  -4   4  -3  126.59    4.20
   4  -4   3  246.48   45.40
   4  -4   3  128.49    4.60
   4  -4   3  130.69    6.40
   4  -4   3  130.09    4.30
  -5   4  -3   13.30    0.80
  -5   4  -3    8.30    1.50
  -5   4  -3   11.50    5.50
   5  -4   3   12.60    0.80
  -6   4  -3    2.60    0.30
  -6   4  -3    1.90    0.30
   6  -4   3    1.10    0.40
   7   3  -3    2.90    0.20
  -7  -3   3    3.50    0.40
   6   3  -3   14.80    0.70
  -6  -3   3    8.70    2.50
  -6  -3   3   14.30    0.70
  -6  -3   3   13.80    0.80
   5   3  -3   11.50    1.50
   5   3  -3   12.50    0.70
  -5  -3   3   11.30    0.80
  -5  -3   3   11.10    2.60
  -5  -3   3   11.30    1.70
  -5  -3   3   12.30    0.80
   4   3  -3    0.40    0.40
  -4  -3   3    0.30    1.60
  -4  -3   3    0.00    0.40
  -4  -3   3    0.70    0.50
  -4  -3   3    0.60    0.30
  -4  -3   3    0.50    0.30
  -4  -3   3    0.50    0.30
   3   3  -3   10.10    1.00
  -3  -3   3   10.50    1.10
  -3  -3   3    8.70    2.10
  -3  -3   3   11.90    1.80
  -3  -3   3    9.90    0.80
  -3  -3   3    9.50    1.10
   2   3  -3  100.69    3.70
  -2  -3   3   98.09    3.90
  -2  -3   3   93.39    3.50
  -2  -3   3   95.79    4.00
   1   3  -3   42.60    1.60
   1   3  -3   44.40    1.60
  -1  -3   3   45.20    1.90
  -1  -3   3   46.20    5.40
  -1  -3   3   43.50    1.90
  -1  -3   3   43.80    1.60
   0   3  -3   76.79    2.90
   0   3  -3   79.89    2.80
   0  -3   3   79.79    3.10
   0  -3   3   92.99    6.60
   0  -3   3   82.29    3.60
   0  -3   3   81.89    3.00
  -1   3  -3   53.99    2.40
  -1   3  -3   54.79    2.40
  -1   3  -3   52.69    3.20
   1  -3   3   57.79    2.30
   1  -3   3   69.49    9.70
  -2   3  -3   68.69    4.30
  -2   3  -3   73.49    3.80
  -2   3  -3   70.19    3.30
   2  -3   3   78.59   15.00
   2  -3   3   77.39    3.30
  -3   3  -3   26.40    1.90
  -3   3  -3   25.20    2.00
  -3   3  -3   27.40    3.90
   3  -3   3   25.60    1.90
   3  -3   3   30.40   20.10
  -4   3  -3   -2.00    3.60
  -4   3  -3    1.60    0.20
  -4   3  -3    2.40    0.90
  -4   3  -3    1.40    0.40
  -4   3  -3    0.80    0.80
   4  -3   3    1.30    0.20
   4  -3   3    1.90    0.80
   4  -3   3    1.20    0.30
   4  -3   3   -6.30   37.40
  -5   3  -3    0.10    0.30
  -5   3  -3   -0.60    0.70
  -5   3  -3   -4.20    7.10
   5  -3   3    0.20    0.10
   5  -3   3   -0.10    0.20
  -6   3  -3    1.10    0.30
   6  -3   3    2.60    0.40
   7   2  -3    0.10    0.10
  -7  -2   3    0.20    0.20
  -7  -2   3   -0.10    0.10
   6   2  -3    7.00    0.50
  -6  -2   3    6.50    0.60
  -6  -2   3    7.10    0.50
   5   2  -3    0.30    0.20
  -5  -2   3    0.50    0.30
  -5  -2   3    0.40    0.50
  -5  -2   3    0.00    0.30
  -5  -2   3   -0.70    1.80
   4   2  -3    3.10    0.80
   4   2  -3    2.10    0.40
  -4  -2   3    2.10    0.40
  -4  -2   3    1.80    0.30
  -4  -2   3    1.80    0.70
  -4  -2   3    2.10    0.60
  -4  -2   3    2.60    1.50
   3   2  -3  190.18    7.10
  -3  -2   3  181.18    7.90
  -3  -2   3  184.78    7.00
  -3  -2   3  194.98    7.80
  -3  -2   3  204.78    7.40
   2   2  -3  253.17    9.00
  -2  -2   3  261.37    8.80
  -2  -2   3  269.57    9.30
  -2  -2   3  257.17    9.20
  -1  -2   3  425.56   13.90
   0   2  -3   38.40    1.40
   0   2  -3   38.20    1.50
   0  -2   3   38.50    1.70
   0  -2   3   38.10    1.50
   0  -2   3   39.00    1.90
   0  -2   3   54.19    5.20
  -1   2  -3   13.90    1.00
  -1   2  -3   15.10    1.90
  -1   2  -3   12.80    0.90
   1  -2   3   14.10    0.90
   1  -2   3   25.60    7.60
  -2   2  -3  233.88    9.90
  -2   2  -3  245.88    8.90
  -2   2  -3  235.18    8.80
   2  -2   3  245.08    8.60
   2  -2   3  238.08   24.80
  -3   2  -3   63.59    3.30
  -3   2  -3   60.59    4.80
  -3   2  -3   55.99    3.20
   3  -2   3   47.50   19.80
   3  -2   3   59.79    3.00
  -4   2  -3   -1.30    3.20
   4  -2   3   46.50   36.90
  -5   2  -3    0.70    5.10
  -5   2  -3    0.70    0.30
  -5   2  -3    0.50    0.80
   5  -2   3    0.30    0.20
   5  -2   3    0.20    0.30
  -6   2  -3    3.60    0.40
   7   1  -3    1.10    0.20
  -7  -1   3    1.20    0.20
  -7  -1   3    1.10    0.30
   6   1  -3    6.60    0.50
  -6  -1   3    6.00    0.80
  -6  -1   3    5.00    2.30
  -6  -1   3    6.30    0.50
  -6  -1   3    6.80    0.60
   5   1  -3    0.30    0.20
   5   1  -3   -0.20    0.50
  -5  -1   3    2.30    1.80
  -5  -1   3    0.00    0.20
  -5  -1   3    0.00    0.40
  -5  -1   3    0.30    0.60
  -5  -1   3    0.00    0.30
   4   1  -3  223.98    8.90
  -4  -1   3  238.68    9.10
  -4  -1   3  247.58    9.60
  -4  -1   3  225.78    7.90
   3   1  -3  159.18    6.30
  -3  -1   3  165.78    6.20
  -3  -1   3  165.58    6.80
  -3  -1   3  197.78   24.90
  -3  -1   3  179.28    6.50
   2   1  -3  235.18    8.30
  -2  -1   3  244.48    8.40
  -2  -1   3  251.07   18.20
  -2  -1   3  233.88    8.40
  -1  -1   3   14.30    0.50
  -1  -1   3   14.20    0.60
  -1  -1   3   13.80    0.80
  -1  -1   3   17.80    2.50
   0  -1   3  621.34   24.60
   1  -1   3 9999.00  333.17
  -2   1  -3    3.30    0.70
  -2   1  -3    3.80    0.80
  -2   1  -3    2.30    1.70
   2  -1   3   10.20   11.50
   2  -1   3    3.40    0.60
  -3   1  -3  112.19    6.90
  -3   1  -3  125.59    5.40
   3  -1   3  127.19    5.10
   3  -1   3  125.99   25.30
  -4   1  -3  134.29    4.80
  -4   1  -3  128.49    4.30
  -4   1  -3  133.39    9.90
  -4   1  -3  126.89    4.50
  -4   1  -3  136.69    6.40
   4  -1   3  136.59    4.50
   4  -1   3   62.39   43.40
   4  -1   3  126.79    5.70
   4  -1   3  133.19    4.80
  -5   1  -3   93.19    5.10
  -5   1  -3   95.19    5.30
  -5   1  -3   76.19    9.50
  -5   1  -3   99.29    3.70
   5  -1   3  102.69    3.30
   5  -1   3   95.59    3.70
  -6   1  -3    0.60    0.30
   6  -1   3    0.60    0.30
   7   0  -3    0.00    0.10
  -7   0   3   -0.10    0.10
  -7   0   3    0.10    0.20
   6   0  -3   20.20    0.90
  -6   0   3   15.90    2.70
  -6   0   3   20.70    1.00
  -6   0   3   20.20    1.50
  -6   0   3   20.50    0.90
  -6   0   3   20.40    1.10
   5   0  -3   22.70    2.10
   5   0  -3   22.50    1.00
  -5   0   3   22.00    1.10
  -5   0   3   22.00    1.10
  -5   0   3   23.70    2.90
  -5   0   3   23.20    1.70
  -5   0   3   22.90    2.10
   4   0  -3   53.99    3.00
  -4   0   3   50.59    2.10
  -4   0   3   54.29    3.50
  -4   0   3   52.19    2.10
  -4   0   3   54.79    2.80
  -3   0   3 1093.89   63.69
  -3   0   3 1215.38   39.20
  -2   0   3  318.47   23.30
  -2   0   3  339.67   11.40
   1   0  -3   41.00    1.40
   1   0  -3   38.80    1.50
  -1   0   3   32.50    5.50
  -1   0   3   38.60    1.60
  -1   0   3   39.70    1.40
   0   0   3 3686.93  122.79
  -1   0  -3  166.38    6.50
  -1   0  -3  177.68    6.40
   1   0   3  197.98   16.90
   1   0   3  181.98    6.10
  -2   0  -3  104.69    4.40
  -2   0  -3  106.99    4.60
   2   0   3  105.29    4.10
   2   0   3  116.89   19.50
  -3   0  -3  209.88   10.10
  -3   0  -3  205.38    7.90
  -3   0  -3  195.08    8.30
   3   0   3  168.78   29.70
   3   0   3  214.48    7.70
  -4   0  -3   15.80    4.10
   4   0   3  -81.09   45.30
  -5   0  -3  535.55   19.50
  -5   0  -3  578.34   26.70
  -5   0  -3  507.05   19.80
   5   0   3  520.25   17.70
  -6   0  -3    2.30    0.40
   6   0   3    2.30    0.30
   6   0   3    2.20    0.40
   7  -1  -3    4.80    0.30
  -7   1   3    4.70    0.30
  -7   1   3    4.70    0.40
   6  -1  -3   52.89    1.90
  -6   1   3   51.59    1.90
  -6   1   3   53.39    2.00
  -6   1   3   51.49    2.70
  -6   1   3   53.99    2.10
  -6   1   3   49.70    4.40
   5  -1  -3  190.38    8.30
   5  -1  -3  195.18    6.50
  -5   1   3  184.48    8.00
  -5   1   3  191.88    7.40
  -5   1   3  189.88    8.40
  -5   1   3  194.48    6.50
  -5   1   3  195.88    6.60
   4  -1  -3    0.20    0.40
   4  -1  -3    0.20    0.20
  -4   1   3    0.10    0.20
  -4   1   3    0.10    0.20
  -4   1   3    0.00    0.40
  -4   1   3   -0.20    1.10
   3  -1  -3   87.89    3.90
  -3   1   3   93.29    3.90
  -3   1   3   93.89    3.60
  -3   1   3   89.79    4.10
  -2   1   3   97.49    3.90
  -2   1   3  100.59    3.80
  -2   1   3   89.19   17.30
  -2   1   3   98.09    3.60
  -1   1   3 2823.62   98.09
   0   1   3  765.22   25.50
  -1  -1  -3    2.20    0.50
  -1  -1  -3    3.20    0.50
  -1  -1  -3    0.90    1.60
   1   1   3    3.70    0.40
   1   1   3    3.00    7.90
  -2  -1  -3  149.99    6.10
  -2  -1  -3  139.49    5.60
  -2  -1  -3  140.09    7.20
   2   1   3  157.48   22.90
   2   1   3  150.18    5.40
  -3  -1  -3   10.20    1.50
  -3  -1  -3   11.20    1.30
  -3  -1  -3   10.80    3.20
   3   1   3    9.40    0.50
   3   1   3   47.20   28.80
   3   1   3   11.00    1.00
  -4  -1  -3    2.00    0.80
  -4  -1  -3    2.30    1.10
  -4  -1  -3    9.90    6.40
  -4  -1  -3    2.20    0.20
  -4  -1  -3    2.30    0.50
   4   1   3    2.60    0.50
   4   1   3   15.00   61.89
   4   1   3    1.90    0.30
   4   1   3    3.00    0.80
  -5  -1  -3    1.00    1.00
  -5  -1  -3    7.80    5.70
  -5  -1  -3    0.90    0.40
  -5  -1  -3    0.60    0.70
   5   1   3    0.60    0.40
   5   1   3    1.00    0.20
  -6  -1  -3    2.30    0.40
   6   1   3    2.00    0.20
   6   1   3    1.80    0.30
  -7   2   3   29.10    1.10
  -7   2   3   30.60    1.20
   6  -2  -3   90.99    3.10
  -6   2   3   88.99    3.20
  -6   2   3   89.19    3.30
  -6   2   3   89.79    3.10
   5  -2  -3    2.40    0.30
   5  -2  -3    3.90    1.20
  -5   2   3    2.30    0.30
  -5   2   3    3.90    0.90
  -5   2   3    2.60    0.40
  -5   2   3    4.20    1.90
  -5   2   3    3.00    0.40
  -5   2   3    3.80    1.40
   4  -2  -3   31.70    1.30
   4  -2  -3   34.40    2.40
  -4   2   3   31.20    2.70
  -4   2   3   32.40    1.40
  -4   2   3   31.90    1.80
  -4   2   3   32.20    3.00
  -4   2   3   31.10    1.30
   3  -2  -3   17.40    1.40
  -3   2   3   18.50    1.20
  -3   2   3   18.40    1.30
  -3   2   3   18.60    1.70
   2  -2  -3   44.10    2.00
  -2   2   3   45.90    2.00
  -2   2   3   43.90    2.40
  -2   2   3   50.29    2.10
  -1   2   3  271.27    9.60
   0  -2  -3  826.42   41.70
   0   2   3  892.81   29.10
  -1  -2  -3  224.28    9.10
  -1  -2  -3  222.58    7.70
  -1  -2  -3  208.68    8.30
   1   2   3  205.38   21.90
   1   2   3  212.08    7.40
  -2  -2  -3    1.00    0.60
  -2  -2  -3    3.30    2.10
  -2  -2  -3    1.00    0.50
   2   2   3    1.50    0.40
   2   2   3  -19.10   15.30
  -3  -2  -3  112.09    3.80
  -3  -2  -3  114.29    5.60
  -3  -2  -3  120.59    4.90
  -3  -2  -3  113.59    5.00
  -3  -2  -3  112.09    4.20
  -3  -2  -3  117.39    7.80
   3   2   3   83.49   52.89
   3   2   3  111.19    4.30
   3   2   3  118.49    4.70
  -4  -2  -3   34.10    3.00
  -4  -2  -3   30.50    2.30
  -4  -2  -3   33.60    6.30
  -4  -2  -3   30.60    1.60
   4   2   3   31.70    1.30
   4   2   3   30.50    2.00
   4   2   3   30.90    1.60
  -5  -2  -3   30.10    3.20
  -5  -2  -3   10.30    7.10
   5   2   3   28.50    1.50
   5   2   3   29.90    1.50
  -6  -2  -3    0.50    0.30
   6   2   3    0.50    0.30
   7  -3  -3   28.40    1.00
  -7   3   3   28.70    1.10
   6  -3  -3   47.50    1.70
  -6   3   3   48.10    4.90
  -6   3   3   47.80    1.80
  -6   3   3   48.30    1.70
  -6   3   3   43.60    1.80
   5  -3  -3   13.10    0.60
   5  -3  -3    8.70    1.60
  -5   3   3   13.10    0.70
  -5   3   3   13.30    1.40
  -5   3   3   12.60    0.80
  -5   3   3   14.40    2.70
  -5   3   3   13.80    0.80
  -5   3   3   10.70    1.50
   4  -3  -3    0.00    0.10
   4  -3  -3    0.60    0.60
  -4   3   3    0.10    0.20
  -4   3   3    0.30    0.20
  -4   3   3    0.00    0.20
  -4   3   3    0.00    0.40
  -4   3   3   -1.20    1.30
   3  -3  -3   83.69    3.90
  -3   3   3   85.99    3.50
  -3   3   3   82.39    4.20
  -3   3   3   88.39    3.70
   2  -3  -3   35.00    1.70
   2  -3  -3   23.80   19.60
  -2   3   3   35.30    1.60
  -2   3   3   23.90    2.90
  -2   3   3   31.70    1.40
  -1   3   3 2130.09   69.69
   0  -3  -3    3.40    0.50
   0  -3  -3   22.40   11.90
   0   3   3    2.80    1.10
   0   3   3    3.50    0.50
   0   3   3    2.50    0.50
  -1  -3  -3  298.47   10.20
  -1  -3  -3  301.17   10.60
   1   3   3  304.37   10.30
  -2  -3  -3  190.08    9.60
  -2  -3  -3  193.78    7.20
  -2  -3  -3  198.58    7.20
   2   3   3  167.68   29.50
   2   3   3  197.18    7.00
  -3  -3  -3   83.79    3.30
  -3  -3  -3   80.49    3.70
  -3  -3  -3   83.99    4.20
  -3  -3  -3   81.89    2.80
  -3  -3  -3   90.19    7.50
  -3  -3  -3   79.09    4.60
   3   3   3   81.49    2.90
   3   3   3   85.69    3.30
   3   3   3   83.59    3.60
   3   3   3   87.89   43.20
  -4  -3  -3   50.99    3.90
  -4  -3  -3   51.89    2.30
  -4  -3  -3   50.39    7.40
  -4  -3  -3   48.10    3.00
   4   3   3   50.69    1.90
   4   3   3   51.79    2.30
   4   3   3   49.90    2.70
  -5  -3  -3    4.90    9.50
  -5  -3  -3    3.20    0.50
   5   3   3    2.80    0.30
   5   3   3    4.00    0.60
  -6  -3  -3    6.20    0.50
   6   3   3    6.20    0.50
   6  -4  -3   26.60    1.00
  -6   4   3   26.90    1.10
  -6   4   3   25.80    1.20
   5  -4  -3   35.70    3.00
   5  -4  -3   37.30    1.40
  -5   4   3   35.90    1.40
  -5   4   3   33.00    1.50
  -5   4   3   32.80    2.10
  -5   4   3   35.10    4.10
  -5   4   3   38.40    1.50
   4  -4  -3    5.40    1.20
   4  -4  -3    6.70    0.40
  -4   4   3    5.40    0.90
  -4   4   3    4.90    1.70
  -4   4   3    6.30    1.00
  -4   4   3    6.60    0.50
  -4   4   3    5.60    0.50
  -4   4   3    5.80    0.50
   3  -4  -3   70.09    2.40
   3  -4  -3   71.59    3.60
  -3   4   3   67.99    2.40
  -3   4   3   65.89    2.40
  -3   4   3   63.79    2.90
  -3   4   3   72.29    3.10
  -3   4   3   70.19    4.00
   2  -4  -3   18.80    1.30
   2  -4  -3   58.29   23.20
  -2   4   3   17.80    2.10
  -2   4   3   20.60    1.30
   1  -4  -3   15.30   14.90
   1  -4  -3    6.60    0.70
  -1   4   3    6.30    1.10
  -1   4   3    5.20    0.70
  -1   4   3    5.30    1.20
   0  -4  -3    0.60    0.30
   0   4   3    0.80    0.40
   0   4   3    1.00    0.50
   0   4   3   -0.10    1.20
  -1  -4  -3   96.09    3.60
  -1  -4  -3  104.09    4.00
  -1  -4  -3  103.29   23.20
   1   4   3  103.39    3.90
   1   4   3   90.99    5.80
  -2  -4  -3  145.09    5.20
  -2  -4  -3  144.19    5.60
  -2  -4  -3  147.79    5.50
  -2  -4  -3  142.39    8.60
  -2  -4  -3  138.59    4.70
  -2  -4  -3  142.59    6.50
   2   4   3  149.88    5.30
   2   4   3  133.49    5.40
   2   4   3  139.39    4.80
  -3  -4  -3   24.50    2.90
  -3  -4  -3   23.90    1.70
  -3  -4  -3   24.50    1.40
  -3  -4  -3   36.30    6.20
  -3  -4  -3   22.60    0.90
   3   4   3   22.30    1.30
   3   4   3   23.20    1.00
   3   4   3   22.40    1.60
   3   4   3   -8.50   58.69
  -4  -4  -3   38.70    2.60
  -4  -4  -3   35.50    7.70
  -4  -4  -3   43.50    3.60
  -4  -4  -3   44.20    2.10
   4   4   3   34.60    2.40
   4   4   3   42.40    1.60
   4   4   3   40.80    2.00
  -5  -4  -3    4.20    0.60
   5   4   3    6.40    0.70
   5   4   3    4.60    0.40
  -6  -4  -3   29.10    1.20
   6  -5  -3   42.80    1.50
  -6   5   3   43.10    1.60
   5  -5  -3    1.60    1.80
   5  -5  -3    4.40    0.40
  -5   5   3    2.90    0.70
  -5   5   3    3.40    2.70
   4  -5  -3    8.70    0.50
   4  -5  -3   10.60    1.80
  -4   5   3    9.20    0.60
  -4   5   3    8.60    1.10
  -4   5   3    5.10    2.20
   3  -5  -3   15.10    0.60
   3  -5  -3   12.30    1.60
  -3   5   3   12.80    2.30
  -3   5   3   15.50    0.70
  -3   5   3   15.30    1.30
   2  -5  -3  113.69    3.80
   2  -5  -3  122.29    4.90
  -2   5   3  117.69    5.60
  -2   5   3  111.99    4.60
  -2   5   3  111.99    3.90
   1  -5  -3   53.39   19.60
   1  -5  -3   25.50    1.50
  -1   5   3   26.20    2.50
  -1   5   3   21.90    1.70
  -1   5   3   23.40    1.50
   0  -5  -3  -23.30   18.20
   0  -5  -3    1.70    0.50
   0   5   3    3.70    1.80
   0   5   3    1.30    0.50
   0   5   3    1.70    0.50
  -1  -5  -3   48.30   25.60
  -1  -5  -3   26.20    1.00
  -1  -5  -3   26.10    1.60
   1   5   3   25.90    1.00
   1   5   3   23.60    2.00
   1   5   3   19.60    3.80
   1   5   3   25.60    1.60
   1   5   3   25.40    1.40
  -2  -5  -3   13.00    1.20
  -2  -5  -3   14.80    0.70
  -2  -5  -3   13.90    1.10
  -2  -5  -3   14.10    2.10
  -2  -5  -3   14.50    1.00
  -2  -5  -3    7.10    4.50
   2   5   3   14.10    1.00
   2   5   3   15.10    1.20
   2   5   3   13.10    0.70
   2   5   3    1.30   41.30
  -3  -5  -3   28.10    3.30
  -3  -5  -3   29.50    1.60
  -3  -5  -3   39.80    7.40
  -3  -5  -3   26.10    1.80
   3   5   3   28.80    1.90
   3   5   3   29.30    1.60
   3   5   3   27.40    1.20
  -4  -5  -3   14.50    1.20
  -4  -5  -3   16.70    8.30
  -4  -5  -3   11.30    2.30
   4   5   3   11.60    0.80
   4   5   3   15.10    1.40
  -5  -5  -3    2.30    0.40
   5   5   3    3.50    0.30
   5   5   3    4.00    0.50
   6  -6  -3   20.40    0.70
  -6   6   3   19.90    0.80
   5  -6  -3    0.80    0.20
  -5   6   3    0.60    0.20
   4  -6  -3   11.10    0.50
   4  -6  -3    9.70    1.80
  -4   6   3    8.20    2.70
  -4   6   3    8.00    1.20
  -4   6   3   10.70    0.60
   3  -6  -3    0.20    0.30
   3  -6  -3    0.20    0.60
  -3   6   3    0.10    0.40
  -3   6   3   -3.50    1.90
   2  -6  -3   91.19    3.50
   2  -6  -3  105.39    4.60
   2  -6  -3   98.89    3.20
  -2   6   3   95.99    5.50
  -2   6   3   95.89    3.40
   1  -6  -3  123.09    4.00
   1  -6  -3  121.99    4.30
   1  -6  -3   78.69   28.10
   1  -6  -3  126.19    5.00
  -1   6   3  119.19    4.20
  -1   6   3  118.59    6.40
  -1   6   3  118.09    5.10
   0  -6  -3    0.00    0.30
   0  -6  -3    0.10    0.10
   0   6   3   -0.20    2.50
   0   6   3    0.10    0.20
   0   6   3    0.10    0.20
   0   6   3   -0.20    0.40
   0   6   3   -0.20    0.40
  -1  -6  -3  149.09    5.90
  -1  -6  -3  155.88    5.40
  -1  -6  -3  149.09    5.00
   1   6   3  149.88    5.30
   1   6   3  144.49    5.00
   1   6   3  149.99    6.00
  -2  -6  -3  108.89    5.00
  -2  -6  -3  118.69    6.30
  -2  -6  -3  114.49    3.80
   2   6   3   99.59   61.89
   2   6   3  115.49    4.30
   2   6   3  111.19    4.90
  -3  -6  -3    3.90    7.10
  -3  -6  -3   -0.10    1.00
  -3  -6  -3   -0.10    0.30
   3   6   3    0.20    0.20
   3   6   3   -0.10    0.30
  -4  -6  -3    4.20    0.60
   4   6   3    4.90    0.70
   4   6   3    4.90    0.40
  -5  -6  -3  121.79    4.20
   5   6   3  115.19    4.20
   6  -7  -3   32.50    1.10
  -6   7   3   35.00    1.20
   5  -7  -3    9.60    0.50
  -5   7   3   10.00    0.60
   4  -7  -3   47.20    2.00
   4  -7  -3   50.79    1.70
  -4   7   3   49.99    2.90
  -4   7   3   51.69    1.90
  -4   7   3   35.40    4.50
   3  -7  -3    7.00    0.40
   3  -7  -3    7.00    0.60
  -3   7   3    6.00    1.20
  -3   7   3    8.90    2.90
  -3   7   3    6.70    0.50
   2  -7  -3   10.50    1.50
   2  -7  -3    9.80    0.50
   2  -7  -3    9.20    0.70
  -2   7   3   11.00    2.80
  -2   7   3   11.00    0.80
  -2   7   3   10.50    1.40
   1  -7  -3   53.59    2.90
   1  -7  -3   49.40    2.00
   1  -7  -3   50.19    1.70
  -1   7   3   47.40    1.80
  -1   7   3   42.60    4.90
  -1   7   3   51.59    3.00
  -1   7   3   51.69    2.00
   0  -7  -3  243.58    9.30
   0  -7  -3  242.28    8.40
   0  -7  -3  176.98   43.20
   0  -7  -3  244.88    8.10
   0   7   3  243.38    8.40
   0   7   3  264.47   10.70
   0   7   3  241.28    8.10
   0   7   3  261.97   12.30
  -1  -7  -3   34.50    1.40
   1   7   3   41.40    3.40
  -2  -7  -3   16.10    1.10
  -2  -7  -3   11.80    2.20
  -2  -7  -3    7.70    6.90
   2   7   3   16.10    0.80
   2   7   3   15.60    1.10
  -3  -7  -3    6.20    0.80
  -3  -7  -3   16.00    8.70
  -3  -7  -3    6.90    2.00
   3   7   3    6.70    0.80
   3   7   3    7.50    0.50
  -4  -7  -3    0.50    0.30
   4   7   3    0.80    0.40
   4   7   3    0.70    0.20
  -5  -7  -3    8.80    0.60
   5  -8  -3   30.40    1.10
   4  -8  -3   67.49    2.30
   4  -8  -3   73.29    2.70
  -4   8   3   63.89    6.80
  -4   8   3   69.19    2.60
   3  -8  -3   43.10    1.90
   3  -8  -3   43.40    3.60
   3  -8  -3   43.50    1.60
  -3   8   3   45.90    1.80
   2  -8  -3  141.39    4.60
   2  -8  -3  138.29    4.90
   2  -8  -3  132.29    6.60
  -2   8   3  142.79    4.90
  -2   8   3  139.29    8.80
   1  -8  -3  424.66   14.50
   1  -8  -3  440.26   14.10
   1  -8  -3  417.66   15.90
  -1   8   3  446.66   14.50
  -1   8   3  432.86   16.20
  -1   8   3  448.46   18.90
   0  -8  -3   83.79   56.39
  -1  -8  -3    0.10    0.40
  -1  -8  -3   -0.30    1.60
  -1  -8  -3   -6.70    7.90
  -1  -8  -3    0.50    0.20
   1   8   3    0.40    0.40
   1   8   3    0.20    0.20
  -2  -8  -3   13.60    1.30
  -2  -8  -3   13.70    9.50
  -3  -8  -3   74.39    3.00
   3   8   3   69.89    2.50
   3   8   3   74.19    3.00
  -4  -8  -3   17.70    1.00
   4   8   3   13.10    1.10
  -5   9   3    1.50    0.20
   4  -9  -3    5.10    0.50
  -4   9   3    4.00    0.40
   3  -9  -3   70.99    2.40
   3  -9  -3   76.19    2.80
  -3   9   3   46.50    9.40
  -3   9   3   73.39    2.70
   2  -9  -3    0.90    0.20
   2  -9  -3    0.60    0.30
  -2   9   3    0.00    5.50
  -2   9   3    0.20    0.40
  -1   9   3    1.30    1.20
  -1   9   3   -2.30    6.40
   0  -9  -3  119.59    4.50
   0   9   3  125.19    4.50
  -1  -9  -3    0.30    0.40
   1   9   3    0.90    0.30
  -2  -9  -3   51.89    2.30
   2   9   3   51.39    2.30
   3   9   3    8.80    0.70
   4 -10  -3    9.10    0.60
  -4  10   3    9.20    0.60
   3 -10  -3  145.19    5.10
   2 -10  -3   62.99    2.50
  -2  10   3   63.29    2.50
   1 -10  -3    7.10    0.70
  -1  10   3    8.10    0.70
   0 -10  -3   16.40    1.10
   0  10   3   16.10    1.00
  -1 -10  -3   11.50    0.90
   1  10   3   11.60    0.90
  -2 -10  -3   19.00    1.40
   2  10   3   20.30    1.10
  -3 -10  -3   12.50    0.70
   3  10   3   12.50    0.70
   3 -11  -3   19.50    1.00
  -3  11   3   20.50    0.90
   2 -11  -3    0.30    0.30
  -2  11   3   -0.10    0.20
   1 -11  -3   22.90    1.20
  -1  11   3   21.80    1.20
   0 -11  -3   37.40    1.70
  -1 -11  -3    3.40    0.40
   1  11   3    3.20    0.40
   1 -12  -3   13.10    0.70
   0  14  -4    7.90    0.40
   0 -14   4    8.60    0.50
   1 -14   4   29.20    1.20
   2  13  -4    7.80    0.40
  -2 -13   4    7.10    0.40
  -1 -13   4    2.40    0.30
   0  13  -4   15.60    0.70
   0 -13   4   14.90    0.80
   0 -13   4   14.10    0.80
   1 -13   4    0.40    0.30
   1 -13   4    0.00    0.20
  -2  13  -4    4.90    0.40
   2 -13   4    4.20    0.40
   2 -13   4    4.70    0.50
   3 -13   4   17.90    0.80
   3 -13   4   18.70    0.80
   3  12  -4    1.20    0.20
  -3 -12   4    1.90    0.20
   2  12  -4   23.50    1.00
  -2 -12   4   22.70    1.10
  -2 -12   4   24.60    1.10
   1  12  -4   22.10    0.90
  -1 -12   4   30.40    7.60
  -1 -12   4   20.00    1.00
  -1 -12   4   20.20    1.10
  -1 -12   4   20.80    1.00
   0  12  -4   87.29    3.00
   0 -12   4   83.99    3.00
   0 -12   4   75.39   41.50
   0 -12   4   82.79    3.10
   0 -12   4   84.59    3.20
  -1  12  -4    8.30    0.50
   1 -12   4    8.90    0.70
   1 -12   4   35.50   34.10
   1 -12   4    8.20    0.60
  -2  12  -4   13.40    0.60
  -2  12  -4   13.00    0.80
   2 -12   4   12.40    0.80
  -3  12  -4    9.00    0.60
  -4  12  -4    9.00    0.50
   4 -12   4    9.00    0.50
   4  11  -4   17.10    0.80
   3  11  -4   26.50    1.10
  -3 -11   4   24.30    1.20
  -3 -11   4   25.70    1.20
   2  11  -4   67.79    2.40
  -2 -11   4   59.59    6.90
  -2 -11   4   66.79    2.60
  -2 -11   4   65.49    2.50
  -2 -11   4   61.79    2.50
  -2 -11   4   61.09    3.60
   1  11  -4   57.59    2.10
   1  11  -4   55.69    3.80
  -1 -11   4   57.59    2.30
  -1 -11   4   57.89    2.30
   0  11  -4   45.50    3.40
   0  11  -4   51.19    1.80
   0 -11   4   47.90    2.00
   0 -11   4   47.20   25.60
   0 -11   4   47.00    2.00
   0 -11   4   47.10    1.90
  -1  11  -4   34.00    3.20
  -1  11  -4   37.90    1.40
   1 -11   4   31.00   25.10
   1 -11   4   39.10    1.60
  -2  11  -4   35.30    1.30
  -2  11  -4   35.80    1.50
   2 -11   4   35.60    1.50
   2 -11   4   30.40   28.10
  -3  11  -4  249.18    8.30
  -3  11  -4  256.67    8.60
   3 -11   4  260.47    8.60
  -4  11  -4    9.10    0.50
   4 -11   4    9.50    0.60
   5  10  -4   53.19    1.90
   4  10  -4   19.00    0.90
  -4 -10   4   18.00    0.90
  -4 -10   4   19.20    1.00
   3  10  -4   12.70    0.70
  -3 -10   4   10.90    1.40
  -3 -10   4   11.10    3.80
  -3 -10   4   12.40    0.80
  -3 -10   4   11.80    0.80
   2  10  -4    0.10    0.50
   2  10  -4    0.10    0.20
  -2 -10   4   -0.10    0.30
  -2 -10   4    0.40    0.30
  -2 -10   4    0.50    3.10
  -2 -10   4    0.30    0.60
  -2 -10   4    0.50    0.70
  -2 -10   4    0.50    0.30
   1  10  -4    8.50    0.50
   1  10  -4    7.70    1.30
  -1 -10   4    9.40    0.60
  -1 -10   4   19.80   20.20
  -1 -10   4    7.90    0.70
  -1 -10   4    9.30    0.70
   0  10  -4   19.40    2.40
   0  10  -4   16.10    0.80
   0 -10   4    7.40   16.80
   0 -10   4   16.80    0.90
   0 -10   4   17.40    0.80
  -1  10  -4   21.20    0.90
   1 -10   4   16.10   17.70
   1 -10   4   20.70    1.00
  -2  10  -4    0.10    0.20
  -2  10  -4   -0.10    0.20
  -2  10  -4   -1.00    0.80
   2 -10   4    1.80   25.30
   2 -10   4    0.10    0.20
  -3  10  -4   70.99    2.70
  -3  10  -4   73.59    2.50
   3 -10   4   72.19    2.70
   3 -10   4   47.20   31.80
  -4  10  -4   68.79    2.50
   4 -10   4   70.49    2.60
  -5  10  -4   29.60    1.20
   5 -10   4   28.90    1.20
   5   9  -4    1.70    0.20
   4   9  -4   57.79    2.10
  -4  -9   4   55.99    2.20
  -4  -9   4   57.19    2.20
  -4  -9   4   49.50    5.20
  -4  -9   4   58.69    2.20
   3   9  -4   74.79    2.70
   3   9  -4   69.59    3.50
  -3  -9   4   69.99    2.80
  -3  -9   4   71.39    4.10
  -3  -9   4   75.19    2.90
  -3  -9   4   73.99    2.70
  -3  -9   4   73.69    3.90
  -3  -9   4   75.79    6.30
   2   9  -4  269.57    8.80
   2   9  -4  269.37    9.80
  -2  -9   4  262.27   10.30
  -2  -9   4  252.47   10.30
  -2  -9   4  265.57    9.00
  -2  -9   4  267.67   12.00
  -2  -9   4  271.37    8.90
  -2  -9   4  265.27    9.00
  -1  -9   4   34.20   14.90
   0   9  -4  155.48    5.30
   0   9  -4  162.58    6.80
   0  -9   4  161.38    5.50
   0  -9   4  140.89   19.50
   0  -9   4  164.38    5.40
  -1   9  -4  131.19    4.40
  -1   9  -4  133.49    6.30
   1  -9   4  129.09   20.00
   1  -9   4  129.89    4.40
   1  -9   4  133.89    4.60
  -2   9  -4    0.60    0.30
  -2   9  -4    0.50    0.20
  -2   9  -4    0.20    0.80
   2  -9   4   -5.70   14.90
   2  -9   4    1.10    0.30
  -3   9  -4  194.28    6.10
  -3   9  -4  174.08    6.20
  -3   9  -4  167.28    8.90
   3  -9   4  187.48    6.30
   3  -9   4  168.48   59.99
   4  -9   4   49.50   51.59
  -5   9  -4   21.10    0.90
   5  -9   4   22.80    1.00
   5   8  -4   15.70    0.80
  -5  -8   4   15.40    0.80
  -5  -8   4   16.00    0.80
  -5  -8   4   15.90    0.70
   4   8  -4   47.90    2.80
  -4  -8   4   36.80    4.10
  -4  -8   4   47.10    2.30
  -4  -8   4   42.70    1.90
  -4  -8   4   41.50    1.70
  -4  -8   4   41.70    2.50
   3   8  -4  270.77    9.20
  -3  -8   4  277.97   10.70
  -3  -8   4  272.77    9.40
  -3  -8   4  283.27   10.90
  -3  -8   4  270.67    9.40
  -3  -8   4  282.27   12.40
  -3  -8   4  287.97    9.30
   2   8  -4  384.96   13.30
   2   8  -4  366.36   12.50
  -2  -8   4  371.86   12.80
  -2  -8   4  383.16   14.10
  -2  -8   4  387.86   15.30
  -2  -8   4  406.66   14.00
  -2  -8   4  373.56   12.70
  -2  -8   4  388.86   12.60
   1   8  -4   98.89    4.20
   1   8  -4   99.39    3.40
  -1  -8   4  100.79    3.60
  -1  -8   4   98.99    3.50
  -1  -8   4   69.39   15.80
  -1  -8   4  101.49    3.40
   0   8  -4    0.60    0.50
   0   8  -4    1.10    0.20
   0  -8   4    1.00    0.20
   0  -8   4   -0.10    8.30
  -1   8  -4   89.49    4.50
  -1   8  -4   85.49    2.90
   1  -8   4   84.19    3.00
   1  -8   4   86.49   14.60
  -2   8  -4   10.40    1.90
  -2   8  -4    9.50    0.50
  -2   8  -4    9.50    0.60
   2  -8   4    9.60    0.60
  -3   8  -4    6.40    0.50
  -3   8  -4    7.40    0.40
  -3   8  -4    6.10    1.50
   3  -8   4   25.60   22.40
   3  -8   4    7.30    0.60
   4  -8   4   -6.80   39.70
  -5   8  -4    6.50    0.50
   5  -8   4    6.70    0.50
   6   7  -4   10.10    0.50
  -6  -7   4    8.70    0.70
   5   7  -4   10.80    0.70
  -5  -7   4   11.60    0.60
  -5  -7   4   11.30    0.70
   4   7  -4  422.96   14.80
   4   7  -4  416.36   14.00
  -4  -7   4  431.26   14.10
  -4  -7   4  416.06   14.20
  -4  -7   4  436.66   15.90
  -4  -7   4  429.06   16.70
  -4  -7   4  431.86   15.20
  -4  -7   4  426.96   14.20
   3   7  -4  125.89    4.80
   3   7  -4  113.89    4.10
  -3  -7   4  120.59    5.40
  -3  -7   4  113.69    4.30
  -3  -7   4  116.49    4.30
  -3  -7   4  123.89    5.40
  -3  -7   4  118.49    6.90
  -3  -7   4  123.09    4.10
   2   7  -4   -0.20    0.20
  -2  -7   4    0.10    0.20
  -2  -7   4    0.40    1.40
  -2  -7   4    0.00    0.60
   1   7  -4   76.79    3.20
  -1  -7   4   83.79   12.90
  -1  -7   4   79.09    3.70
   0   7  -4   17.40    1.30
   0  -7   4    1.70    6.40
   0  -7   4   16.30    1.40
  -1   7  -4  505.55   17.40
   1  -7   4  460.65   28.60
  -2   7  -4   18.50    0.70
   2  -7   4   18.90    0.90
   2  -7   4   15.90   11.70
  -3   7  -4    7.90    0.40
  -3   7  -4    7.70    0.50
  -3   7  -4    9.60    1.90
   3  -7   4    7.40    0.60
   3  -7   4   13.40   19.40
  -4   7  -4    0.50    0.20
  -4   7  -4    0.40    0.20
   4  -7   4  -22.30   34.70
   4  -7   4    0.20    0.30
  -5   7  -4   22.80    1.00
   5  -7   4   22.50    1.10
  -6   7  -4    5.30    0.40
   6  -7   4    5.20    0.40
  -6  -6   4    2.20    0.30
  -6  -6   4    1.80    0.30
   5   6  -4    2.50    0.70
   5   6  -4    2.10    0.30
  -5  -6   4    1.60    0.40
  -5  -6   4    2.00    0.40
  -5  -6   4    2.60    0.40
  -5  -6   4    0.10    2.00
  -5  -6   4    3.50    1.10
   4   6  -4    3.40    0.70
   4   6  -4    4.30    0.40
  -4  -6   4    3.80    0.50
  -4  -6   4    3.10    0.50
  -4  -6   4    2.90    0.80
  -4  -6   4    3.80    0.50
  -4  -6   4    1.70    2.20
  -4  -6   4    3.90    1.00
   3   6  -4   36.10    1.90
   3   6  -4   33.60    1.40
  -3  -6   4   37.70    2.40
  -3  -6   4   33.20    1.50
  -3  -6   4   36.30    1.40
  -3  -6   4   35.80    3.80
  -3  -6   4   36.60    2.20
  -3  -6   4   34.60    1.60
   2   6  -4   21.00    1.10
  -2  -6   4   20.90    1.50
  -2  -6   4   18.50    1.20
  -2  -6   4   17.10    2.30
  -2  -6   4   19.50    2.30
  -2  -6   4   18.70    1.40
   1   6  -4  257.37    8.80
  -1  -6   4  238.38    9.80
  -1  -6   4  254.67   18.00
  -1  -6   4  270.97    9.40
   0  -6   4  320.27   12.10
   0  -6   4  344.87   19.10
   0  -6   4  371.16   12.40
  -1   6  -4   30.70    2.00
  -1   6  -4   28.40    1.80
   1  -6   4   28.70    8.10
  -2   6  -4    6.20    0.40
  -2   6  -4    7.10    1.30
  -2   6  -4    5.00    0.80
   2  -6   4    5.00    0.40
   2  -6   4   -7.30   10.00
  -3   6  -4   29.80    1.10
  -3   6  -4   28.60    2.60
  -3   6  -4   27.60    1.30
   3  -6   4   29.90    1.30
   3  -6   4   17.00   18.10
  -4   6  -4    2.10    1.90
   4  -6   4  -30.70   33.90
  -5   6  -4   14.30    0.80
   5  -6   4   15.40    0.90
  -6   6  -4    0.30    0.10
   6  -6   4    0.70    0.20
   6   5  -4    4.40    0.40
  -6  -5   4    3.40    0.40
  -6  -5   4    5.40    0.60
  -6  -5   4    4.20    0.20
   5   5  -4    0.90    0.30
   5   5  -4    0.20    0.40
  -5  -5   4    3.90    2.00
  -5  -5   4    0.60    0.30
  -5  -5   4    0.50    0.70
  -5  -5   4    0.70    0.40
  -5  -5   4    0.80    0.50
  -5  -5   4    0.90    0.30
   4   5  -4   29.40    1.30
   4   5  -4   34.40    2.00
  -4  -5   4   31.90    1.40
  -4  -5   4   29.90    1.50
  -4  -5   4   32.10    2.30
  -4  -5   4   32.80    2.10
  -4  -5   4   29.80    1.40
  -4  -5   4   36.50    3.70
  -3  -5   4   73.49    3.30
  -3  -5   4   65.59    2.80
  -3  -5   4   62.69    4.40
  -3  -5   4   66.79    2.60
  -3  -5   4   74.19    4.40
  -3  -5   4   66.09    2.60
  -3  -5   4   72.09    2.40
  -3  -5   4   63.99    4.20
   2   5  -4   -0.10    0.20
  -2  -5   4   -0.30    0.30
  -2  -5   4    0.00    0.30
  -2  -5   4    1.10    0.90
  -2  -5   4    0.50    1.10
  -2  -5   4    0.20    0.20
   1   5  -4    0.80    0.20
  -1  -5   4    0.90    0.40
  -1  -5   4   -0.80    1.00
  -1  -5   4    0.60    0.30
   0   5  -4   26.40    1.30
   0  -5   4   23.50    1.40
   0  -5   4   24.70    2.80
   0  -5   4   24.90    1.60
   0  -5   4   27.80    5.30
  -1   5  -4  108.69    4.30
  -1   5  -4   89.39    4.70
   1  -5   4  105.19   12.10
  -2   5  -4   97.79    4.60
  -2   5  -4   98.19    4.40
  -2   5  -4   90.39    5.70
   2  -5   4  101.59   15.90
  -3   5  -4    0.80    0.30
  -3   5  -4    1.00    0.70
  -3   5  -4   -0.40    3.80
  -3   5  -4    1.40    0.20
  -3   5  -4    1.50    1.00
   3  -5   4    0.80    0.30
   3  -5   4  -13.20   18.30
   3  -5   4    0.30    0.60
  -4   5  -4   97.19    5.80
  -4   5  -4  110.89    4.00
  -4   5  -4  109.19    3.70
   4  -5   4  115.59    4.00
   4  -5   4   77.29   38.30
   4  -5   4  113.39    3.70
  -5   5  -4    3.80    0.50
   5  -5   4    4.80    0.60
  -6   5  -4   16.20    0.80
   6  -5   4   13.30    0.80
   6   4  -4   55.19    2.00
  -6  -4   4   53.09    1.90
  -6  -4   4   54.29    2.10
   5   4  -4    0.50    0.60
   5   4  -4    0.90    0.30
  -5  -4   4    0.50    0.30
  -5  -4   4    0.40    0.30
  -5  -4   4   -2.60    1.80
  -5  -4   4    0.30    0.40
  -5  -4   4    1.20    0.70
   4   4  -4   13.50    1.30
   4   4  -4   10.10    0.70
  -4  -4   4   11.60    0.80
  -4  -4   4   11.80    2.20
  -4  -4   4   11.00    0.70
  -4  -4   4   15.20    1.90
  -4  -4   4   13.80    1.20
  -4  -4   4   11.80    0.70
   3   4  -4   12.80    1.00
  -3  -4   4   13.90    1.80
  -3  -4   4   14.70    1.30
  -3  -4   4   15.10    1.90
  -3  -4   4   13.30    0.90
  -3  -4   4   13.00    1.10
   2   4  -4   22.20    1.30
   2   4  -4   23.00    1.20
  -2  -4   4   25.90    1.60
  -2  -4   4   25.30    2.00
  -2  -4   4   22.50    1.30
  -2  -4   4   24.50    1.60
  -2  -4   4   23.70    1.10
   1   4  -4   22.40    1.00
   1   4  -4   24.90    1.00
  -1  -4   4   23.50    1.50
  -1  -4   4   22.80    4.60
  -1  -4   4   23.60    1.00
   0  -4   4  378.76   13.40
   0  -4   4  396.56   17.40
   0  -4   4  370.56   12.80
  -1   4  -4   49.00    2.20
  -1   4  -4   53.19    2.40
   1  -4   4   48.40    2.70
   1  -4   4   47.50    8.50
  -2   4  -4  184.58    7.00
  -2   4  -4  176.78    7.20
  -2   4  -4  180.08    8.40
   2  -4   4  209.98   22.20
   2  -4   4  187.28    7.60
  -3   4  -4  602.34   21.50
  -3   4  -4  592.54   21.10
  -3   4  -4  589.94   22.80
   3  -4   4  629.44   21.10
   3  -4   4  615.84   47.20
  -4   4  -4   75.49    2.90
  -4   4  -4   70.39    2.50
  -4   4  -4   69.69    7.60
  -4   4  -4   72.59    4.50
  -4   4  -4   76.19    4.50
   4  -4   4   29.90   48.80
   4  -4   4   77.99    2.90
  -5   4  -4   28.50    1.30
   5  -4   4   26.50    1.30
  -6   4  -4    0.10    0.20
   6  -4   4    0.30    0.20
   7   3  -4    4.50    0.30
  -7  -3   4    4.50    0.40
  -7  -3   4    4.20    0.40
   6   3  -4   12.20    0.70
  -6  -3   4   10.70    0.70
  -6  -3   4   11.80    0.60
   5   3  -4    7.20    1.30
   5   3  -4    7.00    0.60
  -5  -3   4    6.20    2.00
  -5  -3   4    7.10    1.40
  -5  -3   4    7.90    0.70
  -5  -3   4    7.20    0.60
   4   3  -4   39.80    1.80
   4   3  -4   48.40    2.60
  -4  -3   4   50.99    2.50
  -4  -3   4   50.49    3.70
  -4  -3   4   47.70    2.00
  -4  -3   4   45.70    1.80
  -4  -3   4   47.10    1.90
  -4  -3   4   49.99    2.90
   3   3  -4  119.39    4.60
  -3  -3   4  119.99    4.90
  -3  -3   4  117.99    4.50
  -3  -3   4  109.69    4.30
  -3  -3   4  120.69    5.20
  -3  -3   4  110.59    4.90
  -2  -3   4  750.52   24.60
  -1  -3   4  296.07   10.40
  -1  -3   4  319.37   10.20
   0   3  -4   33.80    1.30
   0  -3   4   31.80    4.60
   0  -3   4   31.40    1.40
   0  -3   4   30.00    2.00
   0  -3   4   34.20    1.70
  -1   3  -4  264.47    9.20
   1  -3   4  259.07   17.90
  -2   3  -4  159.78    6.20
  -2   3  -4  159.08    7.70
  -2   3  -4  149.29    6.20
   2  -3   4  145.69    5.80
   2  -3   4  185.08   22.10
  -3   3  -4  342.97   12.50
  -3   3  -4  328.67   12.30
  -3   3  -4  327.77   14.00
   3  -3   4  340.17   11.10
   3  -3   4  345.27   38.80
   3  -3   4  308.47   11.90
  -4   3  -4   67.59    4.30
  -4   3  -4   67.29    4.30
  -4   3  -4   67.89    2.70
  -4   3  -4   79.69    7.80
  -4   3  -4   67.89    2.30
   4  -3   4   71.29    2.70
   4  -3   4   69.89    2.40
   4  -3   4   92.89   41.00
  -5   3  -4    9.30    7.40
  -5   3  -4   22.30    1.20
   5  -3   4   21.70    1.20
  -6   3  -4   16.10    0.80
   7   2  -4    6.60    0.40
  -7  -2   4    6.50    0.50
  -7  -2   4    5.30    0.40
   6   2  -4   55.69    2.10
  -6  -2   4   56.79    2.00
  -6  -2   4   54.89    2.20
  -6  -2   4   59.09    2.30
   5   2  -4   22.80    1.10
  -5  -2   4   25.20    1.30
  -5  -2   4   24.40    1.60
  -5  -2   4   23.50    2.80
  -5  -2   4   25.10    1.10
   4   2  -4   30.80    2.10
  -4  -2   4   31.00    2.20
  -4  -2   4   32.50    1.80
  -4  -2   4   29.70    1.40
  -4  -2   4   29.40    2.60
  -4  -2   4   29.60    1.30
   3   2  -4    4.40    0.70
  -3  -2   4    5.30    1.40
  -3  -2   4    4.30    0.60
  -3  -2   4    5.80    0.90
  -3  -2   4    4.90    1.00
  -3  -2   4    5.10    0.60
   2   2  -4  387.26   13.40
  -2  -2   4  416.06   13.40
  -2  -2   4  401.96   13.40
   0   2  -4  102.99    3.70
   0   2  -4  106.19    3.60
   0  -2   4  104.39    8.10
   0  -2   4  108.39    4.00
   0  -2   4  104.89    4.10
   0  -2   4  103.69    3.70
  -1   2  -4  865.61   29.10
   1  -2   4  899.71   39.80
  -2   2  -4  515.65   17.90
  -2   2  -4  514.55   19.20
   2  -2   4  548.75   35.40
   2  -2   4  502.25   17.40
  -3   2  -4   70.69    3.90
  -3   2  -4   72.79    3.90
  -3   2  -4   84.59    6.40
  -3   2  -4   74.39    2.60
   3  -2   4   85.99   22.80
  -4   2  -4  271.27   11.30
  -4   2  -4  257.57    8.60
  -4   2  -4  262.87    9.00
  -4   2  -4  259.37   10.90
  -4   2  -4  261.97   13.90
   4  -2   4  290.97   52.39
   4  -2   4  259.17    9.00
   4  -2   4  257.67   10.00
   4  -2   4  268.47    8.60
  -5   2  -4   17.20    2.50
  -5   2  -4   26.20    7.10
  -5   2  -4   17.60    1.10
   5  -2   4   17.80    0.70
   5  -2   4   17.10    1.10
  -6   2  -4   56.79    2.30
   6  -2   4   63.89    2.50
   7   1  -4   12.10    0.50
  -7  -1   4   12.50    0.70
  -7  -1   4   11.20    0.60
   6   1  -4   21.20    1.00
  -6  -1   4   22.10    2.90
  -6  -1   4   22.20    1.20
  -6  -1   4   20.50    1.10
  -6  -1   4   21.80    0.90
   5   1  -4   11.10    0.60
   5   1  -4    9.40    1.60
  -5  -1   4   10.50    1.60
  -5  -1   4    9.30    1.90
  -5  -1   4    9.70    0.60
  -5  -1   4   12.20    1.10
  -5  -1   4   10.20    0.70
   4   1  -4    6.40    1.10
  -4  -1   4    7.20    1.20
  -4  -1   4    7.90    0.90
  -4  -1   4   -2.30    3.70
  -4  -1   4    6.50    0.60
  -4  -1   4    5.00    1.30
   3   1  -4  167.28    6.30
  -3  -1   4  168.98    6.40
  -3  -1   4  167.68    6.50
  -3  -1   4  166.28    5.90
  -3  -1   4  174.38   20.10
   2   1  -4   56.99    2.40
   2   1  -4   55.29    2.10
  -2  -1   4   58.69    2.50
  -2  -1   4   56.89    2.30
  -2  -1   4   57.49    2.10
  -1  -1   4    1.40    0.30
   0  -1   4  466.95   20.10
   0  -1   4  482.95   21.70
   1  -1   4 1801.32   71.29
  -2   1  -4  494.05   17.90
  -2   1  -4  511.45   19.30
   2  -1   4  536.05   36.30
   2  -1   4  525.85   17.30
  -3   1  -4  128.29    4.30
  -3   1  -4  133.79    8.10
  -3   1  -4  129.39    5.60
   3  -1   4  128.09    5.20
   3  -1   4  101.09   27.30
  -4   1  -4  459.85   20.10
  -4   1  -4  442.06   16.60
  -4   1  -4  457.55   15.30
   4  -1   4  482.45   15.30
   4  -1   4  432.26   18.00
   4  -1   4  393.76   58.09
  -5   1  -4   36.80    3.60
  -5   1  -4   39.60    8.00
  -5   1  -4   32.50    2.70
  -5   1  -4   39.00    1.80
   5  -1   4   38.10    1.30
   5  -1   4   36.00    1.70
  -6   1  -4   46.50    1.90
   6  -1   4   46.20    1.90
   7   0  -4    0.20    0.10
  -7   0   4    0.20    0.20
  -7   0   4    0.10    0.20
   6   0  -4    0.40    0.20
  -6   0   4    0.30    0.20
  -6   0   4    2.00    2.00
  -6   0   4    0.60    0.50
  -6   0   4    0.40    0.20
  -6   0   4    0.90    0.30
   5   0  -4    1.60    0.30
   5   0  -4    2.70    1.10
  -5   0   4    0.30    1.40
  -5   0   4    1.90    0.50
  -5   0   4    2.20    0.30
  -5   0   4    2.20    0.40
  -5   0   4    1.70    0.80
   4   0  -4  138.09    5.90
  -4   0   4  134.39    4.80
  -4   0   4  142.89    6.00
  -4   0   4  139.59    5.20
  -4   0   4  135.29    4.70
   3   0  -4   12.80    1.10
  -3   0   4   14.00    0.90
  -3   0   4   19.80   18.30
  -3   0   4   13.70    1.30
  -3   0   4   13.60    1.20
   2   0  -4    1.60    0.40
   2   0  -4    1.40    0.40
  -2   0   4    1.30    0.60
  -2   0   4    1.80    0.40
  -2   0   4   -3.50    8.80
  -2   0   4    2.10    0.40
   1   0  -4   60.69    2.30
  -1   0   4   58.89    2.30
  -1   0   4   68.49    7.40
  -1   0   4   65.39    2.30
  -1   0   4   65.39    2.50
   0   0   4  456.55   22.60
   0   0   4  462.35   20.60
  -1   0  -4   39.10    3.40
  -1   0  -4   37.60    2.00
  -1   0  -4   38.60    1.90
   1   0   4   36.30    1.50
   1   0   4   40.00   10.20
  -2   0  -4  116.49    6.80
  -2   0  -4  113.39    5.20
  -2   0  -4  122.39    5.00
   2   0   4  146.79   22.90
   2   0   4  122.39    4.60
  -3   0  -4   69.99    3.70
  -3   0  -4   77.39    4.20
  -3   0  -4   80.89    7.20
  -3   0  -4   75.89    2.60
   3   0   4  109.49   29.40
   3   0   4   74.89    2.60
   3   0   4   76.39    3.00
   3   0   4   74.39    3.40
  -4   0  -4  125.39    6.40
  -4   0  -4  120.69   11.10
  -4   0  -4  121.89    4.60
  -4   0  -4  123.49    4.10
   4   0   4  123.99    4.60
   4   0   4  127.69    4.20
   4   0   4  112.29    5.20
   4   0   4   82.99   55.89
  -5   0  -4    1.90    6.90
  -5   0  -4    1.10    0.40
  -5   0  -4    0.80    1.10
  -5   0  -4    0.10    0.60
   5   0   4    0.90    0.40
   5   0   4    0.90    0.20
  -6   0  -4   -0.10    0.20
   6   0   4    0.20    0.20
   7  -1  -4    6.60    0.30
  -7   1   4    5.30    0.40
   6  -1  -4   10.20    0.60
  -6   1   4   10.50    0.60
  -6   1   4   10.70    0.70
  -6   1   4   10.60    0.80
   5  -1  -4  191.68    6.70
   5  -1  -4  230.68   10.80
  -5   1   4  197.08    6.90
  -5   1   4  207.78    8.50
  -5   1   4  207.08    7.40
  -5   1   4  196.28    6.80
  -5   1   4  183.68    8.30
  -5   1   4  195.78    6.70
   4  -1  -4    3.70    0.40
   4  -1  -4    3.10    0.90
  -4   1   4    4.40    0.50
  -4   1   4    4.50    0.70
  -4   1   4    6.00    1.70
  -4   1   4    4.30    0.50
  -4   1   4    3.70    1.20
  -4   1   4    3.60    0.30
   3  -1  -4  281.87   10.10
  -3   1   4  254.27   34.50
  -3   1   4  291.67   10.10
  -3   1   4  281.07   10.20
   2  -1  -4   45.60    1.80
  -2   1   4   41.40    1.90
  -2   1   4   14.80   13.00
  -1   1   4    1.50    0.60
  -1   1   4   -5.30    7.30
   0   1   4  372.96   11.80
   0   1   4  288.97   11.30
  -1  -1  -4 1554.64   52.99
   1   1   4 1610.24   67.29
  -2  -1  -4  144.39    5.60
  -2  -1  -4  139.69    6.10
  -2  -1  -4  130.19    7.90
   2   1   4   97.79   22.50
   2   1   4  144.89    5.20
  -3  -1  -4  269.37    9.60
  -3  -1  -4  263.97    8.30
  -3  -1  -4  259.37   10.40
  -3  -1  -4  256.67   13.20
  -3  -1  -4  244.28    8.70
   3   1   4  335.07   46.70
   3   1   4  248.88    9.10
   3   1   4  227.48    8.80
  -4  -1  -4   15.40    1.10
  -4  -1  -4   16.90    1.80
  -4  -1  -4   13.90    0.80
  -4  -1  -4   19.20    6.60
  -4  -1  -4   13.40    2.20
   4   1   4   15.50    1.50
   4   1   4   16.20    1.10
   4   1   4   15.90    0.70
  -5  -1  -4    8.80    8.10
  -5  -1  -4    0.70    0.70
  -5  -1  -4    1.50    0.40
  -5  -1  -4    1.90    1.40
   5   1   4    2.20    0.50
   5   1   4    2.30    0.20
  -6  -1  -4   -0.10    0.20
   6   1   4    0.00    0.20
   7  -2  -4    3.60    0.30
  -7   2   4    4.10    0.40
   6  -2  -4  143.99    4.80
  -6   2   4  139.49    7.10
  -6   2   4  142.19    4.80
  -6   2   4  140.99    5.00
  -6   2   4  148.39    4.90
   5  -2  -4  140.09    4.80
   5  -2  -4  130.79    6.50
  -5   2   4  149.79    7.20
  -5   2   4  144.29    6.80
  -5   2   4  137.59    5.00
  -5   2   4  140.39    5.70
  -5   2   4  145.69    4.80
  -5   2   4  139.79    4.90
   4  -2  -4   12.10    1.70
   4  -2  -4    8.20    0.50
  -4   2   4    8.40    0.60
  -4   2   4    9.10    1.80
  -4   2   4    8.40    0.50
  -4   2   4    8.10    0.90
  -4   2   4    8.50    0.60
   3  -2  -4  130.49    5.30
  -3   2   4  133.19    5.10
  -3   2   4  130.59    4.90
  -3   2   4  133.49    5.50
  -2   2   4  339.47   12.00
  -2   2   4  394.06   13.00
  -2   2   4  302.27   37.30
   1  -2  -4    5.30    0.60
  -1   2   4    5.20    0.60
  -1   2   4    4.10    0.90
   0  -2  -4   20.70   16.40
   0  -2  -4   28.10    1.40
   0   2   4   26.10    1.30
   0   2   4   29.50    2.10
   0   2   4   29.80    1.60
  -1  -2  -4  333.07   13.10
   1   2   4  286.17   27.20
   1   2   4  320.47   10.90
  -2  -2  -4    7.10    3.10
  -2  -2  -4    7.20    1.00
  -2  -2  -4    5.90    1.10
   2   2   4    7.00    0.80
   2   2   4   12.60   18.30
  -3  -2  -4  384.76   14.50
  -3  -2  -4  358.36   12.30
  -3  -2  -4  353.16   11.80
  -3  -2  -4  373.76   17.00
   3   2   4  306.37   48.30
   3   2   4  357.46   12.70
   3   2   4  373.36   11.90
   3   2   4  351.66   12.30
  -4  -2  -4  203.78    7.00
  -4  -2  -4  220.58    9.10
  -4  -2  -4  220.78    7.70
   4   2   4  223.98    7.70
   4   2   4  216.88    7.20
  -5  -2  -4    5.20    0.60
  -5  -2  -4   17.40    9.90
   5   2   4    6.70    0.70
   5   2   4    6.60    0.40
  -6  -2  -4   13.10    0.80
   6   2   4   14.00    1.00
   7  -3  -4    0.10    0.10
   6  -3  -4   29.20    1.10
  -6   3   4   29.70    1.20
  -6   3   4   28.40    1.10
  -6   3   4   27.10    1.20
   5  -3  -4    7.00    1.40
   5  -3  -4    6.10    0.40
  -5   3   4    6.80    0.50
  -5   3   4    6.70    0.60
  -5   3   4    7.60    1.00
  -5   3   4    7.00    0.60
   4  -3  -4   13.30    1.80
   4  -3  -4   10.80    0.60
  -4   3   4   12.60    1.10
  -4   3   4   10.30    0.70
  -4   3   4    9.50    1.80
  -4   3   4   11.90    0.60
  -4   3   4   12.30    0.70
   3  -3  -4    5.80    0.90
  -3   3   4    5.40    0.40
  -3   3   4    5.90    1.30
  -3   3   4    5.20    0.70
  -2   3   4  307.87   10.60
  -2   3   4  305.27   11.20
   1  -3  -4 1659.73   72.69
  -1   3   4 1650.13   54.59
   0  -3  -4   83.09    3.30
   0  -3  -4  121.29   22.80
   0   3   4   84.39    4.40
   0   3   4   83.69    3.60
   0   3   4   81.39    3.30
  -1  -3  -4   59.09    5.70
  -1  -3  -4   50.49    2.90
  -1  -3  -4   47.50    1.90
  -1  -3  -4   46.30    2.30
   1   3   4   72.59   18.20
   1   3   4   43.50    2.10
  -2  -3  -4   76.99    4.00
  -2  -3  -4   73.39    2.60
  -2  -3  -4   79.99    6.90
  -2  -3  -4   77.49    3.40
  -2  -3  -4   72.69    4.10
   2   3   4   70.79    3.10
   2   3   4   77.89    2.70
   2   3   4   53.79   26.60
   2   3   4   72.79    2.90
   2   3   4   73.89    2.70
  -3  -3  -4  194.38    7.60
  -3  -3  -4  192.38    6.50
  -3  -3  -4  198.88    7.60
  -3  -3  -4  211.48   13.40
  -3  -3  -4  207.98    9.20
  -3  -3  -4  189.58    7.00
   3   3   4  191.58    7.00
   3   3   4  202.08    6.60
   3   3   4  190.08    7.30
   3   3   4  215.68   54.89
  -4  -3  -4  159.38   14.30
  -4  -3  -4  165.78    7.10
  -4  -3  -4  169.68    6.20
  -4  -3  -4  175.28    8.60
   4   3   4  172.58    6.20
   4   3   4  164.78    5.60
  -5  -3  -4   20.70    1.20
   5   3   4   20.70    1.20
   5   3   4   18.00    0.70
  -6  -3  -4    0.00    0.20
   6   3   4    0.00    0.20
   6  -4  -4    0.20    0.10
  -6   4   4    0.20    0.20
  -6   4   4    0.20    0.10
   5  -4  -4    2.50    1.20
  -5   4   4    2.20    0.30
  -5   4   4    2.80    0.40
  -5   4   4    3.00    0.70
  -5   4   4    2.30    0.30
  -5   4   4    1.70    2.10
   4  -4  -4   54.09    1.90
   4  -4  -4   50.79    3.40
  -4   4   4   52.69    4.00
  -4   4   4   56.09    2.80
  -4   4   4   56.99    2.00
  -4   4   4   57.29    2.10
  -4   4   4   51.59    2.10
   3  -4  -4   26.00    1.90
  -3   4   4   23.60    1.10
  -3   4   4   27.40    2.70
  -3   4   4   27.50    1.60
  -3   4   4   25.50    1.00
   2  -4  -4  222.68    7.90
  -2   4   4  211.58    7.20
  -2   4   4  216.68    7.90
  -2   4   4  213.78    8.70
   1  -4  -4  100.49    3.90
   1  -4  -4  108.99   26.20
  -1   4   4  101.89    4.10
  -1   4   4   99.39    4.90
   0  -4  -4  136.69    5.10
   0  -4  -4  110.39   26.60
   0   4   4  137.79    6.40
   0   4   4  129.79    5.40
   0   4   4  127.69    5.20
  -1  -4  -4  220.08    7.20
  -1  -4  -4  216.18    9.00
  -1  -4  -4  221.18    8.00
  -1  -4  -4  226.28   11.30
   1   4   4  217.18    7.90
  -2  -4  -4   44.00    1.60
  -2  -4  -4   43.60    2.20
  -2  -4  -4   42.40    3.20
  -2  -4  -4   44.30    2.40
  -2  -4  -4   45.70    2.00
  -2  -4  -4   36.30    5.80
   2   4   4   44.90    2.00
   2   4   4   43.30    1.60
   2   4   4   44.50    1.70
   2   4   4   72.09   34.80
   2   4   4   41.10    2.20
  -3  -4  -4   21.70    7.40
   3   4   4  -81.59   81.39
  -4  -4  -4    5.70    1.70
  -4  -4  -4   -5.00    9.00
  -4  -4  -4    6.60    0.90
   4   4   4    5.60    0.80
   4   4   4    6.40    0.40
  -5  -4  -4   22.20    1.20
   5   4   4   25.90    1.50
   6  -5  -4    4.50    0.30
  -6   5   4    5.40    0.50
   5  -5  -4   38.40    1.30
  -5   5   4   38.00    1.40
  -5   5   4   30.70    1.50
  -5   5   4   37.00    2.40
  -5   5   4   36.60    4.10
   4  -5  -4   47.50    3.40
   4  -5  -4   46.60    1.60
  -4   5   4   41.50    1.70
  -4   5   4   48.90    4.20
  -4   5   4   47.40    1.80
   3  -5  -4   14.20    1.80
   3  -5  -4   12.80    0.60
  -3   5   4   13.10    0.70
  -3   5   4   14.60    2.50
  -3   5   4   14.90    1.50
   2  -5  -4    1.80    0.60
   2  -5  -4    1.10    0.20
  -2   5   4    1.30    0.50
  -2   5   4    1.00    0.20
  -2   5   4    2.40    1.50
   1  -5  -4  184.28    6.60
   1  -5  -4  170.58    5.70
  -1   5   4  173.78    5.90
  -1   5   4  174.88    7.90
  -1   5   4  173.98    6.80
   0  -5  -4   13.20    0.70
   0  -5  -4   18.90   30.30
   0  -5  -4   14.90    1.20
   0   5   4   13.50    1.30
   0   5   4   16.10    2.90
   0   5   4   14.00    0.80
   0   5   4   17.20    1.80
  -1  -5  -4   39.40    2.30
  -1  -5  -4   38.10    2.10
  -1  -5  -4   26.90    5.60
  -1  -5  -4   41.20    3.00
  -1  -5  -4   39.80    1.40
   1   5   4   37.20    2.10
   1   5   4   36.30    1.70
   1   5   4   36.80    1.50
  -2  -5  -4   28.90    7.30
  -2  -5  -4   38.20    4.10
  -2  -5  -4   34.80    1.80
  -2  -5  -4   36.00    1.30
   2   5   4   34.00    1.40
   2   5   4   67.09   47.50
   2   5   4   37.20    1.80
   2   5   4   35.80    2.20
  -3  -5  -4    0.10    8.10
  -3  -5  -4    9.70    0.50
  -3  -5  -4    9.70    0.90
   3   5   4    9.30    0.90
   3   5   4    9.40    0.60
  -4  -5  -4   -0.10    0.30
  -4  -5  -4  -15.50   11.10
   4   5   4    0.00    0.20
   4   5   4    0.50    0.40
  -5  -5  -4   11.00    0.80
   5   5   4   10.40    0.70
   6  -6  -4   27.40    1.00
  -6   6   4   27.90    1.00
   5  -6  -4  134.79    4.50
  -5   6   4  144.59    9.60
  -5   6   4  134.39    4.60
   4  -6  -4    7.40    0.40
   4  -6  -4    5.90    1.50
  -4   6   4    7.40    1.20
  -4   6   4    6.80    0.50
  -4   6   4   11.00    2.90
   3  -6  -4    0.60    0.70
   3  -6  -4    0.30    0.20
  -3   6   4    0.20    0.50
  -3   6   4    0.50    2.00
  -3   6   4    0.20    0.20
   2  -6  -4   84.99    4.10
   2  -6  -4   87.39    2.90
   2  -6  -4   82.09    3.10
  -2   6   4   78.19    5.30
  -2   6   4   86.89    4.00
  -2   6   4   85.89    3.00
   1  -6  -4    8.30    0.40
   1  -6  -4    5.80    0.90
  -1   6   4    6.80    2.30
  -1   6   4    8.10    1.30
  -1   6   4    8.60    0.60
   0  -6  -4    7.70    1.10
   0  -6  -4    7.50    0.70
   0  -6  -4    7.30    0.40
   0  -6  -4   63.19   39.60
   0   6   4    7.00    2.80
   0   6   4    8.40    0.70
   0   6   4    6.80    0.50
   0   6   4    6.20    1.30
  -1  -6  -4   83.89    2.80
  -1  -6  -4   90.69    5.20
  -1  -6  -4   76.19    3.70
  -1  -6  -4   81.69    3.20
  -1  -6  -4   77.69    9.20
   1   6   4  101.09   42.10
   1   6   4   78.09    2.90
   1   6   4   78.99    2.80
   1   6   4   81.69    3.20
  -2  -6  -4   57.19    2.00
  -2  -6  -4   46.10    8.40
  -2  -6  -4   59.99    2.60
  -2  -6  -4   59.29    4.30
   2   6   4   56.79    2.50
   2   6   4   53.59    2.00
   2   6   4   43.20   64.69
  -3  -6  -4   15.90    2.80
  -3  -6  -4   23.10    1.40
  -3  -6  -4   -0.20    9.70
   3   6   4   21.50    1.10
   3   6   4   23.00    1.40
  -4  -6  -4   20.50    1.20
   4   6   4   19.90    1.20
  -5  -6  -4    5.00    0.50
   5   6   4    4.60    0.40
   5  -7  -4   68.89    2.30
  -5   7   4   69.69    2.50
   4  -7  -4   17.20    0.70
  -4   7   4   12.60    1.50
  -4   7   4   16.70    0.90
  -4   7   4   11.80    3.60
   3  -7  -4   11.60    1.80
   3  -7  -4   15.30    0.60
   3  -7  -4   13.40    0.90
  -3   7   4   13.80    0.80
  -3   7   4   12.30    1.50
   2  -7  -4   50.69    2.30
   2  -7  -4   56.59    1.90
   2  -7  -4   52.29    3.30
  -2   7   4   57.29    3.20
  -2   7   4   54.59    5.30
  -2   7   4   55.49    2.10
   1  -7  -4   47.20    1.70
   1  -7  -4   46.60    2.80
   1  -7  -4   47.00    2.00
  -1   7   4   46.40    5.30
  -1   7   4   47.50    2.00
  -1   7   4   46.10    3.00
   0  -7  -4  106.29    3.50
   0  -7  -4  102.49    4.70
   0   7   4  100.29    5.30
   0   7   4  101.39    3.80
   0   7   4  101.59    8.50
   1   7   4  -64.89   54.59
  -2  -7  -4   19.30   11.60
  -3  -7  -4   -0.10    0.30
   3   7   4    0.20    0.30
  -4  -7  -4    2.40    0.50
   4   7   4    1.10    0.30
   5  -8  -4    2.10    0.20
  -5   8   4    1.60    0.20
   4  -8  -4  133.79    4.30
  -4   8   4  129.39    4.50
   3  -8  -4   23.30    1.30
   3  -8  -4   26.30    1.00
  -3   8   4   18.50    4.70
  -3   8   4   26.60    1.20
  -3   8   4   26.40    2.30
   2  -8  -4   36.00    3.00
   2  -8  -4   38.70    1.40
   2  -8  -4   36.50    1.70
  -2   8   4   38.30    2.80
  -2   8   4   40.40    5.50
  -2   8   4   38.30    1.70
   1  -8  -4  104.69    3.90
   1  -8  -4  107.09    3.50
   1  -8  -4   93.59    5.10
  -1   8   4  103.19    5.40
  -1   8   4   99.99    9.00
  -1   8   4  107.49    3.90
   0  -8  -4  144.69    4.90
   0  -8  -4  148.29    5.40
   0   8   4  142.99    7.10
   0   8   4  151.78    5.30
  -1  -8  -4   13.20    0.60
  -1  -8  -4   13.20    1.10
   1   8   4   12.30    1.00
   1   8   4   43.00   87.99
  -2  -8  -4    0.70    0.40
   2   8   4    0.50    0.30
  -3  -8  -4   11.40    0.90
  -4  -8  -4    5.00    0.50
   4   8   4    4.00    0.40
   4  -9  -4   13.90    0.60
   3  -9  -4   13.50    0.60
  -3   9   4   13.70    0.80
   2  -9  -4    0.60    0.20
   2  -9  -4    0.40    0.30
  -2   9   4    1.10    6.10
  -2   9   4    0.30    0.30
   1  -9  -4  148.29    5.40
   1  -9  -4  149.99    5.00
  -1   9   4  160.18   16.50
  -1   9   4  157.38    5.40
   0  -9  -4    5.60    0.70
   0  -9  -4    6.50    0.40
   0   9   4    6.10    0.70
  -1  -9  -4    0.10    0.40
   1   9   4    0.10    0.30
  -2  -9  -4   11.20    0.90
   2   9   4   11.90    0.90
  -3  -9  -4   11.10    0.70
   3   9   4   11.50    0.80
  -4  10   4    0.10    0.20
   3 -10  -4   10.80    0.90
  -3  10   4    9.80    0.70
   2 -10  -4    0.50    0.30
  -2  10   4    0.20    0.20
   1 -10  -4    0.50    0.30
  -1  10   4    0.20    0.30
   0 -10  -4   10.70    0.80
   0  10   4    8.50    0.70
  -1 -10  -4    0.30    0.30
   1  10   4    0.20    0.20
  -2 -10  -4    3.30    0.40
   2  10   4    4.60    0.50
   2 -11  -4   27.70    1.30
  -2  11   4   28.80    1.20
   1 -11  -4    0.00    0.20
  -1  11   4   -0.10    0.20
   0 -11  -4   32.30    1.40
   0  11   4   33.70    1.50
  -1 -11  -4   28.00    1.30
   1  11   4   26.20    1.50
   1  14  -5    0.60    0.20
   0  14  -5    0.70    0.20
   0 -14   5    0.70    0.20
  -1  14  -5    0.00    0.20
   1 -14   5    0.10    0.20
   1 -14   5    0.20    0.20
   2  13  -5   -0.10    0.20
  -2 -13   5    0.10    0.20
   1  13  -5    1.10    0.20
  -1 -13   5    0.80    0.20
  -1 -13   5    0.90    0.30
  -1 -13   5    1.00    0.30
   0  13  -5   35.30    1.30
   0 -13   5   31.10    1.40
   0 -13   5   34.40    1.40
  -1  13  -5    0.10    0.20
   1 -13   5    0.10    0.20
   1 -13   5    0.10    0.20
  -2  13  -5   24.90    1.00
   2 -13   5   26.50    1.10
   2 -13   5   26.40    1.10
   3 -13   5   24.50    1.00
  -3 -12   5    3.30    0.30
   2  12  -5    7.40    0.50
  -2 -12   5    6.60    0.50
  -2 -12   5    6.60    0.60
  -2 -12   5    6.40    0.50
   1  12  -5   37.80    1.40
  -1 -12   5   29.50    4.50
  -1 -12   5   36.70    1.60
  -1 -12   5   36.00    1.60
  -1 -12   5   36.00    1.50
   0  12  -5    3.80    0.40
   0 -12   5    2.80    0.40
   0 -12   5    3.30    0.40
   0 -12   5    3.30    0.40
  -1  12  -5   70.09    2.50
   1 -12   5   91.49   31.50
   1 -12   5   71.39    2.70
  -2  12  -5    4.10    0.30
   2 -12   5    4.30    0.50
  -3  12  -5   23.00    1.20
  -3  12  -5   21.50    0.80
   3 -12   5   24.30    1.10
   4 -12   5   15.10    0.70
   4  11  -5    1.90    0.30
  -4 -11   5    2.10    0.30
   3  11  -5   34.10    1.40
  -3 -11   5   32.40    1.40
  -3 -11   5   32.20    1.40
  -3 -11   5   40.00    1.90
   2  11  -5   24.00    1.00
   2  11  -5   30.30    3.40
  -2 -11   5   23.10    1.10
  -2 -11   5   22.30    4.10
  -2 -11   5   23.60    1.10
  -2 -11   5   20.40    1.10
  -2 -11   5   23.10    1.80
   1  11  -5   49.10    3.30
   1  11  -5   56.49    2.00
  -1 -11   5   52.69    2.20
  -1 -11   5   53.19    2.20
  -1 -11   5   53.99    2.10
   0  11  -5   17.20    0.80
   0  11  -5   23.50    2.70
   0 -11   5   18.20    1.00
   0 -11   5   17.50    1.00
   0 -11   5   22.90   21.90
   0 -11   5   16.30    0.90
  -1  11  -5   59.19    4.30
  -1  11  -5   64.29    2.20
   1 -11   5   64.09    2.40
   1 -11   5   42.20   22.30
   2 -11   5   21.20   25.10
  -3  11  -5    3.90    0.30
   3 -11   5    2.70    0.30
  -4  11  -5  119.49    4.20
   4 -11   5  126.49    4.20
   5  10  -5    0.00    0.20
   4  10  -5    4.00    0.40
  -4 -10   5    4.00    0.40
  -4 -10   5    5.00    0.50
   3  10  -5   12.70    0.70
   3  10  -5    8.20    1.10
  -3 -10   5    8.90    3.10
  -3 -10   5   12.30    0.80
  -3 -10   5   12.90    0.80
  -3 -10   5   12.60    1.30
  -3 -10   5   13.20    0.80
   2  10  -5   36.50    2.50
   2  10  -5   40.50    1.60
  -2 -10   5   39.90    2.90
  -2 -10   5   41.10    1.60
  -2 -10   5   39.70    1.80
  -2 -10   5   40.10    2.60
  -2 -10   5   42.40    1.80
   1  10  -5   22.30    1.90
   1  10  -5   20.60    0.90
  -1 -10   5   20.90    1.00
  -1 -10   5   21.30    1.10
  -1 -10   5   19.90    1.10
  -1 -10   5   24.40   18.80
   0  10  -5    9.70    1.80
   0  10  -5    6.90    0.40
   0 -10   5    5.90   15.10
   0 -10   5    7.10    0.60
   0 -10   5    6.80    0.50
  -1  10  -5   22.20    3.20
  -1  10  -5   26.30    1.10
   1 -10   5   27.10    1.10
   1 -10   5   27.70    1.20
   1 -10   5   28.70   15.90
  -2  10  -5  122.39    6.80
  -2  10  -5  130.79    4.40
   2 -10   5  134.69    4.60
   2 -10   5   89.89   35.90
  -3  10  -5  242.28    8.00
  -3  10  -5  242.38    8.20
   3 -10   5  243.48    8.20
   3 -10   5  258.27   34.80
  -4  10  -5   60.69    2.30
  -4  10  -5   57.99    2.10
   4 -10   5   61.59    2.30
  -5  10  -5    3.10    0.30
   5 -10   5    2.90    0.30
   5   9  -5    2.90    0.30
  -5  -9   5    3.70    0.50
   4   9  -5    1.50    0.30
  -4  -9   5    1.40    0.30
  -4  -9   5    1.70    0.30
  -4  -9   5    1.60    0.30
   3   9  -5  160.88    5.60
   3   9  -5  161.58    6.50
  -3  -9   5  177.88    7.50
  -3  -9   5  169.98    5.70
  -3  -9   5  143.99   11.10
  -3  -9   5  158.58    5.80
  -3  -9   5  163.28    6.50
  -3  -9   5  169.28    5.70
   2   9  -5    0.90    0.50
   2   9  -5    1.10    0.20
  -2  -9   5    0.40    0.60
  -2  -9   5    0.80    0.30
  -2  -9   5   -1.60    2.10
  -2  -9   5    0.80    0.70
  -2  -9   5    0.80    0.30
  -2  -9   5    0.90    0.40
   1   9  -5   13.20    0.60
   1   9  -5   13.50    1.60
  -1  -9   5   14.40    0.90
  -1  -9   5   15.40    1.70
  -1  -9   5    7.60   13.70
  -1  -9   5   13.50    0.70
  -1  -9   5   13.90    0.80
   0   9  -5    1.90    0.70
   0  -9   5  -16.00   10.10
  -1   9  -5    2.90    0.30
  -1   9  -5    1.20    0.80
   1  -9   5    7.80   11.10
   1  -9   5    2.30    0.30
   1  -9   5    2.70    0.30
   2  -9   5   14.80   15.40
  -3   9  -5   -0.50    1.10
  -3   9  -5    0.00    0.20
  -3   9  -5    0.30    0.20
   3  -9   5    0.00    0.20
   3  -9   5  -12.50   24.70
   4  -9   5   -5.60   62.69
  -5   9  -5    9.20    0.50
   5  -9   5    9.20    0.60
   5   8  -5   16.40    0.80
  -5  -8   5   15.70    0.70
  -5  -8   5   14.50    0.90
  -5  -8   5   14.80    0.80
   4   8  -5   34.60    2.10
   4   8  -5   39.30    1.80
  -4  -8   5   35.30    1.50
  -4  -8   5   34.10    1.90
  -4  -8   5   33.10    1.70
  -4  -8   5   35.00    2.70
   3   8  -5  292.57    9.70
   3   8  -5  312.87   11.10
  -3  -8   5  292.77   10.70
  -3  -8   5  290.67   12.10
  -3  -8   5  304.97   10.00
  -3  -8   5  274.47    9.80
  -3  -8   5  278.17   11.40
  -3  -8   5  300.97    9.80
   2   8  -5  282.77    9.90
   2   8  -5  262.27    9.10
  -2  -8   5  261.67   10.60
  -2  -8   5  289.37    9.20
  -2  -8   5  274.67    9.40
  -2  -8   5  275.67    9.30
  -2  -8   5  279.27   11.50
  -2  -8   5  288.87   10.30
   1   8  -5   75.29    2.80
   1   8  -5   85.09    3.60
  -1  -8   5   82.39    2.80
  -1  -8   5   81.99    2.90
  -1  -8   5   83.99    3.10
  -1  -8   5   79.29   15.10
  -1  -8   5   80.99    4.10
   0   8  -5   40.60    2.30
   0   8  -5   32.50    1.20
   0  -8   5   33.50    9.80
   0  -8   5   34.70    1.40
   0  -8   5   34.10    1.40
  -1   8  -5    1.00    0.20
  -1   8  -5    1.60    0.80
   1  -8   5   -2.60    8.60
   1  -8   5    2.10    0.30
   1  -8   5    1.10    0.20
  -2   8  -5   74.09    4.40
  -2   8  -5   70.39    2.40
   2  -8   5   56.49   16.80
   2  -8   5   69.69    2.60
  -3   8  -5    1.70    0.30
  -3   8  -5    1.80    0.20
  -3   8  -5    4.90    1.50
   3  -8   5    2.80    0.40
   3  -8   5   12.10   19.60
   4  -8   5  -13.20   35.00
  -5   8  -5    7.50    0.70
   5  -8   5    7.40    0.60
   6   7  -5   33.10    1.30
  -6  -7   5   33.00    1.40
  -6  -7   5   37.90    1.50
   5   7  -5    3.90    0.40
  -5  -7   5    4.20    0.50
  -5  -7   5    3.80    0.30
  -5  -7   5    3.30    0.40
  -5  -7   5    3.20    0.50
   4   7  -5   97.09    4.00
   4   7  -5   90.29    3.30
  -4  -7   5   94.79    3.30
  -4  -7   5   88.19    4.70
  -4  -7   5   98.19    4.90
  -4  -7   5   91.69    3.60
  -4  -7   5   84.29    4.60
  -4  -7   5   84.99    4.00
  -4  -7   5   93.09    3.30
  -4  -7   5   90.09    3.50
   3   7  -5  571.64   19.40
  -3  -7   5  596.94   21.00
  -3  -7   5  596.64   19.70
  -3  -7   5  612.94   20.40
  -3  -7   5  643.64   21.60
  -3  -7   5  583.54   20.70
  -3  -7   5  582.14   19.50
  -3  -7   5  575.44   19.90
   2   7  -5  354.66   11.90
  -2  -7   5  346.47   11.60
  -2  -7   5  348.07   13.20
  -2  -7   5  332.07   11.50
  -2  -7   5  345.57   12.40
  -2  -7   5  350.66   11.40
  -2  -7   5  345.57   12.70
   1   7  -5    0.00    0.30
  -1  -7   5    0.40    2.50
  -1  -7   5    0.40    0.40
  -1  -7   5   -0.10    0.40
  -1  -7   5    0.30    0.30
  -1  -7   5    0.10    0.10
  -1  -7   5    5.90    7.20
   0   7  -5   10.80    1.10
   0  -7   5   11.00    1.40
   0  -7   5    7.80    1.20
   0  -7   5    4.80    5.80
  -1   7  -5    1.80    0.70
   1  -7   5    1.60    0.30
   1  -7   5    4.20    7.50
  -2   7  -5   63.59    2.20
  -2   7  -5   65.69    3.90
   2  -7   5   61.99    2.30
   2  -7   5   54.59   14.80
  -3   7  -5   17.90    2.50
   3  -7   5  -18.00   17.70
  -4   7  -5   11.10    0.50
  -4   7  -5   11.30    0.70
   4  -7   5   11.60    0.80
   4  -7   5   22.80   39.40
  -5   7  -5    1.30    0.30
   5  -7   5    1.00    0.30
  -6   7  -5    7.10    0.40
   6  -7   5    7.30    0.40
   6   6  -5   18.20    0.80
  -6  -6   5   19.10    0.90
  -6  -6   5   19.10    0.90
   5   6  -5   74.89    3.50
   5   6  -5   71.39    2.70
  -5  -6   5   76.09    4.30
  -5  -6   5   79.79    2.90
  -5  -6   5   76.69    2.90
  -5  -6   5   74.49    2.80
  -5  -6   5   75.69    2.60
   4   6  -5   64.09    2.40
   4   6  -5   66.79    3.10
  -4  -6   5   62.59    2.40
  -4  -6   5   64.19    2.40
  -4  -6   5   65.89    3.80
  -4  -6   5   64.19    3.70
  -4  -6   5   59.99    2.50
  -4  -6   5   62.59    3.70
  -4  -6   5   64.29    2.80
  -4  -6   5   61.59    2.60
   3   6  -5   70.49    3.00
  -3  -6   5   71.19    3.80
  -3  -6   5   70.69    4.20
  -3  -6   5   75.19    3.20
  -3  -6   5   72.39    2.80
  -3  -6   5   73.69    2.60
  -3  -6   5   74.89    3.80
  -3  -6   5   67.69    2.60
  -3  -6   5   72.79    2.90
   2   6  -5  141.89    5.20
  -2  -6   5  149.88    6.40
  -2  -6   5  143.99    4.90
  -2  -6   5  149.29    5.50
  -2  -6   5  148.59    6.20
  -2  -6   5  137.69    5.90
  -1  -6   5    2.80    0.50
  -1  -6   5    3.40    0.80
  -1  -6   5    0.80    1.40
  -1  -6   5   -4.10    5.40
   0  -6   5  507.85   23.20
   0  -6   5  473.15   16.60
   0  -6   5  467.45   17.70
  -1   6  -5  303.77   11.10
   1  -6   5  304.77   20.40
  -2   6  -5    0.80    0.60
  -2   6  -5    1.70    0.20
   2  -6   5    1.50    0.30
   2  -6   5    4.70   10.20
  -3   6  -5   10.90    0.50
  -3   6  -5   11.90    2.00
  -3   6  -5   11.70    0.70
   3  -6   5   11.90    0.70
   3  -6   5   10.10   18.40
  -4   6  -5   28.80    1.10
  -4   6  -5   28.00    1.30
  -4   6  -5   39.70    5.20
   4  -6   5    1.60   33.90
   4  -6   5   29.10    1.40
  -5   6  -5    5.70    0.50
   5  -6   5    5.50    0.50
  -6   6  -5   27.90    1.10
   6  -6   5   29.30    1.20
   6   5  -5   22.50    1.00
  -6  -5   5   22.50    1.10
  -6  -5   5   20.70    1.00
   5   5  -5  152.78    6.10
   5   5  -5  152.58    5.20
  -5  -5   5  154.98    5.40
  -5  -5   5  153.18    5.10
  -5  -5   5  146.49    6.80
  -5  -5   5  141.09    5.20
   4   5  -5   81.19    3.00
   4   5  -5   85.59    3.70
  -4  -5   5   84.89    4.30
  -4  -5   5   75.49    5.50
  -4  -5   5   85.49    4.30
  -4  -5   5   88.49    3.40
  -4  -5   5   82.69    3.00
  -4  -5   5   84.29    3.00
  -4  -5   5   80.99    3.20
  -4  -5   5   83.09    3.80
  -3  -5   5   46.20    2.60
  -3  -5   5   45.60    1.90
  -3  -5   5   45.90    3.00
  -3  -5   5   48.60    2.20
  -3  -5   5   46.30    1.70
  -3  -5   5   47.30    2.70
   2   5  -5  114.39    4.10
  -2  -5   5  117.69    4.30
  -2  -5   5  119.69    4.80
  -2  -5   5  112.09    4.00
  -2  -5   5  111.59    4.40
  -2  -5   5  112.99    4.70
  -1  -5   5  263.97    8.90
  -1  -5   5  260.97    9.40
  -1  -5   5  266.07    9.50
   0   5  -5   14.50    1.00
   0  -5   5   19.20    2.30
   0  -5   5   15.40    1.30
  -1   5  -5   13.70    1.20
   1  -5   5    3.00    4.40
   1  -5   5   14.30    6.30
   1  -5   5   13.40    1.50
  -2   5  -5   18.60    1.70
   2  -5   5   19.80   12.40
  -3   5  -5    3.30    1.00
   3  -5   5   -9.90   17.50
  -4   5  -5   34.80    1.30
  -4   5  -5   32.30    3.10
  -4   5  -5   34.60    1.60
   4  -5   5   37.10    1.60
   4  -5   5    8.40   34.80
  -5   5  -5   90.69    3.30
   5  -5   5   91.89    3.40
  -6   5  -5   25.00    1.00
   6  -5   5   25.90    1.10
   6   4  -5    7.40    0.50
  -6  -4   5    8.60    0.70
  -6  -4   5    8.10    0.60
   5   4  -5    3.70    0.40
   5   4  -5    5.00    0.90
  -5  -4   5    3.70    0.40
  -5  -4   5    3.30    0.40
  -5  -4   5    3.60    1.00
  -5  -4   5    2.40    1.30
  -5  -4   5    3.80    0.40
  -5  -4   5    2.80    1.50
  -5  -4   5    5.00    0.50
  -5  -4   5    5.30    0.60
   4   4  -5  166.08    6.40
  -4  -4   5  167.98    5.90
  -4  -4   5  167.58    7.00
  -4  -4   5  160.78    5.70
  -4  -4   5  159.18    5.80
  -4  -4   5  161.18    5.50
  -4  -4   5  162.38    6.50
  -4  -4   5  160.18    5.50
  -4  -4   5  162.58    6.50
   3   4  -5   71.09    3.10
  -3  -4   5   74.09    2.70
  -3  -4   5   74.49    2.80
  -3  -4   5   73.09    3.50
  -3  -4   5   66.09    2.70
  -3  -4   5   77.79    3.40
   2   4  -5    8.50    0.60
   2   4  -5    8.60    0.70
  -2  -4   5    8.90    0.90
  -2  -4   5    9.10    0.40
  -2  -4   5    9.30    0.50
  -2  -4   5    8.80    0.70
  -1  -4   5 1475.25   47.90
   0   4  -5  163.38    5.90
   0  -4   5  159.28    6.50
   0  -4   5  168.38    6.20
  -1   4  -5    8.30    1.00
   1  -4   5    5.90    0.90
   1  -4   5   10.00    3.10
   1  -4   5   10.30    6.30
  -2   4  -5   11.30    3.80
  -2   4  -5    6.90    1.10
  -2   4  -5    8.00    1.20
   2  -4   5   16.40   11.50
   2  -4   5    8.70    1.50
  -3   4  -5   55.79    3.40
  -3   4  -5   59.99    9.10
  -3   4  -5   60.89    2.10
  -3   4  -5   61.69    3.60
   3  -4   5   58.79    2.30
   3  -4   5   96.19   23.50
  -4   4  -5   71.29    4.40
  -4   4  -5   67.69    2.40
  -4   4  -5   69.19    2.70
   4  -4   5   54.39   38.60
   4  -4   5   69.89    2.70
  -5   4  -5   21.80    1.10
   5  -4   5   21.80    1.10
  -6   4  -5    0.00    0.20
   6  -4   5   -0.20    0.20
   7   3  -5   20.20    0.80
  -7  -3   5   21.10    0.90
  -7  -3   5   19.70    0.80
   6   3  -5    2.70    0.30
  -6  -3   5    2.30    0.20
  -6  -3   5    2.50    0.40
  -6  -3   5    2.00    0.30
   5   3  -5    0.90    0.30
   5   3  -5    0.90    0.60
  -5  -3   5    0.40    1.10
  -5  -3   5    0.70    0.30
  -5  -3   5    0.90    0.40
  -5  -3   5    0.90    0.20
  -5  -3   5    1.00    0.70
  -5  -3   5    2.70    1.70
   4   3  -5   36.90    2.20
  -4  -3   5   37.10    1.50
  -4  -3   5   40.40    1.80
  -4  -3   5   37.00    1.70
  -4  -3   5   36.50    1.70
  -4  -3   5   41.20    2.60
  -4  -3   5   41.70    2.90
  -4  -3   5   34.70    1.50
  -3  -3   5  375.76   12.80
   0   3  -5   98.69    3.60
   0   3  -5   97.39    3.70
   0  -3   5  106.49    4.00
   0  -3   5   97.09    4.10
   0  -3   5   99.99    3.80
   0  -3   5  100.69    8.10
  -1   3  -5   17.80    1.30
   1  -3   5   12.90    7.30
   1  -3   5   21.80    3.10
   1  -3   5   16.90    1.30
  -2   3  -5    5.30    0.90
  -2   3  -5    5.40    1.00
  -2   3  -5    2.70    3.30
   2  -3   5   -0.70   10.80
   2  -3   5    6.00    0.80
  -3   3  -5  200.08   11.30
  -3   3  -5  202.38    6.60
  -3   3  -5  195.58    8.30
  -3   3  -5  185.18    8.20
   3  -3   5  207.28    7.00
   3  -3   5  215.78   33.40
  -4   3  -5    6.40    0.40
  -4   3  -5    4.70    1.20
   4  -3   5   20.00   37.80
   4  -3   5    7.50    0.80
  -5   3  -5   21.30    1.20
   5  -3   5   22.00    1.20
  -6   3  -5    2.70    0.30
   6  -3   5    3.40    0.40
   7   2  -5    0.40    0.10
  -7  -2   5    0.50    0.20
  -7  -2   5    0.30    0.20
   6   2  -5    5.10    0.40
  -6  -2   5    5.80    0.60
  -6  -2   5    4.20    0.50
  -6  -2   5    5.10    0.30
   5   2  -5    0.50    0.20
   5   2  -5    0.40    0.50
  -5  -2   5    0.40    0.70
  -5  -2   5    0.20    0.40
  -5  -2   5    0.60    1.20
  -5  -2   5    1.40    2.30
  -5  -2   5    0.30    0.30
  -5  -2   5    0.20    0.20
   4   2  -5   30.90    2.00
  -4  -2   5   29.60    1.50
  -4  -2   5   28.00    2.10
  -4  -2   5   32.10    2.20
  -4  -2   5   30.00    1.30
  -4  -2   5   30.50    1.50
  -4  -2   5   28.80    1.40
  -4  -2   5   31.60    3.10
   3   2  -5  100.69    4.10
  -3  -2   5  106.39    4.50
  -3  -2   5  107.19    4.50
  -3  -2   5  107.49    4.00
  -3  -2   5  102.19    3.70
   2   2  -5  114.39    4.00
   2   2  -5  115.69    4.60
  -2  -2   5  121.29    4.60
   0   2  -5    2.10    0.30
   0   2  -5    2.20    0.40
   0  -2   5    2.00    0.50
   0  -2   5    9.30    5.00
   0  -2   5   -1.90    3.80
   1  -2   5 1557.44   63.59
  -3   2  -5  183.68   10.70
  -3   2  -5  180.88    8.00
  -3   2  -5  194.88    7.90
  -3   2  -5  194.78    6.30
   3  -2   5  187.08    7.20
   3  -2   5  179.98   28.90
  -4   2  -5    5.40    6.70
  -4   2  -5    1.70    1.10
  -4   2  -5    2.10    0.90
   4  -2   5   51.79   39.10
  -5   2  -5    3.80    0.60
   5  -2   5    4.70    0.70
  -6   2  -5   28.10    1.20
   6  -2   5   26.00    1.20
   7   1  -5    4.10    0.30
  -7  -1   5    4.60    0.40
  -7  -1   5    4.30    0.40
   6   1  -5   13.30    0.70
  -6  -1   5   13.20    0.80
  -6  -1   5   14.00    0.90
  -6  -1   5   13.60    0.60
   5   1  -5    9.30    1.50
   5   1  -5    9.70    0.60
  -5  -1   5   11.30    0.90
  -5  -1   5    9.60    0.50
  -5  -1   5   10.40    1.60
  -5  -1   5    9.50    0.70
  -5  -1   5   10.20    0.80
   4   1  -5  147.79    5.90
  -4  -1   5  137.39    6.70
  -4  -1   5  145.19    5.60
  -4  -1   5  136.69    4.90
  -4  -1   5  135.39    5.30
  -4  -1   5  134.29    4.70
  -4  -1   5  143.59    5.10
  -4  -1   5  135.19    5.90
   3   1  -5   63.99    2.90
  -3  -1   5   64.29    2.80
  -3  -1   5   67.19    2.50
  -3  -1   5   70.29    3.10
   2   1  -5   82.29    3.20
   2   1  -5   84.69    3.20
  -2  -1   5   84.69    3.00
  -2  -1   5   85.09    8.80
  -2  -1   5   83.19    3.40
   0   1  -5    3.10    0.50
   0   1  -5    3.30    0.40
   0  -1   5   -3.90    4.50
   0  -1   5    9.70    4.90
  -1   1  -5   90.49    4.10
  -1   1  -5  101.29    4.00
   1  -1   5   92.69   13.80
  -2   1  -5   13.50    1.80
  -2   1  -5   15.40    4.10
  -2   1  -5   15.40    1.40
  -3   1  -5   63.79    3.60
  -3   1  -5   71.69    8.00
  -3   1  -5   64.29    2.40
  -3   1  -5   72.39    3.00
   3  -1   5   66.09    3.20
   3  -1   5   74.59    2.80
   3  -1   5   73.69   28.20
  -4   1  -5   27.90    1.10
  -4   1  -5   21.60    2.70
  -4   1  -5   27.70    1.50
   4  -1   5   11.00   43.40
   4  -1   5   29.50    1.10
   4  -1   5   27.80    1.50
  -5   1  -5  135.19    4.90
   5  -1   5  134.19    4.90
  -6   1  -5   23.00    1.10
   6  -1   5   22.10    1.00
   7   0  -5    0.90    0.10
  -7   0   5    0.80    0.20
  -7   0   5    0.60    0.20
   6   0  -5    0.00    0.20
  -6   0   5    0.10    0.30
  -6   0   5    0.40    0.20
  -6   0   5    0.30    0.10
   5   0  -5   53.99    3.40
   5   0  -5   52.59    2.00
  -5   0   5   53.79    2.20
  -5   0   5   54.29    3.40
  -5   0   5   56.89    2.30
  -5   0   5   54.69    2.00
   4   0  -5   15.50    1.50
  -4   0   5   13.00    0.80
  -4   0   5   14.50    1.00
  -4   0   5   13.40    0.80
  -4   0   5   13.70    0.60
  -4   0   5   14.70    1.40
  -4   0   5   11.30    1.50
   3   0  -5   56.99    2.60
  -3   0   5   53.49    2.20
  -3   0   5   57.19    2.70
  -3   0   5   49.50   16.80
  -3   0   5   56.59    2.60
   2   0  -5   12.10    0.70
  -2   0   5   12.80    0.70
  -2   0   5   11.60    0.80
  -2   0   5   12.90    1.00
  -2   0   5   19.30    8.90
   1   0  -5  144.49    5.20
  -1   0   5  158.48    5.30
  -1   0   5  142.59    5.30
  -1   0   5  171.98   12.00
  -1   0   5  161.48    5.60
   0   0  -5    4.90    0.60
   0   0   5    6.00    6.30
   0   0   5   -2.90    5.20
  -1   0  -5  208.28    7.10
  -1   0  -5  179.48    8.80
  -1   0  -5  182.48    7.30
   1   0   5  183.18    6.50
   1   0   5  183.98   20.40
  -2   0  -5   71.69    3.40
  -2   0  -5   65.49    3.60
  -2   0  -5   67.39    6.20
   2   0   5   67.29    2.80
   2   0   5   60.69   17.30
  -3   0  -5    0.30    0.40
  -3   0  -5    0.50    0.70
  -3   0  -5    0.40    0.20
  -3   0  -5    0.90    0.60
   3   0   5    1.20    0.50
   3   0   5    0.80    0.20
   3   0   5    1.20    0.40
   3   0   5    8.70   25.50
  -4   0  -5   26.70    3.10
  -4   0  -5   36.10    1.80
  -4   0  -5   37.00    8.40
  -4   0  -5   33.90    1.30
   4   0   5  129.89   55.19
   4   0   5   35.00    1.30
   4   0   5   34.60    1.70
  -5   0  -5   45.00    4.70
  -5   0  -5   45.40    2.10
   5   0   5   46.60    2.00
  -6   0  -5    6.20    0.50
   6   0   5    6.80    0.50
  -7   1   5   23.10    1.00
   6  -1  -5   53.39    1.90
  -6   1   5   51.09    2.00
  -6   1   5   51.69    2.10
  -6   1   5   54.09    1.90
  -6   1   5   49.40    3.80
   5  -1  -5   19.80    2.40
   5  -1  -5   17.30    0.80
  -5   1   5   17.90    1.00
  -5   1   5   18.30    1.00
  -5   1   5   17.60    0.80
  -5   1   5   20.10    1.40
  -5   1   5   14.20    1.90
  -5   1   5   18.90    2.30
   4  -1  -5  197.98    7.20
   4  -1  -5  212.38    8.30
  -4   1   5  207.98    6.90
  -4   1   5  203.48    7.10
  -4   1   5  212.98    7.40
  -4   1   5  204.88    7.10
  -4   1   5  224.78    8.60
   3  -1  -5   55.29    2.60
  -3   1   5   54.99    2.30
  -3   1   5   45.60   24.60
  -3   1   5   55.79    2.60
  -3   1   5   57.29    2.90
   2  -1  -5    6.80    0.60
  -2   1   5    8.40   13.70
  -2   1   5    6.50    0.50
  -2   1   5    7.00    1.00
  -2   1   5    7.40    0.60
   1  -1  -5   11.20    0.70
  -1   1   5   19.60    8.70
   0  -1  -5   59.39    2.50
  -1  -1  -5   16.60    4.00
  -1  -1  -5   24.00    1.50
  -1  -1  -5   22.40    1.80
   1   1   5   24.20    1.20
   1   1   5   33.30   12.00
  -2  -1  -5   26.90    1.80
  -2  -1  -5   25.50    2.10
  -2  -1  -5   21.60    4.60
   2   1   5   26.10    1.40
   2   1   5   39.00   18.70
  -3  -1  -5    9.30    0.50
  -3  -1  -5    3.30    5.90
  -3  -1  -5   10.30    1.00
  -3  -1  -5    7.40    1.20
  -3  -1  -5    9.50    1.80
   3   1   5    9.40    0.80
   3   1   5   12.20   31.40
   3   1   5    9.40    0.50
  -4  -1  -5  150.78    5.60
  -4  -1  -5  147.39    7.90
  -4  -1  -5  143.79   15.00
  -4  -1  -5  152.58    5.10
  -4  -1  -5  161.78    8.00
   4   1   5  160.18    5.10
   4   1   5  129.29   66.49
   4   1   5  153.28    5.60
  -5  -1  -5   20.90    1.20
   5   1   5   22.90    1.20
  -6  -1  -5   14.20    0.80
   6   1   5   13.80    0.70
   7  -2  -5   20.30    0.70
  -7   2   5   20.20    0.80
   6  -2  -5   50.29    1.80
  -6   2   5   49.30    1.80
  -6   2   5   52.29    1.90
  -6   2   5   47.90    2.00
   5  -2  -5   29.70    2.60
   5  -2  -5   30.20    1.20
  -5   2   5   26.90    3.20
  -5   2   5   31.50    1.20
  -5   2   5   30.00    1.40
  -5   2   5   30.60    1.80
  -5   2   5   31.00    2.30
  -5   2   5   31.80    1.40
   4  -2  -5   25.60    1.10
   4  -2  -5   28.90    2.20
  -4   2   5   26.00    1.20
  -4   2   5   27.20    1.60
  -4   2   5   27.50    1.20
  -4   2   5   26.60    1.10
  -4   2   5   24.00    2.50
   3  -2  -5    1.90    0.60
  -3   2   5    2.40    0.50
  -3   2   5    1.70    1.00
  -3   2   5    2.50    0.50
  -3   2   5    1.80    0.20
   2  -2  -5  210.28    7.40
  -2   2   5  217.48    7.50
  -2   2   5  181.98   27.90
  -2   2   5  222.38    8.10
  -2   2   5  204.08    7.10
  -1   2   5  430.56   15.50
  -1   2   5  418.16   34.70
   0  -2  -5  115.19    4.50
   0   2   5  123.29    4.70
   0   2   5  119.69    5.40
  -1  -2  -5  150.78    5.40
  -1  -2  -5  131.99    5.90
  -1  -2  -5  119.39    8.10
   1   2   5  142.29    5.10
   1   2   5  129.49   20.60
  -2  -2  -5    4.70    1.20
  -2  -2  -5    6.80    1.00
  -2  -2  -5    6.80    1.00
  -2  -2  -5    6.70    0.40
  -2  -2  -5    2.30    4.80
   2   2   5    4.80    0.70
   2   2   5    6.40    0.50
   2   2   5   14.50   21.30
   2   2   5    6.50    0.60
  -3  -2  -5    1.80    0.70
  -3  -2  -5   12.30    7.10
  -3  -2  -5    2.10    1.20
  -3  -2  -5    1.20    0.50
   3   2   5  -26.10   39.50
   3   2   5    1.50    0.50
  -4  -2  -5    4.20    9.70
   4   2   5  140.99   82.19
  -5  -2  -5   12.40    0.90
   5   2   5   12.60    0.90
  -6  -2  -5    4.60    0.40
   6   2   5    4.90    0.40
  -6   3   5   17.60    0.70
  -6   3   5   17.20    0.80
   5  -3  -5    1.60    0.20
   5  -3  -5    2.00    1.00
  -5   3   5    1.00    0.30
  -5   3   5    1.40    0.50
  -5   3   5    0.50    1.80
  -5   3   5    1.20    0.30
  -5   3   5    1.60    0.30
   4  -3  -5    1.00    0.20
   4  -3  -5    0.60    0.60
  -4   3   5    1.90    0.40
  -4   3   5    0.70    0.40
  -4   3   5    0.60    0.20
  -4   3   5    0.20    1.40
   3  -3  -5    1.20    0.20
   3  -3  -5    0.70    0.50
  -3   3   5    0.90    0.40
  -3   3   5    1.00    0.20
  -3   3   5   -0.10    1.00
  -3   3   5    0.90    0.20
  -3   3   5    1.10    0.20
   2  -3  -5   73.69    3.10
  -2   3   5   73.49    3.10
  -2   3   5   71.89    3.80
   1  -3  -5    1.30    0.40
  -1   3   5    0.20    0.30
  -1   3   5   -0.20    0.80
   0  -3  -5   13.10    1.00
   0  -3  -5   51.69   35.80
   0   3   5    8.80    1.80
   0   3   5   11.20    1.30
  -1  -3  -5   33.90    5.60
  -1  -3  -5   42.40    2.20
  -1  -3  -5   40.70    2.80
   1   3   5   40.80    2.00
   1   3   5   27.00   17.60
  -2  -3  -5    0.40    0.50
  -2  -3  -5    0.30    0.40
  -2  -3  -5   -2.60    5.40
  -2  -3  -5    0.90    0.80
  -2  -3  -5   -0.10    0.30
  -2  -3  -5    0.40    0.20
   2   3   5   -0.20    0.30
   2   3   5    0.00    0.30
   2   3   5    0.50    0.20
   2   3   5  -24.00   25.30
   2   3   5    0.00    0.20
  -3  -3  -5  379.76   29.20
  -3  -3  -5  377.36   14.20
  -3  -3  -5  391.06   14.40
  -3  -3  -5  396.16   16.30
  -3  -3  -5  434.96   14.40
  -3  -3  -5  413.66   13.10
   3   3   5  332.07   66.79
   3   3   5  386.46   13.10
   3   3   5  417.06   13.60
  -4  -3  -5    1.50    0.50
   4   3   5    1.50    0.50
  -5  -3  -5    0.10    0.30
   5   3   5    0.40    0.30
   6  -4  -5    0.20    0.10
  -6   4   5    0.20    0.20
  -5   4   5   12.00    0.70
  -5   4   5   12.40    2.40
  -5   4   5    8.50    1.10
  -4   4   5   96.29    5.40
  -4   4   5   89.79    3.40
  -4   4   5   94.29    3.30
  -4   4   5   97.89    3.30
  -4   4   5   92.09    4.10
   3  -4  -5    0.70    0.20
   3  -4  -5    0.10    0.40
  -3   4   5    1.30    0.50
  -3   4   5    0.70    0.20
  -3   4   5    1.10    1.30
  -3   4   5    0.60    0.20
  -3   4   5    0.60    0.20
   2  -4  -5  367.36   14.30
   2  -4  -5  382.36   12.80
  -2   4   5  398.06   13.00
  -2   4   5  415.36   14.80
  -2   4   5  411.46   13.80
   1  -4  -5  226.18    7.90
  -1   4   5  219.18    9.10
  -1   4   5  210.88    7.30
  -1   4   5  216.28    8.10
   0  -4  -5    7.00    0.40
   0  -4  -5    6.50    0.80
   0   4   5    6.30    0.50
   0   4   5    8.60    1.20
   0   4   5    4.70    1.90
  -1  -4  -5   14.70    6.60
  -1  -4  -5   14.80    1.30
  -1  -4  -5   16.90    2.30
  -1  -4  -5   15.00    0.70
   1   4   5   14.70    0.90
   1   4   5   33.70   23.30
   1   4   5   13.50    0.70
  -2  -4  -5  248.08    8.70
  -2  -4  -5  257.97   11.10
  -2  -4  -5  225.88   16.10
  -2  -4  -5  244.28    9.30
  -2  -4  -5  253.47    8.20
   2   4   5  256.87    8.70
   2   4   5  371.86   52.89
   2   4   5  252.67    8.30
   2   4   5  238.38    8.20
  -3  -4  -5   90.59    3.70
  -3  -4  -5   91.89    3.10
  -3  -4  -5   65.89   11.70
   3   4   5   88.89    3.10
   3   4   5  122.49   67.89
   3   4   5   92.59    3.60
  -4  -4  -5   77.39    3.20
   4   4   5   75.09    3.10
  -5  -4  -5    1.50    0.30
   5   4   5    1.70    0.40
   6  -5  -5    0.10    0.10
  -6   5   5    0.20    0.10
   5  -5  -5    6.30    0.40
  -5   5   5    6.00    0.40
  -5   5   5    5.30    0.60
   4  -5  -5   29.70    2.60
   4  -5  -5   28.20    1.10
  -4   5   5   26.40    1.20
  -4   5   5   27.70    1.90
  -4   5   5   30.20    1.20
  -4   5   5   22.10    4.00
   3  -5  -5    0.80    0.60
   3  -5  -5    0.60    0.20
  -3   5   5    1.90    1.80
  -3   5   5    0.60    0.50
  -3   5   5    0.30    0.20
  -3   5   5    0.00    0.20
   2  -5  -5   39.10    2.30
   2  -5  -5   38.60    1.40
  -2   5   5   41.60    2.30
  -2   5   5   38.30    1.50
  -2   5   5   38.10    1.50
   1  -5  -5  116.09    4.70
   1  -5  -5  114.99    3.80
  -1   5   5  104.69    6.10
  -1   5   5  113.89    4.00
   0  -5  -5    5.50    0.40
   0  -5  -5    6.00    0.70
   0  -5  -5    3.90    0.70
   0   5   5    5.60    0.60
   0   5   5    4.70    0.40
   0   5   5    7.40    1.30
   0   5   5    3.90    2.60
  -1  -5  -5   32.80    2.10
  -1  -5  -5   35.10    1.30
  -1  -5  -5   32.50    1.70
   1   5   5   22.50   30.20
   1   5   5   33.40    1.40
   1   5   5   34.90    1.60
  -2  -5  -5    7.10    1.10
  -2  -5  -5    8.40    0.90
  -2  -5  -5    8.50    0.50
   2   5   5    6.80    0.80
   2   5   5   31.90   51.59
   2   5   5    7.80    0.50
  -3  -5  -5    3.10    0.20
  -3  -5  -5    3.40    0.60
   3   5   5    2.30    0.50
  -4  -5  -5   28.00    1.50
   4   5   5   24.50    1.40
  -5  -5  -5    8.10    0.60
   5   5   5    7.30    0.70
   6  -6  -5   40.30    1.40
   5  -6  -5    8.60    0.40
  -5   6   5    9.20    0.50
   4  -6  -5   67.09    6.20
   4  -6  -5   87.79    3.00
  -4   6   5   80.59    5.90
  -4   6   5   84.99    3.30
  -4   6   5   82.19    4.00
   3  -6  -5   12.40    0.60
   3  -6  -5   15.10    2.00
  -3   6   5   12.90    2.10
  -3   6   5   12.10    2.80
  -3   6   5   13.40    0.70
   2  -6  -5  175.88    5.70
   2  -6  -5  170.18    7.10
  -2   6   5  174.08    5.90
  -2   6   5  172.18    8.60
  -2   6   5  163.08    7.00
   1  -6  -5   83.69    3.30
   1  -6  -5   85.39    3.00
  -1   6   5   86.69    3.30
  -1   6   5   92.99    6.40
  -1   6   5   97.19    4.50
   0  -6  -5  265.17    9.40
   0  -6  -5  255.07    8.70
   0   6   5  247.68    8.30
   0   6   5  235.28   10.00
   0   6   5  245.78   12.20
   1   6   5   42.10   40.80
  -2  -6  -5    1.70    0.50
   2   6   5    0.90    0.40
   2   6   5 -102.59   72.29
  -3  -6  -5   12.20    1.00
   3   6   5   12.30    1.00
   4   6   5    5.00    0.60
  -5   7   5    1.80    0.40
   4  -7  -5   11.70    0.50
  -4   7   5   10.90    0.70
  -4   7   5   10.30    3.70
   3  -7  -5   51.19    1.70
   3  -7  -5   44.80    3.40
  -3   7   5   45.90    2.90
  -3   7   5   46.70    5.10
  -3   7   5   49.20    1.90
   2  -7  -5    0.20    0.40
   2  -7  -5    0.10    0.60
   2  -7  -5   -0.10    0.10
  -2   7   5    0.20    0.20
  -2   7   5    0.30    0.60
  -2   7   5   -4.60    2.90
   1  -7  -5  530.25   17.80
  -1   7   5  541.75   21.50
   0  -7  -5  113.09    4.30
   0  -7  -5  113.29    3.80
   0   7   5  113.59    4.20
   1   7   5  117.69   86.89
  -2  -7  -5    3.80    0.70
   2   7   5    3.20    0.60
  -3  -7  -5    3.00    0.50
   3   7   5    3.60    0.50
  -4  -7  -5    0.50    0.20
   4   7   5    0.60    0.30
   5  -8  -5   23.00    0.80
  -5   8   5   23.40    0.90
   4  -8  -5    0.10    0.10
  -4   8   5    0.10    0.20
   3  -8  -5    0.10    0.10
   3  -8  -5    0.00    0.50
  -3   8   5    0.10    0.20
  -3   8   5    0.70    4.30
   2  -8  -5   13.80    1.00
   2  -8  -5   13.70    0.70
   2  -8  -5    9.70    2.40
  -2   8   5   14.50    1.10
  -2   8   5    6.70    4.50
   1  -8  -5    9.70    0.50
  -1   8   5   18.00    5.30
  -1   8   5   10.30    0.80
  -1   8   5    7.90    1.70
   0   8   5  -59.89   57.59
  -1  -8  -5   51.89    2.40
  -1  -8  -5   51.89    1.80
   1   8   5   20.60   97.09
   1   8   5   55.39    2.40
  -2  -8  -5    7.10    0.80
   2   8   5    6.70    0.80
  -3  -8  -5   11.80    0.80
   3   8   5   11.80    0.80
   4  -9  -5    1.00    0.10
  -4   9   5    1.20    0.20
   3  -9  -5    7.20    0.50
   3  -9  -5    6.80    0.70
  -3   9   5    6.50    0.60
   2  -9  -5   31.70    1.20
  -2   9   5   30.90    1.40
   1  -9  -5   13.70    0.60
   1  -9  -5   14.20    1.00
  -1   9   5   13.50    0.90
   0  -9  -5   21.10    1.20
   0   9   5   21.30    1.20
  -1  -9  -5    0.30    0.30
   1   9   5    0.20    0.30
  -2  -9  -5    1.40    0.30
   2   9   5    1.20    0.30
  -3  10   5    0.00    0.20
   2 -10  -5   22.80    1.30
  -2  10   5   21.40    1.10
   1 -10  -5    0.00    0.30
  -1  10   5    0.20    0.30
   0 -10  -5    0.10    0.30
   0  10   5    0.20    0.30
  -1 -10  -5    7.60    0.60
   1  10   5    8.60    0.70
   1 -11  -5    2.20    0.30
  -1  11   5    2.20    0.30
   1  14  -6    3.20    0.30
   0  14  -6    3.60    0.30
   0 -14   6    3.20    0.30
   0 -14   6    3.30    0.30
  -1  14  -6    9.20    0.40
   1 -14   6    8.90    0.50
   1 -14   6    9.50    0.60
   2  13  -6    0.60    0.20
  -2 -13   6    0.50    0.20
  -2 -13   6    0.20    0.20
   1  13  -6    0.20    0.20
  -1 -13   6    0.30    0.30
  -1 -13   6    0.20    0.20
  -1 -13   6    0.20    0.20
   0  13  -6   34.40    1.30
   0 -13   6   32.50    1.40
   0 -13   6   31.10    1.30
   0 -13   6   34.30    1.80
  -1  13  -6    7.30    0.40
   1 -13   6    7.50    0.50
  -2  13  -6    1.70    0.20
   2 -13   6    2.40    0.30
   2 -13   6    2.00    0.30
   3 -13   6    0.40    0.20
   3  12  -6   12.10    0.60
  -3 -12   6   11.00    0.60
  -3 -12   6   11.30    0.70
   2  12  -6   13.00    0.70
  -2 -12   6   11.70    0.80
  -2 -12   6   11.40    0.70
  -2 -12   6   12.10    0.80
   1  12  -6   24.20    1.00
  -1 -12   6   20.50    1.10
  -1 -12   6   21.70    1.00
  -1 -12   6   17.20    3.70
  -1 -12   6   21.70    1.10
   0  12  -6   13.20    0.70
   0 -12   6   13.90    0.80
   0 -12   6   12.10    0.70
   0 -12   6   13.90    0.90
  -1  12  -6    0.40    0.20
   1 -12   6  -10.30   27.80
   1 -12   6    0.60    0.20
  -2  12  -6   86.29    2.90
   2 -12   6   86.19    3.10
  -3  12  -6   11.20    0.50
   4  11  -6    8.90    0.50
  -4 -11   6    7.90    0.60
  -4 -11   6    7.50    0.50
   3  11  -6    1.10    0.20
  -3 -11   6    1.20    0.30
  -3 -11   6    0.40    0.20
   2  11  -6   43.70    2.90
   2  11  -6   48.50    1.80
  -2 -11   6   48.00    1.80
  -2 -11   6   47.20    1.90
  -2 -11   6   45.20    2.00
  -2 -11   6   44.40    2.20
  -2 -11   6   44.60    4.50
   1  11  -6   40.60    2.90
   1  11  -6   45.00    1.60
  -1 -11   6   43.50    1.70
  -1 -11   6   40.30    4.70
  -1 -11   6   41.90    1.90
  -1 -11   6   42.60    2.50
  -1 -11   6   41.80    1.80
   0  11  -6  201.68    6.60
   0  11  -6  184.58    8.60
   0 -11   6  169.08   26.90
   0 -11   6  200.78    6.70
   0 -11   6  198.38    6.90
   0 -11   6  198.58    6.60
  -1  11  -6   11.40    2.00
  -1  11  -6   10.80    0.60
   1 -11   6   10.50    0.70
   1 -11   6   -1.50   20.00
  -2  11  -6   74.49    2.60
   2 -11   6   43.80   23.80
   2 -11   6   73.79    2.70
  -3  11  -6  252.07    8.30
   3 -11   6  257.47    8.50
  -4  11  -6   60.29    2.20
   4 -11   6   63.49    2.20
   5  10  -6   10.10    0.50
   4  10  -6    3.50    0.40
  -4 -10   6    3.30    0.40
  -4 -10   6    3.60    0.50
   3  10  -6  122.79    5.20
   3  10  -6  127.09    4.10
  -3 -10   6  118.59    4.10
  -3 -10   6  117.29    4.30
  -3 -10   6  124.99    4.20
  -3 -10   6   98.99    6.00
   2  10  -6  108.89    4.80
   2  10  -6  100.59    3.60
  -2 -10   6  102.89    3.70
  -2 -10   6  103.19    3.60
  -2 -10   6  107.29    4.40
  -2 -10   6   99.29    5.20
  -2 -10   6  104.19    3.90
   1  10  -6  155.78    5.20
   1  10  -6  153.08    6.70
  -1 -10   6  156.68    5.60
  -1 -10   6  161.88    5.30
  -1 -10   6  154.98    5.40
   0  10  -6    2.80    0.30
   0 -10   6    3.30    0.40
   0 -10   6   -0.50   14.30
   0 -10   6    3.20    0.40
  -1  10  -6    7.10    0.40
  -1  10  -6    6.90    1.50
   1 -10   6    7.20    0.50
   1 -10   6    5.90   14.10
   1 -10   6    7.80    0.60
  -2  10  -6   26.40    1.00
  -2  10  -6   18.90    2.60
   2 -10   6   27.30   21.10
   2 -10   6   25.90    1.20
  -3  10  -6   19.20    0.80
  -3  10  -6   16.50    0.90
   3 -10   6   18.80    0.90
   3 -10   6   -9.20   23.60
  -4  10  -6   85.19    3.00
   4 -10   6   83.69    3.00
  -5  10  -6    2.40    0.40
   5 -10   6    1.80    0.20
   5   9  -6   10.30    0.60
  -5  -9   6    8.40    0.60
   4   9  -6   23.30    1.10
  -4  -9   6   23.80    1.20
  -4  -9   6   23.50    1.10
   3   9  -6    2.00    0.60
   3   9  -6    2.10    0.30
  -3  -9   6    2.00    0.40
  -3  -9   6    3.40    1.10
  -3  -9   6    1.60    0.30
  -3  -9   6    2.10    0.30
   2   9  -6  391.46   13.30
   2   9  -6  354.86   12.50
  -2  -9   6  394.16   12.40
  -2  -9   6  389.96   14.40
  -2  -9   6  363.16   13.20
  -2  -9   6  394.76   13.30
  -2  -9   6  344.07   14.80
  -2  -9   6  368.06   12.50
  -2  -9   6  380.26   12.60
  -2  -9   6  374.26   14.20
   1   9  -6   46.60    2.60
   1   9  -6   45.90    1.70
  -1  -9   6   47.50    3.10
  -1  -9   6   46.40    1.80
  -1  -9   6   46.30    1.80
  -1  -9   6   38.00   14.80
  -1  -9   6   48.10    2.00
   0   9  -6    0.20    0.50
   0   9  -6    0.20    0.10
   0  -9   6   -1.00    9.90
   0  -9   6    0.00    0.20
   0  -9   6    0.00    0.20
  -1   9  -6   -0.20    0.50
  -1   9  -6    0.00    0.10
   1  -9   6    0.20    0.20
   1  -9   6    1.00   11.00
  -2   9  -6   27.10    3.60
  -2   9  -6   30.20    1.10
   2  -9   6   28.60    1.30
   2  -9   6   34.40   15.90
  -3   9  -6    7.60    0.40
  -3   9  -6    6.90    1.80
  -3   9  -6    8.40    0.60
   3  -9   6    8.00    0.60
   3  -9   6    6.50   23.70
  -4   9  -6    3.10    0.40
  -4   9  -6    2.40    0.20
   4  -9   6    3.50    0.40
  -5   9  -6    7.30    0.40
   5  -9   6    7.60    0.50
   6   8  -6   12.90    0.60
   5   8  -6   11.50    0.70
  -5  -8   6   11.80    0.60
  -5  -8   6   10.70    0.70
  -5  -8   6   12.20    0.80
   4   8  -6    0.20    0.40
  -4  -8   6   -0.10    0.30
  -4  -8   6    0.20    0.60
  -4  -8   6    0.10    0.40
  -4  -8   6    0.20    0.20
   3   8  -6  152.48    5.50
  -3  -8   6  158.38    5.50
  -3  -8   6  166.28    5.80
  -3  -8   6  170.58    5.50
  -3  -8   6  161.38    7.50
   2   8  -6   23.40    1.50
  -2  -8   6   21.50    2.50
  -2  -8   6   21.10    2.90
  -2  -8   6   23.70    1.60
  -2  -8   6   22.50    2.00
  -2  -8   6   22.40    1.20
  -2  -8   6   21.10    1.10
  -2  -8   6   24.90    1.50
  -2  -8   6   24.10    1.00
   1   8  -6   27.00    1.70
  -1  -8   6   27.90    1.30
  -1  -8   6   27.30    1.20
  -1  -8   6   28.20    1.10
  -1  -8   6   25.10    1.80
  -1  -8   6   26.40   10.90
  -1  -8   6   27.20    2.10
   0   8  -6   61.19    2.20
   0   8  -6   65.69    3.30
   0  -8   6   71.39   11.40
   0  -8   6   65.39    2.30
   0  -8   6   62.19    2.30
  -1   8  -6  148.39    6.50
  -1   8  -6  138.69    4.70
   1  -8   6  139.99    4.80
   1  -8   6  144.69   19.80
   1  -8   6  138.39    4.80
  -2   8  -6    0.30    0.80
  -2   8  -6    0.00    0.10
   2  -8   6   -8.60   12.00
   2  -8   6    0.80    0.20
   2  -8   6    0.00    0.20
  -3   8  -6    3.50    0.40
  -3   8  -6    2.80    1.30
  -3   8  -6    4.30    0.30
   3  -8   6   -8.20   19.20
   3  -8   6    5.30    0.50
  -4   8  -6    8.00    0.40
  -4   8  -6    7.20    0.50
   4  -8   6    8.50    0.60
   4  -8   6   12.50   33.30
  -5   8  -6    0.60    0.20
   5  -8   6    1.10    0.30
   6   7  -6    0.20    0.20
  -6  -7   6    0.20    0.20
  -6  -7   6    0.10    0.20
   5   7  -6   62.19    2.40
  -5  -7   6   61.99    2.40
  -5  -7   6   65.69    2.50
  -5  -7   6   65.09    2.40
   4   7  -6  343.67   11.60
   4   7  -6  361.96   12.30
  -4  -7   6  361.16   13.50
  -4  -7   6  349.17   11.90
  -4  -7   6  366.76   11.70
  -4  -7   6  324.27   11.50
  -4  -7   6  357.96   11.70
   3   7  -6    0.80    0.40
  -3  -7   6   -0.10    0.40
  -3  -7   6    0.30    0.30
  -3  -7   6   -0.10    0.20
  -3  -7   6    0.50    0.20
  -3  -7   6    0.00    0.20
   2   7  -6   30.80    1.50
  -2  -7   6   29.30    1.40
  -2  -7   6   28.90    1.20
  -2  -7   6   26.00    1.20
  -2  -7   6   28.60    1.40
  -2  -7   6   24.70    2.50
  -2  -7   6   31.50    1.60
  -2  -7   6   27.40    2.40
  -2  -7   6   30.80    2.20
   1   7  -6   34.40    1.70
  -1  -7   6   34.20    2.30
  -1  -7   6   33.30    1.50
  -1  -7   6   32.80    8.90
  -1  -7   6   33.00    1.30
   0   7  -6  335.57   11.50
   0  -7   6  316.07   13.50
   0  -7   6  300.57   11.60
   0  -7   6  343.97   19.60
   1  -7   6   79.39    2.80
   1  -7   6   62.79   11.30
  -2   7  -6   36.90    1.30
  -2   7  -6   40.50    3.00
   2  -7   6   37.30    1.50
   2  -7   6   23.40   12.00
   2  -7   6   36.00    1.40
  -3   7  -6    7.70    1.60
  -3   7  -6    8.40    0.60
  -3   7  -6    9.10    0.50
   3  -7   6   23.20   18.50
   3  -7   6    9.60    0.60
  -4   7  -6    1.20    0.30
  -4   7  -6    0.90    0.20
  -4   7  -6    2.50    2.90
   4  -7   6    5.50   30.40
   4  -7   6    1.40    0.30
  -5   7  -6    0.70    0.20
   5  -7   6    0.50    0.20
   6   6  -6   19.60    0.90
  -6  -6   6   19.30    0.90
  -6  -6   6   19.70    0.90
   5   6  -6   18.30    1.40
   5   6  -6   17.50    0.90
  -5  -6   6   19.60    1.00
  -5  -6   6   12.90    1.80
  -5  -6   6   18.00    1.10
  -5  -6   6   18.90    0.90
  -4  -6   6  178.28    6.40
  -4  -6   6  181.78    6.10
  -4  -6   6  181.38    6.30
   3   6  -6  330.27   11.40
  -3  -6   6  333.07   11.30
  -3  -6   6  316.37   11.00
  -3  -6   6  339.47   11.00
  -3  -6   6  354.86   12.60
   2   6  -6   14.30    0.90
  -2  -6   6   14.70    1.30
  -2  -6   6   16.00    0.80
  -2  -6   6   14.70    0.70
  -2  -6   6   13.90    0.70
  -2  -6   6   13.90    1.40
  -2  -6   6   14.10    0.90
  -2  -6   6   13.10    1.30
   1   6  -6    2.10    0.40
  -1  -6   6    0.80    5.10
  -1  -6   6    3.40    0.80
  -1  -6   6    0.50    1.20
   0   6  -6    5.60    0.80
   0  -6   6    7.50    2.40
   0  -6   6    4.50    0.80
   0  -6   6   -2.20    3.90
   0  -6   6    4.30    0.90
  -1   6  -6   25.50    1.90
   1  -6   6   24.10    7.60
  -2   6  -6   22.30    2.10
   2  -6   6   13.60   10.60
   2  -6   6   20.90    1.00
  -3   6  -6   27.70    1.30
  -3   6  -6   27.60    1.00
  -3   6  -6   31.50    2.80
   3  -6   6   25.40    1.40
   3  -6   6   22.70   19.10
  -4   6  -6    2.70    0.20
  -4   6  -6    2.70    1.30
  -4   6  -6    3.40    0.40
   4  -6   6   16.70   40.60
   4  -6   6    2.90    0.40
  -5   6  -6    1.40    0.30
   5  -6   6    1.30    0.30
  -6   6  -6    0.10    0.20
   6  -6   6    0.40    0.20
   6   5  -6    2.90    0.30
  -6  -5   6    3.00    0.40
  -6  -5   6    2.30    0.40
   5   5  -6    2.20    0.40
   5   5  -6    3.40    0.70
  -5  -5   6    2.80    0.50
  -5  -5   6    2.20    0.90
  -5  -5   6    2.60    0.40
  -5  -5   6    2.60    0.40
   4   5  -6    8.00    1.00
  -4  -5   6    8.20    1.40
  -4  -5   6    7.70    0.70
  -4  -5   6    7.30    0.60
  -4  -5   6    7.40    0.40
   3   5  -6   80.19    3.20
  -3  -5   6   74.99    2.80
  -3  -5   6   73.79    2.90
  -3  -5   6   81.59    3.90
   2   5  -6   46.40    2.30
   2   5  -6   49.20    1.90
  -2  -5   6   48.70    2.60
   0   5  -6   77.39    3.10
   0  -5   6   72.29    7.80
   0  -5   6   72.49    4.10
   0  -5   6   69.79    3.00
   0  -5   6   72.99    3.50
  -1   5  -6   18.30    1.50
   1  -5   6   17.60    1.50
   1  -5   6   13.00    7.20
   1  -5   6   17.90    4.40
  -2   5  -6   -0.30    0.40
   2  -5   6    0.30    0.20
   2  -5   6   -1.90    9.80
  -3   5  -6   35.50    1.80
  -3   5  -6   41.40    1.40
  -3   5  -6   40.40    3.10
   3  -5   6   42.70   30.30
   3  -5   6   34.70    1.60
   3  -5   6   42.40    1.70
  -4   5  -6   26.40    3.00
  -4   5  -6   33.40    1.50
  -4   5  -6   33.40    1.20
   4  -5   6   35.60    1.60
   4  -5   6  -36.00   32.30
  -5   5  -6   15.10    0.60
  -5   5  -6   14.70    0.80
   5  -5   6   15.00    0.90
  -6   5  -6    1.40    0.20
   6  -5   6    1.70    0.30
   6   4  -6   10.20    0.60
  -6  -4   6    9.80    0.70
  -6  -4   6    9.50    0.70
   5   4  -6    0.50    0.50
   5   4  -6    0.60    0.20
  -5  -4   6    1.40    0.80
  -5  -4   6    0.70    0.40
  -5  -4   6    1.80    0.40
   4   4  -6   11.30    1.10
  -4  -4   6    9.70    0.80
  -4  -4   6    9.60    0.50
  -4  -4   6    9.80    1.40
  -4  -4   6    9.70    0.60
   3   4  -6   37.90    1.80
  -3  -4   6   32.10    1.50
  -3  -4   6   38.40    2.30
  -3  -4   6   35.90    1.60
   2   4  -6   36.00    1.50
   2   4  -6   35.80    1.50
  -2  -4   6   31.90    2.00
  -1  -4   6  491.45   16.90
   0  -4   6  403.26   17.70
   0  -4   6  388.36   13.20
   0  -4   6  392.36   13.80
  -1   4  -6    8.50    1.10
   1  -4   6    8.30    1.10
   1  -4   6    8.70    7.20
   1  -4   6    4.60    3.10
  -2   4  -6   21.30    1.80
   2  -4   6   27.10   12.10
  -3   4  -6    3.90    0.30
  -3   4  -6    3.20    1.00
  -3   4  -6    4.40    0.60
   3  -4   6    3.70    0.50
   3  -4   6   15.20   19.70
  -4   4  -6   83.99    5.00
  -4   4  -6   93.19    3.40
  -4   4  -6   93.79    3.00
   4  -4   6   92.19    3.40
   4  -4   6   95.89   38.10
   4  -4   6   77.79    3.20
  -5   4  -6    0.10    0.10
  -5   4  -6    0.00    0.20
   5  -4   6  -40.70   97.49
   5  -4   6   -0.10    0.30
  -6   4  -6    0.10    0.20
   6  -4   6    0.10    0.20
   7   3  -6    1.60    0.20
  -7  -3   6    1.40    0.20
  -7  -3   6    1.40    0.20
   6   3  -6   20.30    0.90
  -6  -3   6   21.80    1.10
  -6  -3   6   19.10    1.00
   5   3  -6    2.90    0.80
   5   3  -6    2.60    0.40
  -5  -3   6    3.10    0.50
  -5  -3   6    4.90    1.20
  -5  -3   6    3.10    0.20
  -5  -3   6    3.40    0.50
   4   3  -6   13.10    1.30
  -4  -3   6   13.60    1.50
  -4  -3   6   13.50    0.90
  -4  -3   6   13.40    0.90
   3   3  -6   55.09    2.40
  -3  -3   6   51.99    2.20
  -3  -3   6   55.29    2.80
  -1  -3   6  197.28    7.20
   0   3  -6  218.38    7.40
   0  -3   6  175.78   13.50
   0  -3   6  219.08    7.80
  -1   3  -6   32.80    1.90
   1  -3   6   34.50    3.70
   1  -3   6   28.30    9.60
   1  -3   6   28.60    1.80
  -2   3  -6   33.30    2.30
   2  -3   6   37.90   14.00
  -3   3  -6   77.79    4.40
  -3   3  -6   81.59    3.20
  -3   3  -6   80.79    2.80
   3  -3   6   88.39    3.20
   3  -3   6   63.09   22.70
  -4   3  -6   16.20    2.30
  -4   3  -6   13.90    1.00
  -4   3  -6   14.10    0.60
   4  -3   6   14.20    1.00
   4  -3   6   16.20   36.80
   5  -3   6   33.30  104.09
  -6   3  -6    0.00    0.20
   6  -3   6    0.00    0.20
   7   2  -6    7.40    0.40
  -7  -2   6    8.60    0.50
  -7  -2   6    7.20    0.40
   6   2  -6    3.60    0.40
  -6  -2   6    2.80    0.40
  -6  -2   6    4.00    0.50
   5   2  -6   19.50    1.00
   5   2  -6   21.30    1.90
  -5  -2   6   19.80    0.80
  -5  -2   6   21.60    2.00
  -5  -2   6   20.70    1.10
  -5  -2   6   23.00    1.20
   4   2  -6   40.60    2.40
  -4  -2   6   41.00    1.70
  -4  -2   6   38.40    1.40
  -4  -2   6   38.20    1.70
  -4  -2   6   39.80    2.50
   3   2  -6   52.79    2.40
  -3  -2   6   54.79    2.80
   2   2  -6  330.57   11.00
  -1  -2   6   93.79    3.80
   0  -2   6  111.99   10.50
   0  -2   6  112.99   11.00
  -1   2  -6    4.50    0.80
   1  -2   6    8.60   18.00
   2  -2   6 1496.15   71.09
  -3   2  -6  121.09    5.60
  -3   2  -6  116.09    3.90
  -3   2  -6  111.19    4.30
   3  -2   6  106.59   26.90
   3  -2   6  115.49    4.20
  -4   2  -6   49.00    3.40
  -4   2  -6   51.09    1.80
  -4   2  -6   50.69    2.20
   4  -2   6   85.09   42.20
   4  -2   6   49.10    2.20
  -5   2  -6    1.70    0.40
   5  -2   6    1.20    0.40
  -6   2  -6   12.50    0.70
   6  -2   6   13.00    0.70
   7   1  -6   43.00    1.50
  -7  -1   6   42.30    1.60
  -7  -1   6   44.50    1.70
   6   1  -6   32.90    1.30
  -6  -1   6   32.90    1.40
  -6  -1   6   35.30    1.60
   5   1  -6   72.39    2.70
   5   1  -6   73.79    4.00
  -5  -1   6   80.39    3.00
  -5  -1   6   75.39    4.10
  -5  -1   6   74.89    2.60
  -5  -1   6   75.79    2.90
   4   1  -6   21.80    1.70
  -4  -1   6   22.30    1.00
  -4  -1   6   20.50    0.80
  -4  -1   6   20.30    1.10
  -4  -1   6   18.20    2.20
  -4  -1   6   21.10    1.70
  -4  -1   6   21.20    1.10
  -4  -1   6   22.40    1.10
   3   1  -6    6.20    0.80
  -3  -1   6    5.00    0.40
  -3  -1   6    6.30    0.40
  -3  -1   6    6.40    1.00
  -3  -1   6    5.70    0.60
  -3  -1   6    6.50    0.90
   2   1  -6    2.90    0.30
   2   1  -6    3.50    0.50
   1   1  -6   73.79    2.70
   1   1  -6   69.79    2.50
  -1  -1   6   74.59    6.80
  -1  -1   6   75.49    6.60
  -1  -1   6   72.39    2.90
   0   1  -6   86.69    3.40
   0  -1   6   76.19    8.70
   1  -1   6 1808.62   82.69
   2  -1   6  -12.20   13.60
   3  -1   6   46.40   25.80
  -4   1  -6   66.59    2.30
  -4   1  -6   64.39    2.70
   4  -1   6   98.19   50.59
   4  -1   6   63.59    2.70
  -5   1  -6   49.00    2.10
   5  -1   6   50.09    2.10
  -6   1  -6   84.79    3.00
   7   0  -6   11.50    0.50
  -7   0   6   11.20    0.50
  -7   0   6   11.90    0.60
   6   0  -6   26.90    1.10
  -6   0   6   26.00    1.30
  -6   0   6   26.20    1.20
   5   0  -6    7.30    0.50
   5   0  -6    6.60    1.40
  -5   0   6    7.20    0.70
  -5   0   6    8.00    0.70
  -5   0   6    7.20    0.40
  -5   0   6    5.00    1.20
  -5   0   6    7.30    0.60
  -5   0   6    6.60    2.00
  -5   0   6    8.20    1.30
   4   0  -6  342.57   12.50
  -4   0   6  321.07   11.10
  -4   0   6  341.57   11.40
  -4   0   6  347.97   12.00
  -4   0   6  354.06   11.50
  -4   0   6  339.97   12.40
  -4   0   6  334.37   11.30
   3   0  -6   31.10    1.70
  -3   0   6   29.90    1.30
  -3   0   6   32.40    1.40
  -3   0   6   34.30    1.80
  -3   0   6   31.00    1.80
   2   0  -6    4.60    0.40
  -2   0   6    5.50    0.60
  -2   0   6    5.30    0.40
  -2   0   6    0.70    8.60
  -2   0   6    5.10    0.70
   1   0  -6  410.36   14.00
  -1   0   6  445.56   22.30
   0   0   6   10.30    8.10
  -1   0  -6   50.59    3.00
  -1   0  -6   54.29    2.60
   1   0   6   57.29   13.60
  -2   0  -6  189.28    7.10
  -2   0  -6  160.38    7.60
   2   0   6  177.28    5.90
   2   0   6  171.78    6.10
   2   0   6  215.08   30.40
  -3   0  -6   34.00    2.40
  -3   0  -6   34.80    1.30
  -3   0  -6   32.40    1.70
   3   0   6   35.40    1.70
   3   0   6   50.29   30.10
  -4   0  -6  165.08    6.20
  -4   0  -6  174.38    5.70
   4   0   6  139.49   54.29
   4   0   6  181.08    6.30
  -5   0  -6    8.50    0.80
   5   0   6    9.00    0.70
  -6   0  -6    0.20    0.20
   6   0   6    0.20    0.20
  -7   1   6   17.10    0.80
   6  -1  -6   28.10    1.00
  -6   1   6   26.80    1.20
  -6   1   6   25.00    1.00
  -6   1   6   26.20    1.20
   5  -1  -6  407.86   13.10
   5  -1  -6  409.66   15.10
  -5   1   6  368.76   14.40
  -5   1   6  410.16   13.30
  -5   1   6  390.76   15.80
  -5   1   6  406.46   13.50
  -5   1   6  396.76   13.00
   4  -1  -6   11.10    1.50
   4  -1  -6   10.60    0.60
  -4   1   6   11.00    0.70
  -4   1   6   25.00   33.40
  -4   1   6   12.10    0.90
  -4   1   6   10.90    0.70
  -4   1   6   11.20    1.50
  -4   1   6   10.40    0.50
  -4   1   6   10.80    1.10
   3  -1  -6  255.37    8.80
  -3   1   6  232.08    8.50
  -3   1   6  205.08   30.20
  -3   1   6  247.08    8.30
  -3   1   6  227.48    8.10
  -3   1   6  246.08    8.90
   2  -1  -6   95.09    3.60
  -2   1   6  101.29    4.10
  -2   1   6   87.09    3.50
  -2   1   6  104.59    3.70
  -2   1   6   84.99   17.40
   1  -1  -6   90.09    3.40
  -1   1   6   92.09    4.10
  -1   1   6   90.29    3.50
  -1   1   6   75.29   13.00
   0   1   6  417.56   32.50
   0   1   6  508.05   30.30
   1   1   6   -4.90   11.20
  -2  -1  -6    2.70    0.70
   2   1   6   -3.30   18.50
   3   1   6   58.09   48.70
  -4  -1  -6  159.38    5.00
  -4  -1  -6  141.69    6.60
  -4  -1  -6  152.18    5.60
   4   1   6  187.58  137.79
   4   1   6  148.99    5.50
  -5  -1  -6   73.69    2.90
   5   1   6   71.49    2.80
   6  -2  -6    2.50    0.20
  -6   2   6    2.10    0.30
  -6   2   6    2.90    0.30
   5  -2  -6   47.50    3.30
   5  -2  -6   50.19    1.80
  -5   2   6   49.70    1.80
  -5   2   6   48.10    3.40
  -5   2   6   50.09    1.90
  -5   2   6   50.39    2.00
  -5   2   6   49.60    2.30
   4  -2  -6   13.60    1.70
   4  -2  -6   14.20    0.70
  -4   2   6   14.30    1.00
  -4   2   6   16.40    0.70
  -4   2   6   15.00    0.80
  -4   2   6   13.80    1.90
  -4   2   6   15.20    1.10
   3  -2  -6  201.88    7.90
  -3   2   6  223.38    7.60
  -3   2   6  202.08    7.10
  -3   2   6  224.68    8.30
  -3   2   6  208.08    7.10
   2  -2  -6  113.59    4.30
  -2   2   6  111.79    4.30
  -2   2   6  113.79    5.00
   1  -2  -6  117.69    4.40
  -1   2   6  117.89    5.40
  -1   2   6   80.29   22.60
  -1   2   6  119.29    4.60
  -1  -2  -6  222.28    7.80
   1   2   6  262.47   30.80
   1   2   6  223.68    7.70
   2   2   6  -16.30   23.60
  -3  -2  -6   46.40    1.70
  -3  -2  -6   45.10    2.70
   3   2   6   46.10    2.10
   3   2   6   22.70   41.70
   4   2   6 -104.09   83.69
   4   2   6    0.60    0.40
  -5  -2  -6   34.50    1.60
   5   2   6   33.20    1.50
   6  -3  -6   11.80    0.50
  -6   3   6   10.70    0.50
  -6   3   6   10.50    0.60
  -5   3   6   17.00    2.40
  -5   3   6   19.40    1.30
  -5   3   6   17.40    1.10
   4  -3  -6   16.70    0.70
   4  -3  -6   13.50    1.80
  -4   3   6   18.20    0.80
  -4   3   6   15.00    2.20
  -4   3   6   16.80    0.90
  -4   3   6   17.40    0.80
  -4   3   6   16.50    1.30
   3  -3  -6    5.70    0.90
  -3   3   6    5.10    0.40
  -3   3   6    4.20    1.50
  -3   3   6    4.40    0.70
  -3   3   6    5.40    0.40
  -3   3   6    4.90    0.40
   2  -3  -6  130.09    5.60
  -2   3   6  136.89    6.10
  -2   3   6  135.49    4.60
  -2   3   6  136.79    5.20
   1  -3  -6  119.79    4.50
  -1   3   6  111.29    4.00
  -1   3   6  111.89    5.60
  -1   3   6  113.09    4.70
   0  -3  -6  214.98    7.60
   0   3   6  196.98    7.00
  -1  -3  -6  176.98    5.80
   1   3   6  234.18   33.90
   1   3   6  169.78    6.00
  -2  -3  -6    6.40    0.80
  -2  -3  -6    6.20    0.50
  -2  -3  -6    3.90    0.80
   2   3   6    4.70    0.50
   2   3   6    5.10   43.60
   2   3   6    5.80    0.70
  -3  -3  -6   37.20    3.00
  -3  -3  -6   39.50    1.50
  -3  -3  -6   41.10    2.00
   3   3   6   40.10    2.00
   3   3   6  102.99   56.49
  -4  -3  -6    1.80    0.50
   4   3   6    1.40    0.40
  -5  -3  -6    8.60    0.70
   5   3   6    7.50    0.60
   6  -4  -6    6.40    0.40
  -6   4   6    5.10    0.50
  -6   4   6    6.00    0.30
   5  -4  -6   17.30    0.70
  -5   4   6   16.80    0.80
  -5   4   6   16.20    0.80
  -5   4   6   16.10    1.30
  -5   4   6   17.40    2.70
   4  -4  -6    0.90    0.80
   4  -4  -6    1.90    0.20
  -4   4   6    1.40    0.60
  -4   4   6    1.80    0.30
  -4   4   6    2.00    1.80
  -4   4   6    1.60    0.30
   3  -4  -6    0.70    0.20
   3  -4  -6    0.90    0.60
  -3   4   6    0.50    1.40
  -3   4   6    1.30    0.40
  -3   4   6    0.80    0.20
  -3   4   6    0.60    0.40
   2  -4  -6  353.76   12.20
   2  -4  -6  330.17   11.20
  -2   4   6  331.97   11.30
  -2   4   6  364.26   15.10
  -2   4   6  335.57   11.30
  -2   4   6  356.56   12.30
   1  -4  -6   58.89    2.00
   1  -4  -6   59.39    2.80
  -1   4   6   61.59    4.30
  -1   4   6   60.29    2.20
  -1   4   6   59.19    2.30
   0  -4  -6  204.58    7.50
   0  -4  -6  200.38    6.60
   0   4   6  193.58    6.80
  -1  -4  -6  194.08    6.30
  -1  -4  -6  181.58    6.80
  -1  -4  -6  189.08    7.30
   1   4   6  196.58    6.40
   1   4   6  206.28   36.60
  -2  -4  -6   38.20    2.40
  -2  -4  -6   39.30    1.50
   2   4   6  -15.60   39.30
   2   4   6   41.60    1.90
   2   4   6   38.80    1.60
  -3  -4  -6  207.68    6.80
  -3  -4  -6  212.28    7.50
   3   4   6  246.48   78.19
   3   4   6  202.78    7.40
  -4  -4  -6   33.80    1.70
   4   4   6   36.70    1.70
  -5  -4  -6    0.00    0.20
   5   4   6    0.10    0.20
   6  -5  -6   26.00    0.90
   5  -5  -6    2.60    0.20
  -5   5   6    2.50    0.30
   4  -5  -6   45.60    1.60
   4  -5  -6   46.90    3.40
  -4   5   6   43.30    2.10
  -4   5   6   45.00    2.50
  -4   5   6   39.50    4.40
  -4   5   6   45.60    1.70
   3  -5  -6   97.59    3.30
  -3   5   6   96.99    3.40
  -3   5   6   99.79    4.40
  -3   5   6   95.99    3.40
  -3   5   6  100.59    5.70
   2  -5  -6    2.00    0.20
   2  -5  -6    2.30    0.70
  -2   5   6    0.90    0.60
  -2   5   6    1.90    0.30
  -2   5   6    0.90    1.90
   1  -5  -6   81.69    3.80
   1  -5  -6   85.99    2.90
  -1   5   6   80.69    5.80
  -1   5   6   82.49    3.00
  -1   5   6   93.19    4.30
  -1   5   6   84.69    3.10
   0  -5  -6  191.88    7.20
   0  -5  -6  178.78    6.60
   0  -5  -6  183.18    6.10
   0   5   6  184.68    6.50
   0   5   6  189.48    6.20
  -1  -5  -6  171.48    6.60
  -1  -5  -6  160.68    5.40
  -1  -5  -6  157.38    5.90
   1   5   6  134.99   38.30
  -2  -5  -6   27.10    1.10
  -2  -5  -6   22.30    2.10
  -2  -5  -6   24.10    1.50
   2   5   6   38.80   55.69
   2   5   6   27.20    1.50
  -3  -5  -6   17.70    0.70
  -3  -5  -6   20.20    1.30
   3   5   6   19.50    1.30
   4   5   6   13.70    1.20
   5  -6  -6   14.00    0.60
  -5   6   6   13.20    0.70
   4  -6  -6  189.78    6.10
  -4   6   6  188.18    6.30
  -4   6   6  176.38    9.10
  -4   6   6  186.88    7.70
   3  -6  -6   14.20    0.60
   3  -6  -6   16.40    2.20
  -3   6   6   11.90    1.50
  -3   6   6   11.00    3.00
  -3   6   6   14.50    0.80
   2  -6  -6    3.70    1.00
   2  -6  -6    4.20    0.40
  -2   6   6    4.30    2.70
  -2   6   6    4.50    0.50
   1  -6  -6    8.40    1.10
   1  -6  -6    9.30    0.50
   1  -6  -6    8.70    1.20
  -1   6   6    8.50    0.70
  -1   6   6    5.80    3.20
  -1   6   6    9.70    1.50
   0  -6  -6    0.70    0.50
   0  -6  -6    1.00    0.20
   0  -6  -6    1.10    0.50
   0   6   6    0.30    0.40
   0   6   6    0.60    0.30
  -1  -6  -6  491.55   15.70
  -1  -6  -6  492.85   16.30
  -1  -6  -6  466.35   17.00
   1   6   6  475.85   15.90
   1   6   6  476.65   64.99
  -2  -6  -6    2.40    0.70
   2   6   6  -74.59   73.79
  -3  -6  -6   -0.10    0.30
   3   6   6   -0.20    0.30
  -4  -6  -6    1.70    0.30
   4   6   6    2.40    0.40
   5  -7  -6   11.00    0.50
  -5   7   6   11.30    0.60
   4  -7  -6    2.10    0.20
  -4   7   6    1.70    0.30
   3  -7  -6   37.30    1.40
  -3   7   6   33.70    4.70
  -3   7   6   39.50    1.60
  -3   7   6   37.00    2.60
   2  -7  -6  178.98    7.60
   2  -7  -6  177.28    5.70
  -2   7   6  161.18    9.70
  -2   7   6  163.78    7.40
  -2   7   6  175.48    6.00
   1  -7  -6   40.50    2.80
   1  -7  -6   38.70    1.90
   1  -7  -6   37.90    1.50
  -1   7   6   39.70    5.60
  -1   7   6   40.40    1.80
  -1   7   6   38.80    2.90
   0  -7  -6  304.57   10.50
   0  -7  -6  304.87   11.60
   0  -7  -6  309.97   10.00
   0   7   6  155.48   49.30
   0   7   6  313.27   10.50
   1   7   6  -43.60   64.09
  -2  -7  -6    0.30    0.30
   2   7   6    0.50    0.40
  -3  -7  -6   38.40    1.70
   3   7   6   38.40    1.70
   4  -8  -6   34.20    1.20
  -4   8   6   34.70    1.40
   3  -8  -6    7.10    0.40
  -3   8   6    6.00    0.50
   2  -8  -6   85.19    2.80
   2  -8  -6   79.69    3.20
  -2   8   6   85.49    3.10
  -2   8   6   69.69    8.40
   1  -8  -6   12.30    1.00
   1  -8  -6   12.70    0.60
  -1   8   6   12.10    0.90
   0   8   6  -74.29   66.59
  -1  -8  -6    2.00    0.50
   1   8   6    3.00    0.50
  -2  -8  -6    4.10    0.60
  -3  -8  -6   56.69    2.30
   3   8   6   54.59    2.10
  -4   9   6   29.70    1.20
   3  -9  -6   35.50    1.30
  -3   9   6   37.50    1.50
   2  -9  -6   30.60    1.50
   1  -9  -6   39.60    1.80
  -1   9   6   37.70    1.70
   0  -9  -6   28.60    1.60
   0   9   6   30.30    1.40
  -1  -9  -6    8.50    0.70
   1   9   6   10.20    0.70
  -2  -9  -6   -0.30    0.30
   2   9   6   -0.10    0.20
  -2  10   6    1.10    0.30
   1 -10  -6   19.00    1.00
   0 -10  -6    0.00    0.20
   0  10   6    0.00    0.20
   1  14  -7    8.80    0.40
  -1 -14   7    7.70    0.50
  -1 -14   7    7.70    0.50
   0  14  -7   11.30    0.50
   0 -14   7   10.30    0.60
  -1  14  -7   18.20    0.70
   1 -14   7   16.80    0.70
   1 -14   7   17.00    0.80
   3  13  -7   17.40    0.70
  -3 -13   7   16.90    0.80
   2  13  -7   25.90    1.00
  -2 -13   7   23.60    1.10
  -2 -13   7   24.00    1.00
   1  13  -7    1.50    0.20
  -1 -13   7    1.20    0.30
  -1 -13   7    0.90    0.30
   0  13  -7    2.90    0.30
   0 -13   7    3.60    0.50
   0 -13   7    3.30    0.30
   0 -13   7    3.00    0.40
  -1  13  -7    6.60    0.40
   1 -13   7    6.10    0.60
  -2  13  -7    0.10    0.10
   2 -13   7    0.30    0.20
   2 -13   7    0.20    0.20
   3  12  -7    5.60    0.40
  -3 -12   7    6.60    0.60
  -3 -12   7    4.70    0.50
   2  12  -7   24.60    1.00
  -2 -12   7   24.70    1.20
  -2 -12   7   23.00    1.10
   1  12  -7   28.60    1.10
  -1 -12   7   25.70    1.10
  -1 -12   7   24.40    1.10
  -1 -12   7   26.60    1.30
   0  12  -7    0.40    0.20
   0 -12   7    0.70    0.20
   0 -12   7    1.00    0.30
   0 -12   7    0.70    0.30
  -1  12  -7    0.40    0.20
   1 -12   7    0.10    0.20
   1 -12   7    1.00   26.10
  -2  12  -7   16.00    0.70
   2 -12   7   15.00    0.80
  -3  12  -7   15.60    0.60
   3 -12   7   15.90    0.70
   4  11  -7    6.10    0.40
  -4 -11   7    5.40    0.40
  -4 -11   7    6.30    0.50
   3  11  -7    0.10    0.20
  -3 -11   7    0.00    0.20
  -3 -11   7    0.10    0.30
   2  11  -7    1.50    0.70
   2  11  -7    0.80    0.20
  -2 -11   7    0.60    0.20
  -2 -11   7    1.00    0.40
  -2 -11   7    0.50    0.20
   1  11  -7   25.20    2.30
   1  11  -7   25.70    1.10
  -1 -11   7   23.60    1.50
  -1 -11   7   25.30    1.10
  -1 -11   7   19.90    2.90
  -1 -11   7   24.60    1.20
  -1 -11   7   23.80    1.30
   0  11  -7    6.50    1.40
   0  11  -7    5.80    0.40
   0 -11   7    6.00    0.50
   0 -11   7    4.60    0.60
   0 -11   7    5.90    0.50
   0 -11   7   24.10   20.20
  -1  11  -7   39.60    1.50
  -1  11  -7   35.10    4.50
   1 -11   7   25.10   19.60
   1 -11   7   43.80    1.90
   1 -11   7   36.40    1.50
  -2  11  -7   23.30    0.90
   2 -11   7   23.80    1.10
   2 -11   7   43.20   22.80
  -3  11  -7   18.10    0.70
   3 -11   7   16.90    0.80
   4 -11   7   16.30    0.70
   5  10  -7   38.60    1.40
  -5 -10   7   37.60    1.40
   4  10  -7   31.40    1.20
  -4 -10   7   29.50    1.30
  -4 -10   7   28.00    1.30
   3  10  -7    4.80    0.90
   3  10  -7    2.80    0.30
  -3 -10   7    3.10    0.50
  -3 -10   7    2.90    0.40
  -3 -10   7    2.40    1.10
   2  10  -7   22.00    0.90
   2  10  -7   20.10    1.70
  -2 -10   7   22.70    1.00
  -2 -10   7   21.10    1.20
  -2 -10   7   19.70    2.10
  -2 -10   7   21.30    1.00
   1  10  -7  132.59    5.90
   1  10  -7  131.29    4.40
  -1 -10   7  136.39    4.50
  -1 -10   7  116.09    9.20
  -1 -10   7  125.39    6.40
  -1 -10   7  118.59    6.00
  -1 -10   7  137.49    4.80
  -1 -10   7  134.79    4.60
   0  10  -7   34.90    2.80
   0  10  -7   38.20    1.40
   0 -10   7   36.50    1.50
   0 -10   7   38.00    1.50
   0 -10   7   38.80   15.80
  -1  10  -7   38.60    1.40
  -1  10  -7   37.20    3.10
   1 -10   7   28.30   14.80
   1 -10   7   38.20    1.50
   1 -10   7   37.60    1.50
  -2  10  -7  150.68    7.80
  -2  10  -7  153.08    5.10
   2 -10   7  158.28   23.90
   2 -10   7  153.58    5.20
  -3  10  -7   45.10    1.60
   3 -10   7   44.00    1.70
   3 -10   7   10.40   31.10
  -4  10  -7  143.09    5.20
  -4  10  -7  146.89    4.90
   4 -10   7  160.28    5.10
   5   9  -7  109.59    3.70
  -5  -9   7  108.99    3.80
  -5  -9   7  104.89    3.70
   4   9  -7   13.00    0.70
  -4  -9   7   12.50    0.90
  -4  -9   7   12.40    0.70
   3   9  -7    4.70    0.40
   3   9  -7    6.10    0.90
  -3  -9   7    4.00    0.40
  -3  -9   7    5.40    1.20
  -3  -9   7    4.00    0.60
   2   9  -7   16.40    2.20
   2   9  -7   11.00    0.80
  -2  -9   7   12.60    0.70
  -2  -9   7   11.50    0.70
  -2  -9   7   12.10    0.90
  -2  -9   7   10.70    1.70
   1   9  -7  412.86   14.10
   1   9  -7  443.36   15.40
  -1  -9   7  417.06   15.00
  -1  -9   7  436.86   16.20
  -1  -9   7  470.15   14.50
  -1  -9   7  415.76   14.20
   0   9  -7    0.30    0.10
   0   9  -7    0.90    0.70
   0  -9   7    3.40    9.70
   0  -9   7    0.30    0.20
   0  -9   7    0.40    0.20
  -1   9  -7  253.37   10.60
   1  -9   7  285.57   24.30
   1  -9   7  261.67    8.50
   1  -9   7  246.28    8.50
  -2   9  -7   52.99    4.00
  -2   9  -7   54.89    1.90
   2  -9   7   54.49    2.10
   2  -9   7   37.20   16.90
   2  -9   7   53.29    2.00
  -3   9  -7  422.46   19.70
   3  -9   7  405.06   44.10
  -4   9  -7    1.70    0.30
  -4   9  -7    2.10    0.20
   4  -9   7    1.50    0.30
  -5   9  -7    0.40    0.20
   5  -9   7    0.30    0.20
   6   8  -7    1.70    0.20
  -6  -8   7    1.30    0.20
   5   8  -7   20.70    1.00
  -5  -8   7   19.40    0.90
  -5  -8   7   19.80    1.00
  -5  -8   7   19.60    0.90
   4   8  -7   40.20    1.50
   4   8  -7   42.20    2.50
  -4  -8   7   28.90    2.90
  -4  -8   7   37.20    1.50
  -4  -8   7   33.30    1.80
   3   8  -7  840.42   27.70
  -3  -8   7  802.42   29.10
   2   8  -7  738.63   23.90
  -2  -8   7  742.53   25.20
  -2  -8   7  665.83   23.20
   1   8  -7   80.19    3.50
  -1  -8   7   74.89    4.00
  -1  -8   7   72.89    2.70
  -1  -8   7   72.39    2.60
  -1  -8   7   75.59    3.20
  -1  -8   7   77.99    2.90
  -1  -8   7   67.09    4.80
   0   8  -7   68.59    3.50
   0   8  -7   61.49    2.20
   0  -8   7   67.39    2.30
   0  -8   7   66.29    2.40
  -1   8  -7  141.29    4.70
  -1   8  -7  141.59    6.50
   1  -8   7  139.69    4.80
   1  -8   7  157.88   18.60
   1  -8   7  142.19    4.80
  -2   8  -7  323.07   12.90
  -2   8  -7  311.77   10.30
   2  -8   7  315.17   10.40
   2  -8   7  317.87   30.00
  -3   8  -7   98.49    3.30
  -3   8  -7   92.89    5.80
   3  -8   7   89.99   26.40
   3  -8   7  100.79    3.50
  -4   8  -7    3.80    0.30
  -4   8  -7    3.20    0.40
   4  -8   7    3.80    0.40
   4  -8   7    2.50   33.60
  -5   8  -7   25.00    1.00
   5  -8   7   26.80    1.10
   6   7  -7    6.30    0.40
  -6  -7   7    6.80    0.60
  -6  -7   7    6.60    0.50
   5   7  -7    4.80    0.50
  -5  -7   7    3.30    0.40
  -5  -7   7    4.00    0.40
  -5  -7   7    3.70    0.50
   4   7  -7    4.40    0.70
   4   7  -7    5.10    0.50
  -4  -7   7    5.10    1.20
  -4  -7   7    4.50    0.40
  -4  -7   7    4.20    0.60
  -4  -7   7    5.00    0.50
   3   7  -7   25.20    1.40
  -3  -7   7   23.30    1.10
  -3  -7   7   26.40    2.20
  -3  -7   7   25.20    1.40
   2   7  -7    2.70    0.50
  -2  -7   7    2.40    0.40
  -2  -7   7    2.60    0.90
  -2  -7   7    3.10    0.30
  -1  -7   7   75.09    4.00
  -1  -7   7   77.39    2.90
  -1  -7   7   75.19    2.70
  -1  -7   7   74.09    3.70
  -1  -7   7   76.09    2.90
   0  -7   7   45.20    1.70
   0  -7   7   31.00    7.10
  -1   7  -7  306.67   11.00
  -1   7  -7  253.07    9.20
   1  -7   7  287.77    9.30
   1  -7   7  297.07   21.30
  -2   7  -7    5.40    1.30
  -2   7  -7    5.90    0.40
   2  -7   7    6.00    0.50
   2  -7   7   13.30   11.00
   2  -7   7    6.70    0.50
  -3   7  -7    8.50    0.40
   3  -7   7    8.20    0.60
   3  -7   7   14.30   18.30
  -4   7  -7   48.80    1.90
  -4   7  -7   58.79    7.70
  -4   7  -7   51.89    1.80
   4  -7   7   48.70    2.00
   4  -7   7   56.69   31.20
  -5   7  -7   14.60    0.70
   5  -7   7   14.00    0.80
   6   6  -7    4.60    0.40
  -6  -6   7    5.20    0.50
  -6  -6   7    4.60    0.40
   5   6  -7    9.20    1.10
   5   6  -7    9.40    0.60
  -5  -6   7    8.90    0.60
  -5  -6   7   10.10    0.80
  -5  -6   7    8.20    1.50
  -5  -6   7    9.80    0.70
   4   6  -7   13.50    1.10
  -4  -6   7   13.50    0.80
  -4  -6   7   12.40    0.90
  -4  -6   7   11.10    1.70
  -4  -6   7   13.60    0.80
   3   6  -7  142.79    5.20
  -3  -6   7  144.29    5.20
  -3  -6   7  143.19    6.30
  -3  -6   7  144.59    4.90
  -3  -6   7  141.89    5.00
   2   6  -7   24.60    1.20
  -2  -6   7   25.60    2.20
  -2  -6   7   24.80    1.40
   1   6  -7   20.70    1.10
  -1  -6   7   19.90    1.70
   0   6  -7    2.10    0.50
   0  -6   7    5.00    1.90
   0  -6   7    2.10    0.50
   0  -6   7   -0.10    4.10
  -1   6  -7    7.10    1.20
   1  -6   7    7.10    0.50
   1  -6   7    9.10    7.10
  -2   6  -7    0.60    0.20
  -2   6  -7   -0.20    0.40
   2  -6   7    0.00    0.20
   2  -6   7    0.20    0.20
   2  -6   7    3.50   11.20
  -3   6  -7   19.90    0.80
  -3   6  -7   27.10    3.10
   3  -6   7   21.50    1.10
   3  -6   7   19.90    1.00
   3  -6   7   10.00   19.30
  -4   6  -7   47.20    2.00
  -4   6  -7   43.60    3.90
  -4   6  -7   46.90    1.70
   4  -6   7   49.50    2.00
   4  -6   7   25.00   31.10
  -5   6  -7   87.39    2.90
  -5   6  -7   85.79    3.40
   5  -6   7   94.99    3.20
   6   5  -7    0.50    0.20
  -6  -5   7    0.70    0.20
  -6  -5   7    0.50    0.20
   5   5  -7  289.67    9.80
   5   5  -7  301.87   10.60
  -5  -5   7  274.27    9.70
  -5  -5   7  286.57   10.00
  -5  -5   7  306.47   10.00
  -5  -5   7  303.67   11.90
   4   5  -7  109.69    4.50
  -4  -5   7  121.59    5.60
  -4  -5   7  109.99    4.20
  -4  -5   7  114.99    4.10
   3   5  -7   15.30    1.00
  -3  -5   7   15.40    0.90
  -3  -5   7   15.50    1.50
  -3  -5   7   14.90    0.70
  -3  -5   7   14.60    0.90
   2   5  -7    0.10    0.10
  -2  -5   7    0.10    0.30
   1   5  -7   89.19    3.10
  -1  -5   7   83.39    3.90
   0   5  -7  202.78    7.40
   0  -5   7  201.28    7.20
   0  -5   7  218.98   12.00
   0  -5   7  201.58    7.90
  -1   5  -7    7.00    1.10
   1  -5   7    2.00    3.70
   1  -5   7    7.80    6.80
   1  -5   7    5.00    0.90
  -2   5  -7   13.00    0.70
  -2   5  -7   12.80    1.80
   2  -5   7   13.70    0.80
   2  -5   7    8.30   11.80
   2  -5   7   13.30    0.70
  -3   5  -7    9.40    1.80
   3  -5   7    5.90    0.50
   3  -5   7   20.60   19.90
  -4   5  -7  120.39    6.70
  -4   5  -7  134.49    4.70
  -4   5  -7  130.59    4.40
   4  -5   7  136.59   38.40
   4  -5   7  133.19    4.70
  -5   5  -7   11.90    0.70
   5  -5   7   12.40    0.80
  -6   5  -7   10.30    0.50
   6  -5   7   10.30    0.50
   6   4  -7   50.59    1.90
  -6  -4   7   51.29    2.10
  -6  -4   7   51.29    2.00
   5   4  -7   62.79    2.40
   5   4  -7   69.09    3.30
  -5  -4   7   70.69    2.70
  -5  -4   7   64.79    3.90
  -5  -4   7   65.99    2.70
   4   4  -7    4.10    0.80
  -4  -4   7    4.70    0.40
  -4  -4   7    3.10    0.90
  -4  -4   7    3.80    0.60
   3   4  -7   27.80    1.50
  -3  -4   7   26.70    2.00
  -3  -4   7   27.20    1.60
  -3  -4   7   26.10    1.30
  -3  -4   7   27.10    1.10
   2   4  -7   52.69    2.00
  -2  -4   7   56.39    2.80
   1   4  -7   99.19    3.40
   1   4  -7   97.59    3.30
  -1  -4   7   90.59    4.10
   0   4  -7  102.39    4.00
   0  -4   7   99.99    8.20
  -1   4  -7   80.29    3.70
   1  -4   7   79.69   12.30
   1  -4   7   77.19    6.10
  -2   4  -7    1.00    0.20
  -2   4  -7    0.50    0.60
   2  -4   7    3.60   12.40
  -3   4  -7    6.90    0.90
  -3   4  -7    8.20    0.50
  -3   4  -7    6.70    1.50
   3  -4   7   18.30   21.20
   3  -4   7    7.60    0.70
  -4   4  -7   98.09    3.70
  -4   4  -7  104.09    3.40
  -4   4  -7   88.99    5.30
   4  -4   7   59.79   46.10
   4  -4   7   99.99    3.60
   4  -4   7   99.39    3.70
  -5   4  -7    5.40    0.30
  -5   4  -7    5.80    0.50
   5  -4   7    6.60    0.60
  -6   4  -7   25.40    1.00
   6  -4   7   26.40    1.10
  -7  -3   7   16.20    0.70
  -7  -3   7   14.90    0.70
   6   3  -7    0.20    0.20
  -6  -3   7    0.30    0.30
  -6  -3   7    0.60    0.30
   5   3  -7    8.70    1.30
   5   3  -7    6.40    0.50
  -5  -3   7    4.20    1.00
  -5  -3   7    7.00    0.70
  -5  -3   7    7.10    0.70
   4   3  -7    5.80    1.00
  -4  -3   7    5.70    0.70
  -4  -3   7    5.70    0.60
  -4  -3   7    4.90    1.10
   3   3  -7   40.80    1.90
  -3  -3   7   38.00    1.70
  -3  -3   7   37.00    1.60
  -3  -3   7   41.60    2.40
  -2  -3   7  122.79    5.00
   0   3  -7  274.37   10.20
   0  -3   7  303.97   16.20
   0  -3   7  305.77   15.90
   1  -3   7   10.40    9.20
   1  -3   7  -35.00   17.80
  -2   3  -7  257.37   10.10
   2  -3   7  261.57    8.80
   2  -3   7  275.57   30.20
  -3   3  -7   35.50    2.70
  -3   3  -7   34.00    1.70
  -3   3  -7   38.30    1.40
   3  -3   7   39.00    1.70
   3  -3   7   56.99   23.50
  -4   3  -7   58.99    3.10
  -4   3  -7   58.39    3.90
  -4   3  -7   64.89    2.20
   4  -3   7   64.89    2.60
   4  -3   7   50.89   38.20
  -5   3  -7    0.00    0.30
   5  -3   7    0.00    0.20
  -6   3  -7   11.00    0.60
   6  -3   7   10.30    0.60
   7   2  -7    0.90    0.10
  -7  -2   7    0.90    0.20
  -7  -2   7    1.00    0.20
   6   2  -7    0.70    0.20
  -6  -2   7    0.40    0.30
  -6  -2   7    0.60    0.30
   5   2  -7    1.20    0.30
   5   2  -7    0.60    0.60
  -5  -2   7    0.80    0.30
  -5  -2   7    0.70    0.60
  -5  -2   7    1.10    0.40
   4   2  -7   19.30    1.50
  -4  -2   7   19.50    1.10
  -4  -2   7   21.10    1.80
  -4  -2   7   18.00    1.00
   3   2  -7  101.09    3.70
  -3  -2   7   93.09    4.10
  -3  -2   7   85.79    3.40
  -3  -2   7   93.89    3.40
   2   2  -7   11.60    0.70
   2   2  -7   11.30    0.50
  -2  -2   7   11.30    1.00
   1   2  -7  242.88    7.80
   1   2  -7  222.88    7.60
  -1  -2   7  221.88    8.20
   0   2  -7   61.49    2.70
   0   2  -7   58.99    2.70
   0  -2   7   64.99    9.60
   0  -2   7   53.39    7.70
  -1   2  -7   18.80    1.50
   1  -2   7   28.30   10.20
   1  -2   7    7.90   19.70
  -2   2  -7  137.79    4.70
  -2   2  -7  142.09    6.10
   2  -2   7  144.29    5.00
   2  -2   7  139.89    4.80
   2  -2   7  175.18   26.40
  -3   2  -7  196.28    7.10
  -3   2  -7  200.88    8.50
  -3   2  -7  206.38    6.70
   3  -2   7  206.28    7.00
   3  -2   7  137.09   30.10
   4  -2   7   43.00   45.70
  -5   2  -7    2.80    0.50
   5  -2   7    2.10    0.40
  -6   2  -7    2.50    0.30
   6  -2   7    1.90    0.20
   7   1  -7    1.70    0.20
  -7  -1   7    2.20    0.20
  -7  -1   7    1.40    0.20
   6   1  -7    1.30    0.20
  -6  -1   7    1.20    0.30
  -6  -1   7    1.30    0.30
   5   1  -7   14.50    0.80
   5   1  -7   16.80    2.00
  -5  -1   7   15.40    1.00
  -5  -1   7   12.90    1.70
  -5  -1   7   14.40    0.90
   4   1  -7  101.09    4.50
  -4  -1   7  100.39    3.60
  -4  -1   7   93.59    4.50
  -4  -1   7   99.49    3.60
   3   1  -7  200.68    7.10
  -3  -1   7  183.48    6.70
  -3  -1   7  195.38    7.40
  -3  -1   7  204.58    7.20
   2   1  -7   34.20    1.50
   2   1  -7   35.70    1.40
  -2  -1   7   35.00    1.80
   1   1  -7    4.10    0.40
   1   1  -7    4.30    0.50
  -1  -1   7    4.20    0.60
  -1  -1   7    2.60    4.20
   0   1  -7    0.30    0.30
   0  -1   7    1.00    6.70
   1  -1   7  -12.70   10.20
   2  -1   7  695.23   49.90
  -3   1  -7    1.70    0.30
  -3   1  -7    2.10    0.80
  -3   1  -7    2.10    0.50
   3  -1   7   -0.10   26.20
   3  -1   7    1.80    0.40
   4  -1   7  -21.70   51.19
  -5   1  -7   12.50    0.90
   5  -1   7   14.30    0.90
  -7   0   7   26.60    1.10
  -7   0   7   27.30    1.00
   6   0  -7    4.50    0.30
  -6   0   7    3.90    0.50
  -6   0   7    4.70    0.50
   5   0  -7  128.59    4.50
   5   0  -7  134.79    6.10
  -5   0   7  137.59    4.80
  -5   0   7  135.79    4.70
  -5   0   7  129.99    5.80
  -5   0   7  127.49    4.30
  -4   0   7  859.21   28.90
  -4   0   7  850.71   27.60
  -3   0   7   23.60    1.00
  -3   0   7   19.50    1.40
  -3   0   7   21.10    1.00
  -3   0   7   30.40    9.90
  -3   0   7   22.90    1.40
  -3   0   7   20.20    1.00
   2   0  -7   75.79    2.90
  -2   0   7   82.09    3.20
  -2   0   7   72.09    3.10
  -2   0   7   82.99    2.90
  -1   0   7   -6.60    6.10
  -1   0   7    3.70    8.10
   0   0  -7    2.30    0.50
   0   0   7    1.00    8.10
   0   0   7    5.60   10.80
  -1   0  -7   12.00    1.20
   1   0   7    9.70   12.40
  -2   0  -7    9.00    1.30
  -2   0  -7   10.00    0.60
   2   0   7   23.80   19.70
   2   0   7    9.20    0.60
   2   0   7    9.70    0.80
  -3   0  -7    1.40    0.70
  -3   0  -7    1.50    0.50
   3   0   7  -12.00   30.00
   4   0   7  -35.40   55.49
  -5   0  -7   34.40    1.60
   5   0   7   33.60    1.50
   6  -1  -7    0.90    0.20
  -6   1   7    0.80    0.20
  -6   1   7    1.20    0.30
   5  -1  -7  490.85   18.30
   5  -1  -7  514.45   16.40
  -5   1   7  500.75   16.30
   4  -1  -7    5.30    0.40
   4  -1  -7    6.10    1.20
  -4   1   7    5.30    0.40
  -4   1   7   -1.90   32.60
  -4   1   7    5.70    0.60
  -4   1   7    5.60    1.20
  -4   1   7    5.50    0.50
  -3   1   7  -14.30   18.80
   2  -1  -7   16.20    1.00
  -2   1   7   18.40    1.10
  -2   1   7   17.80    1.70
  -2   1   7   10.80   15.20
   1  -1  -7    1.30    0.40
  -1   1   7  -18.40   12.50
   0  -1  -7  134.99    5.20
   0   1   7  125.29   18.50
  -1  -1  -7   68.19    3.30
   1   1   7   68.29    2.70
   1   1   7   87.59   20.60
   1   1   7   70.09    2.50
   2   1   7   27.70   22.00
  -3  -1  -7    2.90    0.90
  -3  -1  -7    2.00    0.60
  -3  -1  -7    3.50    0.90
  -3  -1  -7    2.60    0.30
   3   1   7   21.20   36.80
   3   1   7    2.30    0.50
   4   1   7   64.79   67.69
  -5  -1  -7    3.00    0.50
   5   1   7    3.30    0.60
  -6   2   7   -0.10    0.20
  -6   2   7    0.20    0.20
   5  -2  -7   15.50    0.90
  -5   2   7   15.60    0.70
   4  -2  -7    8.10    0.50
   4  -2  -7    8.20    1.50
  -4   2   7    7.00    0.80
  -4   2   7    8.60    0.60
  -4   2   7    8.40   39.50
  -4   2   7    8.10    0.50
  -4   2   7    7.70    1.60
  -4   2   7    8.00    0.60
   3  -2  -7   52.39    2.60
  -3   2   7   45.90    1.70
  -3   2   7   44.40    2.00
  -3   2   7  -11.10   31.80
  -3   2   7   47.80    3.10
  -3   2   7   51.99    2.30
  -3   2   7   46.90    1.90
   2  -2  -7   40.40    2.00
  -2   2   7   40.70    1.60
  -2   2   7   42.70    2.90
  -2   2   7   38.70    1.50
  -2   2   7   40.00    2.10
  -2   2   7   56.39   27.60
  -1   2   7  461.75   17.50
  -1   2   7  499.35   16.30
  -1   2   7  489.15   16.70
   0  -2  -7  175.88    6.40
   0   2   7  159.28    5.80
   0   2   7  145.09   22.10
   0   2   7  172.98    5.70
  -1  -2  -7  297.67   10.70
  -1  -2  -7  286.07    9.70
   1   2   7  260.27   34.20
   1   2   7  303.27    9.80
   1   2   7  304.67   10.10
  -2  -2  -7    9.20    1.00
  -2  -2  -7    8.30    1.20
  -2  -2  -7    9.00    0.60
   2   2   7    8.80    0.60
   2   2   7    9.60    0.80
   2   2   7    3.80   27.70
  -3  -2  -7    0.20    0.40
  -3  -2  -7    0.80    0.70
  -3  -2  -7    0.80    0.20
   3   2   7    0.80    0.40
   3   2   7  -13.20   44.90
  -4  -2  -7  145.19    4.80
  -4  -2  -7  145.99    5.40
   4   2   7  147.79    5.30
   4   2   7   47.30   98.19
  -5  -2  -7    4.10    0.50
   5   2   7    4.60    0.50
   6  -3  -7   12.40    0.60
  -6   3   7    9.60    0.60
   5  -3  -7  117.69    3.90
  -5   3   7  113.89    4.10
  -5   3   7  113.39    3.90
  -5   3   7  121.69    4.00
   4  -3  -7    2.80    1.00
  -4   3   7    1.50    0.30
  -4   3   7    2.30    0.30
  -4   3   7    2.00    0.30
  -4   3   7    1.60    1.60
  -4   3   7    2.10    0.50
   3  -3  -7   35.30    2.20
   3  -3  -7   31.60    1.20
  -3   3   7   34.50    1.90
  -3   3   7   32.20    1.30
  -3   3   7   31.60    1.30
  -3   3   7   33.60    2.90
  -3   3   7   33.40    1.40
   2  -3  -7    3.50    0.60
   2  -3  -7    4.30    0.30
  -2   3   7    3.40    0.40
  -2   3   7    5.30    0.80
  -2   3   7    4.10    0.40
   1  -3  -7    1.00    0.20
   1  -3  -7    1.40    0.50
  -1   3   7    1.00    0.30
  -1   3   7    1.60    0.60
  -1   3   7    1.50    0.30
  -1   3   7    0.80    1.50
   0  -3  -7   12.70    0.60
   0  -3  -7   14.00    1.20
   0   3   7    9.90   15.60
   0   3   7   11.60    0.80
   0   3   7   12.20    0.70
  -1  -3  -7  113.79    4.80
  -1  -3  -7  113.19    3.80
   1   3   7  112.09    4.20
   1   3   7  109.69    3.90
  -2  -3  -7   24.70    1.90
  -2  -3  -7   27.80    2.10
  -2  -3  -7   24.00    1.10
   2   3   7   26.40    1.50
   2   3   7   26.40    1.20
   2   3   7   33.30   34.50
  -3  -3  -7    8.60    1.00
  -3  -3  -7    8.80    0.50
   3   3   7   16.30   58.79
   3   3   7    9.50    1.00
  -4  -3  -7   31.00    1.50
   4   3   7   27.40    1.50
  -5  -3  -7    4.60    0.50
   5   3   7    4.90    0.50
   6  -4  -7    0.00    0.10
   5  -4  -7   46.20    1.60
  -5   4   7   45.30    1.80
  -5   4   7   45.60    1.70
   4  -4  -7   47.70    1.60
   4  -4  -7   45.40    3.20
  -4   4   7   43.90    1.80
  -4   4   7   46.60    4.10
  -4   4   7   46.50    1.80
  -4   4   7   47.70    2.40
   3  -4  -7    9.90    0.50
   3  -4  -7    8.60    1.90
  -3   4   7   10.70    0.60
  -3   4   7    8.20    1.10
  -3   4   7   10.80    0.70
  -3   4   7    8.60    2.20
   2  -4  -7    4.00    0.80
   2  -4  -7    5.30    0.40
  -2   4   7    6.40    2.00
  -2   4   7    5.30    1.00
  -2   4   7    6.00    0.50
  -2   4   7    6.10    0.50
   1  -4  -7   47.90    2.50
   1  -4  -7   47.50    1.70
  -1   4   7   45.20    4.30
  -1   4   7   48.00    1.80
  -1   4   7   45.30    2.80
  -1   4   7   44.90    1.90
   0  -4  -7   22.50    1.60
   0  -4  -7   21.50    0.90
   0   4   7   19.90   21.90
   0   4   7   20.80    1.00
   0   4   7   22.00    1.20
   1   4   7  -21.00   27.70
  -2  -4  -7   38.20    2.50
  -2  -4  -7   38.20    2.00
  -2  -4  -7   41.20    1.60
   2   4   7   43.40    2.00
   2   4   7  -34.70   44.10
   2   4   7   43.40    1.70
  -3  -4  -7   15.20    0.70
  -3  -4  -7   14.50    1.10
   3   4   7   15.40    1.10
   3   4   7   11.80   89.89
  -4  -4  -7   12.90    0.90
   4   4   7   13.40    0.90
   6  -5  -7    5.30    0.30
   5  -5  -7    2.50    0.20
  -5   5   7    3.00    0.40
   4  -5  -7   65.69    4.30
   4  -5  -7   69.09    2.40
  -4   5   7   66.59    5.20
  -4   5   7   62.39    4.00
  -4   5   7   72.79    2.50
  -4   5   7   68.09    2.50
   3  -5  -7   34.90    1.30
   3  -5  -7   37.80    2.70
  -3   5   7   34.70    1.40
  -3   5   7   34.90    2.30
  -3   5   7   34.70    1.50
   2  -5  -7  129.99    4.30
  -2   5   7  122.59    4.40
  -2   5   7  129.79    4.50
  -2   5   7  132.29    7.30
  -2   5   7  128.99    5.70
   1  -5  -7    1.50    0.60
   1  -5  -7    1.20    0.20
  -1   5   7    1.20    0.70
  -1   5   7    1.70    0.40
  -1   5   7    3.00    2.60
   0  -5  -7   50.49    1.80
   0  -5  -7   48.00    2.70
   0   5   7   50.49    1.90
   0   5   7   35.40   29.00
   0   5   7   48.30    2.10
  -1  -5  -7  117.09    4.70
  -1  -5  -7  123.29    4.20
  -1  -5  -7  123.39    5.30
   1   5   7  125.49    4.30
   1   5   7  123.89    4.60
   1   5   7  110.89   43.10
  -2  -5  -7   46.20    1.80
   2   5   7   47.20    2.20
   2   5   7   62.49   62.09
  -3  -5  -7   29.90    1.60
   3   5   7   31.90    1.60
  -4  -5  -7   12.30    0.80
   4   5   7   12.60    0.80
   5  -6  -7    0.40    0.10
  -5   6   7    0.50    0.20
   4  -6  -7   14.60    0.60
  -4   6   7   14.70    0.80
   3  -6  -7    3.20    1.10
   3  -6  -7    2.00    0.20
  -3   6   7    0.40    2.90
  -3   6   7    2.20    0.30
   2  -6  -7  172.68    5.50
  -2   6   7  167.88    7.10
  -2   6   7  151.18    5.60
  -2   6   7  173.98    5.80
  -2   6   7  165.48    9.10
   1  -6  -7    9.40    0.50
  -1   6   7    9.40    0.60
  -1   6   7   10.70    0.80
   0  -6  -7  380.26   13.00
   0  -6  -7  389.96   13.80
   0  -6  -7  385.06   12.40
   0   6   7  373.06   12.50
   0   6   7  292.67   56.49
   0   6   7  378.26   12.80
  -1  -6  -7  192.38    6.40
  -1  -6  -7  193.58    7.00
   1   6   7  189.58    6.90
   1   6   7   63.69   53.29
  -2  -6  -7    6.30    0.80
  -2  -6  -7    5.30    0.40
   2   6   7    4.20    0.60
  -3  -6  -7   53.69    2.30
   3   6   7   60.19    2.60
   5  -7  -7    3.30    0.20
   4  -7  -7    0.70    0.20
  -4   7   7    1.20    0.40
   3  -7  -7  106.49    3.50
  -3   7   7  104.89    3.80
   2  -7  -7   10.60    0.60
  -2   7   7   10.70    0.80
  -2   7   7    2.00    4.10
  -2   7   7    8.50    1.50
   1  -7  -7    1.80    0.30
  -1   7   7    2.10    0.50
   0  -7  -7  434.66   14.90
   0  -7  -7  451.95   14.40
   0   7   7  369.86   64.99
  -1  -7  -7    0.00    0.40
  -1  -7  -7    0.20    0.20
   1   7   7   -0.10    0.30
  -2  -7  -7   -0.30    0.20
   2   7   7    0.20    0.30
  -3  -7  -7    4.10    0.60
   3   7   7    2.50    0.40
   4  -8  -7    0.00    0.10
  -4   8   7    0.10    0.20
   3  -8  -7   23.40    0.90
  -3   8   7   24.50    1.10
   2  -8  -7    0.00    0.20
  -2   8   7   -0.10    0.20
   1  -8  -7    8.70    0.50
   1  -8  -7    7.70    0.80
  -1   8   7    8.00    0.70
   0  -8  -7    8.10    0.80
   0  -8  -7    7.70    0.40
  -1  -8  -7   47.20    2.10
   1   8   7   47.00    2.00
  -2  -8  -7    7.50    0.80
   2   8   7    8.40    0.60
   3  -9  -7   62.09    2.10
  -3   9   7   66.19    2.30
   2  -9  -7   99.59    3.30
  -2   9   7  100.89    3.60
   1  -9  -7    6.90    0.80
   1  -9  -7    8.00    0.40
   0  -9  -7    2.00    0.40
   0   9   7    1.80    0.30
  -1  -9  -7    7.50    0.60
   1   9   7    7.10    0.60
   1  14  -8    2.50    0.20
  -1 -14   8    2.60    0.40
  -1 -14   8    2.20    0.20
   0  14  -8    0.20    0.10
   0 -14   8    0.30    0.20
  -1  14  -8    1.40    0.20
   1 -14   8    1.30    0.20
   3  13  -8   25.70    1.10
  -3 -13   8   23.70    1.00
  -3 -13   8   21.90    1.00
   2  13  -8   22.60    0.90
  -2 -13   8   20.90    1.00
  -2 -13   8   19.70    0.90
  -1 -13   8    2.50    0.50
  -1 -13   8    1.80    0.30
   0  13  -8   67.99    2.20
   0 -13   8   63.89    2.30
   0 -13   8   65.79    2.50
   0 -13   8   58.89    2.20
  -1  13  -8   22.90    0.90
   1 -13   8   20.90    1.30
   1 -13   8   20.70    0.90
  -2  13  -8    4.00    0.30
   2 -13   8    3.90    0.40
   2 -13   8    3.60    0.30
   3  12  -8   -0.20    0.10
  -3 -12   8    0.20    0.20
  -3 -12   8   -0.10    0.20
   2  12  -8   11.20    0.60
  -2 -12   8   10.70    0.60
  -2 -12   8   10.90    0.80
   1  12  -8    0.80    0.20
  -1 -12   8    0.80    0.30
  -1 -12   8    0.60    0.20
   0  12  -8   46.60    1.70
   0 -12   8   44.30    1.70
   0 -12   8   46.60    1.70
   0 -12   8   44.80    1.90
  -1  12  -8    5.30    0.40
   1 -12   8    5.60    0.40
   1 -12   8    4.60    0.50
   1 -12   8    5.60    0.60
  -2  12  -8    0.20    0.10
   2 -12   8    0.30    0.20
  -3  12  -8   74.09    2.50
   3 -12   8   74.79    2.60
   4  11  -8    8.10    0.50
  -4 -11   8    8.50    0.50
  -4 -11   8    8.00    0.60
   3  11  -8   26.80    1.10
  -3 -11   8   26.00    1.30
  -3 -11   8   26.80    1.20
   2  11  -8    3.40    0.30
  -2 -11   8    4.10    0.60
  -2 -11   8    2.80    0.40
   1  11  -8    0.10    0.20
  -1 -11   8    0.00    0.20
   0  11  -8   34.00    1.40
   0  11  -8   33.70    2.90
   0 -11   8   31.00    1.60
   0 -11   8   35.40    1.60
   0 -11   8   31.50    1.40
   0 -11   8   15.20   19.90
  -1  11  -8    1.70    1.10
   1 -11   8  -15.40   18.90
  -2  11  -8    0.60    0.20
   2 -11   8  -11.80   25.50
   2 -11   8    0.50    0.20
  -3  11  -8   10.30    0.50
   3 -11   8    9.70    0.60
   4 -11   8   39.80    1.50
   5  10  -8   21.00    0.90
  -5 -10   8   16.50    1.00
   4  10  -8    0.60    0.20
  -4 -10   8    0.30    0.20
  -4 -10   8    0.30    0.30
   3  10  -8    9.50    0.60
  -3 -10   8    9.50    0.80
  -3 -10   8    9.20    0.60
   2  10  -8   49.50    1.80
   2  10  -8   50.49    2.90
  -2 -10   8   51.19    1.90
  -2 -10   8   47.90    3.50
  -2 -10   8   50.99    2.20
   1  10  -8   17.60    1.90
   1  10  -8   15.90    0.70
  -1 -10   8   15.20    1.00
  -1 -10   8   14.70    0.70
  -1 -10   8   15.40    0.80
   0  10  -8   40.70    1.50
   0  10  -8   43.40    3.10
   0 -10   8   40.40    1.60
   0 -10   8   32.80   15.00
   0 -10   8   41.70    1.60
  -1  10  -8    7.60    1.60
  -1  10  -8    6.40    0.40
   1 -10   8    6.70    0.50
   1 -10   8    5.50    0.50
  -2  10  -8  117.89    3.90
  -2  10  -8  101.29    7.80
   2 -10   8  118.89    4.20
   2 -10   8  114.19    3.90
   2 -10   8  108.09   20.30
   3 -10   8  -40.70   23.30
   3 -10   8    0.50    0.20
  -4  10  -8    5.50    0.30
   4 -10   8    6.30    0.60
   5   9  -8    1.50    0.20
  -5  -9   8    2.10    0.30
  -5  -9   8    2.20    0.30
   4   9  -8    1.40    0.30
  -4  -9   8    1.70    0.30
  -4  -9   8    1.50    0.40
   3   9  -8  110.79    4.00
   3   9  -8  118.69    4.80
  -3  -9   8  117.59    4.30
  -3  -9   8  119.59    6.00
  -3  -9   8  117.19    4.00
   2   9  -8   18.20    1.40
  -2  -9   8   18.70    1.10
  -2  -9   8   16.40    0.80
  -2  -9   8   14.30    2.00
   1   9  -8  208.88    7.70
   1   9  -8  174.08    6.30
  -1  -9   8  200.88    6.40
  -1  -9   8  186.98    8.30
  -1  -9   8  180.18    6.30
  -1  -9   8  198.68    6.70
   0   9  -8   50.09    1.80
   0   9  -8   50.49    3.20
   0  -9   8   50.79    1.90
   0  -9   8   50.19   11.90
   0  -9   8   50.09    2.80
  -1   9  -8   40.40    1.50
  -1   9  -8   43.10    3.30
   1  -9   8   40.60    1.60
   1  -9   8   42.20    1.60
   1  -9   8   37.10   11.80
  -2   9  -8   54.49    4.10
  -2   9  -8   56.59    2.00
   2  -9   8   36.50   16.50
   2  -9   8   54.59    2.00
   2  -9   8   56.49    2.10
   3  -9   8  -12.20   21.00
  -4   9  -8    0.00    0.10
   4  -9   8    0.10    0.20
   5  -9   8   14.20    0.60
   5   8  -8   67.09    2.40
  -5  -8   8   64.89    2.50
  -5  -8   8   62.99    2.30
   4   8  -8   46.20    2.40
   4   8  -8   49.10    1.80
  -4  -8   8   46.80    1.80
  -4  -8   8   49.10    1.90
  -4  -8   8   41.20    3.50
   3   8  -8   30.70    1.70
  -3  -8   8   31.10    2.60
  -3  -8   8   30.90    1.60
  -3  -8   8   31.70    1.30
   2   8  -8  309.97   10.60
  -2  -8   8  291.07   10.30
  -2  -8   8  301.97   10.00
  -2  -8   8  307.57   11.90
   1   8  -8  157.98    6.30
  -1  -8   8  162.78    5.60
  -1  -8   8  156.38    5.40
  -1  -8   8  161.18    7.10
   0   8  -8    1.70    0.70
   0  -8   8    1.80    0.60
   0  -8   8    4.20    7.00
   0  -8   8    1.70    0.20
   0  -8   8    2.70    3.00
   0  -8   8    1.70    0.30
  -1   8  -8   38.70    1.40
  -1   8  -8   37.00    2.80
   1  -8   8   37.50    1.40
   1  -8   8   30.90   10.70
   1  -8   8   36.00    1.50
  -2   8  -8   75.69    2.60
  -2   8  -8   82.99    5.30
   2  -8   8   74.79    2.70
   2  -8   8   76.99    2.80
   2  -8   8   64.49   16.60
  -3   8  -8   51.49    1.80
  -3   8  -8   46.30    3.90
   3  -8   8   61.19   21.10
   3  -8   8   50.09    2.00
  -4   8  -8    2.40    0.20
   4  -8   8    2.00    0.30
  -5   8  -8    5.40    0.40
   5  -8   8    7.20    0.40
   6   7  -8   14.50    0.80
  -6  -7   8   17.00    0.80
  -6  -7   8   15.10    0.70
   5   7  -8  118.09    4.00
  -5  -7   8  117.19    4.00
  -5  -7   8  109.89    4.00
  -5  -7   8  113.29    4.20
   4   7  -8   43.30    2.10
  -4  -7   8   44.00    1.70
  -4  -7   8   44.70    1.80
  -4  -7   8   42.60    2.00
  -4  -7   8   42.30    3.10
   3   7  -8    3.50    0.60
  -3  -7   8    4.00    0.60
  -3  -7   8    4.60    0.40
  -3  -7   8    3.20    1.00
  -3  -7   8    3.70    0.40
   2   7  -8   14.80    1.00
  -2  -7   8   16.80    2.10
  -2  -7   8   15.80    0.80
  -2  -7   8   16.60    1.00
   1   7  -8   65.39    3.00
  -1  -7   8   68.99    3.80
  -1  -7   8   70.09    2.70
  -1  -7   8   66.99    2.50
   0   7  -8   25.40    1.80
   0  -7   8   15.80    6.00
   0  -7   8   23.70    0.90
   0  -7   8   26.80    2.80
   0  -7   8   25.60    1.10
   0  -7   8   24.00    1.50
  -1   7  -8  634.74   22.50
  -2   7  -8   94.39    5.20
  -2   7  -8   93.19    3.20
   2  -7   8   90.09    3.30
   2  -7   8   94.79   16.30
  -3   7  -8   13.20    2.20
  -3   7  -8   13.40    0.60
   3  -7   8   -4.90   18.50
   3  -7   8   12.70    0.70
   3  -7   8   13.40    0.80
  -4   7  -8   57.59    2.00
  -4   7  -8   54.29    2.10
   4  -7   8   57.99    2.20
   5  -7   8    3.00    0.30
   6   6  -8    1.40    0.20
  -6  -6   8    1.00    0.20
  -6  -6   8    0.90    0.30
   5   6  -8   91.49    3.20
  -5  -6   8   82.29    3.20
  -5  -6   8   96.49    3.40
  -5  -6   8   96.19    3.50
   4   6  -8   63.59    2.80
  -4  -6   8   63.89    2.70
  -4  -6   8   65.99    2.50
  -4  -6   8   64.89    2.40
  -4  -6   8   66.89    3.90
   3   6  -8  188.78    6.60
  -3  -6   8  179.78    6.60
  -3  -6   8  187.28    6.40
  -3  -6   8  188.18    6.30
  -3  -6   8  197.08    8.00
  -2  -6   8    6.90    0.60
  -2  -6   8    8.30    1.40
  -2  -6   8    6.50    0.50
   1   6  -8    1.60    0.40
  -1  -6   8    1.00    0.20
  -1  -6   8    1.00    0.60
  -1  -6   8    1.40    0.30
   0   6  -8  104.79    4.30
   0  -6   8  102.79    8.90
   0  -6   8   99.99    4.60
   0  -6   8   96.09    3.50
   0  -6   8   99.09    3.80
  -1   6  -8   18.90    1.70
   1  -6   8   15.40    7.80
   1  -6   8   19.60    0.90
  -2   6  -8   43.60    3.10
  -2   6  -8   43.90    1.60
   2  -6   8   42.50    1.70
   2  -6   8   43.10    1.70
   2  -6   8   33.70   13.40
  -3   6  -8    5.60    1.90
  -3   6  -8    3.30    0.30
   3  -6   8    4.00    0.40
   3  -6   8   11.50   19.00
   3  -6   8    3.80    0.40
  -4   6  -8   22.50    0.90
  -4   6  -8   22.20    1.10
   4  -6   8   27.20   32.10
   4  -6   8   22.20    1.10
  -5   6  -8    2.60    0.30
   5  -6   8    2.30    0.30
   6   5  -8    0.40    0.20
  -6  -5   8    0.20    0.30
  -6  -5   8    0.00    0.20
   5   5  -8    0.20    0.20
   5   5  -8   -0.10    0.30
  -5  -5   8    0.30    0.30
  -5  -5   8    0.00    0.30
  -5  -5   8    0.90    0.70
   4   5  -8  313.67   10.90
  -4  -5   8  307.97   10.20
  -4  -5   8  321.67   10.50
  -4  -5   8  298.17   10.50
   3   5  -8   -0.10    0.20
  -3  -5   8   -0.40    0.40
  -3  -5   8    0.10    0.20
  -3  -5   8    0.10    0.30
   2   5  -8    3.70    0.30
  -2  -5   8    4.10    0.50
  -2  -5   8    4.10    0.40
  -2  -5   8    4.20    1.00
   1   5  -8    0.10    0.20
   1   5  -8    0.20    0.20
  -1  -5   8   -0.10    0.40
   0   5  -8    5.30    0.80
   0  -5   8    6.50    3.50
  -1   5  -8   40.40    2.70
   1  -5   8   36.40    4.50
   1  -5   8   36.50    2.20
   1  -5   8   30.20    9.00
   1  -5   8   38.60    1.50
   1  -5   8   36.50    1.40
  -2   5  -8    0.40    0.60
  -2   5  -8    0.70    0.20
   2  -5   8    1.20    0.30
   2  -5   8    1.20    0.30
  -3   5  -8   -0.20    0.60
  -3   5  -8    0.00    0.20
   3  -5   8  -20.90   20.10
   3  -5   8    0.10    0.20
   3  -5   8    0.10    0.20
  -4   5  -8   85.49    5.50
  -4   5  -8   91.99    3.30
   4  -5   8   87.19    3.20
   4  -5   8  144.29   36.60
  -5   5  -8    0.10    0.10
  -5   5  -8   -0.10    0.20
   5  -5   8    0.00    0.20
   6   4  -8   29.80    1.20
  -6  -4   8   30.70    1.30
  -6  -4   8   28.00    1.30
   5   4  -8    0.00    0.30
  -5  -4   8    0.60    0.70
  -5  -4   8    0.20    0.40
  -5  -4   8    0.20    0.30
   4   4  -8  102.39    4.20
  -4  -4   8   95.29    3.40
  -4  -4   8  102.29    5.00
  -4  -4   8  100.39    3.70
  -4  -4   8  103.69    3.80
   3   4  -8  222.58    8.60
  -3  -4   8  239.18    8.90
  -3  -4   8  219.78    7.60
  -3  -4   8  221.98    7.70
  -2  -4   8  227.18    8.70
   1   4  -8  185.38    6.30
   1   4  -8  175.68    6.20
  -1  -4   8  183.28    7.10
   0   4  -8   27.30    1.60
   0  -4   8   19.80    4.20
  -1   4  -8   15.10    1.40
   1  -4   8   24.40   19.60
   1  -4   8   16.50    8.60
  -2   4  -8   30.40    1.20
  -2   4  -8   29.20    2.30
   2  -4   8   30.70    1.30
   2  -4   8    8.90   13.00
   2  -4   8   29.00    1.20
  -3   4  -8   77.89    4.60
  -3   4  -8   79.69    2.80
   3  -4   8   82.99    3.10
   3  -4   8   76.79   24.90
  -4   4  -8  186.58    5.90
  -4   4  -8  158.88    6.80
   4  -4   8  186.98   43.00
   4  -4   8  185.38    6.20
  -5   4  -8   62.49    2.20
  -5   4  -8   54.89    1.90
   5  -4   8   56.29    2.20
   6   3  -8   31.30    1.40
  -6  -3   8   31.20    1.40
  -6  -3   8   32.30    1.40
   5   3  -8    3.80    0.80
  -5  -3   8    4.10    1.00
  -5  -3   8    3.20    0.50
  -5  -3   8    3.00    0.40
   4   3  -8   74.09    3.40
  -4  -3   8   82.89    4.10
  -4  -3   8   72.39    2.90
  -4  -3   8   72.89    2.90
   3   3  -8  128.69    4.50
  -3  -3   8  117.19    4.10
  -3  -3   8  106.39    5.80
  -3  -3   8  110.59    4.20
  -2  -3   8    0.50    0.40
   0   3  -8  248.98    9.00
   0  -3   8  267.67   17.40
   0  -3   8  237.78   14.60
   1  -3   8    2.60   22.70
   1  -3   8    9.90    9.60
  -2   3  -8  559.84   20.00
   2  -3   8  566.74   42.60
   2  -3   8  560.44   18.30
  -3   3  -8  185.48    8.30
  -3   3  -8  197.78    6.40
   3  -3   8  190.68    6.70
   3  -3   8  165.28   34.90
  -4   3  -8   74.69    6.10
  -4   3  -8   73.49    2.50
   4  -3   8   73.99    2.90
   4  -3   8   92.19   42.50
  -5   3  -8   33.50    1.40
   5  -3   8   31.70    1.40
   6   2  -8   23.60    1.00
  -6  -2   8   24.20    1.10
  -6  -2   8   25.40    1.20
   5   2  -8   17.50    0.90
   5   2  -8   18.60    1.70
  -5  -2   8   19.20    1.10
  -5  -2   8   17.10    1.00
  -5  -2   8   18.40    1.90
   4   2  -8  327.57   11.90
  -4  -2   8  322.07   12.30
  -4  -2   8  342.67   11.60
  -3  -2   8   75.89    2.80
  -3  -2   8   73.29    2.80
  -3  -2   8   78.79    3.60
   2   2  -8    1.00    0.20
   2   2  -8    1.00    0.20
  -2  -2   8    1.50    0.50
   1   2  -8   58.19    2.40
  -1  -2   8   55.79    2.80
   0   2  -8  103.89    4.30
   0  -2   8   96.09   11.70
   0  -2   8  123.49   14.20
   1  -2   8    1.80   10.60
  -2   2  -8   33.10    2.40
  -2   2  -8   32.70    1.30
   2  -2   8   41.30   18.70
   2  -2   8   31.70    1.30
   2  -2   8   32.00    1.50
  -3   2  -8   20.90    2.10
  -3   2  -8   21.20    0.90
   3  -2   8    6.20   25.50
   3  -2   8   21.40    1.20
  -4   2  -8   74.39    5.20
  -4   2  -8   80.59    2.80
  -4   2  -8   77.09    3.20
   4  -2   8   86.39    3.20
   4  -2   8   37.10   43.30
  -5   2  -8    5.20    0.60
   5  -2   8    4.40    0.50
   5  -2   8    4.70    0.40
   6   1  -8    0.20    0.20
  -6  -1   8    0.30    0.20
  -6  -1   8    0.30    0.20
   5   1  -8    5.50    0.40
   5   1  -8    8.20    1.30
  -5  -1   8    6.90    1.30
  -5  -1   8    6.60    0.60
  -5  -1   8    6.00    0.60
   4   1  -8    2.00    0.70
  -4  -1   8    3.60    0.90
  -4  -1   8    2.20    0.40
  -4  -1   8    2.60    0.40
   3   1  -8   42.10    2.00
  -3  -1   8   42.10    2.30
  -3  -1   8   41.90    1.70
   2   1  -8    0.50    0.20
  -2  -1   8    1.20    0.40
  -2  -1   8    0.40    0.20
   1   1  -8  140.79    5.10
   0   1  -8  185.68    6.80
   0  -1   8  183.68   18.80
   0  -1   8  167.88   17.70
  -1   1  -8   10.80    1.30
   1  -1   8   10.90    0.60
   1  -1   8    9.80    0.70
   1  -1   8   -1.00   12.10
  -2   1  -8   31.90    1.30
  -2   1  -8   29.60    2.20
   2  -1   8   52.99   24.70
   2  -1   8   32.00    1.50
   2  -1   8   31.90    1.30
   3  -1   8  -19.00   28.40
  -4   1  -8   11.40    0.90
  -4   1  -8   10.40    0.50
   4  -1   8   19.00   49.90
   4  -1   8   10.50    0.90
  -5   1  -8    8.20    0.60
   5  -1   8    8.40    0.60
   6   0  -8   25.40    1.00
  -6   0   8   27.10    1.10
  -6   0   8   26.70    1.20
   5   0  -8    8.50    1.40
  -5   0   8    8.60    0.70
  -5   0   8    8.50    0.70
   4   0  -8   20.40    1.70
  -4   0   8   18.70    1.60
  -4   0   8   21.00    1.10
  -4   0   8   20.90    1.10
   3   0  -8   11.80    1.00
  -3   0   8   12.70    0.80
  -3   0   8   13.00    0.80
  -3   0   8   11.90    1.10
   2   0  -8   29.80    1.40
  -2   0   8   32.10    1.30
  -2   0   8   26.20    1.50
   1   0  -8    4.10    0.60
  -1   0   8    3.10    7.90
   0   0   8    3.30    9.90
   0   0   8   -5.90   14.00
  -1   0  -8   15.00    1.30
  -1   0  -8   12.80    0.70
   1   0   8   14.90    0.90
   1   0   8   12.90    0.70
   1   0   8   12.60   15.10
  -2   0  -8    5.70    1.00
  -2   0  -8    7.50    0.50
   2   0   8   17.30   22.10
   2   0   8    7.70    0.60
   2   0   8    6.40    0.70
  -3   0  -8    8.40    0.50
  -3   0  -8    9.50    0.90
  -3   0  -8    5.80    1.40
   3   0   8    8.90    0.80
   3   0   8    3.20   34.30
   4   0   8  118.39   96.09
  -5   0  -8    9.20    0.70
   5   0   8   10.40    0.70
  -6   1   8   23.60    1.10
  -6   1   8   24.80    1.00
   5  -1  -8    4.00    1.20
   5  -1  -8    3.80    0.30
  -5   1   8    4.00    0.50
  -5   1   8    3.30    0.50
   4  -1  -8   96.89    5.60
   4  -1  -8   97.49    3.40
  -4   1   8  101.09    3.60
  -4   1   8  101.49    3.60
  -4   1   8   99.59    3.30
   3  -1  -8    8.10    1.00
  -3   1   8    9.60    0.60
  -3   1   8   -2.00   13.60
  -3   1   8    7.50    0.50
  -3   1   8    8.50    0.50
  -3   1   8    8.40    0.60
   2  -1  -8    3.00    0.50
  -2   1   8    1.80   16.00
  -2   1   8    3.00    0.30
  -2   1   8    3.20    0.40
   1  -1  -8   40.40    2.30
  -1   1   8   41.20   12.60
  -1   1   8   40.30    1.60
  -1   1   8   38.40   18.80
   0   1   8  336.27   31.40
   0   1   8  316.57   10.70
  -1  -1  -8  138.09    4.80
  -1  -1  -8  145.99    5.90
   1   1   8  158.38   27.60
   1   1   8  145.79    5.10
   1   1   8  142.99    4.90
  -2  -1  -8   19.40    1.70
   2   1   8   21.10    1.50
   2   1   8   42.40   27.20
   3   1   8  -39.30   57.19
  -4  -1  -8    0.20    0.10
  -4  -1  -8    0.40    0.40
   4   1   8    0.30    0.30
  -5  -1  -8   10.90    0.70
   5   1   8   10.00    0.60
   6  -2  -8    2.30    0.20
  -6   2   8    2.10    0.30
  -5   2   8    1.90    0.30
  -5   2   8    2.90    0.30
   4  -2  -8  142.49    6.30
  -4   2   8  135.59    4.90
  -4   2   8  138.19    4.70
  -4   2   8  142.49    4.80
   3  -2  -8    3.80    0.30
   3  -2  -8    3.80    0.80
  -3   2   8    3.40    0.60
  -3   2   8   16.10   32.00
  -3   2   8    2.80    0.50
  -3   2   8    3.90    0.40
  -3   2   8    4.50    1.50
   2  -2  -8   11.70    0.60
   2  -2  -8   14.70    1.10
  -2   2   8   14.70    1.20
  -2   2   8   13.40    0.70
  -2   2   8   13.00    0.70
  -2   2   8    3.30   28.70
  -2   2   8   13.10    2.30
   1  -2  -8   60.99    2.20
   1  -2  -8   65.59    2.90
  -1   2   8   80.19   17.20
  -1   2   8   63.29    2.40
  -1   2   8   67.39    2.40
   0  -2  -8   18.40    0.80
   0  -2  -8   20.20    1.50
   0   2   8   13.30   15.80
   0   2   8   19.90    0.90
   1   2   8   12.80   19.80
  -2  -2  -8   41.80    1.60
   2   2   8   42.80    1.70
   2   2   8   43.30    2.00
   2   2   8   50.69   34.10
  -3  -2  -8   22.80    2.30
  -3  -2  -8   31.50    2.00
  -3  -2  -8   26.50    1.10
   3   2   8   28.20    1.50
   3   2   8    6.80   50.19
  -4  -2  -8    0.60    0.30
   4   2   8    0.70    0.30
  -5  -2  -8    4.90    0.40
   5   2   8    4.80    0.40
   6  -3  -8    8.80    0.40
  -6   3   8    9.00    0.60
   5  -3  -8    0.50    0.20
  -5   3   8    0.30    0.20
   4  -3  -8   39.00    1.40
   4  -3  -8   38.20    2.80
  -4   3   8  117.49   42.00
  -4   3   8   41.50    1.70
  -4   3   8   40.20    1.50
  -4   3   8   38.80    3.20
  -4   3   8   41.50    1.50
  -4   3   8   38.60    1.90
   3  -3  -8    1.70    0.20
  -3   3   8    1.90    0.60
  -3   3   8    1.80    0.30
  -3   3   8    1.20    1.60
  -3   3   8    2.30    0.30
   2  -3  -8    5.00    0.30
   2  -3  -8    6.40    0.90
  -2   3   8    3.90    1.90
  -2   3   8    5.30    0.90
  -2   3   8    5.70    0.50
  -2   3   8    5.40    0.50
   1  -3  -8    6.80    0.90
   1  -3  -8    8.00    0.40
  -1   3   8    8.10    0.60
  -1   3   8    8.90    0.70
   0  -3  -8  120.09    4.10
   0  -3  -8  125.09    5.10
   0   3   8  143.99   28.80
   0   3   8  121.39    4.20
  -1  -3  -8  113.09    5.10
  -1  -3  -8  116.19    4.00
   1   3   8  118.59    4.40
   1   3   8  119.39    4.10
   1   3   8  139.49   35.10
  -2  -3  -8   27.80    1.20
  -2  -3  -8   27.30    2.10
  -2  -3  -8   25.30    1.60
   2   3   8   -5.30   39.30
   2   3   8   29.50    1.30
   2   3   8   28.40    1.50
  -3  -3  -8  107.29    3.60
  -3  -3  -8  100.49    4.10
   3   3   8   82.09  103.79
   3   3   8  110.49    4.10
  -4  -3  -8   14.70    0.90
   4   3   8   15.70    0.90
   6  -4  -8    5.90    0.30
   5  -4  -8    5.50    0.30
  -5   4   8    5.60    0.40
   4  -4  -8    0.90    0.80
   4  -4  -8    1.90    0.20
  -4   4   8    1.10    2.20
  -4   4   8    2.00    0.30
  -4   4   8    2.30    0.30
   3  -4  -8    0.80    0.20
   3  -4  -8    0.50    0.60
  -3   4   8    0.70    0.50
  -3   4   8   -1.50    3.20
  -3   4   8    0.90    0.30
  -3   4   8    0.80    0.30
   2  -4  -8   31.80    1.20
  -2   4   8   33.20    2.20
  -2   4   8   33.30    1.40
  -2   4   8   34.10    3.80
  -2   4   8   31.10    1.40
   1  -4  -8    0.40    0.20
   1  -4  -8    0.60    0.40
  -1   4   8    0.80    0.30
  -1   4   8    0.40    0.30
   0  -4  -8  119.29    5.20
   0  -4  -8  120.69    4.10
   0   4   8  125.19    4.20
   0   4   8  145.59   32.80
  -1  -4  -8  208.38    6.90
  -1  -4  -8  194.58    8.00
   1   4   8  208.38    7.00
   1   4   8  200.18   43.30
   1   4   8  213.08    7.30
  -2  -4  -8    0.00    1.30
  -2  -4  -8    2.30    0.70
   2   4   8    6.50   48.90
  -3  -4  -8    0.20    0.10
  -3  -4  -8   -0.10    0.30
   3   4   8    0.20    0.30
  -4  -4  -8   12.20    0.80
   4   4   8   15.10    0.80
   5  -5  -8   58.99    2.00
   4  -5  -8   16.00    0.70
  -4   5   8   16.00    0.80
  -4   5   8   16.70    0.80
   3  -5  -8    5.30    1.60
  -3   5   8    5.20    2.80
  -3   5   8    9.80    0.70
  -3   5   8    8.00    1.20
   2  -5  -8   79.59    2.70
   2  -5  -8   76.59    3.90
  -2   5   8   76.69    2.90
  -2   5   8   83.89    8.40
  -2   5   8   76.89    2.80
  -2   5   8   79.19    4.00
  -1   5   8   20.20   27.80
   0  -5  -8   29.10    1.20
   0  -5  -8   29.60    2.10
   0   5   8   29.40    1.30
   0   5   8   32.20   44.90
   1   5   8   29.00   44.00
  -2  -5  -8   -0.10    0.30
  -2  -5  -8    0.50    0.20
   2   5   8    0.60    0.40
   2   5   8  -87.89   64.59
  -3  -5  -8   65.39    2.60
   3   5   8   63.89    2.60
   5  -6  -8   23.20    0.80
   4  -6  -8    1.00    0.20
  -4   6   8    1.60    0.30
   3  -6  -8    1.80    0.20
  -3   6   8    2.30    0.40
   2  -6  -8  103.59    3.40
   2  -6  -8   98.89    5.00
  -2   6   8  107.69    3.70
  -2   6   8   97.19    3.50
  -1   6   8   36.40   35.30
  -1   6   8   20.30    0.90
   0   6   8   -6.10   42.80
  -1  -6  -8  206.38    7.40
  -1  -6  -8  207.98    6.90
   1   6   8  124.39   62.29
   1   6   8  215.98    7.40
  -2  -6  -8   21.70    1.30
  -2  -6  -8   21.90    0.90
   2   6   8   24.00    1.30
  -3  -6  -8   23.80    1.20
   4  -7  -8   25.70    0.90
  -4   7   8   24.70    1.00
   3  -7  -8    7.80    0.40
  -3   7   8    7.30    0.50
   2  -7  -8    1.30    0.20
  -2   7   8    1.00    0.30
   1  -7  -8   17.80    0.80
  -1   7   8   16.90    1.00
   0  -7  -8   58.99    2.10
   0   7   8   57.29    2.40
  -1  -7  -8   30.10    1.50
  -1  -7  -8   30.00    1.20
   1   7   8   30.60    1.50
  -2  -7  -8   33.10    1.60
   2   7   8   35.40    1.50
   3  -8  -8  116.99    3.80
  -3   8   8  112.09    3.90
   2  -8  -8   16.00    0.70
  -2   8   8   17.10    0.90
   1  -8  -8    2.00    0.20
  -1   8   8    1.90    0.40
   0  -8  -8    0.10    0.10
   0   8   8    0.00    0.30
  -1  -8  -8    0.20    0.30
   1   8   8    0.00    0.20
  -1   9   8    0.90    0.20
   1  14  -9    1.50    0.20
  -1 -14   9    1.60    0.20
  -1 -14   9    2.50    0.40
   0  14  -9    0.90    0.20
   0 -14   9    1.00    0.30
   2  13  -9    2.70    0.30
  -2 -13   9    2.90    0.40
  -2 -13   9    2.50    0.30
   1  13  -9    2.10    0.30
  -1 -13   9    2.10    0.40
  -1 -13   9    1.90    0.30
   0 -13   9    0.00    0.20
   0 -13   9    0.20    0.30
  -1  13  -9   -0.10    0.10
   1 -13   9   -0.10    0.20
  -2  13  -9    2.40    0.20
   2 -13   9    1.60    0.30
   3  12  -9    1.20    0.20
  -3 -12   9    0.90    0.30
  -3 -12   9    0.80    0.20
  -2 -12   9    1.10    0.30
  -2 -12   9    1.00    0.30
   1  12  -9   23.20    0.90
  -1 -12   9   21.90    1.00
  -1 -12   9   24.80    1.20
   0  12  -9   39.60    1.40
   0 -12   9   38.30    1.50
   0 -12   9   38.60    1.70
  -1  12  -9   90.19    3.00
   1 -12   9   89.09    3.10
   1 -12   9   90.99    3.40
   1 -12   9   88.09    3.10
  -2  12  -9    1.00    0.20
   2 -12   9    0.70    0.30
  -3  12  -9   12.70    0.50
   3 -12   9   12.10    0.60
   4  11  -9   28.70    1.10
  -4 -11   9   28.40    1.20
  -4 -11   9   28.20    1.20
   3  11  -9   31.90    1.30
  -3 -11   9   31.70    1.30
  -3 -11   9   31.20    1.50
   2  11  -9   11.60    0.60
  -2 -11   9   11.20    0.90
  -2 -11   9   11.10    0.70
   1  11  -9   22.40    2.20
   1  11  -9   24.60    1.00
  -1 -11   9   22.80    1.00
  -1 -11   9   24.70    1.30
   0  11  -9  172.18    5.70
   0  11  -9  149.79    7.90
   0 -11   9  170.78    5.70
   0 -11   9  173.28    5.80
   0 -11   9  180.08    6.10
  -1  11  -9    2.70    1.70
   1 -11   9   25.80   19.30
  -2  11  -9    4.30    0.30
   2 -11   9    4.20    0.40
  -3  11  -9   63.59    2.20
   4 -11   9   10.30    0.50
   5  10  -9   15.80    0.70
  -5 -10   9   18.30    0.80
  -5 -10   9   16.30    0.70
   4  10  -9   11.40    0.60
  -4 -10   9   11.50    0.70
   3  10  -9    0.10    0.20
  -3 -10   9   -0.10    0.30
  -3 -10   9    0.30    0.20
   2  10  -9   66.39    3.50
  -2 -10   9   67.59    2.40
  -2 -10   9   67.89    2.70
  -2 -10   9   60.89    4.10
   1  10  -9  164.58    5.60
   1  10  -9  172.48    7.30
  -1 -10   9  173.68    6.00
  -1 -10   9  169.98    5.80
   0  10  -9    1.50    0.20
   0  10  -9    1.10    0.80
   0 -10   9    2.10    0.30
   0 -10   9    1.40    0.40
   0 -10   9    2.60    0.30
  -1  10  -9   10.40    1.90
  -1  10  -9    9.30    0.50
   1 -10   9   14.50   14.50
   1 -10   9    9.70    0.60
   1 -10   9    9.60    0.50
  -2  10  -9   38.70    1.40
  -2  10  -9   40.40    3.50
   2 -10   9   36.20   17.90
   2 -10   9   37.00    1.50
   2 -10   9   36.40    1.40
  -3  10  -9   10.40    0.50
   3 -10   9   10.80    0.60
  -4  10  -9    3.60    0.20
   4 -10   9    3.70    0.30
   5   9  -9    1.30    0.30
  -5  -9   9    1.60    0.30
  -5  -9   9    0.80    0.20
   4   9  -9    3.30    0.60
  -4  -9   9    3.70    0.50
  -4  -9   9    2.60    0.30
   3   9  -9    4.40    0.80
  -3  -9   9    5.20    0.70
  -3  -9   9    6.10    1.50
  -3  -9   9    5.20    0.50
   2   9  -9  248.98    8.90
  -2  -9   9  221.78    9.90
  -2  -9   9  233.28    7.90
  -2  -9   9  240.08    8.20
  -1  -9   9   44.50    1.80
  -1  -9   9   46.90    2.00
   0   9  -9   65.49    4.80
   0   9  -9   65.89    2.40
   0  -9   9   64.89    2.40
   0  -9   9   64.89    2.30
  -1   9  -9   18.50    0.70
  -1   9  -9   16.00    2.20
   1  -9   9   17.40    0.80
   1  -9   9   16.00   11.40
   1  -9   9   17.90    0.90
  -2   9  -9   78.99    2.60
  -2   9  -9   77.69    4.90
   2  -9   9   74.99    2.80
   2  -9   9   78.09    2.80
   2  -9   9   55.19   16.80
  -3   9  -9   12.70    0.60
   3  -9   9   13.50    0.70
  -4   9  -9    0.10    0.20
   4  -9   9    0.10    0.20
   5   8  -9   -0.20    0.20
  -5  -8   9    0.20    0.10
  -5  -8   9    0.00    0.20
  -5  -8   9    0.50    0.20
  -4  -8   9    6.50    1.40
  -4  -8   9    5.20    0.50
  -4  -8   9    5.00    0.40
  -4  -8   9    4.40    0.60
   3   8  -9    0.30    0.30
  -3  -8   9    0.20    0.20
  -3  -8   9   -0.10    0.40
  -3  -8   9    0.00    0.60
   2   8  -9   98.79    4.00
  -2  -8   9   88.39    4.90
  -2  -8   9   94.39    3.60
  -2  -8   9   93.19    3.30
   1   8  -9    0.30    0.40
  -1  -8   9    0.90    0.60
  -1  -8   9    0.40    0.30
  -1  -8   9    1.00    0.80
   0   8  -9  137.19    5.80
   0  -8   9  126.49    4.40
   0  -8   9  119.79    4.20
  -1   8  -9   30.50    2.60
  -1   8  -9   29.00    1.20
   1  -8   9   31.20   10.00
   1  -8   9   32.80    1.40
   1  -8   9   33.70    1.30
  -2   8  -9  138.29    7.00
  -2   8  -9  141.29    4.70
   2  -8   9  152.48   19.10
   2  -8   9  137.89    4.80
   2  -8   9  139.09    4.80
   3  -8   9   18.20   19.10
  -4   8  -9    1.40    0.20
   4  -8   9    1.10    0.20
   5  -8   9    5.10    0.30
   6   7  -9    3.80    0.30
  -6  -7   9    3.10    0.30
  -6  -7   9    4.00    0.40
   5   7  -9   35.40    1.40
  -5  -7   9   35.70    1.60
  -5  -7   9   34.70    1.60
  -5  -7   9   35.40    1.40
   4   7  -9   68.09    2.90
  -4  -7   9   72.89    2.60
  -4  -7   9   74.49    2.90
  -4  -7   9   71.19    2.90
  -4  -7   9   75.49    4.40
   3   7  -9   21.80    1.20
  -3  -7   9   23.70    1.00
  -3  -7   9   23.10    1.30
  -3  -7   9   20.80    1.00
   2   7  -9   58.69    2.50
  -2  -7   9   54.59    3.50
  -2  -7   9   55.59    2.10
  -2  -7   9   56.19    2.40
   1   7  -9   80.59    3.50
  -1  -7   9   78.49    3.10
  -1  -7   9   79.29    4.40
  -1  -7   9   80.99    2.90
   0   7  -9  214.18    8.30
   0  -7   9  206.48    7.10
  -1   7  -9  114.79    5.40
  -1   7  -9  106.09    3.70
   1  -7   9  107.09    3.70
   1  -7   9  107.09   13.30
   1  -7   9  109.39    3.80
  -2   7  -9   11.40    2.00
  -2   7  -9   10.80    0.50
   2  -7   9   11.40    0.70
   2  -7   9   -1.80   11.90
   2  -7   9   10.30    0.60
  -3   7  -9   24.40    1.00
  -3   7  -9   26.20    3.20
   3  -7   9   23.80   18.60
   3  -7   9   24.20    1.10
   3  -7   9   24.90    1.10
  -4   7  -9    0.20    0.10
   4  -7   9    0.10    0.20
   5  -7   9    3.60    0.30
   6   6  -9    5.60    0.50
  -6  -6   9    5.70    0.40
  -6  -6   9    5.10    0.50
  -5  -6   9    2.40    0.40
  -5  -6   9    1.90    0.30
  -5  -6   9    2.50    0.40
   4   6  -9   19.60    1.10
  -4  -6   9   20.10    1.00
  -4  -6   9   19.10    0.90
  -4  -6   9   20.40    2.10
  -4  -6   9   19.40    1.20
   3   6  -9    1.40    0.30
  -3  -6   9    2.10    1.00
  -3  -6   9    1.60    0.40
  -3  -6   9    1.70    0.30
   2   6  -9   21.80    1.10
  -2  -6   9   22.60    1.00
  -2  -6   9   23.10    2.00
  -2  -6   9   22.60    1.20
  -1  -6   9  300.37   10.00
  -1  -6   9  293.57   11.40
  -1  -6   9  298.67    9.90
   0   6  -9    9.50    1.30
   0  -6   9    8.40    0.60
  -1   6  -9    9.40    0.60
  -1   6  -9   11.70    1.70
   1  -6   9    9.80    0.60
   1  -6   9    9.70    0.50
   1  -6   9    0.00    7.30
  -2   6  -9   13.50    2.10
   2  -6   9   10.50   12.50
   2  -6   9   14.20    0.80
  -3   6  -9   29.30    3.30
  -3   6  -9   21.10    0.90
   3  -6   9   20.70    1.00
   3  -6   9   22.30    1.10
  -4   6  -9   13.40    0.60
   4  -6   9   13.30    0.80
   4  -6   9   27.40   30.40
  -5   6  -9   17.90    0.80
   5  -6   9   19.20    0.80
   6   5  -9    1.00    0.20
  -6  -5   9    0.80    0.20
  -5  -5   9    7.40    0.60
  -5  -5   9    5.30    0.60
   4   5  -9  116.99    4.60
  -4  -5   9  122.99    4.20
  -4  -5   9  121.59    4.40
  -4  -5   9  132.19    6.10
  -4  -5   9  124.19    4.50
   3   5  -9  303.27   10.40
  -3  -5   9  316.97   10.70
  -3  -5   9  313.27   10.40
  -3  -5   9  330.77   12.20
  -3  -5   9  311.87   10.50
   2   5  -9    0.10    0.10
  -2  -5   9    0.40    0.20
  -2  -5   9    1.10    0.30
  -2  -5   9    0.30    0.50
  -2  -5   9    0.00    0.20
   1   5  -9   88.09    3.40
  -1  -5   9   81.59    3.10
  -1  -5   9   82.79    4.20
   0   5  -9    2.70    0.70
   0  -5   9    3.20    0.40
  -1   5  -9  172.48    7.10
   1  -5   9  171.48    5.80
   1  -5   9  176.88   17.90
   1  -5   9  161.08    5.60
  -2   5  -9   15.30    0.70
  -2   5  -9   14.30    1.90
   2  -5   9   16.10    0.90
   2  -5   9   10.70   14.10
   2  -5   9   16.40    0.80
  -3   5  -9   33.10    2.90
  -3   5  -9   34.70    1.30
   3  -5   9   27.00   22.40
   3  -5   9   34.60    1.50
   3  -5   9   34.40    1.50
  -4   5  -9   90.09    3.10
   4  -5   9   95.69    3.30
   4  -5   9   91.39    3.40
   4  -5   9  -27.30   42.20
  -5   5  -9   47.70    1.80
   5  -5   9   46.50    1.80
   6   4  -9    2.90    0.30
  -6  -4   9    3.50    0.40
  -6  -4   9    2.80    0.40
   5   4  -9  154.28    6.10
  -5  -4   9  157.78    7.30
  -5  -4   9  168.78    5.70
  -5  -4   9  160.58    5.70
  -4  -4   9   54.29    2.30
  -4  -4   9   52.19    2.00
  -4  -4   9   54.99    2.20
   3   4  -9  217.38    7.20
  -3  -4   9  199.48    7.20
  -3  -4   9  217.98    8.60
  -3  -4   9  208.88    7.20
  -3  -4   9  208.18    7.00
  -2  -4   9   49.60    2.20
  -2  -4   9   43.60    1.80
  -2  -4   9   45.70    2.90
  -2  -4   9   46.60    2.00
   1   4  -9  218.98    7.50
   1   4  -9  215.08    7.50
  -1  -4   9  213.08    7.20
  -1  -4   9  206.88    8.30
   0   4  -9   39.60    2.20
   0  -4   9   39.20    1.60
   1  -4   9   -1.30    9.30
  -2   4  -9    2.10    0.90
  -2   4  -9    1.40    0.20
   2  -4   9   10.40   14.70
   2  -4   9    2.20    0.40
   2  -4   9    1.80    0.30
  -3   4  -9    6.60    0.40
  -3   4  -9    3.80    1.20
   3  -4   9   13.00   22.20
   3  -4   9    5.80    0.60
   4  -4   9  -17.10   40.50
  -5   4  -9    5.40    0.60
   5  -4   9    5.40    0.50
   6   3  -9   17.50    0.80
  -6  -3   9   19.20    1.00
  -6  -3   9   18.10    0.90
   5   3  -9   40.10    2.30
  -5  -3   9   41.00    2.90
  -5  -3   9   38.40    2.10
   4   3  -9   42.10    2.20
  -4  -3   9   41.60    1.80
  -4  -3   9   41.90    2.80
  -4  -3   9   40.50    1.80
   3   3  -9    0.10    0.20
  -3  -3   9    0.30    0.40
  -3  -3   9    0.50    0.20
  -3  -3   9    0.90    0.20
  -3  -3   9    0.00    0.20
   2   3  -9  118.49    3.90
   2   3  -9  114.89    3.90
  -2  -3   9  110.09    4.00
  -2  -3   9  122.39    5.10
   1   3  -9   11.60    0.90
   1   3  -9   14.30    1.00
  -1  -3   9   14.90    1.00
  -1  -3   9   15.50    1.40
   0   3  -9   53.99    2.70
   0  -3   9   48.10    6.70
   0  -3   9   44.60    6.80
   1  -3   9   87.99   15.70
  -2   3  -9   26.70    2.30
  -2   3  -9   27.00    1.20
   2  -3   9   29.70    1.30
   2  -3   9   21.10   16.90
   2  -3   9   30.70    1.40
  -3   3  -9  211.18    6.90
  -3   3  -9  201.28    8.80
   3  -3   9  247.38   37.40
   3  -3   9  206.28    7.20
   4  -3   9  102.49   70.79
   5  -3   9    2.40    0.30
   6   2  -9    2.30    0.20
  -6  -2   9    2.80    0.40
  -6  -2   9    2.80    0.40
   5   2  -9   20.30    2.90
  -5  -2   9   20.90    1.50
  -5  -2   9   18.00    2.20
   4   2  -9   37.90    2.20
  -4  -2   9   37.50    2.50
  -4  -2   9   35.50    1.70
  -4  -2   9   39.00    1.70
   3   2  -9    4.30    0.60
  -3  -2   9    4.60    0.50
  -3  -2   9    5.20    1.00
  -3  -2   9    5.30    0.50
   2   2  -9  104.29    3.70
  -2  -2   9  104.19    4.50
  -2  -2   9  106.39    3.70
   1   2  -9   13.20    0.90
  -1  -2   9   13.00    0.70
   0   2  -9  227.48    8.20
   0  -2   9  217.08    7.40
   0  -2   9  208.38   18.60
  -1   2  -9   57.09    3.10
   1  -2   9   61.59   15.70
   1  -2   9   52.99    2.10
   1  -2   9   56.39    2.00
  -2   2  -9   91.69    3.20
  -2   2  -9   91.79    4.60
   2  -2   9   81.19   23.90
   2  -2   9   91.29    3.40
   2  -2   9   90.99    3.30
  -3   2  -9  203.28    8.90
  -3   2  -9  219.98    7.10
   3  -2   9  258.07   41.00
   3  -2   9  213.58    7.50
  -4   2  -9    7.20    0.70
  -4   2  -9    6.70    0.40
   4  -2   9    7.10    0.70
   4  -2   9   19.90   49.70
  -5   2  -9    3.80    0.50
   5  -2   9    4.00    0.40
   5  -2   9    3.10    0.30
   6   1  -9   28.10    1.10
  -6  -1   9   27.80    1.20
  -6  -1   9   29.70    1.30
   5   1  -9    2.20    0.30
   5   1  -9    2.70    0.80
  -5  -1   9    1.70    0.40
  -5  -1   9    2.60    0.40
  -4  -1   9    5.20    1.00
  -4  -1   9    5.70    0.60
  -4  -1   9    4.90    0.60
  -3  -1   9  715.53   24.30
  -3  -1   9  719.43   23.50
   2   1  -9  159.18    6.20
  -2  -1   9  158.08    5.40
  -2  -1   9  150.38    6.00
   0   1  -9  376.06   12.90
   0  -1   9  357.96   11.90
   0  -1   9  334.87   11.90
   0  -1   9  403.56   28.10
  -1   1  -9   22.80    1.80
   1  -1   9   19.80    1.10
   1  -1   9   18.10   16.30
   1  -1   9   21.20    1.00
  -2   1  -9   90.19    4.50
   2  -1   9   89.79    3.50
   2  -1   9   76.39   25.40
   3  -1   9  -23.00   56.89
   4  -1   9  -52.59   71.89
  -5   1  -9    4.30    0.40
   5  -1   9    4.00    0.40
   5  -1   9    4.50    0.40
  -6   0   9   32.00    1.40
  -6   0   9   36.40    1.60
   5   0  -9    1.80    0.80
   5   0  -9    3.00    0.30
  -5   0   9    3.30    0.40
  -5   0   9    2.90    0.40
   4   0  -9  871.91   29.60
   3   0  -9   56.39    2.70
  -3   0   9   57.89    2.20
  -3   0   9   54.19    2.10
   2   0  -9    8.70    0.70
  -2   0   9    9.40    0.60
   1   0  -9   13.00    1.00
  -1   0   9   11.70    0.70
  -1   0   9   14.10    9.80
  -1   0   9   10.40    0.70
  -1   0   9   18.70   12.10
   0   0  -9    1.40    0.50
   0   0   9  -10.30   11.90
   0   0   9    1.00    0.30
  -1   0  -9    0.80    0.50
  -1   0  -9    1.00    0.20
   1   0   9   -3.60   17.20
   1   0   9    1.10    0.40
  -2   0  -9   90.79    3.20
  -2   0  -9   91.99    4.50
   2   0   9   91.09    3.50
   2   0   9   96.49   31.10
   2   0   9   92.79    3.30
  -3   0  -9    5.50    0.40
  -3   0  -9    4.10    0.60
  -3   0  -9    8.10    1.40
   3   0   9    6.10    0.70
   3   0   9   38.10   36.30
  -4   0  -9   31.80    1.20
   4   0   9   31.20    1.50
  -5   0  -9    0.70    0.20
   5   0   9    1.10    0.20
   6  -1  -9    2.40    0.20
  -6   1   9    2.60    0.30
  -6   1   9    2.50    0.30
  -5   1   9   42.00    1.60
  -5   1   9   41.10    1.70
   4  -1  -9   73.99    4.00
  -4   1   9   81.19    2.90
  -4   1   9   77.49    2.80
   3  -1  -9    8.70    1.10
  -3   1   9    7.90    0.60
   2  -1  -9  103.99    4.00
  -2   1   9  101.59   17.80
  -2   1   9   97.29    3.50
  -2   1   9   74.59   13.50
  -2   1   9  100.69    3.50
  -1   1   9  -29.90   21.00
   0  -1  -9  147.39    5.80
   0  -1  -9  139.89    4.90
   0   1   9  145.79    5.10
   0   1   9  137.19   24.00
   0   1   9  150.58    5.00
  -1  -1  -9    9.70    0.60
   1   1   9    9.20    0.80
   1   1   9   10.50    0.90
   1   1   9   -5.00   20.20
  -2  -1  -9  105.39    3.70
   2   1   9  104.39    4.00
   2   1   9  107.69    3.80
   2   1   9  102.59   34.10
  -3  -1  -9    1.30    0.30
  -3  -1  -9   -0.20    0.60
  -3  -1  -9    0.50    0.50
   3   1   9  -78.69   44.40
  -4  -1  -9   39.60    1.80
   4   1   9   37.70    1.70
   6  -2  -9   38.00    1.30
  -6   2   9   37.00    1.40
   5  -2  -9   32.30    1.20
  -5   2   9   32.00    1.40
  -5   2   9   33.90    1.30
   4  -2  -9   24.50    1.00
   4  -2  -9   28.20    2.30
  -4   2   9   27.60    1.10
  -4   2   9   26.30    1.20
   3  -2  -9    1.40    0.20
   3  -2  -9    1.20    0.60
  -3   2   9    1.70    0.30
  -3   2   9    1.20    0.30
   2  -2  -9    1.90    0.20
   2  -2  -9    2.70    0.60
  -2   2   9   10.20   30.80
  -2   2   9    5.10   14.00
  -2   2   9    2.10    0.30
  -1   2   9   -6.50   15.40
   0   2   9  -16.70   19.00
  -1  -2  -9    2.40    0.70
  -1  -2  -9    2.60    0.30
   1   2   9   -2.10   25.00
   1   2   9    2.50    0.40
   1   2   9    3.00    0.60
  -2  -2  -9   12.10    0.70
  -2  -2  -9   16.70    1.80
   2   2   9   12.60    0.80
   2   2   9   12.40    1.00
   2   2   9   25.00   50.69
   3   2   9  -70.69   72.99
  -4  -2  -9    3.10    0.50
   6  -3  -9    6.40    0.30
  -6   3   9    6.10    0.40
   5  -3  -9   16.60    0.70
  -5   3   9   15.90    0.80
   4  -3  -9    2.30    0.90
   4  -3  -9    2.10    0.20
  -4   3   9    2.50    0.30
  -4   3   9    1.90    0.30
   3  -3  -9   40.80    2.50
   3  -3  -9   36.20    1.30
  -3   3   9   36.90    1.50
  -3   3   9   38.20    1.60
   2  -3  -9   38.60    3.00
   2  -3  -9   43.40    1.60
  -2   3   9   45.80    1.80
  -2   3   9   53.09   19.80
  -2   3   9   45.00    1.80
   1  -3  -9    1.70    0.60
   1  -3  -9    2.20    0.30
  -1   3   9    2.20    0.40
  -1   3   9   11.30   20.10
  -1   3   9    2.90    0.50
   0  -3  -9  126.69    6.10
   0  -3  -9  117.49    4.10
   0   3   9  122.89    4.20
   0   3   9  107.79   28.90
   0   3   9  116.89    4.40
   1   3   9   26.00   32.10
   2   3   9   70.69   44.90
  -3  -3  -9    2.20    0.60
  -3  -3  -9    1.90    0.20
   3   3   9    1.50    0.40
  -4  -3  -9   10.10    0.70
   4   3   9   10.40    0.70
   5  -4  -9   -0.10    0.10
  -5   4   9    0.00    0.20
   4  -4  -9    8.60    0.40
  -4   4   9    8.00    0.60
  -4   4   9    8.10    0.50
   3  -4  -9   58.99    4.30
   2  -4  -9  101.89    3.40
   2  -4  -9  100.39    4.60
  -2   4   9   77.29   35.60
  -2   4   9  101.99    3.70
  -2   4   9  104.29    3.60
   1  -4  -9    1.30    0.60
   1  -4  -9    1.40    0.20
  -1   4   9    1.30    0.40
  -1   4   9   -0.50   24.60
  -1   4   9    1.10    0.30
   0  -4  -9   61.69    2.20
   0   4   9   63.29    2.30
   0   4   9   59.99    2.60
  -1  -4  -9    0.60    0.60
  -1  -4  -9    0.80    0.20
   1   4   9    0.90    0.40
   1   4   9    0.60    0.30
   1   4   9   -8.00   39.30
  -2  -4  -9   83.79    2.80
  -2  -4  -9   74.39    3.20
   2   4   9   90.49   56.39
   2   4   9   76.39    3.10
  -3  -4  -9   17.50    1.00
  -3  -4  -9   17.30    0.60
   3   4   9   18.30    1.00
   5  -5  -9   14.50    0.60
   4  -5  -9    3.80    0.30
  -4   5   9    2.90    0.30
  -4   5   9    3.60    0.30
   3  -5  -9  222.28    7.00
  -3   5   9  202.68    7.10
  -3   5   9  216.48    7.20
  -3   5   9  104.99   43.20
   2  -5  -9   27.70    2.20
   2  -5  -9   28.50    1.10
  -2   5   9   25.80   29.20
  -2   5   9   29.10    1.30
  -2   5   9   28.20    1.20
   1  -5  -9    8.70    0.70
   1  -5  -9    3.90    1.10
  -1   5   9    7.10    0.60
  -1   5   9    2.40   31.50
   0   5   9   12.30   38.30
   1   5   9  -55.99   49.00
  -2  -5  -9  179.58    5.90
  -2  -5  -9  178.88    6.40
   2   5   9  182.18    6.30
  -3  -5  -9    6.90    0.60
   3   5   9    8.20    0.60
   4  -6  -9   21.40    0.80
   3  -6  -9    4.50    0.30
  -3   6   9    4.70    0.40
   2  -6  -9   12.60    0.60
  -2   6   9   12.00    0.80
  -2   6   9   11.70    0.80
  -1   6   9   63.49   42.20
   0  -6  -9   13.90    0.70
   0   6   9   13.90    0.90
   0   6   9   15.10    0.80
  -1  -6  -9  208.08    6.80
   1   6   9  203.98    7.10
  -2  -6  -9   81.89    3.10
   3  -7  -9    3.00    0.20
   2  -7  -9   42.40    1.50
   1  -7  -9    2.00    0.20
  -1   7   9    1.80    0.40
   0  -7  -9   66.49    2.30
   0   7   9   64.09    2.60
   1   7   9    9.30    0.70
   2  -8  -9   10.10    0.40
  -2   8   9    9.60    0.50
   1  -8  -9    5.90    0.40
  -1   8   9    6.00    0.50
   0   8   9    5.20    0.40
   0  14 -10   16.50    0.70
   0 -14  10   16.70    0.80
   2  13 -10    0.60    0.20
  -2 -13  10    0.30    0.20
  -2 -13  10    0.40    0.20
   1  13 -10    2.50    0.30
  -1 -13  10    2.00    0.40
  -1 -13  10    2.10    0.30
   0  13 -10    1.50    0.20
   0 -13  10    1.90    0.40
   0 -13  10    1.30    0.20
  -1  13 -10   27.80    1.00
   1 -13  10   28.20    1.30
  -2  13 -10    4.20    0.30
   2 -13  10    4.30    0.40
   3  12 -10    0.20    0.20
  -3 -12  10   -0.10    0.20
  -3 -12  10    0.20    0.20
   2  12 -10    1.00    0.20
  -2 -12  10    0.90    0.30
  -2 -12  10    0.70    0.20
   1  12 -10   10.10    0.50
  -1 -12  10    9.00    0.60
  -1 -12  10    9.90    0.80
   0  12 -10   18.30    0.70
   0 -12  10   16.90    0.80
   0 -12  10   18.10    1.00
  -1  12 -10   54.39    2.00
   1 -12  10   57.79    2.30
   1 -12  10   56.39    2.00
  -2  12 -10    8.50    0.50
   2 -12  10    8.60    0.40
   2 -12  10    9.40    0.70
  -3  12 -10    9.30    0.40
   3 -12  10    9.30    0.60
   4  11 -10    9.20    0.50
  -4 -11  10    8.90    0.50
  -4 -11  10    8.10    0.60
   3  11 -10   33.70    1.30
  -3 -11  10   33.00    1.30
   2  11 -10    0.80    0.20
  -2 -11  10    0.60    0.30
  -2 -11  10    0.60    0.30
   1  11 -10    3.40    0.30
  -1 -11  10    3.10    0.50
  -1 -11  10    2.20    0.30
   0  11 -10   82.39    2.80
   0 -11  10   83.19    3.20
   0 -11  10   82.79    2.90
  -1  11 -10   12.90    0.60
   1 -11  10   13.00    0.60
   1 -11  10   15.30    0.90
   1 -11  10   13.50    0.70
  -2  11 -10   18.80    0.80
   2 -11  10   18.70    0.80
  -3  11 -10    2.40    0.20
   3 -11  10    2.40    0.20
   4  10 -10   31.80    1.30
  -4 -10  10   30.40    1.50
  -4 -10  10   35.10    1.50
  -3 -10  10    0.40    0.30
  -3 -10  10    0.70    0.20
   2  10 -10   34.70    2.30
  -2 -10  10   37.70    2.00
  -2 -10  10   34.80    1.50
   1  10 -10    2.40    0.30
   1  10 -10    1.20    0.80
  -1 -10  10    2.30    0.50
  -1 -10  10    1.90    0.30
   0  10 -10  483.15   18.10
   0  10 -10  492.05   15.90
  -1  10 -10   79.99    2.90
  -1  10 -10   86.09    7.00
   1 -10  10   79.09    2.90
   1 -10  10   78.39    2.80
  -2  10 -10    0.30    0.10
   2 -10  10    0.40    0.20
   2 -10  10    0.50    0.20
  -3  10 -10    1.00    0.20
   3 -10  10    1.10    0.20
  -4  10 -10   57.69    2.00
   4 -10  10   62.39    2.10
   5   9 -10    1.40    0.20
  -5  -9  10    1.30    0.30
  -5  -9  10    1.10    0.20
  -4  -9  10   10.70    0.80
  -4  -9  10   10.30    0.60
   3   9 -10    0.20    0.40
  -3  -9  10    0.20    0.70
  -3  -9  10    0.20    0.30
  -3  -9  10    0.10    0.20
   2   9 -10  397.36   14.80
  -2  -9  10  439.06   16.40
  -2  -9  10  432.96   14.20
   1   9 -10  423.96   15.90
  -1  -9  10  457.25   14.80
   0   9 -10  257.77    8.80
   0   9 -10  267.37   10.80
   0  -9  10  269.67    9.00
   0  -9  10  282.57    9.20
  -1   9 -10    8.20    0.40
  -1   9 -10   10.00    1.80
   1  -9  10    8.10    0.50
   1  -9  10    8.10    0.60
  -2   9 -10   13.60    0.60
  -2   9 -10   13.00    3.40
   2  -9  10   12.70    0.70
   2  -9  10   15.90   15.20
   2  -9  10   12.70    0.70
  -3   9 -10   21.90    0.80
   3  -9  10   20.90    0.90
  -4   9 -10    0.70    0.10
   4  -9  10    0.70    0.20
  -5  -8  10   -0.10    0.20
  -5  -8  10   -0.20    0.30
  -4  -8  10   10.30    0.80
  -4  -8  10   10.10    0.60
  -4  -8  10    9.50    0.60
   3   8 -10  130.99    5.20
  -3  -8  10  144.59    4.80
  -3  -8  10  141.59    5.10
  -3  -8  10  136.09    6.80
  -2  -8  10   59.29    3.80
  -2  -8  10   53.39    2.30
  -2  -8  10   54.09    2.10
   1   8 -10    0.10    0.40
  -1  -8  10    0.30    0.30
  -1  -8  10    0.20    0.20
   0   8 -10  146.99    6.50
   0  -8  10  150.08    5.30
   0  -8  10  144.69    5.10
  -1   8 -10    0.90    0.20
  -1   8 -10    0.60    0.70
   1  -8  10   10.10   19.20
   1  -8  10    1.50    0.20
   1  -8  10    1.00    0.30
   1  -8  10  -14.00    8.40
  -2   8 -10  392.86   15.50
   2  -8  10  382.26   30.60
   2  -8  10  395.66   13.00
  -3   8 -10    0.70    0.20
   3  -8  10    0.30    0.20
   3  -8  10    0.70    0.20
  -4   8 -10   17.10    0.70
   4  -8  10   15.10    0.90
  -6  -7  10    7.00    0.40
  -6  -7  10    5.00    0.40
  -5  -7  10    0.10    0.20
  -5  -7  10    0.00    0.30
   4   7 -10   14.50    1.00
  -4  -7  10   20.00    2.10
  -4  -7  10   17.00    1.10
  -4  -7  10   16.30    0.90
  -4  -7  10   17.70    0.80
   3   7 -10   48.00    2.10
  -3  -7  10   50.09    3.50
  -3  -7  10   48.30    1.90
  -3  -7  10   54.49    2.30
  -3  -7  10   50.79    1.90
   2   7 -10    6.60    0.80
  -2  -7  10    6.00    0.70
  -2  -7  10    7.70    0.50
  -2  -7  10    6.70    1.40
   1   7 -10   33.00    2.00
  -1  -7  10   32.10    1.40
  -1  -7  10   33.20    1.60
   0   7 -10    4.90    1.00
   0  -7  10    3.90    0.50
   0  -7  10    3.40    0.40
  -1   7 -10  183.28    8.00
  -1   7 -10  183.78    6.10
   1  -7  10  201.68   17.40
   1  -7  10  187.28    6.30
   1  -7  10  145.09   26.10
  -2   7 -10   30.10    2.80
  -2   7 -10   35.10    1.30
   2  -7  10   34.40    1.50
   2  -7  10   35.00    1.40
   2  -7  10   35.10   13.40
  -3   7 -10   20.60    0.80
  -3   7 -10   22.70    2.90
   3  -7  10   20.90    1.00
   3  -7  10   -2.70   17.90
   3  -7  10   21.00    1.00
  -4   7 -10    6.00    0.30
   4  -7  10    5.40    0.40
   6   6 -10   36.20    1.40
  -6  -6  10   37.60    1.40
  -5  -6  10    4.70    0.60
  -5  -6  10    4.50    0.50
   4   6 -10  162.78    6.10
  -4  -6  10  194.98    8.30
  -4  -6  10  179.88    6.00
  -4  -6  10  182.18    6.20
  -4  -6  10  180.18    6.30
   3   6 -10   24.50    1.10
  -3  -6  10   26.00    1.20
  -3  -6  10   26.30    1.40
  -3  -6  10   26.80    1.10
  -3  -6  10   25.40    3.50
   2   6 -10   49.00    2.10
  -2  -6  10   52.49    2.00
  -2  -6  10   54.69    2.20
  -2  -6  10   54.99    3.40
  -2  -6  10   49.50    2.00
   1   6 -10    1.00    0.40
  -1  -6  10    1.40    0.30
  -1  -6  10    1.90    0.40
   0   6 -10   67.79    3.50
   0  -6  10   70.29    2.60
   0  -6  10   71.09    2.70
  -1   6 -10  145.59    6.50
  -1   6 -10  138.49    4.80
   1  -6  10  157.08    5.10
   1  -6  10  105.69   19.30
   1  -6  10  136.09   15.20
   1  -6  10  138.59    4.80
  -2   6 -10  176.78    5.90
  -2   6 -10  171.68    7.90
   2  -6  10  178.08    6.00
   2  -6  10  173.88    6.10
   2  -6  10  201.48   24.40
  -3   6 -10   29.70    1.20
  -3   6 -10   35.20    4.40
   3  -6  10   21.00   20.40
   3  -6  10   25.10    1.60
   3  -6  10   28.30    1.40
  -4   6 -10   16.20    0.60
   4  -6  10   16.00    0.80
   4  -6  10   15.60    0.70
   5  -6  10   38.30    1.40
   6   5 -10    6.20    0.40
  -6  -5  10    6.30    0.50
  -6  -5  10    6.00    0.40
  -5  -5  10   79.49    3.00
  -5  -5  10   81.99    3.10
   4   5 -10  285.37   10.00
  -4  -5  10  306.97   10.10
  -4  -5  10  297.07   12.00
  -4  -5  10  312.87   10.20
  -4  -5  10  296.67    9.90
  -3  -5  10    9.70    0.70
  -3  -5  10    8.50    1.50
  -3  -5  10    9.10    0.80
  -3  -5  10    9.60    0.70
  -2  -5  10   18.50    0.90
  -2  -5  10   18.90    1.10
  -2  -5  10   18.50    0.90
  -2  -5  10   18.70    1.80
   1   5 -10  156.28    5.80
  -1  -5  10  156.58    5.30
  -1  -5  10  151.08    5.40
   0   5 -10   39.90    2.40
   0  -5  10   46.60    2.20
   0  -5  10   43.00    1.80
  -1   5 -10    8.50    1.40
  -1   5 -10    8.10    0.50
   1  -5  10    8.10    0.50
   1  -5  10   -9.80   15.40
   1  -5  10    9.40    0.70
   1  -5  10    8.80    0.50
   1  -5  10   21.50    8.60
  -2   5 -10   54.59    2.00
  -2   5 -10   50.19    4.40
   2  -5  10   44.80   16.10
   2  -5  10   54.19    2.20
   2  -5  10   54.19    2.10
  -3   5 -10   20.30    0.90
  -3   5 -10   22.20    2.50
   3  -5  10   20.80    1.00
   3  -5  10   21.10    1.10
   3  -5  10   10.80   21.60
  -4   5 -10   46.70    1.60
   4  -5  10   46.40    1.80
   4  -5  10   47.50    1.80
   5  -5  10   73.09    2.50
   6   4 -10    2.10    0.20
  -6  -4  10    2.50    0.30
  -6  -4  10    2.90    0.40
  -5  -4  10   14.30    0.90
  -5  -4  10   15.10    0.90
   4   4 -10    0.10    0.30
  -4  -4  10    0.20    0.70
  -4  -4  10    0.10    0.20
  -4  -4  10    0.10    0.30
  -3  -4  10    8.60    0.50
  -3  -4  10    7.30    1.30
  -2  -4  10    3.70    0.40
  -2  -4  10    3.20    0.90
  -2  -4  10    3.00    0.40
  -2  -4  10    3.90    0.40
  -1  -4  10    0.50    0.20
  -1  -4  10    0.40    0.20
  -1  -4  10    0.20    0.20
   0   4 -10  317.67   11.40
   0  -4  10  316.47   10.50
   0  -4  10  309.27   10.40
  -1   4 -10  244.38    9.40
  -1   4 -10  230.18    7.80
   1  -4  10  233.08    7.80
   1  -4  10  241.48    8.00
   1  -4  10  244.68   22.80
   1  -4  10  175.38   22.00
   1  -4  10  236.68    7.80
  -2   4 -10    1.20    0.70
  -2   4 -10    2.20    0.30
   2  -4  10    2.20    0.40
   2  -4  10    8.50   16.30
   2  -4  10    2.40    0.40
  -3   4 -10   71.59    4.40
  -3   4 -10   81.39    2.80
   3  -4  10   79.99    3.00
   3  -4  10   75.89    3.00
   3  -4  10  119.19   28.00
  -4   4 -10   17.40    0.70
   4  -4  10   18.60    0.90
   4  -4  10   17.10    0.90
   5  -4  10   45.80    1.70
  -6  -3  10    0.30    0.20
  -6  -3  10    0.10    0.20
  -5  -3  10    0.80    0.30
  -5  -3  10    0.70    0.30
   4   3 -10  250.97    9.20
  -4  -3  10  249.08   10.20
  -4  -3  10  256.77    8.80
  -4  -3  10  274.07    8.80
   3   3 -10   56.19    2.30
  -3  -3  10   50.29    2.00
  -3  -3  10   57.49    2.60
  -3  -3  10   53.19    3.10
  -3  -3  10   53.59    2.20
   2   3 -10    0.10    0.10
  -2  -3  10    0.20    0.20
  -2  -3  10    0.10    0.30
  -2  -3  10    0.60    0.90
  -2  -3  10    0.30    0.20
   1   3 -10   64.99    2.80
  -1  -3  10   60.09    2.30
  -1  -3  10   61.39    2.30
   0   3 -10   33.50    2.10
   0  -3  10   36.00    1.40
   0  -3  10   32.30    1.50
  -1   3 -10   42.00    1.70
  -1   3 -10   44.60    2.80
   1  -3  10   56.49   15.40
   1  -3  10   46.10    1.70
   1  -3  10   45.00    1.80
  -2   3 -10  102.19    3.50
  -2   3 -10   95.39    5.00
   2  -3  10   99.59    3.60
   2  -3  10  156.68   27.10
   2  -3  10  101.49    3.70
  -3   3 -10   18.10    2.10
  -3   3 -10   21.40    0.90
   3  -3  10   21.50    1.10
   3  -3  10   38.20   28.10
  -4   3 -10  233.08    7.50
   4  -3  10  223.18    7.70
   4  -3  10  227.58    7.70
   5  -3  10   19.20    0.80
   6   2 -10    3.90    0.30
  -6  -2  10    3.20    0.50
  -6  -2  10    4.10    0.40
  -5  -2  10    3.40    0.40
  -5  -2  10    4.40    0.50
   4   2 -10   21.90    1.50
  -4  -2  10   21.40    2.20
  -4  -2  10   22.00    1.10
  -4  -2  10   20.30    1.10
   3   2 -10    1.90    0.50
  -3  -2  10    1.70    0.30
  -3  -2  10    1.20    0.60
  -3  -2  10    1.70    0.40
   2   2 -10  250.97    8.50
  -2  -2  10  254.47    8.40
  -2  -2  10  245.88    8.40
   1   2 -10    1.50    0.40
  -1  -2  10    1.30    0.30
  -1  -2  10    1.40    0.30
   0   2 -10   24.60    1.70
   0  -2  10   23.40    1.10
   0  -2  10   19.70    8.70
   0  -2  10   12.50    7.50
  -1   2 -10   15.30    0.80
  -1   2 -10   13.10    1.60
   1  -2  10   14.00   15.10
   1  -2  10   16.00    0.90
   1  -2  10   16.30    0.80
  -2   2 -10  202.58    6.70
   2  -2  10  195.38    6.90
   2  -2  10  179.28   30.80
   2  -2  10  202.68    6.80
  -3   2 -10   60.49    3.70
  -3   2 -10   63.99    2.30
   3  -2  10   76.99   33.20
   3  -2  10   61.89    2.50
  -4   2 -10   21.40    0.80
   4  -2  10   21.50    1.10
   5  -2  10    3.50    0.30
  -6  -1  10    2.30    0.30
  -6  -1  10    2.30    0.30
   5   1 -10    2.80    0.30
  -5  -1  10    2.80    0.40
  -5  -1  10    2.60    0.40
   4   1 -10    6.90    1.10
  -4  -1  10    6.30    0.60
  -4  -1  10    7.70    0.60
   3   1 -10  274.37    9.70
  -3  -1  10  283.57    9.30
  -3  -1  10  265.57    9.20
   2   1 -10    3.10    0.50
  -2  -1  10    2.80    0.40
  -2  -1  10    2.30    0.30
   1   1 -10    2.50    0.50
  -1  -1  10    3.60    0.50
  -1  -1  10    2.40    0.30
   0  -1  10    8.20   11.80
   0  -1  10    7.90   12.20
  -1   1 -10   53.59    2.00
  -1   1 -10   56.19    3.10
   1  -1  10   68.29   21.40
   1  -1  10   55.79    2.20
  -2   1 -10    8.20    0.60
  -2   1 -10    9.80    1.40
   2  -1  10    9.20    0.70
   2  -1  10    7.70    0.70
   2  -1  10    5.00   23.40
  -3   1 -10    3.10    0.90
   3  -1  10  -27.40   34.40
  -4   1 -10    9.70    0.40
   4  -1  10    9.00    0.70
   6   0 -10    0.40    0.10
  -6   0  10    0.20    0.20
  -6   0  10    0.20    0.20
  -5   0  10   30.40    1.30
  -5   0  10   30.40    1.40
   4   0 -10  234.38    9.10
  -4   0  10  232.78    7.90
  -4   0  10  240.58    8.00
   3   0 -10   58.59    2.90
  -3   0  10   62.59    2.40
   2   0 -10  105.89    4.10
  -2   0  10  106.79    3.90
   1   0 -10   35.70    1.90
  -1   0  10   33.50    1.40
  -1   0  10   31.00    1.30
   0   0  10   -6.20   23.50
   0   0  10   -4.20   15.30
  -1   0 -10  444.46   14.70
  -1   0 -10  459.55   16.00
   1   0  10  452.35   15.00
   1   0  10  390.36   43.60
  -2   0 -10    4.30    0.40
   2   0  10    3.60    0.50
   2   0  10    3.90   34.50
   2   0  10    5.40    0.60
  -3   0 -10   41.00    1.50
   3   0  10   40.10    1.80
   3   0  10   40.10   42.50
  -4   0 -10   15.10    0.60
  -4   0 -10   14.40    1.10
   4   0  10   15.00    0.90
   6  -1 -10   14.30    0.60
  -6   1  10   14.00    0.70
   5  -1 -10    9.30    0.50
  -5   1  10    9.30    0.60
  -5   1  10    8.90    0.50
   4  -1 -10    2.20    0.20
   4  -1 -10    1.80    0.90
  -4   1  10    2.00    0.50
  -4   1  10    2.80    0.30
   3  -1 -10   98.49    4.40
  -3   1  10  101.39    3.60
   2  -1 -10  107.89    4.40
  -2   1  10  107.19    3.70
  -2   1  10  111.09    3.90
   1  -1 -10   83.79    3.60
   1  -1 -10   76.09    2.70
  -1   1  10   83.89    3.00
  -1   1  10   79.29    2.90
  -1   1  10   74.89   17.60
   0  -1 -10  192.88    7.50
   0  -1 -10  229.88    8.30
   0   1  10  206.58   29.90
   0   1  10  221.98    7.60
   0   1  10  233.18    7.40
  -1  -1 -10    1.70    0.30
  -1  -1 -10    3.00    0.80
   1   1  10    1.70    0.40
   1   1  10    1.50    0.40
   1   1  10   -0.20   24.30
   2   1  10   32.00   34.20
   3   1  10   73.09   61.49
  -4  -1 -10    2.50    0.40
   4   1  10    2.80    0.40
   6  -2 -10   84.49    2.70
  -6   2  10   73.79    2.70
  -5   2  10    2.40    0.30
   4  -2 -10   17.60    0.70
   4  -2 -10   18.40    2.70
  -4   2  10   19.00    1.00
   3  -2 -10    7.10    0.40
   3  -2 -10    7.00    1.10
  -3   2  10    7.20    0.60
   2  -2 -10   18.20    1.40
   2  -2 -10   18.00    0.70
  -2   2  10   18.80    1.00
   1  -2 -10    0.40    0.20
  -1   2  10    1.00    0.40
  -1   2  10    3.10   19.30
  -1   2  10    0.20    0.30
   0  -2 -10    0.10    0.40
   0  -2 -10    0.70    0.20
   0   2  10    0.40    0.30
   0   2  10    0.70    0.30
   0   2  10   -3.80   22.80
  -1  -2 -10    7.90    1.30
  -1  -2 -10    7.20    0.50
   1   2  10    8.20    0.80
   1   2  10    7.90    0.60
  -2  -2 -10   15.90    2.40
  -2  -2 -10   14.60    0.80
   2   2  10   17.40    1.10
   2   2  10   14.80    0.90
   2   2  10   34.40   39.90
  -3  -2 -10   11.70    0.60
   3   2  10   11.30    0.80
   4   2  10   38.50    1.50
   5  -3 -10    0.70    0.10
  -5   3  10    0.50    0.20
   4  -3 -10    3.20    0.30
  -4   3  10    3.20    0.40
   3  -3 -10    1.30    0.20
  -3   3  10    1.50    0.40
   2  -3 -10    9.10    1.20
   2  -3 -10   12.70    0.60
  -2   3  10    5.50   20.60
  -2   3  10   13.50    0.80
   1  -3 -10    3.30    0.30
   1  -3 -10    4.00    0.80
  -1   3  10    4.70    0.50
  -1   3  10    4.30    0.50
   0  -3 -10   35.50    2.30
   0  -3 -10   38.60    1.50
   0   3  10   37.70    1.50
   0   3  10   34.20   28.50
   0   3  10   39.70    1.80
   1   3  10   14.60   35.90
   2   3  10   30.80   52.29
  -3  -3 -10    4.10    0.30
   3   3  10    3.50    0.70
   5  -4 -10    1.10    0.10
  -5   4  10    1.10    0.40
   4  -4 -10    7.40    0.40
  -4   4  10    6.80    0.50
   3  -4 -10   50.99    1.80
  -3   4  10   50.99    1.90
   2  -4 -10    0.50    0.50
   2  -4 -10    0.40    0.20
  -2   4  10   -2.60   26.30
  -2   4  10    0.10    0.30
   1  -4 -10   27.00    1.30
   1  -4 -10   23.70    2.90
  -1   4  10   23.00   29.20
  -1   4  10   26.80    1.30
   0  -4 -10   18.10    0.80
   0   4  10    9.90   33.80
   0   4  10   17.20    0.90
   0   4  10   16.70    1.10
  -1  -4 -10    8.20    0.50
   1   4  10    8.40    0.60
   1   4  10    7.40    0.70
   1   4  10    6.50   45.70
  -2  -4 -10   59.19    2.10
   2   4  10   59.09    2.40
   3   4  10    0.80    0.20
   4  -5 -10    5.70    0.30
   3  -5 -10   29.10    1.10
  -3   5  10   27.10    1.10
   2  -5 -10   17.40    0.70
  -2   5  10   16.90    0.80
   1  -5 -10   18.60    0.80
  -1   5  10   19.20    1.00
  -1   5  10   19.30    0.90
  -1   5  10   38.10   37.10
   0  -5 -10   93.89    3.30
   0   5  10   94.89    3.30
   0   5  10   95.19    3.50
  -1  -5 -10  126.19    4.20
   1   5  10  125.59    4.50
  -2  -5 -10   62.69    2.20
   2   5  10   67.59    2.50
   4  -6 -10    0.20    0.10
   3  -6 -10   74.79    2.50
   2  -6 -10  104.39    3.50
  -2   6  10  103.49    3.70
   1  -6 -10    1.60    0.20
  -1   6  10    1.80    0.30
  -1   6  10    1.60    0.30
   0  -6 -10   19.20    0.80
   0   6  10   20.10    1.10
  -1  -6 -10  110.89    3.70
   1   6  10  112.59    4.00
   2  -7 -10   63.59    2.20
   1  -7 -10   21.60    0.80
  -1   7  10   20.90    0.90
   0  -7 -10    6.70    0.40
   0   7  10    7.00    0.50
   2  13 -11    0.10    0.10
  -2 -13  11    0.30    0.20
  -2 -13  11    0.20    0.20
   1  13 -11    3.40    0.30
  -1 -13  11    3.00    0.30
  -1 -13  11    3.00    0.40
   0  13 -11   24.80    0.90
   0 -13  11   23.70    0.90
   0 -13  11   24.00    1.10
  -1  13 -11    3.20    0.30
   1 -13  11    3.20    0.40
   3  12 -11   23.40    0.90
  -3 -12  11   23.10    1.10
  -3 -12  11   21.30    0.90
   2  12 -11    4.20    0.30
  -2 -12  11    4.20    0.60
  -2 -12  11    2.90    0.40
   1  12 -11    7.70    0.40
  -1 -12  11    7.70    0.50
  -1 -12  11    8.30    0.70
   0 -12  11    1.50    0.20
   0 -12  11    1.50    0.30
  -1  12 -11   50.29    1.80
   1 -12  11   43.70    1.60
   1 -12  11   44.90    1.90
  -2  12 -11   30.50    1.10
   2 -12  11   30.90    1.30
   4  11 -11    0.00    0.30
  -4 -11  11    0.30    0.20
  -4 -11  11    0.10    0.20
   3  11 -11   -0.20    0.30
  -3 -11  11   -0.30    0.30
  -3 -11  11    0.20    0.20
   2  11 -11   11.60    0.60
  -2 -11  11   12.30    0.70
  -2 -11  11   11.50    0.90
   1  11 -11   62.79    2.20
  -1 -11  11   61.19    2.50
   0  11 -11   31.50    1.20
   0 -11  11   31.50    1.30
   0 -11  11   35.00    1.60
  -1  11 -11    0.70    0.20
   1 -11  11    1.10    0.40
   1 -11  11    0.70    0.20
  -2  11 -11    6.10    0.40
   2 -11  11    6.70    0.70
   2 -11  11    5.50    0.40
  -3  11 -11   28.00    1.00
   3 -11  11   26.90    1.10
  -4 -10  11   14.00    0.70
  -4 -10  11   12.50    0.80
  -3 -10  11    0.00    0.20
  -3 -10  11    0.10    0.30
  -2 -10  11   56.29    2.40
  -2 -10  11   55.39    2.10
   1  10 -11    4.70    1.10
  -1 -10  11    4.10    0.40
  -1 -10  11    4.20    0.70
   0  10 -11   43.40    1.60
   0  10 -11   43.70    3.50
   0 -10  11   46.00    2.00
   0 -10  11   45.70    1.80
  -1  10 -11    0.80    0.20
   1 -10  11    0.50    0.30
   1 -10  11    1.00    0.20
  -2  10 -11   61.69    2.10
   2 -10  11   60.29    2.10
   2 -10  11   62.49    2.20
  -3  10 -11   34.70    1.30
   3 -10  11   33.10    1.20
   3 -10  11   35.80    1.40
  -5  -9  11    0.30    0.20
  -5  -9  11    0.60    0.20
  -4  -9  11   48.00    2.00
  -4  -9  11   48.10    1.80
  -3  -9  11    2.10    0.30
  -3  -9  11    2.00    0.40
   2   9 -11    0.60    0.50
  -2  -9  11    0.10    0.40
  -2  -9  11    0.10    0.20
   1   9 -11  186.88    7.80
  -1  -9  11  193.58    6.80
  -1  -9  11  196.78    6.60
   0   9 -11   38.70    1.50
   0   9 -11   41.10    2.90
   0  -9  11   41.90    1.90
   0  -9  11   42.10    1.70
  -1   9 -11    9.00    1.80
   1  -9  11    6.60    0.50
   1  -9  11    5.10    0.60
  -2   9 -11  144.19    4.80
   2  -9  11  145.69    4.80
   2  -9  11  141.79    4.90
  -3   9 -11    7.20    0.40
   3  -9  11    6.90    0.40
  -4   9 -11   81.79    2.70
   4  -9  11   82.89    2.80
  -5  -8  11   63.99    2.30
  -5  -8  11   57.39    2.10
  -4  -8  11  120.09    4.40
  -4  -8  11  119.89    4.10
  -3  -8  11    0.90    1.00
   2   8 -11    7.20    0.90
  -2  -8  11    6.70    0.50
  -2  -8  11    6.90    1.60
  -2  -8  11    7.80    0.80
   1   8 -11   15.60    1.40
  -1  -8  11   15.60    0.80
  -1  -8  11   15.70    1.00
   0   8 -11   73.79    4.10
   0  -8  11   76.49    2.80
   0  -8  11   75.39    3.00
  -1   8 -11   10.40    1.80
  -1   8 -11    8.50    0.50
   1  -8  11    8.70    0.60
   1  -8  11    9.10    0.80
   1  -8  11    8.60    0.40
  -2   8 -11   88.99    5.80
  -2   8 -11   92.49    3.10
   2  -8  11   68.29   16.10
   2  -8  11   94.79    3.30
   2  -8  11   91.09    3.20
  -3   8 -11    6.00    0.30
   3  -8  11    5.70    0.40
   3  -8  11    5.90    0.50
  -4   8 -11   35.70    1.20
   4  -8  11   35.90    1.30
  -5  -7  11   10.20    0.70
  -5  -7  11    8.70    0.50
  -4  -7  11    2.50    0.30
  -4  -7  11    1.50    0.30
  -4  -7  11    1.70    0.40
  -3  -7  11   60.69    2.30
  -3  -7  11   60.39    2.30
  -3  -7  11   68.29    2.70
  -3  -7  11   63.39    4.10
   2   7 -11   88.59    3.50
  -2  -7  11   95.59    3.50
  -2  -7  11   89.59    5.00
  -2  -7  11   83.39    3.20
  -2  -7  11   93.99    3.20
   1   7 -11   22.20    1.60
  -1  -7  11   23.60    1.10
  -1  -7  11   22.10    1.20
   0   7 -11   90.19    4.60
   0  -7  11  100.49    3.50
   0  -7  11   98.89    3.60
  -1   7 -11  302.67   11.70
  -1   7 -11  282.97    9.60
   1  -7  11  295.57    9.90
   1  -7  11  287.47    9.50
   1  -7  11  295.57    9.80
  -2   7 -11   93.29    5.30
  -2   7 -11   94.49    3.30
   2  -7  11   96.29    3.30
   2  -7  11   97.19    3.50
   2  -7  11   99.79   16.50
   3  -7  11  -11.20   19.40
  -4   7 -11    1.50    0.20
   4  -7  11    1.50    0.20
  -6  -6  11    2.60    0.30
  -6  -6  11    2.80    0.30
  -5  -6  11   20.30    1.10
  -5  -6  11   20.70    1.00
  -4  -6  11   59.89    2.40
  -4  -6  11   62.29    4.00
  -4  -6  11   63.59    2.60
  -4  -6  11   63.69    2.20
  -3  -6  11   14.80    2.00
  -3  -6  11   17.60    0.90
  -3  -6  11   18.30    0.90
  -3  -6  11   18.60    1.10
  -2  -6  11   21.70    1.20
  -2  -6  11   21.60    2.20
  -2  -6  11   22.00    1.00
   1   6 -11   27.60    1.60
  -1  -6  11   25.90    1.10
  -1  -6  11   23.50    1.20
  -1  -6  11   22.50    1.10
   0   6 -11  173.68    7.10
   0  -6  11  182.58    6.00
   0  -6  11  175.08    6.10
   0  -6  11  166.38    5.80
  -1   6 -11    5.40    0.40
   1  -6  11    5.60    0.50
   1  -6  11    5.20    0.30
   1  -6  11    5.40    0.60
  -2   6 -11  138.49    4.70
  -2   6 -11  134.69    6.70
   2  -6  11  142.79    4.80
   2  -6  11  126.19   18.60
   2  -6  11  142.59    4.90
   3  -6  11   18.10   23.50
  -4   6 -11    2.40    0.30
   4  -6  11    2.10    0.30
  -6  -5  11   15.10    0.70
  -6  -5  11   15.50    0.70
  -5  -5  11    1.70    0.30
  -5  -5  11    2.40    0.40
  -4  -5  11   22.90    1.60
  -4  -5  11   24.70    1.00
  -3  -5  11   17.70    0.90
  -3  -5  11   18.20    1.00
  -3  -5  11   18.80    2.00
  -3  -5  11   16.30    1.00
  -2  -5  11   28.20    1.60
  -2  -5  11   31.40    1.40
  -2  -5  11   26.00    2.30
  -2  -5  11   28.90    1.60
   1   5 -11    0.70    0.40
  -1  -5  11    0.50    0.30
  -1  -5  11    0.90    0.30
  -1  -5  11    0.90    0.30
   0   5 -11  257.27    9.50
   0  -5  11  245.08    8.40
   0  -5  11  249.58    8.30
  -1   5 -11  191.18    6.40
  -1   5 -11  176.58    7.70
   1  -5  11  187.38   14.80
   1  -5  11  178.78    6.20
   1  -5  11  191.18    6.40
   1  -5  11  156.08   17.20
  -2   5 -11    0.80    0.70
  -2   5 -11    0.20    0.20
   2  -5  11    0.40    0.20
   2  -5  11    0.40    0.30
  -3   5 -11   21.60    0.90
   3  -5  11    0.00   22.00
   3  -5  11   22.40    1.10
   3  -5  11   21.10    1.00
  -4   5 -11    7.50    0.40
   4  -5  11    7.20    0.50
   4  -5  11    7.50    0.50
  -6  -4  11   37.00    1.40
  -6  -4  11   35.70    1.40
  -5  -4  11   56.39    2.20
  -5  -4  11   54.49    2.20
  -4  -4  11  109.09    5.70
  -4  -4  11  125.19    4.30
  -4  -4  11  121.79    4.40
  -3  -4  11    5.20    0.60
  -3  -4  11    4.00    0.50
  -3  -4  11    5.30    0.40
  -3  -4  11    4.80    1.20
  -2  -4  11   20.40    1.10
  -2  -4  11   19.90    1.00
  -2  -4  11   19.20    1.90
  -2  -4  11   19.40    1.00
   1   4 -11  205.38    7.30
  -1  -4  11  194.88    6.80
  -1  -4  11  200.88    6.80
   0   4 -11   84.19    3.90
   0  -4  11   80.29    2.90
   0  -4  11   79.09    3.00
  -1   4 -11   65.79    2.50
  -1   4 -11   69.49    3.80
   1  -4  11   67.99    2.50
   1  -4  11   66.29   12.20
   1  -4  11   48.80   13.10
   1  -4  11   72.09    2.70
  -2   4 -11   21.00    2.10
  -2   4 -11   21.00    0.90
   2  -4  11   22.40    1.10
   2  -4  11   22.50    1.20
   2  -4  11   12.60   19.30
   2  -4  11   21.00    1.00
   3  -4  11  338.57   11.20
   3  -4  11  315.77   37.80
   3  -4  11  330.57   11.10
  -4   4 -11   45.90    1.60
   4  -4  11   46.40    1.80
   4  -4  11   44.60    1.70
  -6  -3  11  183.38    6.10
  -6  -3  11  176.78    6.00
  -5  -3  11    7.70    0.60
  -5  -3  11    8.40    0.60
   4   3 -11  248.58    8.80
  -4  -3  11  261.57    8.70
  -4  -3  11  261.37    8.70
   3   3 -11    9.40    0.70
  -3  -3  11    8.00    0.70
  -3  -3  11    9.50    1.40
  -3  -3  11    8.50    0.70
  -3  -3  11    8.30    0.50
   2   3 -11   36.20    1.50
  -2  -3  11   35.60    1.60
  -2  -3  11   37.50    1.50
   1   3 -11    9.20    0.80
  -1  -3  11    9.30    0.70
  -1  -3  11    8.70    0.60
   0   3 -11   45.10    2.60
   0  -3  11   44.00    1.90
   0  -3  11   47.90    1.80
  -1   3 -11   36.70    2.50
   1  -3  11   39.80    1.50
   1  -3  11   37.80   14.20
   1  -3  11    5.90   18.50
   1  -3  11   37.10    1.50
  -2   3 -11    0.40    0.20
  -2   3 -11    0.20    0.60
   2  -3  11    0.30    0.30
   2  -3  11    0.00    0.20
   3  -3  11   36.60   29.50
   4  -3  11    6.70    0.50
   4  -3  11    6.90    0.50
  -6  -2  11   85.99    3.00
  -6  -2  11   82.39    2.90
  -5  -2  11   48.10    1.90
  -5  -2  11   51.99    2.00
   4   2 -11   28.50    1.70
  -4  -2  11   28.30    1.40
  -4  -2  11   29.70    1.40
  -3  -2  11   63.89    2.50
  -3  -2  11   68.69    2.60
   2   2 -11  206.88    7.10
  -2  -2  11  199.78    6.90
  -2  -2  11  206.28    7.00
  -1  -2  11   31.80    1.40
  -1  -2  11   31.70    1.40
   0   2 -11  238.28    8.50
   0  -2  11  212.08    7.40
  -1   2 -11  179.68    7.50
  -1   2 -11  149.59    5.40
   1  -2  11  159.48    5.60
   1  -2  11  165.28    5.50
   1  -2  11  169.08   23.10
   2  -2  11   26.20   23.90
   3  -2  11   29.10   39.10
  -4   2 -11    3.70    0.30
   4  -2  11    3.00    0.30
   4  -2  11    4.40    0.70
   6   1 -11    0.90    0.10
  -6  -1  11    0.90    0.20
  -6  -1  11    1.10    0.30
  -5  -1  11   19.90    0.90
  -5  -1  11   20.70    1.00
  -4  -1  11   59.99    2.60
  -4  -1  11   59.09    2.20
   3   1 -11   17.30    1.20
  -3  -1  11   16.50    1.00
   2   1 -11   45.00    2.00
  -2  -1  11   46.90    1.80
  -2  -1  11   41.20    1.70
   1   1 -11   87.99    3.70
  -1  -1  11   89.69    3.30
  -1  -1  11   91.09    3.30
   0   1 -11   78.19    2.80
   0  -1  11   57.49   15.40
   0  -1  11   80.29    3.00
   0  -1  11   52.29   13.40
   0  -1  11   89.29    3.00
  -1   1 -11    2.80    0.30
  -1   1 -11    1.70    0.70
   1  -1  11    2.10    0.40
   1  -1  11    3.30    0.50
   1  -1  11   -5.00   19.00
  -2   1 -11   33.60    2.40
  -2   1 -11   35.30    1.40
   2  -1  11   36.00    1.50
   2  -1  11   35.60    1.60
   2  -1  11   41.30   28.20
   3  -1  11  -11.10   38.70
  -4   1 -11    2.50    0.20
   4  -1  11    2.90    0.40
   6   0 -11    4.00    0.20
  -6   0  11    4.70    0.40
   5   0 -11   23.60    0.90
  -5   0  11   24.50    1.10
  -5   0  11   24.60    1.00
   4   0 -11   18.70    1.60
  -4   0  11   20.20    0.90
  -4   0  11   21.80    1.10
   3   0 -11    0.90    0.40
  -3   0  11    0.00    0.30
  -2   0  11  138.09    4.80
   1   0 -11   47.00    2.30
   1   0 -11   41.60    1.60
  -1   0  11   43.50    1.80
  -1   0  11   47.20    1.80
  -1   0  11   42.50    1.60
   0   0 -11   21.80    1.00
   0   0  11   23.00    1.10
   0   0  11    1.90   24.80
   0   0  11   23.00    1.10
   0   0  11   36.80   17.80
  -1   0 -11   46.30    2.80
  -1   0 -11   51.09    1.90
   1   0  11   50.79    2.00
   1   0  11   23.20   26.30
   1   0  11   52.79    2.10
  -2   0 -11   -0.30    0.50
  -2   0 -11    0.60    0.30
   2   0  11    0.60    0.40
   2   0  11  -19.60   29.90
   2   0  11    0.30    0.30
  -3   0 -11    0.30    0.20
   3   0  11    0.10    0.20
   4   0  11   -0.10    0.20
   5  -1 -11    3.60    0.30
  -5   1  11    4.10    0.40
   4  -1 -11    0.30    0.10
  -4   1  11    0.00    0.20
   3  -1 -11   71.09    3.40
   3  -1 -11   64.69    2.30
  -3   1  11   67.59    2.60
   2  -1 -11    6.50    0.90
   2  -1 -11    6.10    0.40
  -2   1  11    5.80    0.60
   1  -1 -11   64.19    3.00
   1  -1 -11   59.99    2.10
  -1   1  11   59.39    2.30
  -1   1  11   56.79    2.30
  -1   1  11   63.59    2.40
   0  -1 -11    1.50    0.30
   0  -1 -11    2.20    0.70
   0   1  11    1.50    0.40
   0   1  11    4.50   21.00
   0   1  11    1.50    0.40
  -1  -1 -11    0.90    0.30
  -1  -1 -11    0.40    0.50
   1   1  11    0.60    0.30
   1   1  11  -37.60   26.90
   1   1  11    1.10    0.40
  -2  -1 -11    0.00    0.20
   2   1  11    0.20    0.30
   2   1  11  -41.50   63.29
   2   1  11    0.10    0.30
  -3  -1 -11   32.30    1.20
   3   1  11   29.90    1.40
   5  -2 -11    1.20    0.20
  -5   2  11    1.20    0.30
   4  -2 -11   15.30    0.60
  -4   2  11   15.70    0.90
   3  -2 -11   37.90    2.40
   3  -2 -11   35.00    1.30
  -3   2  11   35.90    1.50
   2  -2 -11   65.19    2.30
   2  -2 -11   67.79    3.20
  -2   2  11   65.69    2.40
  -2   2  11   67.19    2.50
   1  -2 -11  111.99    4.80
   1  -2 -11  115.39    3.90
  -1   2  11  113.69    4.10
  -1   2  11  119.49    4.10
  -1   2  11  176.58   37.80
  -1   2  11   83.29   22.10
  -1   2  11  120.59    4.10
   0  -2 -11   17.60    1.60
   0  -2 -11   19.00    0.90
   0   2  11   18.50    1.10
   0   2  11   18.80    1.00
   0   2  11   23.80   26.80
  -1  -2 -11   35.50    1.40
  -1  -2 -11   36.00    2.40
   1   2  11   34.30    1.50
   1   2  11   35.70    1.70
   1   2  11   25.30   32.80
  -2  -2 -11   12.30    0.60
   2   2  11   11.40    0.80
  -3  -2 -11   32.50    1.20
   3   2  11   32.90    1.40
   5  -3 -11   56.19    1.80
  -5   3  11   49.70    1.90
  -4   3  11   25.20    1.30
   3  -3 -11   25.90    1.00
  -3   3  11   25.10    1.20
   2  -3 -11   37.20    2.30
   2  -3 -11   36.80    1.30
  -2   3  11   37.00    1.50
  -2   3  11   33.90    1.40
   1  -3 -11  138.39    5.90
   1  -3 -11  148.49    4.90
  -1   3  11  150.48    5.00
  -1   3  11  108.49   29.10
  -1   3  11  144.89    5.10
   0   3  11  -39.10   32.00
  -1  -3 -11    0.60    0.20
   1   3  11  -30.80   40.50
   1   3  11    0.40    0.30
   1   3  11    0.50    0.30
  -2  -3 -11    6.90    0.40
   2   3  11    6.30    0.60
   3   3  11   21.10    0.90
   4  -4 -11    1.40    0.20
  -4   4  11    1.00    0.20
   3  -4 -11    3.40    0.30
   2  -4 -11  132.99    4.50
  -2   4  11  136.99    4.60
  -2   4  11  132.29    4.50
   1  -4 -11    0.10    0.20
  -1   4  11    0.10    0.20
  -1   4  11    0.40    0.30
   0  -4 -11    3.30    0.30
   0   4  11    2.90    0.40
   0   4  11    3.10    0.40
  -1  -4 -11    1.10    0.20
   1   4  11    1.20    0.30
   1   4  11    1.20    0.30
  -2  -4 -11   43.40    1.50
   2   4  11   42.80    1.70
   4  -5 -11    5.60    0.30
   3  -5 -11   37.60    1.20
  -3   5  11   31.10    1.20
   2  -5 -11    6.70    0.40
  -2   5  11    5.90    0.40
  -2   5  11    6.30    0.40
   1  -5 -11    1.20    0.20
  -1   5  11    1.50    0.30
   0  -5 -11   42.20    1.50
   0   5  11   43.10    1.60
   0   5  11   39.20    2.00
  -1  -5 -11   82.99    2.80
   1   5  11   82.99    3.00
   3  -6 -11    0.90    0.20
   2  -6 -11    2.00    0.20
   1  -6 -11    2.60    0.20
  -1   6  11    2.60    0.30
   0  -6 -11   15.30    0.60
   0   6  11   14.30    0.70
   1  13 -12   27.00    1.00
  -1 -13  12   26.50    1.00
  -1 -13  12   28.20    1.20
   0  13 -12   26.20    0.90
   0 -13  12   23.90    1.00
   0 -13  12   26.60    1.20
  -1  13 -12    2.10    0.20
   1 -13  12    2.40    0.30
  -3 -12  12   33.80    1.30
  -3 -12  12   38.60    1.50
   2  12 -12   45.90    1.60
  -2 -12  12   46.90    1.90
   1  12 -12    5.50    0.30
  -1 -12  12    8.50    1.10
  -1 -12  12    5.50    0.50
   0  12 -12    0.30    0.10
   0 -12  12    0.20    0.20
  -1  12 -12   43.90    1.50
   1 -12  12   42.30    1.50
   1 -12  12   43.60    1.80
  -2  12 -12    2.10    0.20
   2 -12  12    2.20    0.30
  -3 -11  12   33.20    1.50
  -3 -11  12   33.60    1.30
  -2 -11  12    0.20    0.30
  -2 -11  12    0.20    0.20
   1  11 -12    4.80    0.30
  -1 -11  12    5.50    0.60
   0  11 -12   42.00    1.50
   0 -11  12   42.00    1.80
   0 -11  12   40.20    1.60
  -1  11 -12   33.70    1.20
   1 -11  12   29.90    1.40
   1 -11  12   36.20    1.50
  -2  11 -12   11.70    0.50
   2 -11  12   12.00    0.70
   2 -11  12   11.90    0.50
  -4 -10  12   14.70    0.80
  -4 -10  12   13.50    0.70
  -3 -10  12   26.60    1.10
  -3 -10  12   24.40    1.30
  -2 -10  12   14.60    0.70
  -2 -10  12   15.20    1.00
  -1 -10  12  361.96   12.10
  -1 -10  12  355.96   11.80
   0  10 -12   16.60    0.70
   0 -10  12   17.80    1.10
   0 -10  12   16.60    0.80
  -1  10 -12    0.20    0.10
   1 -10  12   -0.20    0.30
   1 -10  12    0.00    0.20
  -2  10 -12    4.10    0.30
   2 -10  12    3.60    0.30
   2 -10  12    4.00    0.50
  -3  10 -12   35.60    1.20
   3 -10  12   32.20    1.30
  -4  -9  12    0.80    0.20
  -4  -9  12    1.00    0.30
  -3  -9  12   14.30    1.00
  -3  -9  12   14.70    0.70
  -2  -9  12   26.40    1.10
  -2  -9  12   25.40    1.40
  -1  -9  12   71.19    2.80
   0   9 -12    2.30    0.20
   0  -9  12    3.20    0.70
  -1   9 -12    6.60    0.40
   1  -9  12    6.60    0.70
   1  -9  12    7.10    0.50
  -2   9 -12   21.60    0.80
   2  -9  12   20.40    1.00
   2  -9  12   20.30    0.90
  -3   9 -12    3.60    0.30
   3  -9  12    3.50    0.30
  -5  -8  12    0.50    0.20
  -4  -8  12   14.10    0.90
  -4  -8  12   14.60    0.70
  -3  -8  12   26.80    1.40
  -3  -8  12   24.30    1.10
  -2  -8  12    9.90    0.60
  -2  -8  12    8.70    0.80
   1   8 -12   69.29    3.40
  -1  -8  12   67.79    2.60
  -1  -8  12   71.49    2.80
   0   8 -12    0.30    0.60
   0  -8  12    0.20    0.20
   0  -8  12    0.20    0.30
  -1   8 -12    1.50    0.20
   1  -8  12    1.30    0.40
   1  -8  12    0.50    0.50
  -2   8 -12   27.90    1.00
   2  -8  12   27.40    1.00
   2  -8  12   28.40    1.20
   2  -8  12   25.90    1.20
  -3   8 -12    1.00    0.20
   3  -8  12    1.30    0.20
   3  -8  12    1.40    0.20
  -4   8 -12    0.10    0.10
  -5  -7  12    0.10    0.20
  -5  -7  12    0.20    0.20
  -4  -7  12   24.60    1.30
  -4  -7  12   24.60    1.00
  -4  -7  12   22.30    1.00
  -3  -7  12   52.09    2.00
  -3  -7  12   49.30    2.00
  -3  -7  12   67.99    4.90
  -2  -7  12   12.30    0.70
  -2  -7  12   12.80    0.90
  -2  -7  12   11.20    0.70
   1   7 -12   19.70    1.40
  -1  -7  12   18.50    1.10
  -1  -7  12   20.40    1.00
   0   7 -12    0.00    0.40
   0  -7  12   -0.30    0.30
   0  -7  12    0.10    0.20
  -1   7 -12   30.60    2.50
  -1   7 -12   28.20    1.10
   1  -7  12   28.60    1.30
   1  -7  12   26.70    1.30
  -2   7 -12   25.40    1.00
   2  -7  12   24.30    1.00
   2  -7  12   23.90    1.10
  -3   7 -12    2.40    0.20
   3  -7  12    2.70    0.30
   3  -7  12    2.50    0.40
  -4   7 -12    6.90    0.30
   4  -7  12    7.00    0.50
  -5  -6  12    1.70    0.30
  -4  -6  12   50.09    2.00
  -4  -6  12   51.29    1.90
  -4  -6  12   53.09    2.20
  -3  -6  12   68.09    2.70
  -3  -6  12   66.39    2.40
  -3  -6  12   68.19    2.50
  -3  -6  12   63.19    4.10
  -2  -6  12   72.69    2.70
  -2  -6  12   72.29    2.90
  -2  -6  12   76.69    2.70
  -1  -6  12    5.60    0.50
  -1  -6  12    4.30    0.50
  -1  -6  12    5.00    0.50
   0   6 -12   70.89    3.60
   0  -6  12   64.09    2.60
   0  -6  12   63.99    2.40
   0  -6  12   70.49    2.60
  -1   6 -12   84.49    4.50
  -1   6 -12   83.99    3.00
   1  -6  12   90.69    3.20
   1  -6  12   88.29    3.10
  -2   6 -12   20.10    0.90
  -2   6 -12   25.70    2.80
   2  -6  12   20.40    0.90
   2  -6  12   20.50    1.00
  -3   6 -12    8.70    0.40
   3  -6  12    8.70    0.60
   3  -6  12    8.30    0.50
  -4   6 -12    2.60    0.20
   4  -6  12    2.70    0.20
  -5  -5  12    0.10    0.20
  -5  -5  12    0.10    0.20
  -4  -5  12   15.10    0.70
  -4  -5  12   15.00    1.00
  -4  -5  12   16.80    0.90
  -3  -5  12    0.00    0.20
  -3  -5  12   -0.20    0.30
  -3  -5  12    0.00    0.20
  -3  -5  12   -0.60    0.60
  -2  -5  12   26.90    1.20
  -2  -5  12   27.90    1.30
  -2  -5  12   26.60    1.20
   1   5 -12    0.20    0.30
  -1  -5  12    0.40    0.20
  -1  -5  12    0.60    0.30
   0  -5  12    0.40    0.30
   0  -5  12    0.30    0.20
  -1   5 -12  562.04   18.60
  -1   5 -12  586.54   20.40
   1  -5  12  582.14   18.60
   1  -5  12  552.74   18.50
  -2   5 -12   53.79    2.10
   2  -5  12   57.99   15.40
   2  -5  12   58.89    2.10
  -3   5 -12    0.30    0.20
   3  -5  12    0.30    0.20
   3  -5  12    0.50    0.20
  -4   5 -12    5.70    0.30
   4  -5  12    5.30    0.40
   4  -5  12    5.50    0.30
  -6  -4  12    1.70    0.20
  -6  -4  12    1.70    0.30
  -5  -4  12   86.69    3.10
  -5  -4  12   86.99    3.10
  -4  -4  12   55.19    2.20
  -4  -4  12   55.99    2.20
  -3  -4  12    4.60    0.40
  -3  -4  12    4.40    1.20
  -3  -4  12    4.90    0.60
  -3  -4  12    4.90    0.60
  -2  -4  12   13.90    0.80
  -2  -4  12   13.10    0.80
  -2  -4  12   14.90    0.90
   1   4 -12   11.70    0.90
  -1  -4  12   10.90    0.70
  -1  -4  12   10.50    0.70
   0  -4  12   26.20    1.30
   0  -4  12   27.60    1.20
  -1   4 -12    5.60    0.50
  -1   4 -12    5.90    1.20
   1  -4  12    6.70    0.60
   1  -4  12    7.20    0.40
   1  -4  12    8.20    0.70
   2  -4  12   38.50   16.40
  -3   4 -12   19.70    0.90
   3  -4  12   21.20    1.00
   3  -4  12   21.30    0.90
  -4   4 -12   87.89    2.80
   4  -4  12   86.49    2.90
   4  -4  12   83.09    2.90
  -6  -3  12    6.70    0.40
  -5  -3  12    0.00    0.20
  -4  -3  12   46.80    1.90
  -4  -3  12   43.10    1.80
  -3  -3  12   46.40    1.90
  -3  -3  12   56.49    2.10
  -3  -3  12   50.39    2.00
  -2  -3  12   36.10    1.50
  -2  -3  12   33.50    1.40
  -1  -3  12   30.00    1.40
  -1  -3  12   30.20    1.40
   0   3 -12   46.00    3.10
   0  -3  12   48.70    1.90
   0  -3  12   51.59    2.10
  -1   3 -12   31.10    2.20
  -1   3 -12   29.00    1.20
   1  -3  12   31.30    1.30
   1  -3  12   29.10    1.20
   1  -3  12   32.00    1.50
   2  -3  12   -8.00   19.90
  -3   3 -12   93.29    3.20
   3  -3  12   95.79    3.30
   3  -3  12   93.09    3.40
  -4   3 -12   24.00    0.90
   4  -3  12   25.00    1.00
   4  -3  12   24.50    1.00
  -6  -2  12    0.10    0.10
  -6  -2  12    0.10    0.20
  -5  -2  12  109.59    3.90
  -5  -2  12  121.69    4.10
  -4  -2  12   18.70    1.00
  -4  -2  12   16.50    0.90
   3   2 -12   14.50    1.10
  -3  -2  12   14.80    0.90
   2   2 -12  424.46   14.50
  -2  -2  12  424.36   14.30
  -2  -2  12  451.15   14.40
  -1  -2  12   33.90    1.50
  -1  -2  12   33.70    1.50
   0   2 -12  175.78    6.20
   0   2 -12  191.88    7.30
   0  -2  12  191.28    6.30
   0  -2  12  184.98    6.40
  -1   2 -12   16.70    0.80
  -1   2 -12   17.70    1.60
   1  -2  12   38.50   20.70
   1  -2  12   16.00    0.90
   1  -2  12   16.40    0.80
  -2   2 -12   21.60    2.30
  -2   2 -12   18.80    0.90
   2  -2  12   20.10   23.50
   2  -2  12   19.10    1.00
   2  -2  12   18.10    1.00
  -3   2 -12   76.39    2.70
   3  -2  12   75.59    2.80
  -4   2 -12    8.30    0.40
   4  -2  12    7.60    0.50
   4  -2  12    7.50    0.40
  -5  -1  12    9.00    0.60
  -5  -1  12    8.50    0.50
  -4  -1  12   71.59    2.70
   3   1 -12  727.73   24.40
   2   1 -12   38.60    1.90
  -2  -1  12   34.70    1.50
  -2  -1  12   39.10    1.60
   1   1 -12   23.00    1.50
  -1  -1  12   23.60    1.20
  -1  -1  12   22.20    1.10
   0   1 -12   26.40    1.10
   0   1 -12   29.20    1.90
   0  -1  12   25.40    1.10
   0  -1  12   28.80    1.30
  -1   1 -12    4.80    0.50
   1  -1  12   29.70   19.90
   1  -1  12    4.60    0.50
   1  -1  12    5.90    0.60
  -2   1 -12   76.69    2.70
   2  -1  12   74.29    2.80
   2  -1  12   73.79    2.80
  -3   1 -12   38.50    1.40
   3  -1  12   36.20    1.50
  -5   0  12    5.10    0.50
  -4   0  12    7.90    0.60
   3   0 -12   31.70    2.00
  -3   0  12   36.50    1.80
   2   0 -12   40.20    2.10
  -2   0  12   39.30    1.70
   1   0 -12   64.99    3.00
   1   0 -12   61.99    2.20
  -1   0  12   65.29    2.40
  -1   0  12   62.29    2.40
   0   0 -12   32.90    2.10
   0   0 -12   34.70    1.40
   0   0  12   35.50    1.50
   0   0  12   33.20    1.40
  -1   0 -12   40.90    1.60
  -1   0 -12   38.90    2.50
   1   0  12   32.30   25.10
   1   0  12   40.80    1.70
   1   0  12   39.10    1.80
  -2   0 -12    2.60    0.30
   2   0  12    3.10    0.40
   2   0  12    2.90    0.40
  -3   0 -12    7.50    0.40
   3   0  12    6.60    0.50
  -5   1  12   57.39    2.10
   4  -1 -12    1.70    0.20
  -4   1  12    1.70    0.30
   3  -1 -12   31.90    1.20
  -3   1  12   32.10    1.40
   2  -1 -12    2.50    0.30
   1  -1 -12    0.80    0.40
  -1   1  12   -0.10    0.30
   0  -1 -12    0.60    0.20
   0   1  12    0.30    0.20
  -1  -1 -12    3.10    0.30
   1   1  12    3.90    0.50
   1   1  12    3.80    0.50
  -2  -1 -12    6.10    0.40
   2   1  12    6.40    0.50
  -3  -1 -12    2.10    0.20
   3   1  12    2.30    0.30
   5  -2 -12    4.80    0.30
  -5   2  12    5.30    0.50
   4  -2 -12   10.30    0.50
   3  -2 -12   20.40    0.80
  -3   2  12   21.10    1.00
   2  -2 -12    6.50    0.40
  -2   2  12    7.00    0.60
   1  -2 -12   19.30    0.90
  -1   2  12   24.50    1.20
  -1   2  12   20.50    1.00
  -1   2  12   18.40    0.80
   0  -2 -12    9.40    0.60
   0   2  12    9.90    0.70
   0   2  12   10.40    0.70
  -1  -2 -12    0.40    0.20
   1   2  12    0.40    0.20
   1   2  12    0.50    0.20
   2   2  12    5.60    0.50
   4  -3 -12    0.50    0.10
  -4   3  12    0.00    0.20
  -3   3  12    0.10    0.30
   2  -3 -12   19.50    0.80
  -2   3  12   20.00    0.90
   1  -3 -12   72.99    2.50
  -1   3  12   74.59    2.60
  -1   3  12   67.99    2.60
   0  -3 -12    0.40    0.20
   0   3  12    0.30    0.20
   0   3  12    0.30    0.20
   0   3  12    0.10    0.30
  -1  -3 -12    3.20    0.30
   1   3  12    3.30    0.60
   1   3  12    3.00    0.40
  -2  -3 -12   32.50    1.20
   2   3  12   32.00    1.30
   4  -4 -12    9.50    0.40
   3  -4 -12    1.50    0.20
  -3   4  12    0.90    0.20
  -2   4  12   95.29    3.20
   1  -4 -12   36.80    1.30
  -1   4  12   33.90    1.40
   0   4  12    0.00    0.20
   0   4  12   -0.10    0.20
  -1  -4 -12    1.00    0.20
   1   4  12    1.30    0.20
   1   4  12    1.20    0.20
   3  -5 -12    1.50    0.20
   2  -5 -12    3.70    0.30
  -2   5  12    3.10    0.30
   1  -5 -12    7.90    0.40
  -1   5  12    7.60    0.40
   0  -5 -12    1.70    0.20
  -2 -12  13   17.70    0.80
  -2 -12  13   17.60    0.90
   1  12 -13   -0.10    0.10
  -1 -12  13   -0.10    0.10
  -1 -12  13    0.20    0.20
   0  12 -13    0.30    0.10
   0 -12  13    0.10    0.10
   0 -12  13    0.60    0.30
  -1  12 -13   30.20    1.10
   1 -12  13   28.00    1.10
   1 -12  13   30.80    1.30
  -3 -11  13   40.00    1.50
  -3 -11  13   41.90    1.70
  -2 -11  13   15.80    0.80
   1  11 -13    2.40    0.20
  -1 -11  13    2.80    0.40
  -1 -11  13    2.60    0.30
   0  11 -13   26.20    1.00
   0 -11  13   25.90    1.60
   0 -11  13   25.10    1.10
  -1  11 -13   35.20    1.20
   1 -11  13   34.80    1.50
   1 -11  13   33.90    1.30
  -2  11 -13    0.80    0.10
   2 -11  13    0.50    0.20
  -4 -10  13   17.70    0.90
  -3 -10  13    4.50    0.40
  -2 -10  13   14.10    0.90
  -1 -10  13   48.00    2.00
  -1 -10  13   48.80    1.80
   0 -10  13  185.78    6.10
   0 -10  13  177.08    6.30
   1 -10  13    6.90    0.50
   1 -10  13    5.20    0.70
  -2  10 -13    7.60    0.40
   2 -10  13    7.90    0.40
  -4  -9  13   13.30    0.80
  -4  -9  13   12.40    0.60
  -3  -9  13    4.90    0.40
  -3  -9  13    3.40    0.50
  -2  -9  13   23.90    1.30
  -2  -9  13   22.60    1.00
  -1  -9  13   55.29    2.10
  -1  -9  13   53.89    2.30
   0   9 -13    6.10    0.40
   0  -9  13    6.20    0.50
   0  -9  13    7.60    0.70
  -1   9 -13    5.10    0.30
   1  -9  13    5.00    0.50
   1  -9  13    4.40    0.50
  -2   9 -13    5.90    0.40
   2  -9  13    5.60    0.40
   2  -9  13    5.20    0.50
  -3   9 -13   93.69    3.10
  -5  -8  13   15.20    0.70
  -4  -8  13    1.20    0.50
  -4  -8  13    1.20    0.20
  -3  -8  13   19.50    0.90
  -3  -8  13   19.30    1.10
  -2  -8  13    2.30    0.30
  -2  -8  13    1.80    0.40
   1   8 -13   -0.10    0.50
  -1  -8  13    0.10    0.20
  -1  -8  13   -0.10    0.30
   0   8 -13    0.30    0.50
   0  -8  13    0.40    0.20
   0  -8  13    0.70    0.30
  -1   8 -13   50.99    1.70
   1  -8  13   46.40    1.90
   1  -8  13   49.70    1.90
  -2   8 -13   33.80    1.20
   2  -8  13   32.70    1.30
  -3   8 -13   21.30    0.80
   3  -8  13   19.40    0.90
  -5  -7  13   33.10    1.20
  -5  -7  13   36.40    1.40
  -4  -7  13    8.90    0.70
  -4  -7  13    8.80    0.50
  -4  -7  13    8.60    0.50
  -3  -7  13  132.69    4.60
  -3  -7  13  120.99    4.40
  -3  -7  13  128.59    4.30
  -2  -7  13   42.00    1.80
  -2  -7  13   35.00    1.50
   1   7 -13   71.09    3.00
  -1  -7  13   71.39    2.70
  -1  -7  13   70.79    2.80
   0   7 -13    3.20    0.90
   0  -7  13    3.70    0.40
  -1   7 -13   20.00    2.40
  -1   7 -13   16.40    0.70
   1  -7  13   16.40    0.90
  -2   7 -13    0.30    0.10
   2  -7  13   -0.10    0.20
  -3   7 -13   54.39    1.90
   3  -7  13   54.19    1.90
  -5  -6  13   21.00    0.90
  -5  -6  13   20.10    0.90
  -4  -6  13   17.10    0.90
  -4  -6  13   15.60    0.70
  -4  -6  13   18.10    1.00
  -3  -6  13   44.50    1.80
  -3  -6  13   44.60    1.70
  -3  -6  13   44.30    1.90
  -2  -6  13    3.80    0.50
  -2  -6  13    4.90    0.50
  -2  -6  13    4.40    0.50
   1   6 -13   91.99    3.70
  -1  -6  13   91.39    3.30
  -1  -6  13   90.59    3.40
  -1  -6  13  100.89    3.40
   0   6 -13  115.29    5.10
   0  -6  13  122.79    4.20
   0  -6  13  113.29    4.00
  -1   6 -13   22.40    2.00
  -1   6 -13   20.60    0.90
   1  -6  13   21.90    1.10
   1  -6  13   20.20    0.90
  -2   6 -13    7.60    0.40
   2  -6  13    7.00    0.60
   3  -6  13   35.30    1.40
   3  -6  13   34.30    1.20
  -5  -5  13   15.40    0.80
  -5  -5  13   15.20    0.80
  -4  -5  13   15.60    0.90
  -4  -5  13   18.30    0.90
  -3  -5  13    7.00    0.60
  -3  -5  13    7.90    0.60
  -3  -5  13    7.70    0.50
  -2  -5  13    7.20    0.60
  -2  -5  13    8.00    0.70
  -2  -5  13    8.30    0.60
   1   5 -13   68.99    2.80
  -1  -5  13   65.99    2.50
  -1  -5  13   69.09    2.60
   0   5 -13   47.20    2.70
   0  -5  13   51.99    2.10
   0  -5  13   51.79    1.90
  -1   5 -13   66.59    2.40
   1  -5  13   65.99    2.40
  -2   5 -13    7.40    0.50
   2  -5  13    7.50    0.60
   2  -5  13    7.20    0.40
  -3   5 -13   16.70    0.70
   3  -5  13   16.00    0.80
   3  -5  13   15.80    0.60
  -5  -4  13   89.29    3.10
  -5  -4  13   87.59    3.10
  -4  -4  13    0.10    0.20
  -4  -4  13    0.20    0.20
  -3  -4  13    2.80    0.40
  -3  -4  13    2.80    0.30
  -3  -4  13    2.50    0.40
  -2  -4  13   42.10    1.80
  -2  -4  13   44.90    1.70
  -1  -4  13   47.80    1.90
  -1  -4  13   48.30    1.90
   0   4 -13  291.27   10.70
   0  -4  13  295.47    9.90
   0  -4  13  293.27    9.70
  -1   4 -13    1.40    0.20
   1  -4  13    2.10    0.60
   1  -4  13    2.30    0.40
  -2   4 -13    4.60    0.40
   2  -4  13    3.40    0.40
   2  -4  13    4.40    0.30
  -3   4 -13    0.80    0.20
   3  -4  13    0.70    0.20
   3  -4  13    0.30    0.20
  -5  -3  13    4.80    0.40
  -5  -3  13    5.00    0.50
  -4  -3  13   18.00    0.90
  -4  -3  13   15.20    1.00
  -3  -3  13    2.70    0.40
   2   3 -13    0.10    0.20
  -2  -3  13   -0.30    0.30
  -2  -3  13    0.20    0.20
   1   3 -13    5.40    0.70
  -1  -3  13    5.80    0.60
  -1  -3  13    3.60    0.40
   0   3 -13    0.20    0.20
   0   3 -13    0.20    0.40
   0  -3  13   -0.20    0.30
   0  -3  13    0.00    0.20
  -1   3 -13   56.79    3.20
  -1   3 -13   54.79    2.00
   1  -3  13   54.89    2.10
   1  -3  13   54.69    2.20
  -2   3 -13   21.50    0.90
   2  -3  13   20.40    1.10
   2  -3  13   20.10    0.90
  -3   3 -13   35.50    1.40
   3  -3  13   35.10    1.30
   3  -3  13   37.30    1.50
  -5  -2  13   58.99    2.20
  -4  -2  13   56.69    2.20
  -3  -2  13   54.29    2.20
   2   2 -13  184.98    6.80
  -2  -2  13  189.88    6.60
  -2  -2  13  198.58    6.60
   1   2 -13   90.09    3.80
  -1  -2  13   89.59    3.30
  -1  -2  13   91.49    3.30
   0   2 -13    0.20    0.40
   0  -2  13    0.00    0.30
   0  -2  13    0.10    0.20
  -1   2 -13    0.30    0.20
   1  -2  13    0.30    0.20
   1  -2  13    0.30    0.10
   1  -2  13    0.30    0.30
  -2   2 -13   24.50    1.00
   2  -2  13   24.20    1.00
   2  -2  13   24.90    1.20
   2  -2  13   22.70    1.10
  -3   2 -13   10.50    0.50
   3  -2  13   11.00    0.70
   3  -2  13   10.30    0.50
  -5  -1  13    0.20    0.20
  -4  -1  13   73.49    2.70
  -3  -1  13  307.67   10.30
   2   1 -13   44.10    2.40
  -2  -1  13   39.00    1.60
  -2  -1  13   48.50    2.10
   1   1 -13   83.09    3.70
   1   1 -13   85.19    3.00
  -1  -1  13   90.49    3.20
   0   1 -13  131.79    4.50
   0   1 -13  122.79    5.40
   0  -1  13  133.39    4.70
   0  -1  13  140.29    4.80
  -1   1 -13    0.40    0.20
   1  -1  13    0.80    0.30
   1  -1  13    0.20    0.20
   1  -1  13    0.30    0.20
  -2   1 -13   43.80    1.60
   2  -1  13   41.70    1.80
  -3   1 -13   11.20    0.50
   3  -1  13   10.80    0.50
   3  -1  13   11.30    0.60
  -5   0  13   26.10    1.10
   4   0 -13   32.40    1.20
  -4   0  13   33.90    1.40
  -3   0  13   20.40    1.00
   2   0 -13   16.80    0.80
  -2   0  13   17.10    1.00
   1   0 -13   83.09    2.90
   1   0 -13   81.69    3.60
  -1   0  13   79.69    3.00
  -1   0  13   84.99    3.00
   0   0 -13  163.98    5.50
   0   0  13  164.98    5.50
   0   0  13  157.18    5.60
  -1   0 -13   62.09    2.20
   1   0  13   60.89    2.30
   1   0  13   58.39    2.10
  -2   0 -13    2.70    0.30
   2   0  13    2.90    0.30
  -3   0 -13   48.00    1.60
   3   0  13   46.90    1.70
   3   0  13   42.90    1.50
   4  -1 -13   32.90    1.10
  -4   1  13   31.40    1.30
   3  -1 -13  194.18    6.30
  -3   1  13  190.08    6.50
   2  -1 -13    8.90    0.50
  -2   1  13    8.50    0.70
   1  -1 -13   77.99    2.70
  -1   1  13   71.69    2.70
  -1   1  13   77.29    2.70
   0  -1 -13   38.60    1.50
   0   1  13   39.20    1.50
   0   1  13   36.20    1.60
  -1  -1 -13    1.90    0.30
   1   1  13    2.30    0.40
   1   1  13    1.80    0.30
  -2  -1 -13    1.20    0.20
   2   1  13    1.00    0.20
   2   1  13    0.60    0.20
   4  -2 -13    1.50    0.20
  -4   2  13    1.10    0.20
   3  -2 -13   42.50    1.50
   2  -2 -13   11.90    0.60
  -2   2  13   11.50    0.70
   1  -2 -13   49.99    1.80
  -1   2  13   49.10    1.80
   0  -2 -13   63.39    2.20
   0   2  13   59.09    2.30
   0   2  13   63.39    2.30
  -1  -2 -13    5.50    0.40
   1   2  13    5.80    0.50
   1   2  13    5.80    0.50
   1   2  13    5.60    0.30
  -2  -2 -13    8.30    0.40
   2   2  13    7.00    0.50
   3  -3 -13    0.30    0.10
  -3   3  13    0.30    0.20
   2  -3 -13   14.20    0.60
  -2   3  13   13.10    0.70
   1  -3 -13   22.90    0.90
  -1   3  13   22.10    0.90
   0  -3 -13    9.70    0.50
   0   3  13    9.20    0.60
  -1  -3 -13   10.10    0.50
   1   3  13    8.50    0.50
   2  -4 -13    0.20    0.10
  -2   4  13    0.50    0.20
   1  -4 -13    5.00    0.30
  -1   4  13    5.00    0.40
   0  -4 -13    7.50    0.40
  -1 -12  14    0.00    0.10
  -1 -12  14    0.20    0.20
   0  12 -14    4.00    0.20
   0 -12  14    4.00    0.30
  -3 -11  14   16.90    0.70
  -3 -11  14   16.90    0.80
  -2 -11  14    7.90    0.50
  -2 -11  14    7.50    0.60
  -1 -11  14    6.90    0.60
   0 -11  14  131.39    4.60
  -1  11 -14   43.30    1.50
   1 -11  14   39.70    1.60
   1 -11  14   43.10    1.50
  -3 -10  14    1.20    0.30
  -3 -10  14    0.90    0.20
  -2 -10  14    0.20    0.30
  -2 -10  14    0.20    0.20
  -1 -10  14    8.50    0.50
   0  10 -14   84.49    2.80
   0 -10  14   85.59    3.00
   0 -10  14   82.09    3.10
  -1  10 -14    7.40    0.40
   1 -10  14    7.20    0.50
  -2  10 -14    2.90    0.20
   2 -10  14    2.70    0.20
  -4  -9  14    2.70    0.30
  -4  -9  14    2.50    0.20
  -3  -9  14    6.00    0.40
  -3  -9  14    6.60    0.60
  -2  -9  14   14.20    0.90
  -2  -9  14   15.60    0.70
  -1  -9  14   67.99    2.40
  -1  -9  14   62.79    2.50
   0   9 -14    0.50    0.10
   0  -9  14    0.30    0.20
  -1   9 -14    8.40    0.40
   1  -9  14    8.70    0.50
  -2   9 -14    6.10    0.30
   2  -9  14    5.70    0.40
  -4  -8  14   13.10    0.60
  -4  -8  14   14.20    0.80
  -3  -8  14    3.70    0.50
  -3  -8  14    4.70    0.40
  -2  -8  14    3.70    0.40
  -2  -8  14    3.60    0.50
  -1  -8  14    2.70    0.40
  -1  -8  14    2.80    0.40
   0  -8  14    0.90    0.30
   0  -8  14    0.60    0.30
   1  -8  14    9.50    0.60
  -2   8 -14   23.20    0.90
   2  -8  14   23.50    1.00
  -4  -7  14    6.40    0.50
  -4  -7  14    5.40    0.40
  -4  -7  14    5.30    0.40
  -3  -7  14   21.80    0.90
  -3  -7  14   18.60    1.10
  -3  -7  14   23.00    1.10
  -2  -7  14    8.70    0.60
  -2  -7  14    8.90    0.70
  -2  -7  14    7.20    0.50
  -1  -7  14   12.60    0.80
  -1  -7  14   13.40    0.80
   0  -7  14    1.50    0.30
  -1   7 -14    3.40    0.30
   1  -7  14    2.60    0.30
  -2   7 -14    0.90    0.20
   2  -7  14    0.90    0.30
  -3   7 -14   39.60    1.30
   3  -7  14   36.50    1.40
  -5  -6  14    0.10    0.10
  -5  -6  14    0.10    0.20
  -4  -6  14   34.30    1.40
  -4  -6  14   33.50    1.40
  -3  -6  14   29.10    1.30
  -3  -6  14   29.80    1.20
  -3  -6  14   29.20    1.30
  -2  -6  14   15.90    0.90
  -2  -6  14   16.50    0.90
  -2  -6  14   19.20    0.90
  -1  -6  14    0.30    0.30
  -1  -6  14    0.60    0.30
   0  -6  14    1.30    0.30
   0  -6  14    1.20    0.30
  -1   6 -14   44.60    1.60
   1  -6  14   45.60    1.80
  -2   6 -14    0.30    0.20
   2  -6  14    0.30    0.20
  -3   6 -14    0.90    0.10
   3  -6  14    0.60    0.20
  -5  -5  14    8.60    0.40
  -5  -5  14    8.60    0.50
  -4  -5  14    4.60    0.40
  -3  -5  14    4.50    0.50
  -3  -5  14    4.90    0.40
  -3  -5  14    5.30    0.50
  -2  -5  14   44.70    1.80
  -2  -5  14   45.90    1.80
  -1  -5  14    1.90    0.30
  -1  -5  14    2.20    0.30
   0  -5  14   16.30    0.90
   0  -5  14   15.90    0.80
  -1   5 -14    0.90    0.20
   1  -5  14    1.20    0.30
   1  -5  14    1.30    0.30
  -2   5 -14    3.10    0.30
   2  -5  14    2.70    0.30
  -3   5 -14    7.30    0.30
   3  -5  14    6.90    0.40
  -5  -4  14   38.10    1.50
  -4  -4  14    8.10    0.60
  -4  -4  14    7.50    0.50
  -3  -4  14    0.50    0.20
  -3  -4  14    0.50    0.30
  -2  -4  14   18.30    0.90
  -2  -4  14   18.80    1.00
   1   4 -14   44.50    2.40
  -1  -4  14   49.99    1.90
  -1  -4  14   50.99    2.00
   0   4 -14   92.99    3.30
   0  -4  14  100.59    3.50
   0  -4  14   96.49    3.40
  -1   4 -14   48.90    1.80
   1  -4  14   48.80    2.00
   1  -4  14   47.10    1.80
  -2   4 -14    6.90    0.40
   2  -4  14    6.80    0.50
  -3   4 -14    1.30    0.20
   3  -4  14    1.00    0.20
  -5  -3  14   72.49    2.60
  -4  -3  14   19.90    1.00
  -3  -3  14    2.80    0.40
  -2  -3  14   13.90    0.90
  -2  -3  14   12.60    0.70
  -1  -3  14  246.58    8.30
  -1  -3  14  247.58    8.30
   0   3 -14    6.80    0.50
   0  -3  14    6.80    0.60
   0  -3  14    7.60    0.60
  -1   3 -14   51.49    1.90
   1  -3  14   50.69    2.10
   1  -3  14   51.69    2.00
  -2   3 -14   10.30    0.70
   2  -3  14    7.20    0.60
  -3   3 -14    3.00    0.20
   3  -3  14    2.50    0.30
  -4  -2  14   20.40    1.00
  -3  -2  14   12.50    0.80
  -2  -2  14   30.60    1.40
  -2  -2  14   29.60    1.20
   1   2 -14   28.60    1.30
  -1  -2  14   32.60    1.40
  -1  -2  14   31.20    1.30
   0   2 -14   48.50    1.80
   0  -2  14   47.30    1.90
   0  -2  14   47.40    1.80
  -1   2 -14    1.50    0.30
   1  -2  14    2.30    0.40
   1  -2  14    2.50    0.40
  -2   2 -14   40.70    1.50
   2  -2  14   44.40    1.90
  -4  -1  14   21.30    1.00
  -3  -1  14    1.00    0.40
  -2  -1  14   50.09    2.00
   1   1 -14   72.59    2.50
  -1  -1  14   67.39    2.50
  -1  -1  14   68.09    2.50
   0   1 -14   21.10    0.90
   0  -1  14   19.30    1.00
   0  -1  14   21.50    1.00
  -1   1 -14    6.50    0.50
   1  -1  14    6.50    0.50
   1  -1  14    6.60    0.60
  -2   1 -14   94.79    3.10
   2  -1  14   88.19    3.20
   4   0 -14    4.30    0.30
  -4   0  14    4.50    0.40
   3   0 -14   35.90    1.30
  -3   0  14   32.80    1.40
   2   0 -14   17.10    0.70
  -2   0  14   15.50    0.90
   1   0 -14    0.20    0.20
  -1   0  14    0.40    0.30
  -1   0  14    0.40    0.20
   0   0 -14    4.10    0.40
   0   0  14    3.70    0.40
   0   0  14    4.10    0.40
  -1   0 -14    5.80    0.50
   1   0  14    8.20    0.70
   1   0  14    6.90    0.50
  -2   0 -14    0.10    0.10
   2   0  14    0.10    0.20
   4  -1 -14    1.00    0.10
  -4   1  14    1.20    0.20
   3  -1 -14   39.80    1.40
  -3   1  14   36.20    1.50
   2  -1 -14    0.20    0.20
  -2   1  14    0.20    0.20
   1  -1 -14   11.10    0.60
  -1   1  14   11.10    0.60
   0  -1 -14   17.10    0.70
   0   1  14   14.60    0.70
   0   1  14   15.80    0.80
  -1  -1 -14    6.10    0.40
   1   1  14    5.70    0.40
   1   1  14    5.80    0.50
  -3   2  14    0.50    0.20
   2  -2 -14    0.80    0.20
  -2   2  14    0.70    0.20
   1  -2 -14    6.20    0.40
  -1   2  14    5.50    0.40
   0  -2 -14   50.79    1.80
   0   2  14   51.09    1.90
  -1  -2 -14    0.20    0.10
   2  -3 -14    2.80    0.20
  -2   3  14    2.60    0.30
   1  -3 -14   76.19    2.50
  -1   3  14   72.69    2.60
  -2 -11  15   21.60    0.90
  -2 -11  15   21.30    0.80
  -1 -11  15   88.39    3.00
  -1 -11  15   85.39    3.10
   0 -11  15   32.20    1.50
   0 -11  15   35.10    1.20
  -3 -10  15    2.00    0.30
  -3 -10  15    1.60    0.20
  -2 -10  15    1.00    0.20
  -2 -10  15    1.00    0.30
  -1 -10  15   14.50    0.80
  -1 -10  15   14.50    0.70
   0  10 -15    7.10    0.30
   0 -10  15    6.80    0.50
   0 -10  15    6.70    0.40
  -1  10 -15    0.10    0.10
   1 -10  15    0.10    0.10
  -3  -9  15    1.90    0.30
  -3  -9  15    1.90    0.20
  -2  -9  15   19.50    0.80
  -2  -9  15   18.70    0.90
  -1  -9  15    5.90    0.40
  -1  -9  15    5.10    0.50
   0  -9  15    0.60    0.20
  -1   9 -15    6.70    0.30
   1  -9  15    6.90    0.40
  -4  -8  15    2.40    0.30
  -3  -8  15    1.40    0.30
  -3  -8  15    1.40    0.20
  -2  -8  15    2.60    0.30
  -2  -8  15    2.90    0.40
  -1  -8  15    4.20    0.40
   0   8 -15    4.40    0.30
   0  -8  15    3.10    0.30
  -1   8 -15    2.10    0.20
   1  -8  15    1.70    0.30
  -2   8 -15    9.30    0.40
   2  -8  15    7.90    0.50
  -4  -7  15    9.90    0.50
  -3  -7  15    6.60    0.50
  -3  -7  15    4.90    0.50
  -3  -7  15    6.50    0.40
  -2  -7  15   10.80    0.60
  -1  -7  15   10.70    0.60
   0   7 -15    0.70    0.20
   0  -7  15    0.50    0.20
  -1   7 -15   13.60    0.60
   1  -7  15   15.20    0.80
  -2   7 -15    9.20    0.40
   2  -7  15    9.60    0.50
  -4  -6  15    7.40    0.50
  -4  -6  15    7.10    0.50
  -3  -6  15    6.00    0.40
  -3  -6  15    5.70    0.50
  -2  -6  15   48.30    1.70
  -2  -6  15   40.60    1.70
  -1  -6  15   10.70    0.60
  -1  -6  15    9.40    0.60
   0   6 -15    0.80    0.20
   0  -6  15    0.40    0.20
   0  -6  15    1.00    0.30
  -1   6 -15   23.90    0.90
   1  -6  15   24.50    1.10
  -2   6 -15   39.40    1.40
   2  -6  15   39.00    1.50
  -4  -5  15    0.60    0.20
  -3  -5  15    0.20    0.10
  -3  -5  15   -0.10    0.50
  -2  -5  15   21.00    1.00
  -2  -5  15   25.70    1.00
  -1  -5  15    0.70    0.30
  -1  -5  15    1.10    0.20
   0   5 -15   51.09    1.90
   0  -5  15   54.89    2.00
   0  -5  15   52.09    1.90
  -1   5 -15    5.50    0.40
   1  -5  15    5.90    0.50
  -2   5 -15    2.20    0.20
   2  -5  15    2.00    0.30
  -4  -4  15    6.40    0.50
  -3  -4  15    1.40    0.30
  -2  -4  15    0.30    0.30
  -2  -4  15    0.30    0.20
  -1  -4  15    2.20    0.40
  -1  -4  15    3.10    0.40
   0   4 -15   93.69    3.20
   0  -4  15   90.39    3.20
   0  -4  15   95.19    3.30
  -1   4 -15   68.99    2.40
   1  -4  15   68.69    2.50
   1  -4  15   69.89    2.60
  -2   4 -15    4.90    0.30
   2  -4  15    4.40    0.40
  -4  -3  15    1.50    0.30
  -3  -3  15   28.20    1.20
  -2  -3  15   13.90    0.70
  -2  -3  15   13.20    0.80
  -1  -3  15   56.49    2.10
  -1  -3  15   57.49    2.10
   0   3 -15    0.70    0.20
   0  -3  15    1.10    0.30
   0  -3  15    0.70    0.20
  -1   3 -15   39.30    1.50
   1  -3  15   44.70    1.80
   1  -3  15   37.20    1.50
  -2   3 -15    1.40    0.20
   2  -3  15    1.70    0.30
  -4  -2  15    0.10    0.20
  -3  -2  15   49.10    2.00
  -2  -2  15  184.18    6.20
   1   2 -15   11.20    0.60
  -1  -2  15   11.00    0.80
  -1  -2  15   11.50    0.70
   0   2 -15   16.90    0.80
   0  -2  15   16.40    0.80
   0  -2  15   17.00    0.80
  -1   2 -15    0.00    0.10
   1  -2  15    0.20    0.20
   1  -2  15    0.10    0.20
  -2   2 -15    1.90    0.20
   2  -2  15    2.00    0.20
  -4  -1  15    4.50    0.40
  -3  -1  15    4.30    0.50
   2   1 -15    9.00    0.50
  -2  -1  15    9.10    0.60
   1   1 -15   48.50    1.70
  -1  -1  15   48.30    1.80
  -1  -1  15   46.20    1.70
   0   1 -15    6.90    0.40
   0  -1  15    7.20    0.50
  -1   1 -15   21.40    0.80
   1  -1  15   21.20    0.90
   1  -1  15   20.50    0.90
   3   0 -15    4.80    0.30
  -3   0  15    4.20    0.40
   2   0 -15   42.60    1.50
  -2   0  15   41.10    1.60
   1   0 -15   10.40    0.50
  -1   0  15   11.20    0.60
   0   0 -15   22.60    0.90
   0   0  15   19.20    0.90
   0   0  15   22.30    0.90
  -1   0 -15    0.30    0.10
   1   0  15    0.40    0.20
   2  -1 -15   12.90    0.60
  -2   1  15   13.20    0.60
   1  -1 -15   13.40    0.60
  -1   1  15   13.50    0.60
   0  -1 -15    4.70    0.30
   0   1  15    3.90    0.40
  -1 -10  16   13.40    0.60
  -2  -9  16    1.60    0.20
  -1  -9  16    8.00    0.50
   0   9 -16    3.60    0.30
   0  -9  16    4.10    0.30
  -3  -8  16    0.10    0.10
  -2  -8  16   28.00    1.10
  -1  -8  16    7.90    0.50
   0   8 -16    2.50    0.20
   0  -8  16    2.20    0.30
  -1   8 -16    0.20    0.10
   1  -8  16    0.20    0.20
  -3  -7  16   29.20    1.10
  -2  -7  16    3.20    0.30
  -1  -7  16   19.50    0.90
   0   7 -16   22.50    0.90
   0  -7  16   26.20    1.00
  -1   7 -16    0.10    0.10
   1  -7  16    0.30    0.20
  -3  -6  16    1.40    0.40
  -2  -6  16    3.20    0.30
  -1  -6  16    4.00    0.40
  -1  -6  16    4.90    0.40
   0   6 -16   15.30    0.60
   0  -6  16   15.30    0.80
  -1   6 -16  109.69    3.80
   1  -6  16  117.99    3.90
  -3  -5  16   20.50    0.90
  -2  -5  16   -0.10    0.20
  -2  -5  16    0.20    0.10
  -1  -5  16    4.70    0.40
  -1  -5  16    4.50    0.40
   0  -5  16   56.69    2.10
   0  -5  16   63.29    2.20
  -1   5 -16   91.89    3.10
   1  -5  16   91.79    3.20
  -3  -4  16   33.80    1.30
  -2  -4  16    1.00    0.30
  -2  -4  16    1.20    0.20
  -1  -4  16    9.30    0.50
  -1  -4  16    9.10    0.60
   0   4 -16   61.69    2.10
   0  -4  16   61.29    2.20
   0  -4  16   60.09    2.20
  -1   4 -16   15.90    0.70
   1  -4  16   16.90    0.80
  -3  -3  16    5.40    0.40
  -2  -3  16    7.80    0.50
   1   3 -16  112.49    3.80
  -1  -3  16  112.79    3.90
  -1  -3  16  114.59    3.90
   0   3 -16    5.90    0.40
   0  -3  16    6.10    0.40
   0  -3  16    5.70    0.50
  -1   3 -16   17.30    0.70
   1  -3  16   16.80    0.80
  -3  -2  16    8.00    0.50
  -2  -2  16   56.29    2.00
   1   2 -16  113.29    3.70
  -1  -2  16  102.79    3.70
  -1  -2  16  115.09    3.80
   0   2 -16   15.10    0.70
   0  -2  16   15.80    0.70
   0  -2  16   16.00    0.70
   2   1 -16   12.70    0.70
  -2  -1  16   11.40    0.60
   1   1 -16   10.80    0.50
  -1  -1  16   11.90    0.60
   0   1 -16   16.80    0.70
   0  -1  16   17.80    0.80
   0  -1  16   16.30    0.70
  -1  -8  17   29.10    1.10
  -2  -7  17    0.60    0.10
  -1  -7  17    2.50    0.20
   0  -7  17    0.60    0.20
  -2  -6  17    0.10    0.10
  -1  -6  17    0.20    0.10
   0  -6  17    0.20    0.20
  -2  -5  17    0.50    0.20
  -1  -5  17    0.10    0.20
  -1  -5  17    0.20    0.20
   0   5 -17   28.00    1.00
   0  -5  17   29.30    1.10
  -2  -4  17   37.70    1.50
  -1  -4  17   31.50    1.20
  -1  -4  17   25.50    1.00
   0   0   0    0.00    0.00

_computing_structure_solution     'SHELXT 2018/2 (Sheldrick, 2018)'
;
_shelx_hkl_checksum              14160
_olex2_submission_special_instructions 'No special instructions were received'
loop_
_space_group_symop_operation_xyz
'x, y, z'
'-x, -y, -z'
loop_
_atom_site_label
_atom_site_type_symbol
_atom_site_fract_x
_atom_site_fract_y
_atom_site_fract_z
_atom_site_U_iso_or_equiv
_atom_site_adp_type
_atom_site_occupancy
_atom_site_site_symmetry_order
_atom_site_calc_flag
_atom_site_refinement_flags_posn
_atom_site_refinement_flags_adp
_atom_site_refinement_flags_occupancy
_atom_site_disorder_assembly
_atom_site_disorder_group
O2 O 0.74840(14) 0.44606(7) 0.04464(6) 0.0268(2) Uani 1 1 d . . . . .
O1 O 0.23078(12) 0.36518(7) 0.26760(6) 0.0236(2) Uani 1 1 d . . . . .
C18 C 0.38129(18) 0.44859(10) 0.35697(9) 0.0219(2) Uani 1 1 d . . . . .
H18A H 0.361325 0.431416 0.417180 0.026 Uiso 1 1 calc R U . . .
H18B H 0.341602 0.533339 0.370362 0.026 Uiso 1 1 calc R U . . .
C11 C 0.67995(17) 0.52038(10) 0.11795(8) 0.0205(2) Uani 1 1 d . . . . .
C12 C 0.55393(17) 0.47589(10) 0.18145(8) 0.0196(2) Uani 1 1 d . . . . .
C2 C 0.72929(18) 0.65477(10) 0.14797(9) 0.0219(2) Uani 1 1 d . . . . .
C17 C 0.62410(18) 0.43994(10) 0.34600(8) 0.0207(2) Uani 1 1 d . . . . .
C1 C 0.89402(18) 0.69104(10) 0.10782(8) 0.0224(2) Uani 1 1 d . . . . .
H1 H 0.973010 0.630519 0.063437 0.027 Uiso 1 1 calc R U . . .
C9 C 0.94854(19) 0.81581(11) 0.13091(9) 0.0250(3) Uani 1 1 d . . . . .
C20 C 0.71995(18) 0.29363(10) 0.43313(8) 0.0220(2) Uani 1 1 d . . . . .
C19 C 0.76392(18) 0.37156(10) 0.37869(8) 0.0219(2) Uani 1 1 d . . . . .
H19 H 0.911716 0.373247 0.365087 0.026 Uiso 1 1 calc R U . . .
C14 C 0.24592(18) 0.37486(11) 0.17253(9) 0.0234(2) Uani 1 1 d . . . . .
H14 H 0.111235 0.333146 0.118136 0.028 Uiso 1 1 calc R U . . .
C13 C 0.30243(18) 0.50529(11) 0.18113(9) 0.0231(2) Uani 1 1 d . . . . .
H13A H 0.276635 0.570815 0.245873 0.028 Uiso 1 1 calc R U . . .
H13B H 0.231303 0.520764 0.120600 0.028 Uiso 1 1 calc R U . . .
C16 C 0.69955(18) 0.51269(10) 0.28976(8) 0.0212(2) Uani 1 1 d . . . . .
H16A H 0.858106 0.499271 0.283031 0.025 Uiso 1 1 calc R U . . .
H16B H 0.691052 0.601066 0.330578 0.025 Uiso 1 1 calc R U . . .
C21 C 0.5114(2) 0.23126(11) 0.41853(10) 0.0283(3) Uani 1 1 d . . . . .
H21 H 0.389833 0.235019 0.369032 0.034 Uiso 1 1 calc R U . . .
C25 C 0.8976(2) 0.27998(11) 0.50210(9) 0.0270(3) Uani 1 1 d . . . . .
H25 H 1.042144 0.317769 0.510000 0.032 Uiso 1 1 calc R U . . .
C15 C 0.46780(18) 0.33821(10) 0.13233(9) 0.0226(2) Uani 1 1 d . . . . .
H15A H 0.448772 0.300845 0.056372 0.027 Uiso 1 1 calc R U . . .
H15B H 0.555477 0.287579 0.163196 0.027 Uiso 1 1 calc R U . . .
C10 C 0.8285(2) 0.90586(11) 0.19654(10) 0.0305(3) Uani 1 1 d . . . . .
C3 C 0.6129(2) 0.74577(11) 0.21485(10) 0.0288(3) Uani 1 1 d . . . . .
H3 H 0.500632 0.722032 0.243935 0.035 Uiso 1 1 calc R U . . .
C8 C 1.1168(2) 0.85365(12) 0.08892(10) 0.0325(3) Uani 1 1 d . . . . .
H8 H 1.199423 0.794304 0.045593 0.039 Uiso 1 1 calc R U . . .
C4 C 0.6608(2) 0.86698(12) 0.23774(11) 0.0344(3) Uani 1 1 d . . . . .
H4 H 0.580099 0.926398 0.282134 0.041 Uiso 1 1 calc R U . . .
C22 C 0.4819(2) 0.16398(12) 0.47622(12) 0.0364(3) Uani 1 1 d . . . . .
H22 H 0.339128 0.123528 0.466909 0.044 Uiso 1 1 calc R U . . .
C24 C 0.8683(2) 0.21241(12) 0.55952(10) 0.0345(3) Uani 1 1 d . . . . .
H24 H 0.991062 0.205342 0.606936 0.041 Uiso 1 1 calc R U . . .
C5 C 0.8794(3) 1.03083(13) 0.21749(12) 0.0429(4) Uani 1 1 d . . . . .
H5 H 0.800277 1.091937 0.261276 0.051 Uiso 1 1 calc R U . . .
C23 C 0.6585(3) 0.15530(12) 0.54715(11) 0.0383(3) Uani 1 1 d . . . . .
H23 H 0.636147 0.110407 0.587192 0.046 Uiso 1 1 calc R U . . .
C7 C 1.1603(3) 0.97514(13) 0.11062(12) 0.0414(3) Uani 1 1 d . . . . .
H7 H 1.272119 0.999590 0.081723 0.050 Uiso 1 1 calc R U . . .
C6 C 1.0406(3) 1.06429(13) 0.17547(13) 0.0459(4) Uani 1 1 d . . . . .
H6 H 1.072509 1.148409 0.190045 0.055 Uiso 1 1 calc R U . . .
loop_
_atom_site_aniso_label
_atom_site_aniso_U_11
_atom_site_aniso_U_22
_atom_site_aniso_U_33
_atom_site_aniso_U_23
_atom_site_aniso_U_13
_atom_site_aniso_U_12
O2 0.0328(4) 0.0240(4) 0.0253(4) 0.0085(3) 0.0134(3) 0.0049(3)
O1 0.0196(4) 0.0286(4) 0.0240(4) 0.0118(3) 0.0048(3) -0.0010(3)
C18 0.0215(5) 0.0255(6) 0.0198(5) 0.0091(4) 0.0065(4) 0.0034(4)
C11 0.0190(5) 0.0241(6) 0.0194(5) 0.0099(5) 0.0033(4) 0.0048(4)
C12 0.0197(5) 0.0206(5) 0.0190(5) 0.0080(4) 0.0049(4) 0.0034(4)
C2 0.0238(5) 0.0235(6) 0.0196(5) 0.0101(5) 0.0033(4) 0.0035(4)
C17 0.0202(5) 0.0239(6) 0.0156(5) 0.0055(4) 0.0032(4) -0.0006(4)
C1 0.0228(5) 0.0244(6) 0.0199(5) 0.0093(5) 0.0025(4) 0.0035(4)
C9 0.0266(6) 0.0259(6) 0.0218(6) 0.0108(5) -0.0003(4) -0.0011(5)
C20 0.0246(5) 0.0213(5) 0.0194(5) 0.0061(4) 0.0073(4) 0.0048(4)
C19 0.0193(5) 0.0262(6) 0.0189(5) 0.0075(5) 0.0042(4) -0.0003(4)
C14 0.0202(5) 0.0284(6) 0.0213(5) 0.0108(5) 0.0009(4) 0.0001(4)
C13 0.0201(5) 0.0281(6) 0.0236(6) 0.0128(5) 0.0043(4) 0.0045(4)
C16 0.0188(5) 0.0245(6) 0.0203(5) 0.0089(4) 0.0034(4) -0.0001(4)
C21 0.0260(6) 0.0254(6) 0.0337(7) 0.0109(5) 0.0080(5) 0.0035(5)
C25 0.0286(6) 0.0264(6) 0.0258(6) 0.0102(5) 0.0050(5) 0.0043(5)
C15 0.0248(5) 0.0224(6) 0.0194(5) 0.0071(4) 0.0043(4) 0.0012(4)
C10 0.0400(7) 0.0234(6) 0.0259(6) 0.0084(5) 0.0046(5) 0.0009(5)
C3 0.0330(6) 0.0264(6) 0.0295(6) 0.0111(5) 0.0127(5) 0.0059(5)
C8 0.0321(6) 0.0322(7) 0.0331(7) 0.0137(6) 0.0050(5) -0.0034(5)
C4 0.0454(7) 0.0254(6) 0.0335(7) 0.0086(5) 0.0177(6) 0.0099(5)
C22 0.0363(7) 0.0282(7) 0.0521(8) 0.0187(6) 0.0207(6) 0.0047(5)
C24 0.0455(7) 0.0313(7) 0.0292(7) 0.0155(6) 0.0051(6) 0.0094(6)
C5 0.0631(9) 0.0230(7) 0.0393(8) 0.0073(6) 0.0140(7) 0.0018(6)
C23 0.0561(9) 0.0295(7) 0.0415(8) 0.0214(6) 0.0234(7) 0.0113(6)
C7 0.0464(8) 0.0354(8) 0.0433(8) 0.0176(6) 0.0070(6) -0.0115(6)
C6 0.0643(10) 0.0252(7) 0.0445(8) 0.0124(6) 0.0053(7) -0.0107(6)
loop_
_atom_type_symbol
_atom_type_description
_atom_type_scat_dispersion_real
_atom_type_scat_dispersion_imag
_atom_type_scat_source
C C 0.0181 0.0091 'International Tables Vol C Tables 4.2.6.8 and 6.1.1.4'
H H 0.0000 0.0000 'International Tables Vol C Tables 4.2.6.8 and 6.1.1.4'
O O 0.0492 0.0322 'International Tables Vol C Tables 4.2.6.8 and 6.1.1.4'
loop_
_geom_angle_atom_site_label_1
_geom_angle_atom_site_label_2
_geom_angle_atom_site_label_3
_geom_angle
_geom_angle_site_symmetry_1
_geom_angle_site_symmetry_3
_geom_angle_publ_flag
C14 O1 C18 115.84(8) . . ?
O1 C18 H18A 109.0 . . ?
O1 C18 H18B 109.0 . . ?
O1 C18 C17 113.09(9) . . ?
H18A C18 H18B 107.8 . . ?
C17 C18 H18A 109.0 . . ?
C17 C18 H18B 109.0 . . ?
O2 C11 C12 119.62(10) . . ?
O2 C11 C2 120.08(9) . . ?
C2 C11 C12 120.24(9) . . ?
C11 C12 C13 116.88(9) . . ?
C11 C12 C16 108.72(9) . . ?
C11 C12 C15 116.17(9) . . ?
C16 C12 C13 114.69(8) . . ?
C16 C12 C15 112.00(9) . . ?
C15 C12 C13 87.18(8) . . ?
C1 C2 C11 118.12(10) . . ?
C1 C2 C3 118.85(11) . . ?
C3 C2 C11 123.02(10) . . ?
C18 C17 C16 114.20(9) . . ?
C19 C17 C18 124.66(10) . . ?
C19 C17 C16 121.10(9) . . ?
C2 C1 H1 119.1 . . ?
C2 C1 C9 121.73(10) . . ?
C9 C1 H1 119.1 . . ?
C1 C9 C10 118.91(10) . . ?
C1 C9 C8 121.95(11) . . ?
C10 C9 C8 119.13(11) . . ?
C21 C20 C19 123.97(11) . . ?
C25 C20 C19 117.91(10) . . ?
C25 C20 C21 118.12(11) . . ?
C17 C19 C20 128.77(10) . . ?
C17 C19 H19 115.6 . . ?
C20 C19 H19 115.6 . . ?
O1 C14 H14 111.8 . . ?
O1 C14 C13 115.33(9) . . ?
O1 C14 C15 115.86(9) . . ?
C13 C14 H14 111.8 . . ?
C13 C14 C15 88.22(8) . . ?
C15 C14 H14 111.8 . . ?
C12 C13 H13A 113.9 . . ?
C12 C13 H13B 113.9 . . ?
C14 C13 C12 88.63(8) . . ?
C14 C13 H13A 113.9 . . ?
C14 C13 H13B 113.9 . . ?
H13A C13 H13B 111.1 . . ?
C12 C16 H16A 109.2 . . ?
C12 C16 H16B 109.2 . . ?
C17 C16 C12 112.00(9) . . ?
C17 C16 H16A 109.2 . . ?
C17 C16 H16B 109.2 . . ?
H16A C16 H16B 107.9 . . ?
C20 C21 H21 119.9 . . ?
C22 C21 C20 120.23(12) . . ?
C22 C21 H21 119.9 . . ?
C20 C25 H25 119.2 . . ?
C24 C25 C20 121.55(11) . . ?
C24 C25 H25 119.2 . . ?
C12 C15 H15A 113.9 . . ?
C12 C15 H15B 113.9 . . ?
C14 C15 C12 88.74(8) . . ?
C14 C15 H15A 113.9 . . ?
C14 C15 H15B 113.9 . . ?
H15A C15 H15B 111.1 . . ?
C4 C10 C9 118.60(11) . . ?
C4 C10 C5 122.56(12) . . ?
C5 C10 C9 118.84(12) . . ?
C2 C3 H3 119.7 . . ?
C4 C3 C2 120.64(11) . . ?
C4 C3 H3 119.7 . . ?
C9 C8 H8 119.9 . . ?
C7 C8 C9 120.28(13) . . ?
C7 C8 H8 119.9 . . ?
C10 C4 H4 119.4 . . ?
C3 C4 C10 121.25(11) . . ?
C3 C4 H4 119.4 . . ?
C21 C22 H22 119.7 . . ?
C23 C22 C21 120.68(12) . . ?
C23 C22 H22 119.7 . . ?
C25 C24 H24 120.2 . . ?
C23 C24 C25 119.54(13) . . ?
C23 C24 H24 120.2 . . ?
C10 C5 H5 119.6 . . ?
C6 C5 C10 120.71(13) . . ?
C6 C5 H5 119.6 . . ?
C22 C23 C24 119.77(12) . . ?
C22 C23 H23 120.1 . . ?
C24 C23 H23 120.1 . . ?
C8 C7 H7 119.7 . . ?
C8 C7 C6 120.52(12) . . ?
C6 C7 H7 119.7 . . ?
C5 C6 C7 120.53(13) . . ?
C5 C6 H6 119.7 . . ?
C7 C6 H6 119.7 . . ?
loop_
_geom_bond_atom_site_label_1
_geom_bond_atom_site_label_2
_geom_bond_distance
_geom_bond_site_symmetry_2
_geom_bond_publ_flag
O2 C11 1.2191(14) . ?
O1 C18 1.4357(14) . ?
O1 C14 1.4344(13) . ?
C18 H18A 0.9900 . ?
C18 H18B 0.9900 . ?
C18 C17 1.5064(14) . ?
C11 C12 1.5179(14) . ?
C11 C2 1.4973(16) . ?
C12 C13 1.5668(14) . ?
C12 C16 1.5480(15) . ?
C12 C15 1.5528(15) . ?
C2 C1 1.3777(16) . ?
C2 C3 1.4204(16) . ?
C17 C19 1.3349(16) . ?
C17 C16 1.5104(14) . ?
C1 H1 0.9500 . ?
C1 C9 1.4119(16) . ?
C9 C10 1.4203(17) . ?
C9 C8 1.4212(17) . ?
C20 C19 1.4771(15) . ?
C20 C21 1.4023(16) . ?
C20 C25 1.3942(17) . ?
C19 H19 0.9500 . ?
C14 H14 1.0000 . ?
C14 C13 1.5395(15) . ?
C14 C15 1.5507(15) . ?
C13 H13A 0.9900 . ?
C13 H13B 0.9900 . ?
C16 H16A 0.9900 . ?
C16 H16B 0.9900 . ?
C21 H21 0.9500 . ?
C21 C22 1.3899(18) . ?
C25 H25 0.9500 . ?
C25 C24 1.3892(17) . ?
C15 H15A 0.9900 . ?
C15 H15B 0.9900 . ?
C10 C4 1.4169(18) . ?
C10 C5 1.4174(18) . ?
C3 H3 0.9500 . ?
C3 C4 1.3649(18) . ?
C8 H8 0.9500 . ?
C8 C7 1.3677(19) . ?
C4 H4 0.9500 . ?
C22 H22 0.9500 . ?
C22 C23 1.385(2) . ?
C24 H24 0.9500 . ?
C24 C23 1.388(2) . ?
C5 H5 0.9500 . ?
C5 C6 1.363(2) . ?
C23 H23 0.9500 . ?
C7 H7 0.9500 . ?
C7 C6 1.409(2) . ?
C6 H6 0.9500 . ?
loop_
_geom_torsion_atom_site_label_1
_geom_torsion_atom_site_label_2
_geom_torsion_atom_site_label_3
_geom_torsion_atom_site_label_4
_geom_torsion
_geom_torsion_site_symmetry_1
_geom_torsion_site_symmetry_2
_geom_torsion_site_symmetry_3
_geom_torsion_site_symmetry_4
_geom_torsion_publ_flag
O2 C11 C12 C13 -115.94(12) . . . . ?
O2 C11 C12 C16 112.28(11) . . . . ?
O2 C11 C12 C15 -15.12(15) . . . . ?
O2 C11 C2 C1 -15.10(16) . . . . ?
O2 C11 C2 C3 164.30(11) . . . . ?
O1 C18 C17 C19 -94.56(13) . . . . ?
O1 C18 C17 C16 83.11(12) . . . . ?
O1 C14 C13 C12 97.77(9) . . . . ?
O1 C14 C15 C12 -97.10(10) . . . . ?
C18 O1 C14 C13 -34.26(12) . . . . ?
C18 O1 C14 C15 66.77(12) . . . . ?
C18 C17 C19 C20 -1.54(19) . . . . ?
C18 C17 C16 C12 -56.35(12) . . . . ?
C11 C12 C13 C14 138.17(10) . . . . ?
C11 C12 C16 C17 -162.08(9) . . . . ?
C11 C12 C15 C14 -138.68(9) . . . . ?
C11 C2 C1 C9 179.00(10) . . . . ?
C11 C2 C3 C4 -178.38(12) . . . . ?
C12 C11 C2 C1 162.07(10) . . . . ?
C12 C11 C2 C3 -18.53(16) . . . . ?
C2 C11 C12 C13 66.88(13) . . . . ?
C2 C11 C12 C16 -64.91(12) . . . . ?
C2 C11 C12 C15 167.69(9) . . . . ?
C2 C1 C9 C10 -0.59(17) . . . . ?
C2 C1 C9 C8 -179.38(11) . . . . ?
C2 C3 C4 C10 -0.6(2) . . . . ?
C1 C2 C3 C4 1.02(19) . . . . ?
C1 C9 C10 C4 1.02(18) . . . . ?
C1 C9 C10 C5 -178.37(12) . . . . ?
C1 C9 C8 C7 178.04(12) . . . . ?
C9 C10 C4 C3 -0.5(2) . . . . ?
C9 C10 C5 C6 0.0(2) . . . . ?
C9 C8 C7 C6 0.6(2) . . . . ?
C20 C21 C22 C23 -1.4(2) . . . . ?
C20 C25 C24 C23 1.04(19) . . . . ?
C19 C17 C16 C12 121.41(11) . . . . ?
C19 C20 C21 C22 -177.24(11) . . . . ?
C19 C20 C25 C24 177.33(11) . . . . ?
C14 O1 C18 C17 -56.14(12) . . . . ?
C13 C12 C16 C17 64.97(12) . . . . ?
C13 C12 C15 C14 -19.98(8) . . . . ?
C13 C14 C15 C12 20.33(8) . . . . ?
C16 C12 C13 C14 -92.84(10) . . . . ?
C16 C12 C15 C14 95.56(9) . . . . ?
C16 C17 C19 C20 -179.06(11) . . . . ?
C21 C20 C19 C17 32.10(19) . . . . ?
C21 C20 C25 C24 -3.56(18) . . . . ?
C21 C22 C23 C24 -1.2(2) . . . . ?
C25 C20 C19 C17 -148.86(12) . . . . ?
C25 C20 C21 C22 3.72(17) . . . . ?
C25 C24 C23 C22 1.4(2) . . . . ?
C15 C12 C13 C14 20.13(8) . . . . ?
C15 C12 C16 C17 -32.34(12) . . . . ?
C15 C14 C13 C12 -20.14(8) . . . . ?
C10 C9 C8 C7 -0.76(19) . . . . ?
C10 C5 C6 C7 -0.2(3) . . . . ?
C3 C2 C1 C9 -0.43(17) . . . . ?
C8 C9 C10 C4 179.85(12) . . . . ?
C8 C9 C10 C5 0.46(19) . . . . ?
C8 C7 C6 C5 -0.1(3) . . . . ?
C4 C10 C5 C6 -179.36(15) . . . . ?
C5 C10 C4 C3 178.91(14) . . . . ?
