#------------------------------------------------------------------------------
#$Date: 2025-08-19 12:35:14 +0300 (Tue, 19 Aug 2025) $
#$Revision: 301801 $
#$URL: file:///home/coder/svn-repositories/cod/cif/2/02/04/2020424.cif $
#------------------------------------------------------------------------------
#
# This file is available in the Crystallography Open Database (COD),
# http://www.crystallography.net/. The original data for this entry
# were provided by IUCr Journals, http://journals.iucr.org/.
#
# The file may be used within the scientific community so long as
# proper attribution is given to the journal article from which the
# data were obtained.
#
data_2020424
loop_
_publ_author_name
'Ben Nasr, Mahjouba'
'Aubert, Emmanuel'
'Espinosa, Enrique'
_publ_section_title
;
 A comparative study of two polymorphs of
 bis(1-hydroxy-2-methylpropan-2-aminium) carbonate
;
_journal_coeditor_code           FM3039
_journal_issue                   3
_journal_name_full               'Acta Crystallographica Section C'
_journal_page_first              225
_journal_page_last               229
_journal_paper_doi               10.1107/S2053229616002849
_journal_volume                  72
_journal_year                    2016
_chemical_formula_iupac          '2C4 H12 N O +, C O3 2-'
_chemical_formula_moiety         '2(C4 H12 N O +), C O3 2-'
_chemical_formula_sum            'C9 H24 N2 O5'
_chemical_formula_weight         240.30
_chemical_name_systematic
;
Bis(1-hydroxy-2-methylpropan-2-aminium) carbonate
;
_space_group_crystal_system      monoclinic
_space_group_IT_number           15
_space_group_name_Hall           '-C 2yc'
_space_group_name_H-M_alt        'C 1 2/c 1'
_symmetry_space_group_name_Hall  '-C 2yc'
_symmetry_space_group_name_H-M   'C 1 2/c 1'
_audit_creation_method           SHELXL-2014
_cell_angle_alpha                90
_cell_angle_beta                 104.075(9)
_cell_angle_gamma                90
_cell_formula_units_Z            4
_cell_length_a                   10.6114(9)
_cell_length_b                   6.3184(7)
_cell_length_c                   19.063(2)
_cell_measurement_reflns_used    2163
_cell_measurement_temperature    100(2)
_cell_measurement_theta_max      75.9380
_cell_measurement_theta_min      8.2340
_cell_volume                     1239.7(2)
_computing_cell_refinement
;
(CrysAlis PRO; Agilent, 2014)
;
_computing_data_collection
;
(CrysAlis PRO; Agilent, 2014)
;
_computing_data_reduction
;
(CrysAlis PRO; Agilent, 2014)
;
_computing_molecular_graphics
;
Mercury (Macrae <i>et al.</i>, 2006)
;
_computing_publication_material
;
SHELXL2014 (Sheldrick, 2015)
;
_computing_structure_refinement
;
SHELXL2014 (Sheldrick, 2015)
;
_computing_structure_solution
;
SIR92 (Altomare <i>et al.</i>,  1994)
;
_diffrn_ambient_temperature      100(2)
_diffrn_detector_area_resol_mean 10.4508
_diffrn_measured_fraction_theta_full 1.000
_diffrn_measured_fraction_theta_max 0.992
_diffrn_measurement_device_type  'Oxford SuperNova'
_diffrn_measurement_method       'omega scans'
_diffrn_radiation_type           CuK\a
_diffrn_radiation_wavelength     1.54184
_diffrn_reflns_av_R_equivalents  0.0451
_diffrn_reflns_limit_h_max       13
_diffrn_reflns_limit_h_min       -13
_diffrn_reflns_limit_k_max       7
_diffrn_reflns_limit_k_min       -7
_diffrn_reflns_limit_l_max       23
_diffrn_reflns_limit_l_min       -23
_diffrn_reflns_number            4510
_diffrn_reflns_theta_full        67.684
_diffrn_reflns_theta_max         76.923
_diffrn_reflns_theta_min         4.783
_exptl_absorpt_coefficient_mu    0.868
_exptl_absorpt_correction_T_max  0.950
_exptl_absorpt_correction_T_min  0.895
_exptl_absorpt_correction_type   analytical
_exptl_absorpt_process_details
;
[CrysAlis PRO (Agilent, 2014), based on expressions derived by
Clark & Reid (1995)]
;
_exptl_crystal_colour            colourless
_exptl_crystal_density_diffrn    1.287
_exptl_crystal_description       block
_exptl_crystal_F_000             528
_exptl_crystal_size_max          0.1747
_exptl_crystal_size_mid          0.1221
_exptl_crystal_size_min          0.0741
_refine_diff_density_max         0.373
_refine_diff_density_min         -0.302
_refine_ls_extinction_method     none
_refine_ls_goodness_of_fit_ref   1.090
_refine_ls_hydrogen_treatment    constr
_refine_ls_matrix_type           full
_refine_ls_number_parameters     90
_refine_ls_number_reflns         1296
_refine_ls_number_restraints     0
_refine_ls_restrained_S_all      1.090
_refine_ls_R_factor_all          0.0605
_refine_ls_R_factor_gt           0.0532
_refine_ls_shift/su_max          0.000
_refine_ls_shift/su_mean         0.000
_refine_ls_structure_factor_coef Fsqd
_refine_ls_weighting_details
'w=1/[\s^2^(Fo^2^)+(0.0927P)^2^+1.3673P] where P=(Fo^2^+2Fc^2^)/3'
_refine_ls_weighting_scheme      calc
_refine_ls_wR_factor_gt          0.1514
_refine_ls_wR_factor_ref         0.1590
_reflns_number_gt                1089
_reflns_number_total             1296
_reflns_threshold_expression     'I > 2\s(I)'
_cod_data_source_file            fm3039sup1.cif
_cod_data_source_block           I
_cod_depositor_comments          'Adding full bibliography for 2020424.cif.'
_cod_database_code               2020424
_cod_database_fobs_code          2020424
_shelx_space_group_comment
;
The symmetry employed for this shelxl refinement is uniquely defined
by the following loop, which should always be used as a source of
symmetry information in preference to the above space-group names.
They are only intended as comments.
;
_shelx_hkl_file
;
   0   0  -2 95538.3 1531.92   1
   0   0  -3 38.1850 252.202   1
   0   0  -4 106329. 2318.81   1
   0   0   5 37.4198 93.9412   3
   0   0  -5-180.038 430.678   1
   0   0   6 999999. 3984.59   3
   0   0  -6 974657. 8542.34   1
   0   0  -7 271.658 395.414   1
   0   0   7 61.8591 101.843   3
   0   0   8 45101.9 998.466   3
   0   0  -8 41573.8 1890.91   1
   0   0  -9 96.7587 327.177   1
   0   0   9 89.4647 101.768   3
   0   0  10 169368. 2222.13   3
   0   0 -10 166852. 4045.45   1
   0   0  10 163433. 2493.09   4
   0   0 -11 85.1796 369.533   1
   0   0  11 25.0329 161.189   4
   0   0  11-54.9004 114.523   3
   0   0 -12 18440.6 1538.08   1
   0   0  12 18757.0 963.893   4
   0   0  13 33.8585 195.577   4
   0   0 -13 345.507 430.688   1
   0   0 -14 34493.9 2233.27   1
   0   0  14 41826.8 1634.77   4
   0   0 -15-163.705 396.346   1
   0   0  16 13273.8 578.795  10
   0   0  17 621.885 537.108  15
   0   0  17 634.235 265.829  10
   0   0  18 3632.39 649.258  15
   0   0  18 2760.49 414.642  10
   0   0  19 30.7663 446.585  15
   0   0  19-380.729 257.843  10
   0   0  20 13377.1 952.680  15
   0   0  20 6637.15 554.818  10
   0   0  21-366.373 210.135  12
   0   0  21-703.391 451.396  15
   0   0  22-450.988 285.631  15
   0   0  22-45.7816 134.094  12
   0   0  23 128.798 93.5772  12
   0  -2   0 139798. 2114.26   3
   0  -2   0 147256. 1764.99   2
   0  -2  -1 18510.3 786.141   3
   0  -2   1 19734.6 864.694   4
   0  -2   1 19124.8 545.910   2
   0  -2   1 18781.3 786.430   3
   0  -2   2 55293.3 769.495   2
   0  -2  -2 54470.8 1443.64   1
   0  -2   2 58716.3 1309.66   3
   0  -2   2 59025.9 1456.52   4
   0  -2   3 334308. 3122.07   3
   0  -2   3 322114. 3317.91   4
   0  -2   4 4626.98 422.173   3
   0  -2   4 4708.07 449.464   4
   0   2  -4 4492.20 384.440   1
   0  -2  -4 4726.89 571.887   1
   0  -2   5 124.014 194.932   4
   0  -2  -5 96.4596 290.588   1
   0   2  -5 35.5701 160.806   1
   0  -2   5 76.9867 158.543   3
   0   2  -6 1284.17 335.035   1
   0  -2   6 1290.20 308.601   4
   0  -2  -6 1121.86 432.475   1
   0  -2   6 1256.47 265.702   3
   0   2  -7 30207.9 1569.12   1
   0  -2   7 33165.5 1233.01   4
   0  -2   7 35425.1 1167.22   3
   0  -2  -7 33158.9 1651.31   1
   0   2  -8 6820.36 856.839   1
   0  -2   8 7222.33 618.885   4
   0  -2   8 7197.04 552.547   3
   0  -2  -8 6499.96 835.149   1
   0  -2   9 41252.0 1331.29   3
   0  -2   9 37219.8 1400.33   4
   0  -2 -10 8617.55 1081.84   1
   0  -2  10 10434.9 790.130   4
   0  -2  10 10691.2 718.298   3
   0  -2  11 289.410 227.398   4
   0  -2 -11 250.924 433.759   1
   0  -2  12 15144.2 1030.88   4
   0  -2 -12 11176.3 1319.51   1
   0  -2 -13 28495.6 2114.23   1
   0  -2  13 31601.1 1418.33  15
   0  -2 -13 28540.4 827.656  11
   0  -2 -13 29133.6 896.769   8
   0  -2 -14 2062.68 311.075   8
   0  -2  14 2993.86 595.477  15
   0  -2 -14 1922.49 670.111   1
   0  -2  14 2462.60 490.506   4
   0  -2 -14 1863.37 287.576  11
   0  -2  14 1976.32 232.512  22
   0  -2 -15 104.465 180.491  11
   0  -2  15-2.47134 458.528  15
   0   2  15 837.346 230.189  10
   0  -2 -15 68.1955 188.276   8
   0  -2 -16 6529.04 458.570  11
   0  -2  16 6420.88 804.556  15
   0  -2 -16 7960.74 517.879   8
   0  -2 -17 229.209 165.639  11
   0   2  17 208.822 222.304  10
   0  -2  17-126.849 528.400  15
   0  -2 -17-22.6957 200.477   8
   0  -2  18-180.784 145.408  12
   0  -2 -18-62.3427 182.123   8
   0  -2  18 72.7230 523.690  15
   0   2  18-510.666 284.362  10
   0  -2  19 11668.7 975.681  15
   0  -2  19 12877.1 436.386  12
   0  -2 -19 12695.1 573.078   8
   0   2  20 2541.28 258.453  12
   0  -2 -20 2983.50 274.491   8
   0  -2  20 3400.88 605.154  15
   0  -2 -21 2181.52 196.247   8
   0  -2  21 1817.56 438.220  15
   0  -2  22 5477.33 483.498  15
   0   2  22 4611.42 238.161  12
   0  -4   0 15499.9 1180.17   3
   0  -4   1 10256.0 956.811   3
   0  -4   2 18621.8 1239.50   3
   0  -4   3 47172.3 1911.58   3
   0  -4  -3 43635.5 1548.17   2
   0  -4   4 5267.86 663.988   3
   0  -4  -4 4595.75 564.034   2
   0  -4  -5 2171.91 453.887   2
   0  -4   5 2725.96 516.475   3
   0  -4  -6 1948.36 473.924   2
   0  -4   6 2009.25 454.664   3
   0  -4   6 2363.63 506.397   4
   0  -4  -7 2719.37 550.778   2
   0  -4   7 3550.41 580.265   3
   0  -4   7 3366.97 633.999   4
   0  -4  -8-29.7482 141.040   8
   0  -4  -8 51.1489 241.474   2
   0  -4   8 101.728 135.332  23
   0  -4  -8 31.7510 154.130  11
   0  -4   8 46.1851 237.699   3
   0  -4   8 192.557 309.878   4
   0  -4   9 8459.46 846.663   3
   0  -4  -9 8618.89 458.172  11
   0  -4  -9 6829.23 905.850   2
   0  -4  -9 9034.90 460.200   8
   0  -4   9 8705.39 942.413   4
   0  -4  10 449.153 404.053  15
   0  -4 -10 1210.70 223.125   8
   0  -4 -10 809.027 416.160   2
   0  -4 -10 1359.50 233.265  11
   0  -4  10 1506.73 439.578   4
   0  -4 -11 865.736 213.568  11
   0  -4 -11 1103.52 446.833   2
   0  -4  11 322.445 397.326  15
   0  -4 -11 1057.43 232.653   8
   0  -4  12 522.711 401.572  15
   0  -4  12 1129.92 193.533  22
   0  -4 -12 1208.42 227.431  11
   0  -4 -12 1018.07 227.133   8
   0  -4  13 239.398 121.748  22
   0  -4 -13 277.532 184.448  11
   0  -4 -13 210.491 177.345   8
   0  -4  13-281.992 470.662  15
   0  -4 -14 2169.64 275.586  11
   0  -4 -14 2256.29 306.484   8
   0  -4  14 2309.85 236.971  22
   0  -4  15-135.101 444.228  15
   0  -4 -15 392.637 207.162   8
   0  -4 -15 233.998 174.369  11
   0  -4  15 270.920 113.157  22
   0  -4 -15 85.2460 157.271   7
   0  -4 -16 24948.0 768.722   8
   0  -4  16 23812.7 1221.66  15
   0  -4 -16 21677.3 803.690   7
   0  -4 -16 23906.8 714.960  11
   0  -4  17 5961.29 659.655  15
   0  -4 -17 5107.86 338.096  11
   0  -4 -17 5574.43 379.156   8
   0   4  17 4844.49 333.881  13
   0  -4 -17 4358.94 355.100   7
   0  -4 -18 4970.17 344.760   8
   0   4  18 5463.35 298.928  13
   0  -4  18 5791.91 570.780  15
   0  -4 -18 4638.50 284.644  11
   0   4  19 1558.04 140.354  13
   0  -4 -19 1039.55 129.895  11
   0  -4 -19 1565.79 196.881   8
   0  -4 -20 455.463 109.914   8
   0  -6   0 572.973 182.554  23
   0  -6   1 698.555 189.297  23
   0  -6  -1 708.720 190.405  23
   0  -6   2-6.28138 130.784  23
   0  -6  -2-40.1779 132.650  23
   0  -6  -3 20455.9 794.642  23
   0  -6   3 19402.7 759.819  23
   0  -6   4 4534.84 378.964  23
   0  -6  -4 4787.08 404.416  23
   0  -6  -5 2202.37 289.306  23
   0  -6   5 2123.66 275.472  23
   0  -6   6 9855.00 534.025  23
   0  -6  -6 8881.92 454.961  11
   0  -6  -7 5920.30 364.495  11
   0   6   7 4731.10 280.898  13
   0   6   8 384.048 106.305  13
   0  -6  -8 439.120 159.458  11
   0   6   9 7033.59 341.839  13
   0  -6  -9 7441.52 391.648  11
   0   6  10 4102.62 261.854  13
   0  -6  10 3430.84 249.200  22
   0  -6 -10 3998.96 295.745  11
   0  -6 -11 10477.0 448.246  11
   0  -6  11 10494.1 382.961  22
   0  -6 -12 5502.33 315.345  11
   0  -6 -12 5314.07 262.830   8
   0  -6  12 5038.95 232.930  22
   0  -6 -13 2159.57 209.921  23
   0  -6 -13 2831.07 185.681   8
   0  -6 -14 1318.34 122.160   8
   0  -6 -14 2357.71 185.716  23
   0   6  15 1666.09 113.759  13
   1  -1 -23 124.424 137.690   7
  -1   1  23 251.128 128.106  12
  -1   1  23-90.8128 303.498  10
  -1  -1  23 236.947 95.8145  12
  -1  -1  22 185.970 340.791  15
  -1   1  22 495.461 164.863  12
   1  -1 -22-87.1035 196.701   7
  -1  -1  21 11618.0 485.766  12
  -1   1  21 11638.2 524.347  12
  -1  -1  21 10508.5 842.720  15
  -1   1  20 1519.65 256.951  12
  -1  -1  20 2147.86 257.092  12
  -1  -1  20 1162.99 504.471  15
  -1  -1  19-1203.29 404.950  10
  -1   1  19-1308.44 424.318  10
  -1  -1  19 59.7360 542.904  15
  -1  -1  19-205.256 208.592  12
  -1  -1  18 5653.28 825.193  15
  -1   1  18 4338.00 519.364  10
   1  -1 -18 4539.32 366.005   8
  -1  -1  17 64.7581 488.412  15
  -1  -1  17 180.226 203.944  10
  -1   1  17 660.808 292.161  10
   1  -1 -17 614.317 187.229   8
  -1  -1  16 1318.12 249.362  10
   1  -1 -16 1385.90 269.925   8
  -1  -1  16 1354.79 361.584   4
  -1   1  16 2157.10 352.954  10
  -1  -1  16 1500.52 584.521  15
   1  -1 -16 350.930 429.936   1
  -1  -1  15 17480.5 1181.17  15
  -1   1  15 17452.9 1165.23   4
   1  -1 -15 16631.4 688.806   8
   1  -1 -15 15401.0 1639.56   1
  -1  -1  15 18827.2 1234.21   4
  -1  -1  14 66841.1 2201.39   4
   1   1 -14 53891.7 2820.86   1
   1  -1 -14 57883.5 3064.56   1
  -1  -1  14 66455.8 2033.97  15
  -1  -1  13 2487.95 454.386   4
   1  -1 -13 2253.38 705.947   1
   1   1 -13 1969.76 662.364   1
   1  -1 -12 34747.0 2237.48   1
  -1  -1  12 39731.6 1527.42   4
   1   1 -12 35140.5 2435.42   1
  -1  -1  11 8794.47 710.045   4
   1  -1 -11 7575.74 1039.21   1
  -1  -1  10 27799.9 1124.93   4
   1   1 -10 31003.6 2188.40   1
   1  -1  -9 11847.7 1159.06   1
   1   1  -9 11297.5 1319.25   1
  -1  -1   9 15413.3 616.921   3
  -1  -1   9 13490.4 754.074   4
   1   1  -8 39289.3 2105.16   1
  -1  -1   8 43523.8 1256.47   4
   1  -1  -8 43251.3 2029.00   1
  -1  -1   7 11532.4 495.796   3
  -1  -1   7 10097.2 589.007   4
   1  -1  -7 10835.2 1056.92   1
   1   1  -7 10663.2 948.411   1
   1  -1  -6 25594.2 1519.02   1
  -1  -1   6 26207.0 703.265   3
   1   1  -6 26944.9 1213.83   1
  -1  -1   5 33811.4 739.865   3
   1   1  -5 33604.3 1178.36   1
   1  -1  -5 31057.6 1500.79   1
   1  -1  -4 23103.5 1237.03   1
   1   1  -4 21639.1 884.383   1
  -1  -1   4 24053.7 600.509   3
   1  -1  -3 1093.27 187.174   3
   1  -1  -3 1551.48 416.533   1
  -1  -1   3 1369.99 169.831   3
  -1  -1   3 999.103 171.786   2
  -1  -1   2 13692.9 457.743   2
   1  -1  -2 14083.4 468.893   3
  -1  -1   2 13778.5 457.253   3
  -1  -1   1 49435.6 924.042   4
  -1  -1   1 50928.7 897.234   2
   1  -1  -1 52738.9 890.152   3
   1  -1  -1 54126.3 975.709   1
  -1  -1   1 47840.6 879.728   3
   1  -1   0 78297.9 823.023   1
   1  -1   0 77116.8 1134.80   3
  -1  -1   0 70787.4 1121.26   4
  -1  -1   0 72848.0 1171.73   2
   1  -1   1 2073.76 226.681   4
   1  -1   1 1929.06 218.674   3
  -1  -1  -1 2035.71 269.108   2
   1  -1   2 340389. 2491.16   3
  -1  -1  -2 345229. 3331.69   1
  -1  -1  -3 1155.00 340.418   1
  -1   1  -3 1104.48 152.353   1
  -1   1  -3 734.938 73.7245   2
   1  -1   3 918.552 182.794   3
   1  -1   3 985.542 201.311   4
  -1  -1  -4 22264.6 1064.64   1
   1  -1   4 18624.1 659.317   3
   1  -1   4 19812.4 686.240   4
  -1   1  -4 22698.6 710.634   1
   1  -1   5 54930.2 1180.61   4
  -1   1  -5 63711.2 1407.10   1
   1  -1   5 54144.7 1162.47   3
  -1  -1  -5 60557.4 1868.11   1
  -1   1  -6 81923.3 1804.71   1
   1  -1   6 77129.7 1461.22   3
  -1  -1  -6 78570.3 2295.59   1
  -1  -1  -7 22275.5 1320.95   1
  -1   1  -7 22204.5 1060.24   1
   1  -1   7 22246.3 843.923   3
   1  -1   7 21842.1 824.516   4
  -1  -1  -8 75258.9 2510.96   1
  -1   1  -8 78549.8 2137.01   1
   1  -1   8 84377.1 1698.52   3
   1  -1   8 84614.8 1713.68   4
   1  -1   9-48.4383 157.424   4
  -1  -1  -9 135.697 329.768   1
   1  -1   9-22.4752 132.568   3
  -1   1  -9 186.316 252.926   1
   1   1  10 148.938 135.375   3
  -1  -1 -10 209.647 376.943   1
  -1   1 -10 187.097 244.370   1
   1  -1  10 246.669 191.472   4
   1  -1  10 131.120 142.562   3
  -1  -1 -11 16159.2 1423.45   1
   1   1  11 16548.4 872.231   3
   1  -1  11 22055.2 1070.69   4
   1  -1  11 21439.0 1036.36   3
   1  -1  12 11355.8 821.849   4
  -1  -1 -12 8568.04 1116.10   1
   1   1  12 7550.95 661.340   3
   1  -1  12 10495.6 753.290   3
  -1  -1 -13 18422.5 1656.96   1
   1  -1  14 3805.53 347.624  16
  -1  -1 -14 3497.67 353.413   8
  -1  -1 -14 3543.39 335.859  11
  -1  -1 -14 2680.81 700.615   1
  -1  -1 -15 236.284 191.625   8
  -1  -1 -15 87.7625 150.831  11
   1  -1  15 65.7163 125.061  16
  -1  -1 -15 26.4040 365.249   1
   1  -1  16 22877.4 1350.78  15
  -1  -1 -16 12374.5 637.246   8
   1  -1  17 5219.52 766.518  15
   1   1  17 9267.98 497.087  10
  -1  -1 -17 3342.50 372.112   8
   1  -1  17 7039.59 408.725  10
  -1  -1 -18 522.131 215.143   8
   1   1  18 1259.92 307.835  10
   1  -1  18 680.418 207.969  10
   1  -1  18 407.806 513.867  15
   1   1  18 1436.68 527.432  15
  -1  -1 -19 8737.25 444.823   8
   1  -1  19 7239.23 444.422  10
   1  -1  19 9935.22 901.335  15
   1   1  19 12338.2 613.026  10
   1   1  19 12602.7 880.297  15
   1   1  20-324.173 285.521  10
   1  -1  20-365.866 459.999  15
   1   1  20 143.733 337.491  15
   1  -1  20-532.494 187.994  12
   1  -1  21-494.870 408.584  15
   1  -1  21-153.868 126.136  12
   1   1  21-405.536 197.777  12
   1  -1  22 1428.72 125.742  12
   1   1  22 1051.04 140.043  12
   1  -3 -21 578.471 177.760   7
   1  -3 -21 895.215 156.579   8
   1  -3 -20 59.5560 177.425   7
   1  -3 -20 180.424 155.646   8
  -1   3  20 192.717 116.175  12
  -1  -3  20 539.574 427.266  15
   1  -3 -19-349.774 240.629   7
  -1  -3  19-592.028 498.249  15
   1  -3 -19 38.5315 177.793   8
  -1   3  19-122.331 129.478  12
  -1   3  19 134.481 100.287  13
  -1   3  18 2542.02 248.817  13
  -1   3  18 803.008 186.675  12
   1  -3 -18 2146.45 305.216   8
  -1  -3  18 1109.97 515.822  15
   1  -3 -18 1979.51 244.733  11
   1  -3 -17 923.597 259.350   8
  -1   3  17 743.626 178.253  13
   1  -3 -17 686.599 188.024  11
  -1  -3  17 648.435 545.740  15
  -1   3  17 53.9555 140.653  12
   1  -3 -16 1623.09 245.426  11
   1  -3 -16 1738.89 296.714   8
  -1  -3  16 1232.12 580.905  15
  -1  -3  15-13.3105 523.009  15
  -1   3  15-585.496 324.211  10
   1  -3 -15 23.9319 159.602  11
   1  -3 -15-91.5626 221.431   8
   1  -3 -14 4613.07 403.575   8
  -1  -3  14 4033.12 713.962  15
   1  -3 -14 4410.42 366.856  11
  -1   3  13 1341.34 252.110  10
   1  -3 -13 3613.61 340.977  11
   1  -3 -13 2194.89 676.827   1
   1  -3 -13 3760.89 361.467   8
  -1  -3  13 4103.07 626.022   4
  -1  -3  13 2500.67 619.530  15
  -1  -3  12 4763.91 685.131  15
   1  -3 -12 6095.26 1001.83   1
  -1  -3  12 7593.60 815.235   4
   1  -3 -12 6332.39 419.292  11
   1  -3 -12 6629.42 447.399   8
  -1   3  12 4078.25 385.847  10
   1  -3 -11 11557.4 1319.09   1
  -1  -3  11 16001.3 1137.44   4
   1  -3 -11 15633.3 628.541   8
  -1  -3  11 11095.6 902.522  15
   1  -3 -10 4893.67 859.801   1
  -1  -3  10 6755.49 738.878   4
   1  -3  -9 9813.43 1082.94   1
  -1  -3   9 11110.8 908.328   4
   1  -3  -8 1764.68 503.603   1
  -1  -3   8 1684.83 406.384   4
  -1  -3   8 1809.57 370.405   3
   1  -3  -7 28613.0 1601.65   1
  -1  -3   7 31431.9 1405.92   4
  -1  -3   6 4336.67 548.673   4
  -1  -3   6 4331.04 514.683   3
   1   3  -6 3857.24 517.837   1
   1  -3  -6 4165.54 614.470   1
  -1  -3   5 48907.0 1611.62   3
  -1  -3   5 46147.6 1671.24   4
  -1  -3   4 457.677 280.952   4
  -1  -3   4 554.167 264.064   3
   1  -3  -4 589.077 274.115   1
  -1  -3   3 74879.7 2084.64   4
  -1  -3   3 73621.7 1989.55   3
  -1  -3   2 27905.5 1255.77   3
  -1  -3   2 28607.5 903.169   2
  -1  -3   2 26433.0 1289.91   4
   1  -3  -2 27117.0 1248.64   3
  -1  -3   1 53189.7 1768.68   3
  -1  -3   1 54981.0 1364.67   2
   1  -3  -1 52770.3 1660.69   3
  -1  -3   0 30022.2 1058.86   2
   1  -3   0 31759.4 1294.90   3
   1  -3   1 1954.89 387.125   3
  -1  -3  -1 1914.16 333.433   2
   1  -3   2 87887.1 2051.42   3
  -1  -3  -2 83418.6 2002.49   2
   1  -3   3 66787.6 2002.66   4
  -1  -3  -3 66251.2 1916.71   2
   1  -3   3 66105.8 1799.73   3
   1  -3   4 20514.4 1018.02   3
  -1  -3  -4 20921.7 1162.91   2
   1  -3   5 16259.7 1006.95   4
   1  -3   5 14448.8 862.213   3
   1  -3   6 5823.09 573.868   3
   1  -3   6 5800.39 642.726   4
   1  -3   7 11002.2 805.944   3
   1  -3   7 11610.1 903.854   4
   1  -3   8 20494.8 1110.13   3
   1  -3   8 21726.1 1232.09   4
   1  -3   9 3250.29 534.950   4
   1  -3   9 2592.47 460.976   3
   1  -3  10 11805.3 889.293   3
  -1  -3 -10 10278.2 504.811   8
  -1  -3 -10 11114.7 514.240  11
  -1  -3 -11 2159.46 262.595   8
   1  -3  11 1999.65 476.508  15
   1  -3  11 2426.43 276.029  22
   1  -3  11 3613.09 573.895   4
  -1  -3 -11 2541.41 290.246  11
   1  -3  11 2367.79 418.755   3
   1  -3  11 2505.43 262.268  16
   1  -3  12 12899.2 939.012  15
  -1  -3 -12 13524.0 624.227   8
   1  -3  12 14910.1 557.038  16
  -1  -3 -12 14270.7 618.223  11
  -1  -3 -12 13189.5 1355.14   2
   1  -3  12 13338.6 574.917  22
  -1  -3 -13 15173.3 652.571  11
   1  -3  13 13813.2 583.907  22
   1  -3  13 16950.1 600.623  16
   1  -3  13 13421.6 978.297  15
  -1  -3 -13 16552.0 703.852   8
  -1  -3 -14 10423.1 557.965  11
  -1  -3 -14 11313.2 597.340   8
   1  -3  14 10330.6 494.834  16
   1  -3  14 9061.33 837.050  15
   1  -3  14 10276.9 500.164  22
   1  -3  15 832.149 162.363  16
  -1  -3 -15 752.388 225.947  11
   1  -3  15 647.122 165.788  22
   1   3  15 1065.44 219.209  10
  -1  -3 -15 695.961 247.544   8
   1  -3  15 415.946 430.239  15
   1   3  16 385.361 207.024  10
   1  -3  16 539.855 449.607  15
   1  -3  16 622.275 147.083  16
  -1  -3 -16 582.357 251.117   8
  -1  -3 -16 657.070 210.646  11
  -1  -3 -17 1200.87 222.198  11
  -1  -3 -17 1297.46 261.968   8
   1  -3  17 870.580 452.796  15
   1   3  17 537.464 232.325  10
  -1  -3 -18 99.4801 139.368  11
   1   3  18-293.456 143.538  13
   1  -3  18-413.885 456.244  15
  -1  -3 -18 87.1311 170.143   8
   1   3  19 9117.85 333.761  13
  -1  -3 -19 8852.21 362.070  11
   1  -3  19 8191.65 689.521  15
  -1  -3 -20 2171.37 208.945   8
   1  -3  20 1644.11 395.905  15
   1  -5 -18 3811.85 221.331   8
  -1   5  18 4842.68 200.790  13
   1  -5 -17 1512.39 189.605   8
  -1   5  17 1889.79 172.411  13
   1  -5 -16-58.5649 122.898  11
  -1   5  16-17.6235 95.5338  13
   1  -5 -16 113.285 164.140   8
   1  -5 -15 9758.68 439.552  11
   1  -5 -15 9982.04 473.963   8
  -1   5  14 1217.14 202.313  13
   1  -5 -14 1230.25 226.813   8
   1  -5 -14 1042.43 212.020  11
  -1   5  13 2897.33 286.772  13
   1  -5 -13 2808.33 292.717  11
   1  -5 -13 2796.51 302.313   8
   1  -5 -12 22824.0 740.718  11
  -1   5  12 20218.9 716.614  13
   1  -5 -12 22159.4 742.337   8
   1  -5 -11 233.199 190.149  11
  -1   5  11-114.653 158.238  13
   1  -5 -11 244.978 168.799   8
  -1   5  10-133.467 154.257  13
   1  -5 -10 358.051 186.955  11
   1  -5 -10 415.784 184.921   8
   1  -5  -9 13374.5 570.390   8
   1  -5  -9 13169.9 586.699  11
   1  -5  -8 14752.3 580.455   8
  -1  -5   8 13429.0 653.131  23
   1  -5  -8 15347.3 620.912  11
   1  -5  -7 6734.20 416.135  11
  -1  -5   7 6538.41 462.486  23
   1  -5  -7 7125.10 407.229   8
   1  -5  -6 473.482 181.383  11
  -1   5   6 130.313 111.607  13
  -1  -5   6 295.224 148.879  23
   1  -5  -5 3146.55 299.359  11
  -1  -5   5 2833.18 311.722  23
  -1  -5   4-44.7050 124.731  23
   1  -5  -4 21.3339 159.231  11
  -1  -5   3 15849.9 702.776  23
   1  -5  -3 14595.8 594.952  11
  -1  -5   2 49527.7 1223.12  23
   1  -5  -2 47045.3 1209.57  23
  -1  -5   1 3277.45 343.114  23
   1  -5  -1 3623.95 351.390  23
   1  -5   0 2258.52 294.409  23
  -1  -5   0 2010.80 271.184  23
   1  -5   1 1972.40 283.016  23
   1  -5   1 1979.95 554.177   3
  -1  -5  -2 32296.8 807.394  11
   1  -5   2 35678.3 1076.09  23
   1  -5   2 37761.4 2073.97   3
   1  -5   3 14076.5 1272.50   3
   1  -5   3 15225.1 699.589  16
   1  -5   3 13336.9 659.546  23
  -1  -5  -3 12602.4 509.837  11
   1  -5   4 3615.20 355.857  16
   1  -5   4 2538.75 560.910   3
   1  -5   4 3057.34 342.515  23
  -1  -5  -4 3107.88 285.508  11
   1  -5   5 137.992 208.781   3
  -1  -5  -5 532.603 177.708  11
   1  -5   5 540.975 186.732  23
   1  -5   5 725.209 221.252  16
   1  -5   6 215.502 168.530  16
  -1  -5  -6 96.0025 135.276  11
   1  -5   6 62.4749 140.397  23
   1  -5   7 314.078 169.653  16
  -1  -5  -7 371.035 168.273  11
   1  -5   7 219.271 174.865  23
  -1  -5  -8 30002.5 818.114  11
  -1  -5  -8 29137.9 749.134   8
  -1  -5  -9 6959.40 391.551   8
  -1  -5  -9 7131.11 423.834  11
  -1  -5 -10 12644.8 544.844  11
  -1  -5 -10 12434.5 512.608   8
  -1  -5 -11 4343.10 344.653  11
   1  -5  11 3998.33 319.305  22
  -1  -5 -11 4538.37 326.738   8
  -1  -5 -12 2107.27 268.914  11
   1  -5  12 2027.53 224.191  22
  -1  -5 -12 2133.00 245.900   8
   1  -5  13 1531.11 190.694  22
  -1  -5 -13 1899.62 253.870  11
  -1  -5 -13 2037.24 243.892   8
   1  -5  14 541.975 121.661  22
  -1  -5 -14 719.976 184.442  11
  -1  -5 -14 633.506 174.523   8
  -1  -5 -15 1997.93 221.897  11
   1   5  15 1294.50 180.236  13
  -1  -5 -15 1947.60 214.882   8
  -1  -5 -16 8492.53 363.363   8
  -1  -5 -16 8711.75 352.016  11
   1   5  16 8975.75 357.683  13
  -1  -5 -17 5106.42 241.746   8
  -1  -5 -17 4883.45 231.899  11
   1  -7 -11 1283.61 128.885  14
   1  -7 -10 3946.78 241.843  14
   1  -7 -10 7856.12 289.703  23
   1  -7  -9-21.0421 70.2256  23
   1  -7  -9-1.49716 79.4970  14
   1  -7  -8 854.185 145.521  14
   1  -7  -8 1397.32 162.278  23
   1  -7  -7 960.901 147.998  23
   1  -7  -7 754.088 146.561  14
   1  -7  -6 158.625 102.531  14
   1  -7  -6 215.321 108.616  23
   1  -7  -5 3862.49 280.474  14
   1  -7  -5 6218.49 351.723  23
  -1  -7   4 29150.4 707.819  23
   1  -7  -4 29648.9 759.678  23
  -1  -7   3 235.346 105.767  23
   1  -7  -3 295.124 128.738  23
   1  -7  -3 229.849 123.839  16
   1  -7  -2 13717.2 502.362  16
   1  -7  -2 13698.0 535.579  23
  -1  -7   2 13445.3 508.591  23
   1  -7  -1 4205.40 283.632  16
   1  -7  -1 4040.42 301.993  23
  -1  -7   1 3944.09 286.138  23
  -1  -7   0 410.200 127.222  23
   1  -7   0 427.460 135.147  23
   1  -7   1 5509.59 353.318  23
  -1  -7  -1 5716.04 347.250  23
   1  -7   2 2088.39 226.845  23
  -1  -7  -2 2082.53 222.815  23
   1  -7   3 1398.96 188.722  23
  -1  -7  -3 1516.44 195.742  23
  -1  -7  -4 369.952 124.623  23
  -1  -7  -5 3886.05 283.559  23
  -1  -7  -6 489.017 109.609  14
  -1  -7  -6 1113.89 168.563  23
  -1  -7  -7 897.019 134.751  14
  -1  -7  -7 2156.08 206.242  23
  -1  -7  -8-68.5228 85.5033  23
   1  -7   8 11.4113 61.6111  22
  -1  -7  -8 55.1761 77.3292  14
   1  -7   9 1569.83 114.287  22
  -1  -7  -9 1375.98 142.999  23
  -1  -7 -10 1618.09 133.532  23
  -2   0  23 604.970 310.432  10
  -2   0  23 823.239 178.768  12
   2   0 -23 49.7791 115.507   7
   2   0 -22 182.844 174.700   7
  -2   0  22 269.464 180.539  12
  -2   0  21-126.724 210.922  12
  -2   0  20-29.1203 406.124  15
  -2   0  20-308.855 244.243  12
  -2   0  19-527.025 604.927  10
  -2   0  19-620.986 279.577  12
  -2   0  19-52.2681 514.508  15
  -2   0  18 15606.3 1133.34  15
  -2   0  18 9751.33 787.623  10
  -2   0  17-208.318 471.611  15
  -2   0  17-308.663 391.147  10
  -2   0  16 2552.64 610.782  15
  -2   0  16 3326.62 572.133   4
  -2   0  16 1389.61 345.866  10
   2   0 -16 3067.72 847.590   1
  -2   0  15 312.276 425.451  15
   2   0 -15 216.847 442.863   1
  -2   0  15-24.1205 246.409   4
  -2   0  15-142.617 217.329  10
  -2   0  14 234.721 233.792   4
   2   0 -14 525.954 545.075   1
   2   0 -13-220.557 537.578   1
  -2   0  13 165.594 232.590   4
   2   0 -12 61807.4 3467.43   1
  -2   0  12 68374.4 1950.10   4
   2   0 -11 14.9889 584.502   1
   2   0 -10 317671. 7099.82   1
   2   0  -9-46.8285 590.233   1
   2   0  -8 152648. 4244.75   1
   2   0  -7 218.465 457.825   1
   2   0  -6 114070. 2726.81   1
   2   0  -5 6.94893 293.480   1
   2   0  -4 781596. 5350.75   1
  -2   0   3-214.423 245.066   2
   2   0  -3 2.34353 30.1623   3
   2   0  -3 36.2301 218.831   1
   2   0  -2 199644. 1136.91   3
  -2   0   2 201174. 1945.90   2
   2   0  -1-6.54751 63.2032   3
  -2   0   1 23.6019 107.424   2
  -2   0   0 334684. 2381.77   2
  -2   0  -1 32.0576 124.828   2
  -2   0  -2 21566.6 697.846   2
  -2   0  -3-13.8652 165.455   2
   2   0   3 12.5687 43.4606   4
   2   0   4 114392. 1049.28   4
   2   0   4 117646. 1649.26   3
  -2   0  -4 117593. 1913.39   2
  -2   0  -5-57.4460 203.703   1
   2   0   5 9.22740 125.447   3
   2   0   5 26.8676 71.3076   4
  -2   0  -5-18.9709 175.651   2
   2   0   6 160122. 2194.14   3
   2   0   6 164975. 1624.13   4
   2   0   7 79.5408 94.9999   4
   2   0   7-26.2134 141.925   3
  -2   0  -7 18.7806 228.925   1
   2   0   8 4097.64 408.159   3
  -2   0  -8 4069.99 569.223   1
   2   0   8 4281.93 338.479   4
   2   0   9 55.4180 136.123   3
  -2   0  -9 155.158 271.435   1
   2   0  10 165462. 2757.88   3
  -2   0 -10 155370. 3682.06   1
  -2   0 -11-89.3841 231.186   2
   2   0  11 0.91154 127.051   3
  -2   0 -11 202.428 312.669   1
  -2   0 -12 957.210 440.530   1
   2   0  12 1214.17 289.716   3
  -2   0 -12 1102.80 358.266   2
  -2   0 -13-68.3151 155.712   8
   2   0  13-320.266 189.323  17
   2   0  13 142.885 122.260  16
  -2   0 -14 5406.23 404.673   8
  -2   0 -14 5115.77 378.324  11
  -2   0 -15-13.2458 154.817   8
  -2   0 -16 13998.0 633.116   8
   2   0  18 4657.38 402.386  10
   2   0  18 5527.43 781.789  15
   2   0  19 151.913 417.506  15
   2   0  19 1080.56 235.644  10
   2   0  20 3108.84 306.754  10
   2   0  20 3745.41 530.934  15
   2   0  21-584.199 167.204  12
   2   0  21-718.812 303.265  10
   2   0  21-179.702 298.509  15
   2   0  22 745.462 96.3996  12
   2  -2 -23 813.665 154.351   7
  -2   2  23 1536.40 333.283  10
   2  -2 -22 2023.72 306.648   7
  -2   2  22 3723.70 249.486  12
  -2  -2  21 502.961 137.891  12
  -2   2  21 449.081 169.661  12
   2  -2 -21 156.853 250.495   7
   2  -2 -20 2682.34 274.036   8
   2  -2 -20 1876.87 428.844   7
  -2  -2  20 1853.58 568.803  15
  -2   2  20 2994.22 308.049  12
   2  -2 -19 106.508 187.856   8
  -2  -2  19 223.584 154.753  12
  -2   2  19-493.900 224.176  12
  -2  -2  19-157.295 541.870  15
  -2   2  18-357.868 228.391  12
   2  -2 -18 45.8194 190.947   8
  -2  -2  18 133.214 143.627  12
  -2  -2  18-217.793 570.474  15
  -2   2  17-1099.59 563.930  10
   2  -2 -17-62.2730 190.580   8
  -2  -2  17-220.361 160.462  12
  -2  -2  17-536.239 616.476  15
   2  -2 -16 15438.9 709.767   8
  -2   2  16 10213.7 767.511  10
  -2   2  16 15921.0 658.499  13
  -2  -2  16 14017.8 1164.64  15
  -2  -2  16 20187.5 600.899  18
  -2  -2  16 15851.2 581.598  12
  -2  -2  15-35.3256 600.132  15
   2  -2 -15 308.550 197.274   8
  -2  -2  15 126.608 152.100  12
  -2  -2  15 567.139 149.568  18
  -2  -2  15 659.661 312.252   4
  -2   2  15-41.7039 332.467  10
  -2   2  15-6.78286 146.853  13
   2  -2 -15 479.309 465.971   1
  -2  -2  14 7.06824 497.101  15
  -2  -2  14 430.324 151.364  18
   2  -2 -14 374.112 451.665   1
  -2  -2  14 370.150 273.693   4
  -2  -2  14 22.5124 167.688  12
  -2   2  14-246.256 252.075  10
   2  -2 -14 321.718 202.386   8
  -2  -2  13 7970.19 825.320   4
   2  -2 -13 6231.06 1060.00   1
   2  -2 -13 7070.77 457.516   8
  -2  -2  13 6336.71 785.503  15
  -2  -2  12 7505.48 771.970   4
   2   2 -12 4644.34 1103.08   1
   2  -2 -12 6250.82 1037.28   1
   2   2 -11 4827.24 1106.90   1
  -2  -2  11 7882.56 760.701   4
   2  -2 -11 6980.62 1019.54   1
  -2  -2  10 3293.14 487.975   4
   2   2 -10 2318.86 676.077   1
   2  -2 -10 2874.20 675.909   1
  -2  -2   9-0.99790 205.750   4
   2  -2  -9 106.939 369.847   1
   2   2  -9-91.8113 316.687   1
  -2  -2   8 46584.8 1563.88   4
   2  -2  -8 42547.5 1998.85   1
   2   2  -8 46134.2 1968.75   1
   2  -2  -7 15494.5 1158.85   1
  -2  -2   7 16145.7 900.103   4
   2   2  -7 14906.8 1076.36   1
   2  -2  -6 34962.4 1587.81   1
  -2  -2   6 37409.3 1115.31   3
  -2  -2   5 28830.2 1022.58   3
   2  -2  -5 25168.5 995.043   3
   2  -2  -5 29825.6 1356.22   1
  -2  -2   5 26477.4 1052.15   4
  -2  -2   4 737.351 206.771   2
   2  -2  -4 603.076 217.708   3
   2  -2  -4 786.907 307.132   1
  -2  -2   4 532.856 230.632   4
  -2  -2   4 504.074 223.688   3
   2  -2  -3 9933.53 589.099   3
  -2  -2   3 9896.22 572.512   2
   2  -2  -3 9703.27 646.981   1
  -2  -2   3 9642.05 621.139   4
   2  -2  -2 42211.7 1149.95   3
   2  -2  -2 40610.8 1137.75   1
  -2  -2   2 40078.1 1203.00   4
  -2  -2   2 40455.3 1181.90   2
  -2  -2   1 797.451 243.793   2
   2  -2  -1 812.415 172.158   1
   2  -2  -1 1097.47 233.329   3
  -2  -2   1 740.970 264.465   4
  -2  -2   0 68431.2 1586.04   2
   2  -2   0 68245.8 1456.67   3
   2  -2   1 22705.0 872.635   3
  -2  -2  -1 22393.4 976.513   2
   2  -2   2 210947. 2792.28   3
  -2  -2  -2 226848. 3214.52   2
   2  -2   3 52195.5 1415.64   3
  -2  -2  -3 54920.0 1704.63   2
   2  -2   4 164.625 187.618   3
   2  -2   4 189.612 197.706   4
  -2  -2  -4 58.1758 251.483   2
  -2  -2  -5 20129.1 1184.43   2
   2  -2   5 18816.0 899.913   3
   2  -2   6 7534.88 592.391   4
   2  -2   6 5885.78 567.457   3
  -2  -2  -6 6905.29 786.610   2
   2  -2   7 498.935 238.768   4
   2  -2   7 420.668 231.276   3
   2  -2   8 36383.0 1342.10   4
   2  -2   8 36291.1 1380.43   3
   2  -2   9 52355.0 1719.83   3
   2  -2   9 55256.1 1690.12   4
   2  -2  10 3181.64 470.953   3
  -2  -2 -10 2835.43 658.697   2
  -2  -2 -11 24324.1 1707.55   2
   2  -2  11 29282.2 1377.55   3
   2  -2  12 9062.41 460.536  16
  -2  -2 -12 6849.89 1006.97   2
  -2  -2 -12 7153.57 442.207  11
   2  -2  12 7771.27 429.548  22
   2  -2  12 9265.57 814.671   3
  -2  -2 -12 8031.25 490.960   8
   2  -2  12 8299.83 538.530  17
  -2  -2 -13-121.598 318.813   2
   2  -2  13-49.9854 124.795  22
  -2  -2 -13-57.1224 164.318  11
   2  -2  13 466.109 188.121   6
   2  -2  13-92.0107 124.198  16
  -2  -2 -13 42.3054 192.890   8
   2  -2  14 9247.86 897.465  15
  -2  -2 -14 4784.71 421.335   8
   2  -2  14 9076.05 527.793  17
  -2  -2 -14 5331.88 408.810  11
   2  -2  14 4773.25 391.088  16
   2  -2  15 15158.9 617.718  16
   2  -2  15 14921.7 1040.56  15
  -2  -2 -15 12704.9 632.171   8
  -2  -2 -15 12696.5 607.680  11
  -2  -2 -16 4993.66 433.523   8
  -2  -2 -16 5157.88 402.434  11
   2  -2  16 5792.25 385.692  16
   2  -2  16 6086.49 722.026  15
  -2  -2 -17 8332.86 520.510   8
  -2  -2 -17 8253.53 472.053  11
   2  -2  18 219.216 443.427  15
  -2  -2 -18-163.241 150.170  11
  -2  -2 -18-118.424 189.222   8
   2   2  18 618.480 212.332  10
   2  -2  19-204.368 418.026  15
  -2  -2 -19 145.765 122.200  11
   2   2  19-101.555 224.849  10
  -2  -2 -19 136.988 149.818   8
   2  -2  20 836.059 364.811  15
  -2  -2 -20 1268.15 171.090   8
   2   2  21 395.041 93.1208  12
   2  -2  21 593.960 265.194  15
   2  -4 -20 1996.81 189.705   8
   2  -4 -19 133.031 155.111   8
   2  -4 -19-45.2112 120.995   7
  -2   4  19 210.650 93.1461  13
  -2   4  18 1572.94 183.723  13
   2  -4 -18 960.628 217.789   7
  -2   4  18 881.299 356.096  10
   2  -4 -18 1142.06 229.301   8
   2  -4 -18 909.232 159.954  11
   2  -4 -17 1772.14 283.820   7
  -2   4  17 2837.26 263.989  13
   2  -4 -17 2128.48 226.542  11
   2  -4 -17 2655.75 317.026   8
   2  -4 -16 4473.39 342.585  11
   2  -4 -16 5066.21 423.580   8
   2  -4 -16 4277.81 419.648   7
  -2   4  16 5543.24 384.312  13
  -2   4  15 1451.21 236.349  13
   2  -4 -15 1544.69 246.732  11
   2  -4 -15 1290.84 269.365   7
   2  -4 -15 1613.09 296.997   8
  -2  -4  15 2193.30 619.062  15
  -2  -4  14 1995.19 621.724  15
   2  -4 -14 1234.27 262.117   8
   2  -4 -14 1246.59 242.515  11
   2  -4 -14 1178.09 281.952   7
  -2   4  14 1268.96 228.777  13
   2  -4 -13 2837.86 335.581   8
   2  -4 -13 2080.99 346.266   7
   2  -4 -13 2594.46 303.556  11
  -2  -4  13 3298.90 667.819  15
  -2   4  13 1855.21 264.950  13
   2  -4 -12 8663.21 515.147   8
   2  -4 -12 8512.53 494.687  11
   2  -4 -12 7938.41 607.944   7
  -2  -4  12 9411.30 954.628  15
   2  -4 -11 16259.6 654.902  11
   2  -4 -11 17283.4 688.417   8
  -2  -4  11 16542.1 1147.02  15
  -2  -4  11 17643.3 1335.66   4
  -2  -4  10 3525.42 675.885  15
   2  -4 -10 3450.62 334.928   8
  -2  -4  10 3696.78 649.946   4
   2  -4 -10 3159.58 314.771  11
  -2  -4  10 4126.57 310.533   9
   2  -4  -9 5369.20 390.640   8
   2  -4  -9 5432.71 388.749  11
  -2  -4   9 4850.74 701.064  15
  -2  -4   9 5158.12 746.332   4
  -2  -4   9 6233.08 364.447   9
  -2  -4   8 841.355 401.443   4
   2  -4  -8 1098.35 219.710   8
   2  -4  -8 1051.68 217.540  11
  -2  -4   8 1196.15 201.477   9
  -2  -4   7 5155.14 718.747   4
  -2  -4   6 23171.2 1425.95   4
  -2  -4   5 31150.2 1662.00   4
  -2  -4   4 14283.1 1187.96   4
   2  -4  -3 388.547 365.341   3
   2  -4  -2 102.435 274.385   3
   2  -4  -1 609.384 317.868   3
   2  -4   0 2617.41 495.547   3
  -2  -4   0 2004.85 380.606   2
   2  -4   1 15772.1 1100.76   3
  -2  -4  -1 16985.6 1033.04   2
  -2  -4  -2 1196.53 332.447   2
   2  -4   2 1125.67 360.191   3
  -2  -4  -3 4171.09 587.648   2
   2  -4   3 5025.15 631.600   3
  -2  -4  -4 1696.02 437.841   2
   2  -4   4 2285.03 459.122   3
   2  -4   5 3214.10 546.495   3
  -2  -4  -5 2513.07 512.789   2
  -2  -4  -6 4212.86 316.175  11
   2  -4   6 4429.38 620.353   3
   2  -4   6 4016.39 394.372  23
   2  -4   6 4611.05 421.464  16
  -2  -4  -6 3644.69 648.541   2
   2  -4   7 173.166 215.420   3
  -2  -4  -7 212.421 129.034   8
  -2  -4  -7-14.2725 266.787   2
  -2  -4  -7 153.714 152.491  11
   2  -4   7 92.9728 186.373  16
   2  -4   8 13858.8 690.243  16
  -2  -4  -8 14405.4 580.832  11
  -2  -4  -8 14325.4 563.365   8
  -2  -4  -8 13825.6 1255.48   2
   2  -4   8 16128.1 1156.37   3
  -2  -4  -9 11336.5 520.136   8
   2  -4   9 9603.97 576.563  16
  -2  -4  -9 10536.3 1151.50   2
  -2  -4  -9 11397.9 535.101  11
  -2  -4 -10 23800.2 758.105   8
  -2  -4 -10 23301.6 765.829  11
  -2  -4 -11 4977.46 388.277  11
  -2  -4 -11 5504.36 397.011   8
   2  -4  11 5428.26 375.963  16
   2  -4  11 4810.23 384.882  22
  -2  -4 -12 21275.9 744.123  11
   2  -4  12 20589.6 727.450  22
   2  -4  12 22620.3 686.986  16
  -2  -4 -12 22423.9 757.848   8
   2  -4  13 345.930 336.987  15
   2  -4  13 3.15553 129.016  22
   2  -4  13 56.6244 93.7637  16
  -2  -4 -13 23.7959 174.197   8
  -2  -4 -13-49.6382 169.399  11
  -2  -4 -14 6823.20 427.513  11
  -2  -4 -14 6866.58 437.882   8
   2  -4  14 6674.52 356.139  16
   2  -4  14 7092.33 393.927  22
  -2  -4 -15 6261.67 401.019  11
  -2  -4 -15 6541.65 403.643   8
   2  -4  15 6686.42 328.019  16
  -2  -4 -16 765.352 178.069  11
  -2  -4 -16 768.115 196.564   8
   2  -4  17 1747.58 342.463  15
  -2  -4 -17 1514.25 206.545   8
  -2  -4 -17 1463.75 187.076  11
  -2  -4 -18 881.938 138.099  11
   2   4  18 675.580 104.821  13
  -2  -4 -18 638.657 143.387   8
  -2  -4 -19 201.608 85.8086   8
  -2   6  15 345.193 75.4220  13
   2  -6 -15 76.9179 85.8893  14
   2  -6 -14 4783.12 331.413  14
   2  -6 -14 4650.51 223.182  23
   2  -6 -13 7421.11 440.930  14
   2  -6 -13 8928.33 367.640  23
  -2   6  12 74.4922 87.9120  13
   2  -6 -12 63.5813 97.5268  23
   2  -6 -11 1364.56 195.323  23
  -2   6  11 1875.60 183.624  13
  -2   6  10 321.037 106.048  13
   2  -6 -10 273.033 123.281  23
   2  -6  -9 135.215 122.575  23
  -2   6   9 126.200 95.3915  13
  -2   6   8 6010.86 308.003  13
   2  -6  -8 6291.20 421.836  23
  -2   6   7 21667.1 563.019  13
   2  -6  -7 25169.4 842.527  23
   2  -6  -6 264.374 161.078  23
  -2  -6   6 192.972 111.999  23
   2  -6  -5 81.6933 131.993  23
   2  -6  -5 61.2073 157.775  14
  -2  -6   5 86.8796 113.425  23
   2  -6  -4 199.408 157.823  14
   2  -6  -4 169.356 140.218  23
  -2  -6   4 157.149 118.927  23
   2  -6  -3 834.896 199.744  14
   2  -6  -3 759.911 190.660  23
  -2  -6   3 958.333 187.154  23
   2  -6  -2 10769.4 597.042  14
   2  -6  -2 9760.05 550.021  23
  -2  -6   2 9985.38 528.462  23
   2  -6  -1 19203.0 753.847  23
  -2  -6   1 19623.3 749.571  23
  -2  -6   0 4340.61 368.051  23
   2  -6   0 4191.73 368.184  23
   2  -6   0 4476.76 399.888  16
  -2  -6  -1 979.180 206.332  23
   2  -6   1 1183.69 222.905  23
   2  -6   1 1369.61 246.233  16
  -2  -6  -2 1904.08 265.654  23
   2  -6   2 1861.43 270.444  23
   2  -6   2 2030.45 281.565  16
  -2  -6  -3 150.104 127.725  23
   2  -6   3 179.144 144.171  23
   2  -6   3 193.356 156.677  16
   2  -6   4 1312.87 224.867  16
  -2  -6  -4 1109.83 174.239  11
   2  -6   4 1342.38 243.267  23
  -2  -6  -5 6786.85 370.203  11
   2  -6   5 7046.67 475.083  23
   2  -6   5 7088.97 448.786  16
   2  -6   6 1432.97 232.953  16
  -2  -6  -6 2268.15 222.706  11
   2  -6   7 4474.59 317.800  16
  -2  -6  -7 5920.46 339.652  11
  -2  -6  -8 2352.06 235.438  11
   2  -6   8 1555.50 191.778  16
   2  -6   9 407.453 140.896  22
  -2  -6  -9 369.378 138.687  11
   2  -6  10 3669.60 252.889  22
  -2  -6 -10 3890.44 267.798  11
   2   6  11 1331.62 145.482  13
  -2  -6 -11 1644.76 183.717  11
   2  -6  11 1565.44 160.656  22
   2  -6  12 15931.1 395.021  22
   2   6  12 15641.0 409.754  13
   2   6  13 4430.40 198.414  13
  -2  -6 -13 4240.47 217.884  11
  -2  -6 -14 906.751 102.598  23
  -3   1  23 1676.81 432.323  10
   3  -1 -23 818.653 192.993   7
  -3  -1  23 415.946 168.253  12
  -3   1  23 1726.52 218.103  12
   3  -1 -22 5178.28 492.217   7
  -3  -1  22 9720.20 412.760  12
  -3  -1  21 7098.13 714.564  15
  -3   1  21 7433.05 460.974  12
  -3  -1  21 8062.06 433.860  12
  -3   1  20 877.301 236.061  12
  -3  -1  20 1554.35 259.604  12
  -3  -1  20 471.352 504.795  15
   3  -1 -20 482.253 291.000   7
  -3  -1  19 944.071 174.108  18
  -3   1  19 404.332 211.972  12
  -3  -1  19 600.172 221.022  12
  -3  -1  18 58571.5 1244.18  12
  -3   1  18 55895.1 1267.96  12
  -3  -1  17 9261.11 1006.05  15
  -3  -1  17 10736.1 540.448  12
  -3   1  17 10214.1 568.162  12
  -3  -1  16 64821.8 2444.35   4
  -3   1  16 63479.7 2404.36   4
   3   1 -16 43606.7 3092.34   1
  -3   1  16 29738.3 1460.45  10
   3  -1 -16 52878.9 3288.18   1
  -3  -1  16 49357.6 2048.65  15
  -3  -1  16 51320.5 1203.80  12
  -3   1  16 53227.6 1228.63  12
  -3  -1  15 10032.3 993.171  15
  -3  -1  15 13141.7 1088.04   4
  -3  -1  15 11510.2 569.962  12
   3  -1 -15 10284.9 1451.35   1
  -3   1  15 4816.79 675.652  10
   3   1 -15 7956.64 1637.48   1
  -3   1  15 14113.8 1119.14   4
   3  -1 -14 10618.8 1445.98   1
  -3  -1  14 11601.1 543.553  12
  -3  -1  14 13453.9 1053.99   4
   3   1 -14 13933.3 1975.34   1
  -3  -1  14 11388.3 1001.27  15
  -3  -1  13 1093.13 360.523   4
   3  -1 -13 1399.47 690.508   1
   3   1 -13 1737.72 901.234   1
   3  -1 -12 4658.53 1022.74   1
  -3  -1  12 5539.50 625.735   4
   3   1 -12 3401.54 1075.76   1
   3   1 -11 32567.1 2478.18   1
   3  -1 -11 37297.5 2651.53   1
   3   1 -10 72286.7 3265.83   1
  -3  -1  10 74469.4 1952.84   4
  -3  -1   9 7202.28 593.685   4
   3   1  -9 6780.37 948.134   1
   3  -1  -9 8707.90 1265.46   1
  -3  -1   8 14644.4 776.829   4
   3  -1  -8 14323.3 1480.70   1
   3   1  -8 14671.1 1192.68   1
   3   1  -7 14841.4 1097.74   1
   3  -1  -7 12325.7 1333.32   1
  -3  -1   7 12921.1 701.698   4
   3   1  -6 3538.47 581.098   1
   3  -1  -6 2591.86 673.621   1
  -3  -1   6 2904.86 339.145   4
   3  -1  -5 143106. 3385.40   1
  -3  -1   5 149468. 2069.00   4
  -3  -1   5 134573. 2737.18   2
   3  -1  -5 140815. 1537.49   3
   3  -1  -4 243274. 3732.34   1
   3  -1  -4 248404. 2092.36   3
  -3  -1   3 5844.16 478.055   2
   3  -1  -3 6038.90 362.430   3
  -3  -1   3 4894.77 373.117   4
   3  -1  -3 5459.03 523.180   1
   3  -1  -2 24219.4 738.998   3
   3  -1  -2 23725.8 867.651   1
  -3  -1   2 23538.2 730.318   4
  -3  -1   2 23883.7 916.108   2
   3  -1  -1 7341.62 438.390   1
  -3  -1   1 7125.92 391.312   4
  -3  -1   1 7424.72 549.649   2
   3  -1  -1 7451.36 429.709   3
   3  -1   0 8166.17 450.931   3
  -3   1   0 7671.61 437.564   2
  -3  -1   0 7343.71 373.166   4
  -3  -1   0 9034.89 603.424   2
   3  -1   0 8031.48 392.969   1
   3  -1   1 167789. 2067.33   3
  -3   1  -1 172317. 1737.66   2
  -3  -1  -2 4970.73 498.204   2
  -3   1  -2 4885.26 294.691   2
   3  -1   2 4437.42 373.831   3
   3  -1   3 59284.1 1353.73   3
  -3   1  -3 58733.7 1019.54   2
   3  -1   4 12109.4 660.673   3
  -3   1  -4 11643.0 489.341   2
  -3  -1  -4 13353.8 862.053   2
   3  -1   5 9.23972 107.555   4
  -3   1  -5 41.3678 97.6784   2
  -3  -1  -5 1.31935 231.626   2
   3  -1   5 37.7811 158.285   3
  -3  -1  -6 47063.3 1714.77   2
   3  -1   6 47145.5 1407.26   3
   3  -1   7 31691.8 1230.37   3
  -3  -1  -7 32863.2 1531.69   2
  -3  -1  -8 41940.1 1798.39   2
   3  -1   8 45419.5 1492.02   3
   3   1   9 48629.4 1687.90   3
  -3  -1  -9 48276.7 2023.51   2
   3   1  10 12983.4 909.892   3
   3  -1  10 14964.7 943.545   3
  -3  -1 -10 12097.5 1065.26   2
   3  -1  11 873.938 292.261   3
  -3  -1 -11 1082.11 404.785   2
   3   1  11 848.564 301.717   3
  -3   1 -12 152.763 173.687  11
   3  -1  12 2970.46 335.295   6
   3   1  12 1000.88 331.809   3
  -3  -1 -12 839.118 209.177  11
  -3  -1 -12 885.469 387.464   2
   3  -1  12 715.303 283.152   3
   3  -1  12 2342.03 341.512  17
  -3  -1 -12 813.155 233.731   8
   3  -1  12 790.924 179.566  16
   3  -1  13 1662.33 249.706  16
   3  -1  13 1631.62 403.558   3
  -3  -1 -13 1428.95 287.676   8
  -3  -1 -13 1455.34 238.362  11
  -3  -1 -13 1471.63 457.066   2
   3  -1  13 2505.97 314.584   6
   3   1  13 799.844 358.145   3
  -3   1 -13 1334.82 231.549  11
  -3  -1 -14 456.028 216.791   8
  -3   1 -14 161.759 169.053  11
  -3  -1 -14-68.7403 166.863  11
   3  -1  14 186.062 145.719  16
  -3  -1 -15 13078.3 619.044   8
   3  -1  15 14070.9 624.382  16
  -3  -1 -15 12537.8 598.082  11
  -3  -1 -16 4919.27 431.249   8
  -3  -1 -16 5447.13 401.187  11
  -3  -1 -17 1023.31 219.225  11
  -3  -1 -17 803.220 228.359   8
  -3  -1 -18 1662.70 237.087   8
   3  -1  18 2207.67 557.925  15
  -3  -1 -18 1908.28 236.760  11
   3  -1  19 235.434 395.133  15
   3  -1  19 105.176 123.301  10
   3   1  19 429.602 386.129  15
  -3  -1 -19-3.94762 128.990   8
   3   1  19 1089.40 218.928  10
   3  -1  20 358.419 309.771  15
   3   1  20 731.770 296.846  15
   3   1  20 110.348 159.745  10
   3  -1  21 763.741 237.269  15
   3   1  21 834.542 105.662  12
   3  -3 -22 570.644 138.290   7
  -3   3  22 2839.83 347.647  10
   3  -3 -21 3543.73 330.029   7
  -3   3  21 2781.70 453.143  10
   3  -3 -21 3252.97 238.921   8
   3  -3 -20 3308.97 385.418   7
   3  -3 -20 3587.10 297.401   8
   3  -3 -19 13330.9 752.333   7
   3  -3 -19 14668.1 618.979   8
  -3   3  19 17571.9 522.089  12
  -3   3  19 16433.9 502.127  13
  -3  -3  18 2858.84 690.777  15
   3  -3 -18 2029.22 395.836   7
   3  -3 -18 2192.46 325.829   8
  -3   3  18 3093.20 274.709  12
  -3   3  18 2679.81 254.136  13
   3  -3 -17 475.967 237.811   8
  -3   3  17 794.310 185.654  13
   3  -3 -17 568.128 301.401   7
   3  -3 -16 253.472 252.377   7
  -3   3  16 643.389 187.957  13
  -3  -3  16 724.300 176.044  18
   3  -3 -16 478.192 246.875   8
  -3  -3  15 14555.8 1207.41  15
   3  -3 -15 12532.6 653.918   8
  -3   3  15 14570.2 637.708  13
   3  -3 -15 12704.0 829.242   7
  -3  -3  15 13972.9 541.425  18
   3  -3 -14 527.229 247.330   8
  -3  -3  14 127.351 525.901  15
   3  -3 -14 457.817 186.563  11
  -3   3  14 489.886 173.654  13
   3  -3 -14 348.284 243.269   7
  -3  -3  14 610.113 163.524   9
  -3  -3  14 614.741 172.405  18
  -3  -3  13 26051.2 1574.91  15
  -3  -3  13 47844.9 2114.45   4
  -3   3  13 44001.2 1125.07  13
   3  -3 -13 41494.3 1008.75  11
   3  -3 -13 31122.1 2211.54   1
   3  -3 -13 41931.6 1127.78   8
  -3  -3  13 54479.2 1025.13   9
  -3  -3  13 46062.5 944.765  18
   3  -3 -13 47056.4 1519.45   7
  -3   3  12 3712.72 350.372  13
   3  -3 -12 4351.67 395.415   8
   3  -3 -12 4181.20 345.872  11
  -3  -3  12 4911.93 326.884  18
   3  -3 -12 3217.61 741.150   1
  -3  -3  12 4980.57 330.108   9
  -3  -3  12 4674.31 691.960   4
   3  -3 -12 4759.75 505.066   7
   3  -3 -11 257.140 206.170   8
  -3  -3  11-224.031 480.850  15
  -3  -3  11 256.501 291.682   4
  -3  -3  11 325.371 157.635   9
  -3   3  11-28.8846 169.386  13
   3  -3 -11 500.354 434.577   1
   3  -3 -11-9.17904 222.945   7
  -3  -3  11 522.374 164.631  18
   3  -3 -10 8493.13 1021.28   1
  -3  -3  10 10419.0 937.294   4
   3   3 -10 8219.62 1098.70   1
   3  -3  -9 9443.61 1019.02   1
   3   3  -9 10424.6 1159.84   1
  -3  -3   9 12382.9 993.857   4
   3  -3  -8 1979.25 506.989   1
   3   3  -8 1469.43 488.180   1
  -3  -3   8 2359.79 472.338   4
   3  -3  -7 57132.2 2146.46   1
   3   3  -7 54442.7 2332.00   1
  -3  -3   7 61492.5 2024.59   4
   3  -3  -6 4166.21 584.142   1
  -3  -3   6 4573.59 586.069   4
   3  -3  -5 1156.37 312.240   1
  -3  -3   5 1210.20 341.586   4
  -3  -3   5 892.897 263.784   2
   3  -3  -5 1115.11 324.533   3
  -3  -3   4 7218.14 606.964   2
   3  -3  -4 7192.53 680.610   3
  -3  -3   4 8064.01 735.644   4
   3  -3  -4 6814.55 604.285   1
   3  -3  -3 2831.51 438.399   3
  -3  -3   3 2404.69 377.632   2
  -3  -3   3 2654.65 478.099   4
  -3  -3   2 44596.9 1673.48   4
  -3  -3   2 42973.7 1541.98   2
   3  -3  -2 44922.0 1552.27   3
   3  -3  -1 25727.3 1159.25   3
  -3  -3   1 25514.3 1203.43   2
   3  -3   0 74550.0 1948.97   3
  -3  -3   0 78501.0 2162.94   2
  -3  -3  -1 1088.47 322.049   2
   3  -3   1 1445.38 325.545   3
  -3  -3  -2 59087.7 2014.72   2
   3  -3   2 58868.3 1771.86   3
  -3  -3  -3 37593.0 1675.14   2
   3  -3   3 35852.4 1413.29   3
   3  -3   4 6275.66 634.801   3
  -3  -3  -4 6196.95 743.883   2
   3  -3   5 535.511 267.546   3
  -3  -3  -5 785.882 382.687   2
   3  -3   6 16714.7 1060.94   3
  -3  -3  -6 18041.6 1337.24   2
   3  -3   7 403.790 266.806   3
  -3  -3  -7 398.956 346.137   2
  -3  -3  -8 31937.5 804.960  11
   3  -3   8 32258.5 1029.27  16
   3  -3   9 13811.1 677.288  16
  -3  -3  -9 14635.0 577.389  11
   3  -3   9 17705.6 1146.71   3
  -3  -3  -9 15561.5 1377.87   2
   3  -3   9 13287.7 587.819  22
  -3  -3  -9 14798.8 587.413   8
   3  -3   9 11143.0 706.723  17
   3  -3  10 32263.8 1253.44  15
  -3  -3 -10 30606.2 851.799  11
   3  -3  10 36511.7 1651.42   3
   3  -3  10 29583.0 890.418  22
   3  -3  10 26067.7 1024.41  17
  -3  -3 -10 29858.9 1976.12   2
  -3  -3 -10 30894.3 872.650   8
   3  -3  10 26370.2 880.280  16
   3  -3  11 8367.54 717.435  15
   3  -3  11 9135.61 514.586  16
   3  -3  11 8509.45 487.769  22
  -3  -3 -11 8801.12 1104.57   2
  -3  -3 -11 8708.15 490.227  11
   3  -3  11 10450.8 907.173   3
  -3  -3 -11 9150.48 507.857   8
   3  -3  11 8524.13 570.397  17
   3  -3  12 20163.9 1067.96  15
  -3  -3 -12 21971.2 766.294  11
   3  -3  12 20660.6 816.654  17
  -3  -3 -12 21455.4 772.295   8
   3  -3  12 20929.3 742.453  22
   3  -3  13 3650.09 307.347  16
   3  -3  13 3031.85 303.228  22
  -3  -3 -13 3043.18 332.480  11
   3  -3  13 4192.20 383.664  17
  -3  -3 -13 2997.59 331.818   8
   3  -3  13 2756.99 506.711  15
  -3  -3 -14 4919.07 410.625  11
  -3  -3 -14 4374.39 396.949   8
   3   3  14 6984.98 386.345  10
   3  -3  14 3792.77 591.021  15
   3  -3  14 4735.99 350.979  16
   3  -3  14 4659.27 352.254  22
   3  -3  14 6636.28 432.046  17
   3  -3  15 683.688 384.361  15
  -3  -3 -15 1055.79 247.591   8
   3  -3  15 83.3766 152.589  17
  -3  -3 -15 1080.96 247.424  11
   3  -3  15 1034.87 195.584  16
   3  -3  16 3093.21 520.067  15
  -3  -3 -16 4292.18 353.496  11
  -3  -3 -16 4404.11 392.426   8
   3  -3  16 3964.47 307.568  16
  -3  -3 -17 7528.35 403.549  11
  -3  -3 -17 8397.09 443.072   8
   3   3  17 7307.75 390.565  10
  -3  -3 -18 7478.61 345.485  11
  -3  -3 -18 8043.88 373.729   8
  -3  -3 -19 4897.07 219.781  11
  -3  -3 -19 5365.57 274.691   8
  -3   5  18 11.2245 59.9744  13
  -3   5  17 1126.42 138.575  13
   3  -5 -17 891.819 176.688   8
   3  -5 -16 455.726 161.843  14
  -3   5  16 1020.82 159.283  13
   3  -5 -16 830.555 186.407   8
   3  -5 -15 347.761 176.546   8
  -3   5  15 605.580 154.517  13
   3  -5 -15 197.319 156.596  14
   3  -5 -14 0.91141 180.793   8
  -3   5  14 66.3510 135.023  13
  -3   5  13 6002.20 377.374  13
   3  -5 -13 5306.76 390.948   8
  -3   5  12 16221.7 608.918  13
   3  -5 -12 13260.4 578.253  11
   3  -5 -12 12250.7 595.425  23
   3  -5 -12 15371.2 635.953   8
   3  -5 -11 589.910 207.847   8
  -3   5  11 556.983 162.289  13
   3  -5 -11 390.626 183.860  11
   3  -5 -10 2098.63 279.676  11
   3  -5 -10 2389.73 285.149   8
  -3   5  10 2081.76 244.842  13
   3  -5  -9 8333.60 530.530  23
  -3   5   9 8104.85 439.644  13
   3  -5  -9 7971.08 479.546  11
   3  -5  -9 8497.86 474.814   8
   3  -5  -8 7788.57 511.596  23
   3  -5  -8 8169.09 460.596   8
  -3   5   8 7583.24 415.221  13
   3  -5  -7 18003.5 762.813  23
   3  -5  -7 18809.4 673.231   8
  -3   5   6 1179.02 181.961  13
   3  -5  -6 1099.16 199.985   8
   3  -5  -6 1116.81 225.206  23
   3  -5  -5 5428.74 425.001  23
  -3   5   5 4520.42 302.024  13
   3  -5  -4 239.868 143.273  23
   3  -5  -3 13061.1 654.235  23
  -3  -5   3 12646.7 603.338  23
   3  -5  -3 14001.0 754.810  14
  -3  -5   2 74777.3 1474.29  23
   3  -5  -2 72911.5 1515.91  23
   3  -5  -1 42674.8 1240.21  14
  -3  -5   1 40760.1 1089.84  23
   3  -5  -1 39331.8 2110.89   3
   3  -5  -1 37370.8 1091.32  23
   3  -5  -1 43759.8 983.378   5
   3  -5   0 25224.5 903.445  23
   3  -5   0 25188.6 1659.77   3
   3  -5   1 24220.0 1579.07   3
   3  -5   1 24365.6 893.576  23
   3  -5   1 27446.8 983.305  16
   3  -5   2 165.604 156.939  23
   3  -5   2 323.850 290.636   3
   3  -5   2 341.253 219.302  16
   3  -5   3 6992.60 512.216  23
   3  -5   3 7804.97 537.458  16
   3  -5   4 8678.54 567.243  23
  -3  -5  -4 9228.25 426.277  11
   3  -5   4 10270.0 611.021  16
  -3  -5  -5 24226.9 692.266  11
   3  -5   5 23584.8 912.031  23
   3  -5   5 24301.1 941.100  16
  -3  -5  -6 16985.3 587.341  11
   3  -5   6 16700.9 788.219  16
  -3  -5  -7 29631.6 780.038  11
   3  -5   7 26137.0 947.035  16
  -3  -5  -8 330.600 145.429  11
   3  -5   8 224.585 178.475  16
  -3  -5  -9 2139.73 253.470  11
   3  -5   9 1457.90 232.086  16
  -3  -5  -9 2019.65 211.474   8
   3  -5   9 2075.58 266.969  22
  -3  -5 -10 155.550 129.007   8
   3  -5  10 121.895 155.796  22
  -3  -5 -10 18.4363 137.244  11
   3  -5  10 84.4411 115.734  16
   3  -5  11 5778.44 320.649  16
  -3  -5 -11 6040.06 365.898  11
   3  -5  11 5555.08 353.394  22
  -3  -5 -11 6282.66 334.415   8
  -3  -5 -12 17818.6 574.866  11
  -3  -5 -12 17803.4 529.045   8
   3  -5  12 16954.1 563.777  22
   3  -5  12 17425.9 495.534  16
  -3  -5 -13 20499.2 579.734  11
   3  -5  13 18257.0 521.231  22
  -3  -5 -13 20365.1 536.334   8
   3  -5  13 17631.9 450.395  16
  -3  -5 -14 10519.5 391.645  11
  -3  -5 -14 9937.75 356.678   8
  -3  -5 -15 747.346 131.009  11
  -3  -5 -15 583.183 111.336   8
   3   5  16 818.836 91.4639  13
  -3  -5 -16 626.393 93.8374  11
   3  -7 -11 27.4774 54.9547  14
   3  -7 -11 133.442 77.1379  16
   3  -7 -10 173.749 76.8579  14
   3  -7  -9 6.95592 74.1797  14
   3  -7  -9 85.5727 54.5979  23
   3  -7  -9 40.4942 55.0312   5
   3  -7  -8 3325.25 242.071  14
   3  -7  -8 4688.29 238.176  23
   3  -7  -8 3615.07 185.724   5
   3  -7  -8 4814.91 290.408  16
   3  -7  -7 1275.44 146.710  23
   3  -7  -7 1313.37 180.960  16
   3  -7  -6 7298.63 333.007  23
   3  -7  -6 7041.77 362.029  16
   3  -7  -5-87.0286 100.735  14
   3  -7  -5 115.303 87.4876  23
   3  -7  -5 25.8585 116.011  16
   3  -7  -4 5111.91 300.228  23
   3  -7  -4 5025.45 322.503  16
   3  -7  -3 87.2790 95.7508  23
   3  -7  -3 187.546 135.568  16
  -3  -7   2 3864.58 232.331  23
   3  -7  -2 4460.21 295.489  23
   3  -7  -2 4571.01 302.581  16
   3  -7  -1 1810.05 201.641  23
  -3  -7   1 1743.10 167.283  23
   3  -7  -1 2029.45 214.423  16
  -3  -7   0 196.471 88.6834  23
   3  -7   0 37.1300 92.6789  23
   3  -7   0 82.9459 119.418  16
  -3  -7  -1 55.3313 78.5223  23
   3  -7   1 33.6457 105.096  16
   3  -7   2 3689.63 258.502  16
  -3  -7  -2 3328.56 232.815  23
  -3  -7  -3 1202.91 150.672  23
   3  -7   3 1163.08 146.763  16
  -3  -7  -4 517.548 111.437  23
   3  -7   4 458.844 95.9152  16
  -3  -7  -5 556.674 112.484  23
   3  -7   5 43.5472 27.4441  16
   3  -7   6 1515.85 145.815  22
  -3  -7  -6 1318.19 142.816  23
  -3  -7  -7 254.682 77.9631  23
   3  -7   7 346.249 80.4486  22
   3  -7   8 410.934 68.5629  22
  -4   0  23 2151.13 415.687  10
  -4   0  23 306.641 205.315  12
   4   0 -22 2374.14 283.420   7
  -4   0  22 2528.22 518.626  10
  -4   0  21 42.7348 107.341  18
   4   0 -21 184.142 192.267   7
  -4   0  20 17764.7 712.599  12
  -4   0  20 12700.3 467.117  18
  -4   0  19 180.619 229.858  12
   4   0 -19-208.666 283.431   7
   4   0 -18 1340.86 432.083   7
  -4   0  18 4756.36 430.224  12
  -4   0  17-111.623 217.301  12
  -4   0  16 75607.7 2647.93   4
  -4   0  16 74730.0 1442.82  12
  -4   0  15 292.486 293.701   4
   4   0 -15-352.839 673.779   1
  -4   0  15-227.517 226.488  12
  -4   0  14 93838.0 2719.97   4
  -4   0  14 94685.9 1509.06  12
  -4   0  13-62.1521 211.319   4
   4   0 -13 1116.19 946.516   1
  -4   0  12 20146.1 1157.73   4
   4   0 -12 14150.1 2028.52   1
  -4   0  11 68.8843 195.322   4
   4   0 -11-272.011 656.154   1
   4   0 -10 21261.8 2007.06   1
   4   0  -9 57.2122 475.957   1
   4   0  -8 27651.0 1720.80   1
   4   0  -7-48.1380 361.804   1
   4   0  -6 28096.1 1449.06   1
   4   0  -5-106.248 291.806   1
   4   0  -4 4269.13 550.819   1
   4   0  -4 3799.88 244.531   3
  -4   0   3-44.6698 213.282   2
   4   0  -3 28.9686 85.2047   3
   4   0  -2 8044.31 424.670   3
  -4   0   2 9942.81 625.000   2
  -4   0   1 50.6162 192.129   2
   4   0  -1 35.1399 103.350   3
  -4   0   1 3.89008 61.3413   4
  -4   0   0 8311.86 568.053   2
   4   0   0 8422.19 477.317   3
  -4   0  -1-10.8260 161.836   2
   4   0   1 29.7530 130.783   3
  -4   0  -2 72172.7 1667.84   2
   4   0   2 72973.6 1557.94   3
  -4   0  -3 52.6558 170.797   2
   4   0   3 12.4345 148.188   3
  -4   0  -4-7.24132 176.948   2
   4   0   4 0.22596 163.623   3
  -4   0  -5-53.3761 161.583   2
   4   0   5-14.4235 150.994   3
  -4   0  -6 624.380 236.011   2
   4   0   6 541.313 234.034   3
  -4   0  -7-41.2158 163.271   2
   4   0   7 59.7548 164.236   3
  -4   0  -8 25297.1 1261.51   2
   4   0   8 31133.3 1324.35   3
  -4   0  -9 60.2906 220.707   2
   4   0   9 90.2519 184.842   3
   4   0  10 3999.55 562.846   3
  -4   0 -11 92.8468 195.229   8
   4   0  11 100.419 305.102  21
  -4   0 -11-153.279 178.580  11
   4   0  11 634.801 223.090   6
   4   0  11 28.0734 176.536   3
   4   0  11-20.0765 105.734  16
  -4   0 -12 6813.08 474.015   8
  -4   0 -12 6895.98 444.305  11
   4   0  12 8076.10 455.804  16
   4   0  12 11983.5 604.530  17
   4   0  12 4815.43 674.467  21
   4   0  12 8258.26 830.202   3
   4   0  12 13687.3 639.800   6
  -4   0 -13 88.3567 175.218   8
  -4   0 -13 82.1492 177.127  11
   4   0  13 254.444 232.133   6
   4   0  13 190.036 183.847  17
   4   0  13 9.45231 125.518  16
  -4   0 -14 6394.07 431.027  11
  -4   0 -14 5810.94 429.964   8
  -4   0 -15 82.6864 169.964   8
  -4   0 -15 28.9197 163.656  11
  -4   0 -16 1701.09 241.779  11
  -4   0 -16 1735.05 246.378   8
  -4   0 -17-47.5785 126.493   8
  -4   0 -17 116.730 148.370  11
   4   0  18 2091.05 247.731  10
   4   0  19 392.847 336.838  15
   4   0  19 924.251 167.050  10
   4   0  20 9269.09 534.287  15
   4   0  20 3761.00 252.531  10
   4  -2 -23 380.058 123.632   7
  -4   2  22 149.148 185.407  12
   4  -2 -22 242.490 181.168   7
  -4   2  21 1513.95 241.171  12
   4  -2 -21 2007.51 346.858   7
  -4  -2  20 59.1724 117.238  18
  -4   2  20 496.203 221.980  12
   4  -2 -20 116.225 277.467   7
  -4   2  20 61.3144 96.4791  19
  -4  -2  20 440.753 223.576  12
   4  -2 -19 733.623 209.734   8
  -4   2  19 1674.21 273.255  12
  -4  -2  19 977.994 173.116  18
   4  -2 -19 778.823 348.383   7
  -4   2  19-126.259 604.081  10
  -4  -2  19 389.109 216.013  12
  -4  -2  18 490.944 570.245  15
   4  -2 -18 184.198 185.971   8
  -4  -2  18 485.892 224.479  12
  -4   2  18 324.302 204.730  12
   4  -2 -18 35.3751 295.552   7
  -4  -2  18-4.27491 124.251  18
   4  -2 -17-34.3916 199.354   8
  -4  -2  17 628.764 619.385  15
  -4   2  17 60.5635 175.354  12
   4  -2 -17-157.688 302.345   7
  -4   2  17 97.6090 104.324  13
  -4  -2  17 6.98265 136.042  18
  -4  -2  17 459.259 226.713  12
  -4   2  16 19187.0 647.518  13
  -4   2  16 18553.6 726.310  12
  -4  -2  16 17712.8 613.759  18
   4  -2 -16 15978.2 730.183   8
   4  -2 -16 17446.0 1007.67   7
  -4  -2  15 3195.77 763.778  15
  -4   2  15 4381.31 342.986  13
   4  -2 -15 3825.98 403.568   8
  -4   2  15 3771.60 351.797  12
  -4  -2  15 4060.55 313.661  18
   4  -2 -15 4100.75 525.070   7
  -4  -2  14 9380.43 1063.84  15
  -4  -2  14 16815.8 1277.74   4
   4   2 -14 7979.00 1661.62   1
  -4   2  14 17462.1 666.761  13
  -4   2  14 13904.6 591.697  12
   4  -2 -14 15011.0 707.188   8
   4  -2 -14 11995.2 1485.27   1
  -4  -2  14 22694.0 770.846  12
  -4  -2  14 18282.2 613.979   9
   4  -2 -14 17069.7 999.513   7
  -4  -2  14 15766.3 563.665  18
  -4  -2  13 2905.64 558.375   4
  -4  -2  13 1449.10 570.298  15
   4  -2 -13 3005.75 349.171   8
   4  -2 -13 2079.24 740.163   1
  -4   2  13 3381.53 301.751  13
  -4   2  13 2081.63 251.619  12
   4  -2 -13 3324.79 459.652   7
  -4  -2  13 2936.91 258.942  18
  -4  -2  13 3743.00 306.714   9
   4   2 -13 2481.25 1064.78   1
  -4  -2  13 4436.62 367.806  12
   4  -2 -12-127.420 259.627   7
   4   2 -12-153.944 529.609   1
   4  -2 -12 14.5340 374.194   1
  -4  -2  12-43.5612 267.507   4
   4  -2 -11 5409.45 949.299   1
  -4  -2  11 6658.33 745.634   4
   4   2 -11 5900.33 1081.94   1
   4   2 -10-98.4322 376.178   1
   4  -2 -10-51.5716 408.749   1
  -4  -2  10-74.1892 236.750   4
  -4  -2   9 219.841 246.130   4
   4   2  -9 73.3619 341.718   1
   4  -2  -9 10.7922 404.820   1
   4   2  -8 2388.88 632.411   1
  -4  -2   8 2706.02 453.747   4
   4  -2  -8 2254.31 616.401   1
  -4  -2   7 8236.08 707.499   4
   4  -2  -7 6688.23 895.048   1
   4  -2  -6 20468.9 1481.72   1
  -4  -2   6 16952.9 1179.97   2
   4  -2  -6 19031.9 861.149   3
  -4  -2   6 19326.4 1036.20   4
  -4  -2   5 64168.1 1933.93   2
   4  -2  -5 66417.3 1571.86   3
  -4  -2   5 62309.3 1731.62   4
  -4  -2   4 36757.6 1295.79   4
   4  -2  -4 37103.3 1696.39   1
   4  -2  -4 39795.9 1208.48   3
  -4  -2   4 40427.6 1487.84   2
  -4  -2   3 44323.8 1544.72   2
   4  -2  -3 42921.4 1531.25   1
   4  -2  -3 44277.2 1301.35   3
  -4  -2   3 41953.9 1330.21   4
  -4  -2   2 102160. 2388.33   2
   4  -2  -2 99634.7 1972.36   3
  -4  -2   2 102351. 2061.69   4
   4  -2  -1 17967.2 868.587   3
  -4  -2   1 17955.1 1031.43   2
  -4  -2   1 17668.7 844.288   4
   4  -2   0 948.560 258.339   3
  -4  -2   0 951.755 339.697   2
  -4  -2  -1 126455. 2858.33   2
   4  -2   1 118956. 2311.12   3
  -4  -2  -2 17425.9 1113.49   2
   4  -2   2 15283.8 878.939   3
  -4  -2  -3 105853. 2745.08   2
   4  -2   3 96793.1 2206.71   3
  -4  -2  -4 33923.8 1617.89   2
   4  -2   4 30648.7 1279.86   3
  -4  -2  -5 2939.60 553.473   2
   4  -2   5 2445.98 417.216   3
  -4  -2  -6 597.457 348.241   2
   4  -2   6 800.172 300.307   3
  -4  -2  -7 24497.0 1551.87   2
   4  -2   7 25272.3 1291.88   3
  -4  -2  -8 13054.5 1198.71   2
   4  -2   8 15400.7 1039.15   3
  -4  -2  -9 38948.6 2082.65   2
  -4  -2  -9 34540.3 855.749  11
   4  -2   9 33908.5 1018.50   6
   4  -2   9 33171.9 1188.27  17
   4  -2   9 38458.0 994.144  16
  -4  -2  -9 35763.3 913.503   8
   4  -2   9 37486.8 925.120  22
  -4  -2 -10 22526.5 1627.91   2
   4  -2  10 23040.1 760.831  16
   4   2  10 20699.6 1328.97   3
   4  -2  10 27166.2 1454.35   3
  -4  -2 -10 21277.3 706.030  11
   4  -2  10 20063.1 775.744   6
   4   2  10 13519.6 879.144  21
   4  -2  10 13319.9 849.861  21
  -4  -2 -10 22314.5 753.515   8
   4  -2  10 19605.1 891.058  17
   4  -2  10 23165.4 745.054  22
  -4  -2 -11 1336.98 225.879  11
   4  -2  11 1785.58 274.484   6
   4   2  11 1016.04 352.468   3
   4   2  11 1008.01 389.192  21
   4  -2  11 1689.19 408.587   3
  -4  -2 -11 1042.84 420.947   2
   4  -2  11 1556.94 334.121  17
   4  -2  11 1958.76 251.571  16
   4  -2  11 1567.87 232.105  22
  -4  -2 -11 1576.99 274.628   8
   4  -2  12 29019.8 879.547  22
  -4  -2 -12 29475.3 886.953  11
   4  -2  12 31514.5 1051.97  17
  -4  -2 -12 30395.6 940.143   8
  -4  -2 -13 310.845 214.258   8
   4  -2  13 0.73077 127.095  16
   4  -2  13 1226.57 257.881   6
  -4   2 -13-109.227 167.563  11
   4  -2  13 1275.08 311.068  17
  -4  -2 -13 59.6855 184.694  11
   4  -2  14 5346.86 425.076  17
  -4   2 -14 2728.45 267.490  11
  -4  -2 -14 3246.46 347.402  11
   4  -2  14 819.689 255.326   6
  -4  -2 -14 3524.48 365.298   8
   4  -2  14 3216.84 333.515  16
  -4  -2 -15 6642.07 461.878   8
  -4  -2 -15 6852.72 446.144  11
   4  -2  15 5451.37 370.168  17
   4  -2  15 6386.65 448.623  16
   4  -2  16 592.257 412.455  15
  -4  -2 -16 186.774 187.620   8
  -4  -2 -16 488.783 204.230  11
   4  -2  16 278.633 156.204  16
   4  -2  17 1606.33 426.450  15
  -4  -2 -17 1388.71 234.753   8
  -4  -2 -17 1556.88 228.929  11
   4  -2  18 3591.39 458.922  15
  -4  -2 -18 4454.92 282.446  11
  -4  -2 -18 4536.21 302.823   8
   4  -2  19 347.302 250.987  15
  -4  -2 -19 784.571 128.358   8
  -4  -2 -19 762.406 111.571  11
   4   2  19 338.387 133.178  10
   4  -4 -20 560.026 115.652   7
  -4   4  20 1289.47 120.155  19
  -4   4  19 1432.43 146.736  13
   4  -4 -19 930.338 174.366   7
   4  -4 -18 5755.11 382.515   8
  -4   4  18 6775.58 322.572  13
   4  -4 -17 4668.96 385.981  14
  -4   4  17 11531.8 462.058  13
   4  -4 -17 7798.06 492.945   7
   4  -4 -17 10050.2 513.231   8
  -4   4  17 3372.40 508.529  10
   4  -4 -16 6062.57 494.879  14
   4  -4 -16 7850.48 545.194   7
  -4   4  16 10844.1 478.342  13
  -4   4  16 3706.11 535.439  10
   4  -4 -16 9366.55 530.918   8
   4  -4 -15 145.847 235.230   8
   4  -4 -15-95.7394 173.952  14
  -4   4  15 255.782 157.063  13
   4  -4 -15 204.337 201.642   7
  -4  -4  15 109.985 131.844   9
  -4   4  14 47919.9 1079.93  13
   4  -4 -14 39042.1 1213.12   7
  -4  -4  14 47232.2 937.619   9
   4  -4 -14 40887.1 1125.54   8
   4  -4 -13 1261.09 280.832   8
  -4   4  13 1462.97 230.559  13
   4  -4 -13 925.191 217.169  11
   4  -4 -13 1299.84 277.857   7
  -4  -4  13 1464.99 211.294   9
  -4  -4  12 1426.68 219.386   9
  -4   4  12 1673.61 241.863  13
   4  -4 -12 1360.04 304.609   7
   4  -4 -12 1675.64 299.172   8
   4  -4 -12 1171.56 229.706  11
  -4   4  11 5770.91 406.333  13
   4  -4 -11 5307.68 434.005   8
   4  -4 -11 4228.79 470.895   7
   4  -4 -11 4648.21 381.432  11
  -4  -4  11 5678.05 365.783   9
   4  -4 -10 423.726 227.079   8
  -4  -4  10 426.034 355.515   4
  -4   4  10 353.885 160.147  13
   4  -4 -10 248.531 176.176  11
   4  -4 -10 132.596 163.887   7
  -4  -4  10 156.200 158.756   9
   4  -4  -9 44.2111 198.744   8
  -4  -4   9-147.538 289.320   4
  -4  -4   9 17.0666 147.343   9
  -4   4   9-15.9758 126.490  13
   4  -4  -9 42.0375 172.744  11
   4  -4  -9 13.0449 158.390   7
  -4   4   8 43796.7 1002.70  13
   4  -4  -8 41941.3 1189.16   7
  -4  -4   8 42648.4 2064.90   4
   4  -4  -7-19.9231 175.416   8
  -4  -4   7-288.017 276.854   4
  -4  -4   7-6.51640 137.094   9
  -4   4   7 67.3488 123.631  13
   4   4  -7 165.745 351.486   1
   4  -4  -6 913.164 234.685   8
  -4  -4   6 594.267 373.698   4
  -4   4   6 913.801 173.664  13
  -4  -4   6 787.167 165.908   9
   4  -4  -5 180.709 179.034   8
  -4  -4   5 263.911 300.266   4
  -4  -4   5 557.465 157.463   9
   4  -4  -5 409.492 305.216   3
   4  -4  -4 28369.1 1064.74  14
   4  -4  -4 19564.3 1362.94   3
   4  -4  -3 3269.38 568.484   3
  -4  -4   2 53367.7 1963.95   2
   4  -4  -2 54506.9 2138.15   3
   4  -4  -1 1648.90 422.105   3
  -4  -4   1 1175.05 345.248   2
   4  -4   0 51325.0 2028.26   3
  -4  -4   0 49913.2 2043.82   2
   4  -4   1 14311.8 662.973  23
  -4  -4  -1 13138.9 1091.96   2
   4  -4   1 13705.0 1082.42   3
   4  -4   2 174.028 221.481   3
  -4  -4  -2 181.585 250.464   2
   4  -4   2 354.045 223.602  16
   4  -4   2 322.648 152.713   5
   4  -4   2 215.605 154.968  23
  -4  -4  -3 7508.95 890.255   2
   4  -4   3 7544.66 790.825   3
   4  -4   3 7865.54 527.465  23
   4  -4   3 9221.00 590.992  16
   4  -4   3 9690.20 477.592   5
  -4  -4  -4 40982.3 880.667  11
   4  -4   4 42383.4 1849.85   3
   4  -4   4 39611.5 1181.46  23
  -4  -4  -4 42390.0 2102.34   2
   4  -4   4 44208.2 1272.15  16
  -4  -4  -5 1236.87 206.051  11
  -4  -4  -5 930.496 417.301   2
   4  -4   5 1365.24 302.499  16
   4  -4   5 1204.18 364.965   3
  -4  -4  -6 66109.7 2756.37   2
  -4  -4  -6 63812.0 1171.18  11
   4  -4   6 65074.5 2338.72   3
   4  -4   6 62428.8 1559.25  16
  -4  -4  -7 8181.40 449.927  11
   4  -4   7 7362.85 549.937  16
   4  -4   8-135.815 262.552  17
  -4  -4  -8 308.206 167.705  11
   4  -4   8 144.382 186.221  16
  -4  -4  -8-6.87625 129.047   8
  -4  -4  -9 431.399 164.365   8
   4  -4   9 775.949 212.669  22
  -4  -4  -9 767.590 211.019  11
   4  -4   9 579.556 206.228  16
   4  -4   9 441.539 234.437  17
  -4  -4 -10 58.6078 140.010   8
   4  -4  10 196.103 157.162  22
  -4  -4 -10 125.088 171.228  11
   4  -4  10 243.265 221.260  17
   4  -4  10 249.647 167.721  16
   4  -4  11 283.570 153.045  22
  -4  -4 -11 463.117 179.377   8
  -4  -4 -11 353.209 187.064  11
   4  -4  11 607.464 221.248  17
   4  -4  11 493.934 162.237  16
  -4  -4 -12 4120.78 344.717  11
   4  -4  12 3752.50 309.098  22
   4  -4  12 4246.33 328.815  17
  -4  -4 -12 4347.68 347.125   8
   4  -4  12 4295.66 330.273  16
   4  -4  13 1579.89 217.534  22
   4  -4  13 1405.06 192.563  16
  -4  -4 -13 1946.88 262.667  11
   4  -4  13 2305.62 244.949  17
  -4  -4 -13 2047.71 253.715   8
  -4  -4 -14 217.125 166.062   8
  -4  -4 -14 228.011 162.569  11
   4  -4  14-143.921 108.393  17
   4  -4  14 42.8803 104.153  16
  -4  -4 -15 436.771 149.461   8
  -4  -4 -15 415.399 152.272  11
   4  -4  15 315.060 102.476  16
  -4  -4 -16 290.268 118.111   8
  -4  -4 -16 321.582 119.680  11
  -4  -4 -17 1942.93 143.785  11
  -4  -4 -17 2164.97 156.936   8
   4  -6 -15 602.051 103.358  14
   4  -6 -15 1649.17 139.851   5
   4  -6 -14 143.537 93.6995  14
  -4   6  14 253.381 76.5418  13
  -4   6  14 132.792 53.8435  19
   4  -6 -13 138.129 121.864  14
  -4   6  13 203.366 83.8558  13
  -4   6  12 150.608 86.4295  13
   4  -6 -12 109.783 125.800  14
   4  -6 -11 307.900 157.791  14
  -4   6  11 363.941 98.9118  13
   4  -6 -10 116.406 161.408  14
   4  -6 -10-84.0863 74.9339  23
  -4   6  10-18.6750 89.0631  13
   4  -6  -9 6763.71 476.188  14
   4  -6  -9 6014.70 342.372  23
  -4   6   9 6829.63 309.956  13
   4  -6  -8 438.566 183.438  14
  -4   6   8 363.049 106.372  13
   4  -6  -8 425.765 127.813  23
   4  -6  -7 242.602 184.036  14
  -4   6   7 210.400 90.9705  13
   4  -6  -7 226.277 113.088  23
   4  -6  -6 1004.92 185.902   5
   4  -6  -6 987.533 236.591  14
   4  -6  -6 1098.20 186.903  23
   4  -6  -5 436.731 181.057  14
   4  -6  -5 477.469 140.239  23
   4  -6  -5 408.090 140.266   5
   4  -6  -4 1395.45 251.313  14
   4  -6  -4 1464.36 215.886  23
   4  -6  -4 1490.68 200.626   5
   4  -6  -3 7297.04 492.945  14
   4  -6  -3 7833.08 455.639  23
   4  -6  -3 8815.63 424.060   5
   4  -6  -2 564.735 162.515  23
   4  -6  -2 482.566 129.918   5
   4  -6  -2 372.168 146.583  14
   4  -6  -2 590.910 222.001  16
   4  -6  -1 1435.45 178.987   5
   4  -6  -1 1350.75 219.230  23
   4  -6  -1 1431.85 270.592  16
   4  -6   0 9127.89 511.187  23
  -4  -6   0 8328.35 445.755  23
   4  -6   0 9345.20 542.718  16
   4  -6   1 1858.27 252.077  23
  -4  -6  -1 1825.46 235.123  23
   4  -6   1 2180.79 300.131  16
   4  -6   2 9246.82 515.200  23
  -4  -6  -2 9051.15 478.782  23
   4  -6   2 9704.11 537.476  16
  -4  -6  -3 5098.71 365.531  23
   4  -6   3 5048.28 396.497  16
  -4  -6  -4 7755.86 442.184  23
   4  -6   4 6839.78 444.394  16
   4  -6   5 2350.36 270.329  16
   4  -6   6 4630.67 318.868  16
  -4  -6  -7 2314.01 195.183  11
   4  -6   7 1962.22 209.555  22
   4  -6   7 1756.20 196.183  16
  -4  -6  -8 4009.12 234.342  11
   4  -6   8 3862.59 256.396  22
  -4  -6  -9 511.382 110.130  11
   4  -6   9 683.893 121.131  22
   4  -6   9 600.717 96.2595  16
   4  -6  10 35.1166 70.5002  22
  -4  -6 -10 33.2844 74.5317  11
   4  -6  10-6.01486 47.6826  16
   4  -6  11 459.933 79.2103  22
   4   6  11 219.851 59.5867  13
  -4  -6 -11 370.741 80.1832  11
  -5   1  23 236.197 198.426  12
   5  -1 -23-41.3116 97.4558   7
  -5  -1  22 373.020 229.710  12
  -5   1  22 337.108 261.971  12
  -5  -1  22 1498.18 146.688  18
   5  -1 -22 897.355 213.619   7
  -5   1  22 1302.66 137.414  18
  -5  -1  21 553.428 145.198  18
  -5  -1  21 470.202 273.985  12
  -5   1  21 991.272 310.070  12
   5  -1 -21 332.560 228.669   7
  -5  -1  20 9401.99 553.537  12
  -5   1  20 20128.4 751.175  12
   5  -1 -20 9370.00 719.588   7
  -5  -1  20 3282.52 537.943  10
  -5   1  20 10749.7 1060.78  10
  -5  -1  20 16184.9 537.243  18
  -5   1  19 1522.62 334.137  12
  -5  -1  19 869.511 295.456  12
  -5   1  19 352.024 115.513  19
   5  -1 -19 333.181 294.566   7
  -5  -1  19 2085.91 535.817  10
  -5  -1  19 322.685 148.054  18
  -5  -1  18 1119.98 318.089  12
  -5   1  18 1271.26 316.840  12
   5  -1 -18 117.733 279.926   7
  -5  -1  18 1685.45 549.156  10
  -5   1  18 433.157 129.176  19
  -5  -1  18 530.397 170.991  18
  -5  -1  17 629.486 291.051  12
  -5   1  17 411.503 245.790  12
   5  -1 -17-10.8174 290.715   7
  -5  -1  17 489.918 532.325  10
  -5  -1  16 15442.4 1161.73  15
  -5  -1  16 21435.0 842.186  12
  -5   1  16 20672.4 786.747  12
   5  -1 -16 11684.7 946.319   7
  -5   1  16 9518.25 986.407  10
  -5  -1  15 7573.46 879.002  15
  -5  -1  15 6013.23 798.001   4
   5   1 -15 4765.77 1423.41   1
  -5  -1  15 8283.16 453.820   9
  -5  -1  15 11022.4 616.775  12
  -5   1  15 9127.19 539.955  12
   5  -1 -15 6063.21 704.788   7
   5  -1 -15 6098.90 1289.98   1
  -5   1  15 4556.80 805.387  10
  -5   1  15 6582.48 826.855   4
  -5  -1  14 26825.8 1560.18   4
   5   1 -14 19474.2 2611.98   1
  -5   1  14 35658.6 974.666  12
  -5  -1  14 39300.2 1078.38  12
   5  -1 -14 29618.2 1342.86   7
   5  -1 -14 22328.8 2453.83   1
  -5  -1  14 28546.8 748.830   9
  -5  -1  14 27636.2 1476.01  15
  -5  -1  13 3089.33 550.892   4
   5  -1 -13 1929.33 906.653   1
   5   1 -13 1837.94 1012.39   1
  -5  -1  13 5158.37 437.969  12
  -5   1  13 4664.64 381.121  12
   5  -1 -13 4070.84 501.426   7
  -5  -1  13 3623.96 278.894   9
  -5  -1  12 19780.9 1256.70   4
   5  -1 -12 22132.1 2460.37   1
  -5  -1  11-30.9113 228.652   4
   5   1 -11 333.397 549.833   1
   5  -1 -11 63.1993 605.114   1
  -5  -1  10 21077.5 1159.11   4
   5   1 -10 19831.3 1780.78   1
  -5  -1   9 31857.0 1362.45   4
   5   1  -9 31076.1 2007.08   1
  -5  -1   8 29747.5 1264.43   4
   5   1  -8 28661.3 1849.52   1
   5  -1  -7 34680.0 2086.54   1
  -5  -1   7 39708.4 1389.12   4
   5   1  -7 39900.0 2045.95   1
   5  -1  -6 47960.5 2221.27   1
  -5  -1   6 47281.4 1422.03   4
  -5  -1   5 1121.17 373.611   2
   5  -1  -5 1259.77 427.007   1
  -5  -1   5 1035.41 254.516   4
  -5  -1   4 91204.7 1773.14   4
  -5  -1   4 96261.6 2391.51   2
   5  -1  -4 92052.6 1693.07   3
   5  -1  -4 94071.4 2454.87   1
  -5  -1   3 50620.7 1252.73   4
  -5  -1   3 55812.1 1799.15   2
   5  -1  -3 53298.6 1323.06   3
   5  -1  -3 51880.4 1666.92   1
  -5  -1   2 39095.0 1498.35   2
   5  -1  -2 37052.2 1152.01   3
   5  -1  -2 35869.6 1303.22   1
  -5  -1   2 34861.8 946.947   4
  -5  -1   1 52659.7 1742.22   2
   5  -1  -1 51533.1 1424.52   1
   5  -1   0 10354.1 656.529   3
  -5   1   0 11243.7 714.827   2
   5  -1   0 12033.2 651.421   1
  -5  -1   0 12066.5 873.236   2
  -5  -1  -1 4143.89 558.426   2
   5  -1   1 3511.98 418.303   3
  -5   1  -1 3994.99 404.043   2
  -5  -1  -2 33112.8 1470.62   2
   5  -1   2 29104.4 1160.05   3
  -5   1  -2 30592.7 1046.73   2
   5  -1   3 22142.4 1059.31   3
  -5   1  -3 21784.8 877.154   2
   5  -1   4 5060.80 540.546   3
  -5  -1  -4 5620.78 671.480   2
  -5  -1  -5 25961.3 1419.61   2
   5   1   5 23170.2 1241.07   3
   5  -1   5 26231.4 1237.75   3
  -5  -1  -6 287.367 283.830   2
   5   1   6 540.040 254.748   3
   5  -1   6 386.218 225.340   3
   5  -1   7 501.857 252.631   3
  -5  -1  -7 444.698 280.123   2
   5   1   7 205.469 212.826   3
  -5  -1  -8 7386.45 849.496   2
   5   1   8 7326.64 808.542   3
   5  -1   8 8448.19 793.298   3
  -5  -1  -8 6408.92 409.600   8
  -5   1  -9 2827.28 286.204   8
   5   1   9 2407.48 446.673  21
  -5  -1  -9 2769.52 581.254   2
   5   1   9 3507.04 558.082   3
   5  -1   9 3549.22 545.661   3
  -5  -1  -9 2799.36 287.397  11
   5   1   9 4312.61 347.195   6
   5  -1   9 2514.83 342.661   6
   5   1   9 5343.49 342.876  17
   5  -1   9 1558.91 360.531  21
   5  -1   9 2993.91 401.693  17
  -5  -1  -9 2942.54 324.263   8
   5  -1   9 3739.69 299.759  16
  -5  -1 -10 22331.1 1490.86   2
  -5   1 -10 21870.6 734.145   8
   5  -1  10 17158.9 952.280  21
   5   1  10 25255.9 1466.44   3
   5  -1  10 28190.8 1499.82   3
  -5  -1 -10 23776.7 778.912  11
   5   1  10 35712.4 892.618   6
   5   1  10 27309.0 751.251  17
   5  -1  10 24179.4 870.356   6
   5   1  10 16532.5 986.746  21
   5  -1  10 25231.8 943.301  17
   5  -1  10 29065.9 825.099  16
  -5  -1 -10 23355.0 816.532   8
  -5  -1 -11 7188.79 495.219   8
   5  -1  11 7990.18 535.887   6
   5   1  11 5253.17 644.643  21
   5   1  11 7411.21 804.009   3
   5  -1  11 8358.09 863.717   3
  -5  -1 -11 8037.51 481.182  11
   5   1  11 6936.18 467.271   6
   5  -1  11 4536.53 579.268  21
   5  -1  11 7517.53 546.656  17
   5  -1  11 8298.15 467.255  16
  -5   1 -11 5836.41 426.104   8
   5  -1  12 3045.57 544.358  21
  -5   1 -12 3920.16 350.050   8
  -5  -1 -12 5039.15 396.121  11
  -5   1 -12 4377.88 383.917  11
   5  -1  12 7126.88 480.144   6
   5   1  12 3239.60 583.527  21
   5  -1  12 6352.42 491.790  17
   5  -1  12 5377.08 407.079  16
  -5  -1 -12 4748.60 412.728   8
  -5  -1 -13 244.982 208.360   8
   5  -1  13 243.906 151.416  16
  -5   1 -13 148.162 160.032   8
   5  -1  13 1225.63 315.214  17
   5  -1  13 1384.87 274.974   6
  -5  -1 -13 236.160 180.593  11
  -5   1 -13 102.870 156.568  11
  -5  -1 -14 521.337 219.893   8
  -5   1 -14 318.279 168.035   8
  -5  -1 -14 377.654 180.525  11
  -5   1 -14 563.486 194.073  11
   5  -1  14 383.993 218.266   6
   5  -1  14 930.425 239.858  17
   5  -1  14 430.729 177.771  16
  -5  -1 -15 222.965 187.463   8
  -5  -1 -15 156.821 170.138  11
  -5   1 -15 222.992 162.205  11
  -5  -1 -16 5906.31 387.603  11
  -5   1 -16 5080.62 314.531  11
  -5  -1 -16 5865.74 389.184   8
  -5  -1 -17 1120.93 197.291  11
  -5  -1 -17 1111.11 194.705   8
  -5  -1 -18 408.478 124.411   8
   5  -1  18 726.476 321.829  15
  -5  -1 -18 528.614 127.559  11
   5  -1  18 776.519 125.000  10
   5  -1  19 87.9794 201.365  15
   5   1  19 114.823 97.0960  10
   5  -3 -21 2252.39 241.915   7
  -5   3  21 3616.64 182.035  19
  -5   3  20 91.5190 93.4639  19
   5  -3 -20-43.9640 172.193   7
  -5   3  19 644.759 125.781  13
   5  -3 -19 559.770 242.513   7
   5  -3 -18 276.953 193.179   8
  -5   3  18 261.228 120.100  13
   5  -3 -18 283.018 255.175   7
  -5  -3  17 18108.1 600.062  18
   5  -3 -17 15722.4 695.859   8
   5  -3 -17 15294.3 834.400   7
  -5  -3  17 18435.4 550.514   9
  -5   3  17 18791.3 620.421  13
  -5  -3  16 5078.31 328.109   9
  -5   3  16 5373.16 367.772  13
  -5  -3  16 5302.06 356.100  18
   5  -3 -16 4106.43 504.086   7
  -5   3  16 5419.64 770.735  10
   5  -3 -16 4505.29 427.621   8
  -5   3  15 4209.94 345.794  13
  -5  -3  15 4160.74 328.873  18
   5  -3 -15 3717.00 496.653   7
  -5  -3  15 4723.67 334.221   9
   5  -3 -15 3762.68 401.994   8
   5  -3 -14 32.0212 225.830   8
   5  -3 -14 186.568 174.390  14
  -5  -3  14 105.955 139.559   9
  -5   3  14 104.611 139.193  13
   5  -3 -14 106.535 236.237   7
  -5  -3  14 64.1113 151.479  18
  -5   3  13 13887.7 604.016  13
   5  -3 -13 13548.1 830.732   7
  -5  -3  13 14384.2 574.853   9
  -5  -3  13 12936.5 544.015  18
   5  -3 -13 13561.3 688.868   8
   5  -3 -12 7104.57 596.421  14
   5  -3 -12 9940.22 591.889   8
  -5   3  12 10056.2 515.087  13
  -5  -3  12 9022.74 451.039  18
   5  -3 -12 10238.8 710.699   7
  -5   3  12 3223.60 646.641  10
   5  -3 -12 4910.24 875.098   1
  -5  -3  12 10722.0 498.519   9
  -5  -3  12 9014.91 959.723   4
   5   3 -12 6562.23 1262.08   1
   5  -3 -11 7500.25 598.738   7
  -5   3  11 7731.39 449.944  13
   5  -3 -11 6391.15 550.875  14
   5   3 -11 4549.47 985.997   1
  -5   3  11 2997.79 625.756  10
   5  -3 -11 4449.92 794.533   1
  -5  -3  11 8164.75 433.198   9
  -5  -3  11 6645.03 396.227  18
   5  -3 -11 7723.54 514.329   8
  -5  -3  11 6028.28 775.942   4
   5  -3 -10 3537.18 415.402  14
   5  -3 -10 2610.31 589.009   1
  -5   3  10 3929.96 328.817  13
   5  -3 -10 3653.31 432.425   7
   5   3 -10 2585.03 727.036   1
  -5  -3  10 3207.04 286.648  18
  -5   3  10 2403.29 527.167  10
  -5  -3  10 3706.12 314.029   9
  -5  -3  10 2992.92 564.523   4
   5  -3 -10 4101.77 396.532   8
   5  -3  -9 2315.33 336.670  14
  -5  -3   9 1902.13 460.232   4
  -5   3   9 2506.15 256.742  13
   5  -3  -9 2834.05 373.990   7
  -5  -3   9 2810.65 281.732   9
  -5  -3   9 1930.42 232.965  18
   5  -3  -9 2713.70 323.407   8
   5   3  -8-35.4928 389.826   1
  -5  -3   8 13.8150 257.554   4
  -5  -3   7 58949.1 2099.29   4
  -5  -3   6 7145.56 874.487   2
  -5  -3   6 7667.45 768.844   4
  -5  -3   5 310.988 270.133   4
  -5  -3   5-91.7730 225.228   2
   5  -3  -5 68.6164 188.131   3
  -5  -3   4 1139.03 343.550   4
  -5  -3   4 1539.06 423.549   2
   5  -3  -4 1295.12 338.494   3
  -5  -3   3 1842.14 400.214   4
  -5  -3   3 2187.89 477.657   2
   5  -3  -3 1902.71 394.820   3
  -5  -3   2 25535.8 1464.41   2
   5  -3  -2 26025.8 1274.45   3
  -5  -3   1 62700.6 2288.57   2
   5  -3  -1 58869.1 1924.87   3
  -5  -3   0 20283.4 1348.76   2
   5  -3   0 18328.2 1102.82   3
   5  -3   1 712.055 293.979   3
  -5  -3  -1 757.620 400.613   2
   5  -3   2 1518.98 386.114   3
  -5  -3  -2 2087.18 516.207   2
  -5  -3  -3 2885.16 617.308   2
   5  -3   3 2526.00 473.475   3
  -5  -3  -4-132.514 297.113   2
   5  -3   4 148.120 220.946   3
   5  -3   4 129.598 206.148  16
  -5  -3  -5 11410.5 1164.33   2
   5  -3   5 6565.70 821.053   7
   5  -3   5 9587.70 886.108   3
  -5  -3  -5 8633.40 427.258  11
   5  -3   5 10746.1 639.302  16
  -5  -3  -5 8585.82 403.774   8
   5  -3   6 4190.41 626.854   3
  -5  -3  -6 3565.96 299.880  11
   5  -3   6 4823.28 486.434   5
  -5  -3  -6 4610.10 786.497   2
  -5  -3  -6 3821.27 300.507   8
   5  -3   6 3483.42 413.758  16
  -5  -3  -7 870.121 196.516   8
  -5  -3  -7 951.728 197.499  11
  -5  -3  -7 1363.19 507.940   2
   5  -3   7 1092.54 216.752  22
   5  -3   7 1193.95 367.595   3
   5  -3   7 1083.79 266.057  16
  -5  -3  -8 18299.8 1533.31   2
   5  -3   8 12902.4 843.675  17
  -5  -3  -8 15454.0 608.069  11
   5  -3   8 13723.1 673.634   6
   5  -3   8 16107.1 655.689  22
   5  -3   8 12942.9 703.023  16
  -5  -3  -8 15119.9 612.107   8
   5  -3   9 4092.15 501.391  17
   5  -3   9 5075.57 387.223  22
  -5  -3  -9 5120.04 383.058  11
   5  -3   9 4679.61 394.621   6
   5  -3   9 5925.01 431.231  16
  -5  -3  -9 5431.32 384.965   8
   5  -3  10 20482.1 738.008  16
  -5  -3 -10 21208.2 726.169   8
  -5  -3 -10 20022.9 715.363  11
   5  -3  10 18885.9 714.456   6
   5  -3  10 18680.3 708.045  22
   5  -3  10 17711.3 856.870  17
   5  -3  11 308.031 294.799  15
  -5  -3 -11 110.526 170.937   8
   5  -3  11 197.165 147.229  22
  -5  -3 -11 180.396 174.470  11
   5  -3  11 464.891 171.810   6
   5  -3  11 349.055 274.762  17
   5  -3  11 446.951 175.115  16
   5  -3  12 2006.17 379.185  15
  -5  -3 -12 2178.70 288.497  11
   5  -3  12 2037.47 259.044  22
   5  -3  12 1988.26 322.460  17
   5  -3  12 1490.34 271.862  16
  -5  -3 -12 2061.89 282.171   8
   5  -3  13 188.286 285.848  15
  -5  -3 -13 70.4935 175.611   8
   5  -3  13-93.7177 137.500  16
  -5  -3 -13 53.6598 185.975  11
  -5   3 -13-175.439 146.444  11
   5  -3  13 254.349 146.490   6
   5  -3  14-76.7597 265.461  15
  -5  -3 -14-175.298 185.938   8
  -5  -3 -14 77.6327 179.061  11
   5  -3  14 88.6164 128.591  16
   5  -3  15 2944.07 383.206  15
  -5  -3 -15 4889.69 354.331   8
  -5  -3 -15 5474.34 348.208  11
   5   3  15 7452.39 318.708  10
   5  -3  15 5125.97 314.105  16
  -5  -3 -16 4062.74 272.540  11
   5   3  16 3696.00 222.701  10
  -5  -3 -16 4186.35 282.775   8
  -5  -3 -17 5954.46 263.229  11
  -5  -3 -17 6362.90 280.817   8
  -5   5  18 1938.10 118.607  19
  -5   5  17 2464.89 169.120  13
  -5   5  17 2348.80 156.837  19
   5  -5 -16 308.089 117.617  14
  -5   5  16 810.858 133.226  13
   5  -5 -15 115.001 126.904  14
  -5   5  15 176.767 120.056  13
   5  -5 -14 528.987 188.212  14
  -5   5  14 744.736 156.883  13
   5  -5 -13 677.420 213.450  14
  -5   5  13 905.034 173.796  13
   5  -5 -12 9009.74 596.352  14
  -5   5  12 11092.2 474.063  13
   5  -5 -11 5863.39 509.235  14
  -5   5  11 6704.12 379.573  13
   5  -5 -10 11188.5 696.789  14
  -5   5  10 11321.2 485.203  13
  -5  -5  10 12512.5 505.107   9
   5  -5  -9 6282.45 539.656  14
  -5   5   9 5679.18 355.720  13
  -5  -5   9 7006.09 390.803   9
   5  -5  -8 8173.77 619.321  14
  -5  -5   8 7868.31 412.870   9
  -5   5   8 6631.02 375.951  13
   5  -5  -7 3943.35 457.034  14
  -5  -5   7 4057.73 315.451   9
  -5   5   7 3497.54 276.120  13
   5  -5  -6 28525.4 1106.52  14
  -5   5   6 25631.6 706.851  13
  -5  -5   6 27464.1 741.995   9
   5  -5  -6 28305.8 861.659  23
   5  -5  -5 6279.53 535.893  14
  -5   5   5 5646.85 335.172  13
  -5  -5   5 5633.78 353.527   9
   5  -5  -5 5627.25 401.941  23
   5  -5  -5 6498.86 440.714   5
   5  -5  -4 19720.9 908.189  14
   5  -5  -4 17881.0 714.123  23
   5  -5  -4 19769.7 731.888   5
   5  -5  -3 19238.0 882.090  14
   5  -5  -3 19921.9 721.238   5
   5  -5  -3 17226.6 711.351  23
   5  -5  -2 0.23554 166.196  14
   5  -5  -2 99.4731 123.347  23
   5  -5  -2-29.4082 140.276   5
   5  -5  -1 4392.69 385.087  23
   5  -5  -1 5531.12 385.184   5
   5  -5  -1 5342.33 472.355  16
   5  -5   0 728.180 190.687  23
   5  -5   0 941.548 188.682   5
   5  -5   0 1153.64 267.177  16
   5  -5   1 1416.19 282.322  16
   5  -5   1 1255.95 238.308  23
   5  -5   1 1544.40 212.179   5
   5  -5   2 15368.6 588.731   5
   5  -5   2 14475.5 740.815  16
   5  -5   3 19920.9 653.213   5
   5  -5   3 18582.3 823.261  16
   5  -5   4 3438.25 390.980  16
   5  -5   5 2558.76 339.560  16
  -5  -5  -6 1782.22 201.186  11
   5  -5   6 1389.25 267.179  16
  -5  -5  -7 133.523 123.475  11
   5  -5   7 254.501 157.171  22
   5  -5   7-145.798 215.296  17
   5  -5   7-13.7485 158.475  16
  -5  -5  -8 14853.7 502.268  11
   5  -5   8 14822.5 560.813  22
   5  -5   8 12056.4 560.794  17
   5  -5   8 12460.8 535.176  16
  -5  -5  -9 9730.28 397.878  11
   5  -5   9 9197.78 432.246  22
   5  -5   9 8692.37 422.268  17
   5  -5   9 9502.32 426.066  16
  -5  -5 -10 12104.5 427.756  11
   5  -5  10 11466.6 435.714  22
   5  -5  10 11708.1 412.056  17
   5  -5  10 11106.6 403.677  16
   5  -5  11 667.671 129.197  22
  -5  -5 -11 743.141 141.326  11
   5  -5  11 550.423 118.005  16
  -5  -5 -12 384.086 109.917  11
   5  -5  12 118.894 71.1664  16
  -5  -5 -13 1966.76 154.426  11
   5  -5  13 1199.81 97.7771  16
   5  -7  -9 64.9614 70.4054  16
   5  -7  -8 1431.83 146.319  16
   5  -7  -7-42.5219 87.9151  16
   5  -7  -6 1637.66 171.049  16
   5  -7  -5 738.305 137.157  16
   5  -7  -4 3921.48 255.046  16
   5  -7  -3-1.66573 97.6681  16
   5  -7  -2 889.041 151.840  16
   5  -7  -1-26.5020 98.7822  16
   5  -7   0 760.328 132.061  16
   5  -7   1 2069.08 175.174  16
   5  -7   2 1048.40 109.038  22
   5  -7   2 1171.17 123.344  16
   5  -7   3 16.4055 53.5047  16
   5  -7   3 32.6122 52.2218  22
   5  -7   4 27.6447 43.7581  22
  -6   0  22 23460.1 517.648  18
   6   0 -21-123.539 131.339   7
  -6   0  21-10.6756 126.822  18
  -6   0  20 9931.20 642.762  12
   6   0 -20 8068.86 551.253   7
  -6   0  20 7794.48 829.496  10
  -6   0  19 557.218 370.355  12
   6   0 -19 50.8834 191.939   7
  -6   0  18 6068.04 554.537  12
  -6   0  18 6317.70 853.278  10
  -6   0  17 434.813 350.127  12
   6   0 -17 42.5454 211.044   7
  -6   0  16 861.455 175.836   9
  -6   0  16 918.531 341.105  12
   6   0 -16 482.453 283.081   7
  -6   0  16 776.425 154.258  19
  -6   0  15 176.279 139.785   9
  -6   0  15 491.833 321.942  12
   6   0 -15-62.7319 234.997   7
  -6   0  15 108.414 117.881  19
   6   0 -14 2141.86 1052.50   1
  -6   0  14 3568.18 610.389   4
  -6   0  14 3494.69 281.081   9
  -6   0  14 3724.04 503.913  12
   6   0 -14 2471.85 450.332   7
  -6   0  14 3695.83 280.484  19
  -6   0  14 4560.78 878.456  10
  -6   0  13 6.48443 259.527   4
  -6   0  13 461.884 299.808  12
   6   0 -13-8.02670 220.313   7
  -6   0  13 96.5882 113.455  19
  -6   0  13 39.0457 118.268   9
   6   0 -13-136.131 726.828   1
  -6   0  12 4844.91 650.244   4
  -6   0  12 4942.37 517.905  12
  -6   0  12 5831.16 874.871  10
  -6   0  12 5103.88 306.865   9
  -6   0  12 4652.21 304.723  19
  -6   0  11-20.4611 236.610   4
   6   0 -11-186.936 660.926   1
   6   0 -10 4678.84 1111.00   1
  -6   0  10 4628.35 573.019   4
  -6   0   9 0.34256 183.809   4
   6   0  -9-210.628 548.514   1
  -6   0   8 7354.61 643.551   4
   6   0  -8 7299.81 1002.71   1
  -6   0   7-52.0620 170.264   4
   6   0  -7-66.5129 346.181   1
  -6   0   6 2231.84 329.341   4
   6   0  -6 2232.18 554.231   1
   6   0  -5 86.5450 310.446   1
  -6   0   5 17.9202 133.131   4
   6   0  -4 1002.19 382.713   1
  -6   0   4 545.004 288.718   2
   6   0  -3 74.9340 128.507   3
  -6   0   3-112.242 306.221   2
   6   0  -2 15300.4 770.886   3
  -6   0   2 16318.8 1000.62   2
   6   0  -1-28.7845 132.708   3
  -6   0   1 1.04754 169.531   2
   6   0   0 20364.2 968.008   3
  -6   0   0 23307.2 1160.97   2
   6   0   1-57.0553 163.498   3
  -6   0  -1 202.108 213.092   2
  -6   0  -2 9433.01 756.425   2
   6   0   2 9470.69 727.582   3
   6   0   3-56.9668 175.983   3
  -6   0  -3 48.4381 190.847   2
  -6   0  -4 2562.88 425.732   2
   6   0   4 2818.29 437.328   3
  -6   0  -5 111.467 223.443   2
   6   0   5-38.8501 190.249   3
  -6   0  -6 19023.9 1133.66   2
   6   0   6 20883.5 1245.70   3
  -6   0  -7 26.1472 160.864   8
  -6   0  -7 150.313 211.159  13
   6   0   7 192.919 199.268  17
   6   0   7-209.809 239.267   6
   6   0   7 19.9498 189.386   3
   6   0   7 28.1233 94.7238  16
  -6   0  -8 2011.74 407.312  13
   6   0   8 2873.77 531.750   3
   6   0   8 1907.71 311.234   6
   6   0   8 2291.17 433.095  21
  -6   0  -8 2418.86 296.777   8
   6   0   8 1629.93 300.012  17
   6   0   8 2326.30 250.040  16
  -6   0  -9-166.576 183.199   8
  -6   0  -9-206.055 247.644  13
  -6   0  -9-423.828 259.888  11
   6   0   9 40.4370 203.611   6
   6   0   9 191.149 226.206   3
   6   0   9 187.931 309.166  21
   6   0   9 259.984 205.314  17
   6   0   9-22.2188 106.974  16
  -6   0 -10 6109.58 428.930  11
   6   0  10 7360.00 489.429   6
   6   0  10 6040.81 476.685  17
   6   0  10 6390.11 405.220  16
  -6   0 -10 5820.61 446.540   8
  -6   0 -11 60.6479 189.236   8
  -6   0 -11 38.0175 181.776  11
   6   0  11 1214.19 288.272   6
   6   0  11-210.716 355.172  21
   6   0  11 955.581 245.552  17
   6   0  11 19.1646 109.295  16
  -6   0 -12 85266.4 1512.09  11
  -6   0 -12 79970.5 1487.59   8
  -6   0 -13-82.6895 174.656   8
  -6   0 -13 46.7444 181.595  11
  -6   0 -14 5611.39 392.091  11
  -6   0 -14 5150.28 381.258   8
  -6   0 -15 126.522 149.403   8
  -6   0 -15-124.752 169.238  11
  -6   0 -16 2446.69 220.001   8
  -6   0 -16 3080.41 254.141  11
  -6   0 -17-19.7284 78.5270   8
  -6   0 -17 86.1582 104.127  11
   6   0  18 29270.6 815.437  15
   6   0  18 27428.4 482.077  10
   6  -2 -22 3557.26 272.868   7
   6  -2 -21 5212.55 391.273   7
  -6   2  21 7352.57 263.826  19
  -6   2  20 3066.62 218.889  19
  -6  -2  20 2836.07 233.869  18
  -6  -2  19 4492.53 301.250  18
   6  -2 -19 3726.46 448.768   7
  -6   2  19 4734.65 294.974  19
  -6   2  18 641.867 305.415  12
   6  -2 -18 1157.89 365.062   7
  -6  -2  18 1368.09 186.308   9
  -6   2  18 1222.15 191.224  19
  -6  -2  18 1107.91 208.363  18
  -6   2  17 350.406 154.182  19
  -6   2  17 220.944 114.365  13
  -6   2  17 305.831 275.715  12
  -6  -2  17 303.313 175.813  18
   6  -2 -17 359.250 299.594   7
  -6  -2  17 397.789 148.812   9
  -6  -2  16 753.221 179.197   9
  -6   2  16 817.051 164.153  13
  -6   2  16 630.276 292.680  12
   6  -2 -16 529.365 307.687   7
  -6  -2  16 734.705 200.120  18
  -6   2  15 25286.0 768.161  13
   6  -2 -15 23997.7 1144.57   7
  -6   2  15 26431.1 1465.28  10
  -6  -2  15 26826.3 786.023   9
   6  -2 -15 21903.9 839.789   8
  -6  -2  15 20336.4 673.350  18
  -6   2  14 18823.8 666.276  13
  -6   2  14 17851.3 568.039   9
   6  -2 -14 19649.1 1033.62   7
  -6   2  14 20247.2 1325.97  10
  -6  -2  14 21945.1 759.723   9
   6  -2 -14 17284.6 745.455   8
  -6  -2  14 17321.2 624.099  18
  -6  -2  13 2318.33 530.563   4
  -6   2  13 2390.37 257.919  13
  -6  -2  13 3216.24 333.414   9
   6  -2 -13 2506.65 437.222   7
  -6   2  13 1431.61 304.982  12
  -6   2  13 4678.13 840.704  10
   6  -2 -13 874.776 517.771   1
   6   2 -13 1081.79 775.421   1
  -6  -2  13 2422.73 267.948  18
   6  -2 -13 2143.85 344.549   8
  -6  -2  12 9556.41 974.411   4
   6  -2 -12 10899.3 608.313   8
  -6   2  12 10886.1 514.924  13
  -6  -2  12 12454.0 564.693   9
  -6   2  12 5183.92 460.274  12
   6  -2 -12 10721.3 772.729   7
   6  -2 -12 7795.35 1245.21   1
  -6   2  12 9805.42 1048.44  10
  -6  -2  12 10329.1 471.835  18
   6   2 -12 8036.39 1506.03   1
   6  -2 -11 535.512 227.824   8
  -6  -2  11 435.064 304.437   4
  -6   2  11 730.271 168.837  13
  -6   2  11 470.835 272.249  12
   6  -2 -11-113.911 482.129   1
   6   2 -11 527.351 606.803   1
   6  -2 -11 728.103 288.248   7
  -6  -2  11 314.135 155.263  18
  -6  -2  11 744.842 176.516   9
  -6  -2  10 3728.73 595.682   4
  -6   2  10 4757.34 340.528  13
   6  -2 -10 3313.39 820.013   1
   6  -2 -10 5489.36 528.780   7
   6   2 -10 3759.53 921.226   1
  -6   2  10 5494.33 877.456  10
  -6  -2  10 4788.18 323.999   9
  -6  -2  10 3651.53 286.235  18
   6  -2 -10 4851.16 420.716   8
   6  -2  -9 30358.6 2268.62   1
  -6  -2   9 34873.5 1637.54   4
   6   2  -9 35326.2 2379.54   1
   6   2  -8 24143.1 1914.07   1
  -6  -2   8 23463.6 1292.30   4
   6   2  -7 53595.8 2791.75   1
  -6  -2   7 47705.4 1791.81   4
  -6  -2   6 4818.11 777.274   2
  -6  -2   6 5151.50 578.555   4
  -6  -2   5 3.92835 230.304   2
  -6  -2   4 10124.5 961.047   2
  -6  -2   3 16520.3 1205.41   2
   6  -2  -3 15555.0 896.274   3
   6  -2  -2 326.932 226.814   3
  -6  -2   2 413.694 320.447   2
  -6  -2   1 98981.0 2945.58   2
   6  -2  -1 91501.9 2292.47   3
  -6  -2   0 12498.9 1071.00   2
   6  -2   0 11201.4 840.085   3
   6  -2   1 327.791 238.374   3
  -6  -2  -1 238.762 292.454   2
  -6  -2  -2 6157.19 828.728   2
   6  -2   2 5301.30 636.489   3
  -6  -2  -3 3562.16 666.070   2
   6  -2   3 2995.68 501.599   3
  -6  -2  -4-48.1791 308.479   2
   6  -2   4-103.102 217.165   3
  -6  -2  -5 29717.3 1207.18  13
  -6  -2  -5 34300.4 1934.09   2
   6  -2   5 26982.7 1628.46   7
   6  -2   5 34455.5 1625.89   3
  -6  -2  -5 26428.5 726.567  11
   6  -2   5 28093.8 769.924  22
   6  -2   5 40789.3 1494.67   5
   6  -2   5 27076.8 896.505  16
  -6  -2  -5 26059.4 724.069   8
  -6  -2  -6 6724.33 634.397  13
  -6  -2  -6 9181.67 1043.81   2
   6  -2   6 5769.56 498.441  21
   6  -2   6 5010.27 806.327   7
   6   2   6 7633.06 865.415   3
   6  -2   6 9395.64 890.137   3
   6   2   6 6936.61 595.912  21
  -6  -2  -6 7445.84 408.803  11
   6  -2   6 7443.61 415.018  22
   6  -2   6 7027.87 455.923  16
  -6  -2  -6 7072.03 418.573   8
  -6  -2  -7 112.494 156.500   8
   6  -2   7 300.157 286.248   3
  -6   2  -7 29.5844 144.590   8
  -6  -2  -7 387.112 172.344  11
  -6  -2  -7 245.255 325.781   2
   6   2   7 192.301 247.891   3
   6  -2   7 110.992 117.145  22
   6  -2   7 152.114 221.277  21
   6   2   7 181.805 252.808  21
   6  -2   7 39.1184 313.877  17
   6  -2   7 145.235 155.750  16
  -6   2  -8 14850.7 569.971   8
  -6  -2  -8 18483.8 1500.21   2
   6   2   8 13906.0 1177.29   3
  -6  -2  -8 16362.8 628.768  11
   6   2   8 7799.37 446.141   6
   6  -2   8 15553.0 755.624   6
   6  -2   8 17172.5 635.014  22
   6   2   8 10503.8 729.341  21
   6  -2   8 9104.41 651.511  21
   6  -2   8 14294.5 841.322  17
   6  -2   8 16963.7 652.554  16
  -6  -2  -8 16548.1 659.624   8
  -6   2  -9 18710.1 640.855   8
   6  -2   9 11773.7 771.690  21
  -6  -2  -9 20795.9 714.439  11
   6  -2   9 19286.1 824.110   6
   6  -2   9 20744.7 720.165  22
   6   2   9 14802.4 909.631  21
   6  -2   9 18462.0 917.091  17
   6  -2   9 24149.7 763.388  16
  -6  -2  -9 21133.7 758.195   8
  -6  -2 -10 4781.22 376.072  11
   6  -2  10 5134.80 439.390   6
   6  -2  10 2952.11 460.574  21
   6   2  10 2897.20 483.502  21
   6  -2  10 5254.02 500.998  17
   6  -2  10 6527.90 410.532  16
  -6  -2 -10 5137.55 409.063   8
  -6   2 -10 4385.74 331.331   8
  -6  -2 -11 5979.61 415.657  11
   6  -2  11 6619.35 449.985   6
   6   2  11 3098.71 519.131  21
   6  -2  11 3289.49 482.529  21
   6  -2  11 5798.05 485.513  17
   6  -2  11 6317.85 408.412  16
  -6  -2 -11 6047.01 446.095   8
  -6   2 -11 4654.08 331.901   8
  -6  -2 -12 14164.2 615.842  11
   6  -2  12 14042.9 622.708  16
  -6  -2 -12 15110.6 641.606   8
  -6  -2 -13 287.023 203.339   8
  -6  -2 -13 61.9093 187.137  11
   6  -2  13 576.520 211.070   6
  -6   2 -13 25.8169 134.243  11
   6  -2  13 88.6200 130.641  16
   6  -2  14 1165.79 373.614  15
  -6  -2 -14 663.514 217.403   8
  -6  -2 -14 713.630 216.363  11
  -6   2 -14 694.097 167.794  11
   6  -2  14 278.583 184.691  17
   6  -2  14 631.337 169.481  16
   6  -2  15 14212.5 709.213  15
  -6  -2 -15 20096.3 620.731  11
  -6   2 -15 15429.7 453.137  11
  -6  -2 -15 19823.6 625.611   8
  -6  -2 -16 3692.68 266.730  11
  -6  -2 -16 3760.95 263.669   8
  -6  -2 -17 662.549 110.825  11
   6   2  17 985.929 126.745  10
  -6  -2 -17 766.530 126.711   8
  -6   4  19 675.410 89.4607  13
   6  -4 -19 441.711 120.239   7
  -6   4  19 763.312 109.769  19
  -6   4  18 45378.1 717.640  13
  -6   4  18 45827.8 736.452  19
   6  -4 -17 3025.39 297.588   7
  -6   4  17 4316.37 266.151  13
  -6   4  17 4399.05 272.770  19
   6  -4 -17 2346.88 215.524   5
  -6   4  16 861.830 168.097  13
   6  -4 -16 702.427 205.728   7
  -6  -4  16 836.679 156.139   9
   6  -4 -15 232.868 155.062  14
  -6   4  15 399.962 160.157  13
   6  -4 -15 354.359 201.001   7
  -6  -4  15 530.569 153.071   9
   6  -4 -14 13118.3 675.441  14
  -6   4  14 17872.1 624.503  13
   6  -4 -14 14559.8 707.139   7
  -6  -4  14 17956.8 579.131   9
   6  -4 -13 97.2485 155.954  14
  -6   4  13 34.0116 129.323  13
   6  -4 -13 156.318 198.251   7
  -6  -4  13 59.7459 149.696   9
  -6   4  12 34321.3 900.568  13
   6  -4 -12 32245.3 1057.77   7
  -6  -4  12 33875.9 841.793   9
   6  -4 -11 13418.1 769.824  14
  -6   4  11 15151.1 610.582  13
   6  -4 -11 14777.4 732.042   7
   6  -4 -10 12303.5 753.564  14
  -6   4  10 12422.3 554.070  13
   6  -4 -10 13025.8 679.440   7
  -6  -4  10 13796.3 555.081   9
   6  -4  -9 103.668 179.641  14
  -6  -4   9 71.3686 141.389   9
  -6   4   9 87.5016 123.876  13
   6  -4  -9 105.874 171.425   7
   6  -4  -8 19052.3 931.737  14
  -6   4   8 16920.5 638.224  13
   6  -4  -8 16611.1 780.246   7
  -6  -4   8 19090.4 645.012   9
   6  -4  -7 2594.14 375.920  14
  -6   4   7 2322.55 258.115  13
   6  -4  -7 2270.15 318.465   7
  -6  -4   7 2313.42 262.249   9
  -6   4   6 45653.1 1015.69  13
  -6  -4   6 44654.9 973.624   9
   6  -4  -5 32899.9 1195.92  14
  -6   4   5 28430.0 798.803  13
   6  -4  -5 30275.3 1005.21   7
  -6  -4   5 28177.8 769.486   9
   6  -4  -5 34589.1 1017.52   5
   6  -4  -4 122662. 2288.44  14
  -6   4   4 111088. 1519.81  13
   6  -4  -4 115871. 1947.94   7
  -6  -4   4 104736. 1441.73   9
   6  -4  -3 63.5540 177.433  14
  -6   4   3 125.268 114.343  13
   6  -4  -3 75.2313 167.920   7
  -6  -4   3-407.610 249.834   2
  -6  -4   3 242.389 153.108   9
   6  -4  -3 31.5946 166.804   5
   6  -4  -2 110.797 175.019  14
  -6   4   2 490.852 132.729  13
   6  -4  -2 386.645 215.911   7
  -6  -4   2 350.242 282.399   2
   6  -4  -2 1140.49 363.313   3
   6  -4  -2 805.620 214.747   5
   6  -4  -2 692.631 247.883  16
   6  -4  -1 1386.02 300.296   7
  -6  -4   1 1329.42 419.525   2
   6  -4  -1 1132.03 206.554  23
   6  -4  -1 1554.02 261.701   5
   6  -4  -1 872.001 338.666   3
   6  -4  -1 1720.25 300.225  16
  -6  -4   0 3609.69 647.336   2
   6  -4   0 3712.28 343.941   5
   6  -4   0 3939.79 612.113   3
   6  -4   0 3711.28 405.091  16
   6  -4   1 12366.7 698.017  16
   6  -4   1 13406.2 608.951   5
   6  -4   2 43355.4 1082.85   5
   6  -4   2 39814.7 1241.06  16
   6  -4   3 3963.83 355.823   5
   6  -4   3 3523.05 410.410  16
   6  -4   4 4472.15 389.895   5
   6  -4   4 3188.41 396.879  16
  -6  -4  -5 1898.90 220.301  11
   6  -4   5 1730.86 311.611   5
   6  -4   5 1545.69 237.381  22
   6  -4   5 1681.35 321.287  16
   6  -4   6 9363.68 488.331  22
   6  -4   6 7983.07 485.067   6
   6  -4   6 8436.20 564.481  16
  -6  -4  -7 390.318 134.258   8
  -6  -4  -7 440.852 156.023  11
   6  -4   7 74.8303 166.778   6
   6  -4   7 476.305 162.652  22
   6  -4   7-84.5119 312.540  17
   6  -4   7 259.107 186.436  16
  -6  -4  -8 8376.77 440.313  11
   6  -4   8 6240.45 378.889   6
   6  -4   8 8384.19 442.838  22
   6  -4   8 6150.62 535.833  17
  -6  -4  -8 8779.36 408.825   8
   6  -4   8 8053.32 463.451  16
  -6  -4  -9 3939.71 312.575  11
   6  -4   9 3849.02 302.918  22
   6  -4   9 3568.63 388.438  17
  -6  -4  -9 3614.08 274.991   8
   6  -4   9 3693.44 315.563  16
  -6  -4 -10 618.418 160.518   8
  -6  -4 -10 917.534 189.134  11
   6  -4  10 679.214 157.588  22
   6  -4  10 646.683 229.983  17
   6  -4  10 748.684 178.188  16
  -6  -4 -11 3722.27 279.718  11
   6  -4  11 2558.54 259.704  17
  -6  -4 -11 3603.64 269.105   8
   6  -4  11 2537.39 253.573  16
  -6  -4 -12 423.450 138.162   8
  -6  -4 -12 431.156 150.037  11
   6  -4  12 154.385 92.4642  16
  -6  -4 -13 335.512 117.197   8
  -6  -4 -13 291.038 125.802  11
   6  -4  13-28.5721 80.9490  17
   6  -4  13 218.098 90.1150  16
  -6  -4 -14 10665.9 300.028   8
  -6  -4 -14 9586.35 311.157  11
  -6   6  13 7.50088 47.6701  13
   6  -6 -13 31.1989 68.6612   5
   6  -6 -13 21.8495 76.1504  16
  -6   6  12 342.704 74.6515  13
   6  -6 -12 293.676 97.6996   5
   6  -6 -12 68.8824 97.0157  16
  -6   6  11 13463.1 349.298  13
   6  -6 -11 12698.6 421.777   5
  -6   6  10 187.289 75.3826  13
   6  -6 -10 286.798 121.042   5
   6  -6 -10 250.920 138.600  16
   6  -6  -9-122.446 143.600  14
  -6   6   9 57.7256 66.4906  13
   6  -6  -9 67.3768 110.853   5
   6  -6  -9 210.646 153.268  16
  -6   6   8 5710.64 247.945  13
   6  -6  -8 6868.66 349.374   5
   6  -6  -8 6327.69 394.758  16
  -6   6   7-18.7521 59.5819  13
   6  -6  -7 11.8926 107.609   5
   6  -6  -7 51.5225 159.862  16
   6  -6  -6 987.600 169.785   5
   6  -6  -6 1113.24 214.351  16
   6  -6  -5 19252.3 578.956   5
   6  -6  -5 18374.4 685.340  16
   6  -6  -4 13484.3 475.615   5
   6  -6  -4 12541.8 571.999  16
   6  -6  -3 980.229 226.873  16
   6  -6  -3 1019.68 155.334   5
   6  -6  -2 23200.7 601.722   5
   6  -6  -2 21432.0 737.716  16
   6  -6  -1 359.660 115.062   5
   6  -6  -1 71.1313 165.793  16
   6  -6   0 1285.47 158.511   5
   6  -6   0 821.515 204.625  16
   6  -6   1 12746.8 451.003   5
   6  -6   1 10274.3 510.146  16
   6  -6   2 310.010 163.144  16
   6  -6   3 1114.62 149.771  22
   6  -6   3 1082.93 186.981  16
   6  -6   4 2251.19 186.108  22
   6  -6   4 1909.98 209.459  16
   6  -6   5 487.796 103.226  22
   6  -6   5 432.694 117.758  16
   6  -6   6 6190.98 254.709  22
   6  -6   6 4955.75 246.802  16
   6  -6   7 2143.18 143.830  22
   6  -6   7 1901.04 133.395  16
   6  -6   8 8204.21 232.287  22
   6  -6   8 6238.48 192.002  16
  -7   1  22 62.4592 89.5150  18
  -7  -1  22 80.0129 89.2219  18
  -7  -1  21 12146.8 402.934  18
  -7   1  21 11987.4 406.071  18
   7  -1 -20 8.67223 170.026   7
  -7   1  20 69.9924 80.7215  19
  -7  -1  20 153.957 146.252  18
   7  -1 -19 871.313 267.199   7
  -7   1  19 1427.07 173.026  19
  -7  -1  19 1460.89 228.411  18
  -7   1  18 401.404 386.547  12
   7  -1 -18-40.9038 208.342   7
  -7   1  18 27.2745 110.403  19
  -7  -1  18-29.2628 129.988   9
  -7  -1  18-55.0703 172.370  18
  -7   1  17 286.719 140.032  19
  -7  -1  17 412.793 169.146   9
  -7   1  17 378.209 401.099  12
   7  -1 -17 450.274 265.311   7
  -7   1  17 520.270 146.909   9
  -7  -1  17 323.956 183.551  18
  -7   1  16 16146.9 555.945   9
  -7   1  16 16443.3 599.263  19
   7  -1 -15 25207.9 1135.09   7
  -7   1  15 24535.2 748.000  19
  -7   1  15 24647.1 695.509   9
  -7  -1  15 26876.0 781.982   9
  -7   1  14 894.453 401.428  12
  -7  -1  14 757.459 187.237   9
   7  -1 -14 802.352 316.491   7
  -7   1  14 778.169 187.810  19
  -7   1  14 855.408 177.780   9
  -7  -1  13 14070.6 1175.03   4
  -7   1  13 15052.6 1186.76   4
  -7   1  13 14912.6 543.053   9
  -7   1  13 15445.0 567.211  13
   7  -1 -13 9192.01 1931.17   1
   7  -1 -13 16152.7 932.876   7
  -7   1  13 7086.17 674.169  12
  -7  -1  13 14347.3 527.965  19
  -7  -1  13 15991.3 591.262   9
  -7   1  13 15450.1 598.879  19
   7   1 -12 14346.3 2076.40   1
  -7  -1  12 19975.4 1352.82   4
  -7   1  12 18630.1 1281.78   4
  -7   1  12 20198.6 653.445  13
   7  -1 -12 16828.0 2236.81   1
   7  -1 -12 22398.5 1051.51   7
  -7  -1  12 19772.0 622.618  19
  -7  -1  12 21056.1 660.956   9
  -7   1  12 20283.0 678.017  19
  -7   1  12 19465.8 616.282   9
  -7  -1  11 322.806 285.170   4
  -7   1  11 152.008 211.001   4
  -7   1  11 241.543 131.926  13
   7  -1 -11 111.838 243.093   7
  -7  -1  11 312.404 155.461   9
  -7  -1  11 158.115 113.755  19
  -7   1  11 163.836 142.878  19
  -7   1  11-100.236 150.505   9
   7  -1 -11 316.019 523.033   1
  -7  -1  10 1199.45 380.648   4
  -7   1  10 1436.75 200.308  13
   7  -1 -10 1428.11 317.784   7
   7   1 -10 1260.40 674.476   1
  -7  -1  10 1496.79 200.972   9
  -7  -1  10 1190.24 184.882  19
  -7   1  10 1287.45 202.147  19
   7  -1 -10 778.365 597.383   1
  -7  -1   9 23198.0 1291.50   4
   7  -1  -9 17982.9 2014.66   1
   7  -1  -9 29494.2 1092.61   7
  -7  -1   9 24556.4 654.349   9
  -7   1   9 24965.7 713.412  19
   7   1  -9 23427.1 2001.89   1
   7   1  -8 1087.32 599.020   1
   7  -1  -8 874.934 513.707   1
   7  -1  -7 26270.1 2007.63   1
   7   1  -7 31677.9 2129.85   1
   7  -1  -6 100948. 3639.65   1
   7   1  -6 105775. 3764.52   1
   7  -1  -5 875.136 413.786   1
  -7  -1   5 221.282 388.019   2
  -7  -1   4 19.4110 322.262   2
  -7  -1   3 14318.0 1161.23   2
   7   1  -2 31818.3 1274.69   3
   7  -1  -2 32762.7 1348.26   3
   7   1  -1 23798.6 1151.03   3
  -7  -1   1 27506.4 1557.53   2
   7  -1  -1 24596.6 1205.82   3
   7  -1   0 52.9117 161.012   3
  -7  -1   0 609.774 370.545   2
   7   1   0 129.721 208.238   3
  -7  -1  -1 1333.77 407.491   2
   7   1   1 1019.35 308.278   3
   7  -1   1 779.421 283.321   3
   7   1   2 8903.84 794.299   3
  -7  -1  -2 9045.65 922.637   2
   7  -1   2 6601.55 690.012   3
  -7  -1  -3 466.442 160.169   8
  -7  -1  -3 383.718 220.589  13
   7  -1   3 520.205 391.577   7
  -7  -1  -3 135.126 240.199   2
   7   1   3 302.272 211.102   3
   7  -1   3 466.700 259.393   3
   7  -1   3-365.216 397.009   5
  -7  -1  -4 48800.3 987.836   8
  -7  -1  -4 50995.0 1627.35  13
  -7   1  -4 58993.5 1495.88  13
   7  -1   4 50703.1 2193.79   7
  -7  -1  -4 57764.7 2332.95   2
   7   1   4 59090.6 2156.06   3
   7  -1   4 58953.3 2119.59   3
  -7  -1  -4 64302.0 1823.34  20
  -7  -1  -4 47959.4 1026.25  11
  -7  -1  -5 10443.2 489.943   8
  -7   1  -5 11004.7 503.577   8
  -7  -1  -5 10407.7 788.852  13
  -7   1  -5 10579.9 735.186  13
   7  -1   5 8853.42 1049.98   7
  -7  -1  -5 11142.9 1052.83   2
   7   1   5 12367.0 1017.81   3
   7  -1   5 11248.0 972.178   3
  -7  -1  -5 9714.68 478.181  11
   7   1   5 7386.12 470.248   6
   7  -1   5 8490.58 644.892  17
   7  -1   5 9667.95 448.226  16
  -7   1  -6 11868.0 546.195   8
   7  -1   6 13076.9 524.562  16
  -7  -1  -6 12081.6 870.597  13
  -7   1  -6 11388.7 808.358  13
  -7  -1  -6 12270.4 1107.25   2
   7   1   6 13566.4 1105.97   3
   7  -1   6 15121.6 1156.73   3
  -7  -1  -6 12253.3 552.776  11
   7   1   6 10312.6 539.810   6
   7  -1   6 10125.9 697.537  17
  -7  -1  -6 11765.0 547.656   8
  -7  -1  -7-89.3639 180.089   8
  -7   1  -7 45.2597 160.947   8
  -7  -1  -7-22.0325 257.578  13
  -7   1  -7 161.375 244.971  13
  -7  -1  -7-142.176 155.938  11
   7   1   7 136.088 180.241   6
   7  -1   7-428.247 317.214   6
   7  -1   7 51.3638 266.583  21
   7   1   7 76.0435 298.291  21
   7  -1   7-196.517 270.139  17
   7  -1   7-77.8498 111.619  16
  -7  -1  -8 461.988 204.054   8
  -7   1  -8 359.812 186.003   8
  -7  -1  -8 428.893 183.787  11
   7   1   8 388.512 310.533  21
   7   1   8 920.378 212.953   6
   7  -1   8 284.581 246.074   6
   7  -1   8 396.939 293.036  21
   7  -1   8 322.551 257.231  17
   7  -1   8 264.428 129.735  16
   7  -1   9 1789.17 390.892  21
  -7  -1  -9 2574.94 310.339  11
   7  -1   9 2174.04 349.375   6
   7   1   9 1929.05 431.452  21
   7  -1   9 1967.69 345.334  17
   7  -1   9 2938.11 275.825  16
  -7  -1  -9 2543.97 324.555   8
  -7   1  -9 2632.65 291.395   8
   7  -1  10 298.548 305.449  21
  -7  -1 -10 408.960 215.911   8
  -7   1 -10 432.071 182.006   8
   7   1  10 799.138 209.458   6
  -7  -1 -10 471.511 212.239  11
  -7   1 -10-294.846 256.646  11
   7  -1  10 545.939 247.428   6
   7   1  10 197.406 333.379  21
   7  -1  10 984.617 289.486  17
   7  -1  10 447.429 164.670  16
   7   1  11 1076.21 419.239  21
  -7  -1 -11 2804.68 314.597  11
  -7   1 -11 2632.68 300.640  11
   7  -1  11 3808.99 376.606   6
   7  -1  11 1716.00 436.724  21
   7  -1  11 3046.91 372.271  17
   7  -1  11 2574.09 279.269  16
  -7  -1 -11 2592.70 327.225   8
  -7   1 -11 2300.34 286.590   8
  -7  -1 -12 4284.79 360.876  11
  -7   1 -12 4375.86 359.111  11
   7  -1  12 4348.01 385.159  17
   7  -1  12 3218.55 326.254  16
  -7  -1 -12 4120.52 381.316   8
  -7   1 -12 3766.10 314.842   8
  -7  -1 -13 1008.57 225.129   8
  -7   1 -13 941.350 184.213   8
  -7   1 -13 1341.70 226.566  11
  -7  -1 -13 1067.03 217.551  11
   7  -1  13 707.636 231.718   6
  -7  -1 -14 3106.58 280.047  11
  -7   1 -14 3006.71 259.376  11
  -7  -1 -14 3363.12 288.155   8
  -7   1 -14 2390.06 210.350   8
   7  -1  15 3686.88 420.664  15
  -7  -1 -15 3239.11 251.361  11
  -7   1 -15 2841.93 209.997  11
  -7  -1 -15 3371.43 249.109   8
   7  -1  16 134.756 207.230  15
  -7  -1 -16-61.1139 87.6055   8
  -7  -1 -16 51.8857 100.036  11
   7  -1  16 531.030 96.2515  10
   7   1  16 791.648 131.952  10
   7  -3 -20 43.9027 115.291   7
  -7   3  20 44.9221 75.8186  19
   7  -3 -19 628.349 199.127   7
  -7   3  19 958.692 144.851  19
  -7   3  18 8781.30 350.249  13
  -7   3  18 9460.37 393.505  19
  -7   3  17 1879.07 199.542  13
   7  -3 -17 1271.23 290.749   7
  -7  -3  17 1523.54 191.214   9
  -7   3  17 1932.50 227.641  19
  -7   3  16 6323.90 358.137  13
  -7  -3  16 5673.34 343.334   9
  -7   3  16 6091.24 370.391  19
  -7  -3  16 5816.32 364.140  18
  -7   3  15 14577.1 564.264  13
   7  -3 -15 11857.0 701.068   7
  -7  -3  15 13604.0 536.228   9
  -7   3  15 13479.1 469.791   9
  -7   3  15 13519.2 554.073  19
  -7  -3  15 13402.3 548.017  18
  -7   3  14 54.0967 138.644  13
  -7  -3  14-12.2074 156.739   9
   7  -3 -14 39.7068 211.954   7
  -7   3  14 40.0768 150.927  19
  -7   3  14-64.0166 123.186   9
  -7  -3  14 42.4522 178.420  18
   7  -3 -14 157.349 147.848   5
   7  -3 -13 219.661 162.361  14
  -7  -3  13 621.958 201.127   9
  -7   3  13 714.792 180.980  13
   7  -3 -13 501.899 261.252   7
  -7   3  13 807.434 195.263  19
  -7  -3  13 609.523 193.216  18
   7  -3 -12 64.2223 153.331  14
  -7   3  12 222.339 160.820  13
   7  -3 -12 147.613 211.587   7
  -7  -3  12 142.688 156.911   9
  -7   3  12 143.052 148.664  19
  -7  -3  12 168.481 168.027  18
   7  -3 -11 2489.73 350.400  14
  -7   3  11 3058.88 316.795  13
   7  -3 -11 2956.45 407.457   7
  -7  -3  11 3244.53 309.804   9
  -7   3  11 2653.33 284.854  19
  -7  -3  11 2553.17 287.166  18
   7  -3 -10 361.974 201.746  14
  -7  -3  10 326.793 168.730   9
  -7   3  10 434.761 177.008  13
   7  -3 -10 454.775 237.551   7
  -7   3  10 428.476 161.164  19
  -7  -3  10 267.620 165.350  18
   7  -3 -10 361.797 180.911   5
   7  -3  -9 26145.8 1082.14  14
  -7   3   9 26559.6 830.912  13
   7  -3  -9 29002.2 1097.76   7
  -7  -3   9 30923.0 861.149   9
  -7   3   9 24816.1 736.928  19
  -7  -3   9 23867.9 726.582  18
   7  -3  -9 29682.5 945.131   5
   7  -3  -8 5571.72 519.688  14
   7   3  -8 4119.88 944.600   1
  -7   3   8 5125.40 377.815  13
   7  -3  -8 6172.26 523.310   7
  -7  -3   8 6818.22 416.718   9
  -7   3   8 4904.68 335.518  19
  -7  -3   8 4963.75 356.189  18
   7  -3  -8 6499.79 460.201   5
   7  -3  -7 5317.73 510.909  14
  -7   3   7 5578.88 389.266  13
   7   3  -7 4470.86 1016.96   1
   7  -3  -7 6468.96 520.657   7
  -7  -3   7 5796.61 385.451   9
  -7   3   7 4962.22 330.880  19
  -7  -3   7 5112.71 346.471  18
   7  -3  -7 6230.89 444.337   5
   7  -3  -6 11019.2 722.702  14
  -7   3   6 11872.1 537.782  13
   7  -3  -6 13360.1 716.637   7
  -7  -3   6 12223.8 531.909   9
  -7   3   6 11641.9 479.366  19
   7  -3  -6 13616.9 642.831   5
   7  -3  -5-285.885 251.823  14
  -7  -3   5 38.6202 262.887   2
  -7   3   5 27.2865 139.446  13
   7  -3  -5-15.1231 211.128   7
  -7   3   5 210.314 130.688  19
  -7  -3   5 39.6721 143.248   9
   7  -3  -5-35.9050 168.457   5
  -7   3   4 54.5030 138.943  13
   7  -3  -4 299.550 225.765   7
  -7  -3   4 65.9352 286.575   2
  -7  -3   4-105.730 138.658   9
   7  -3  -4 2.97903 157.068   5
   7  -3  -4-83.1236 178.970  16
  -7   3   3 20871.5 700.634  13
   7  -3  -3 22738.1 947.266   7
   7  -3  -3 22894.9 834.075   5
  -7  -3   3 20716.3 1529.75   2
   7  -3  -3 21827.5 858.119  16
  -7   3   2 989.460 183.410  13
   7  -3  -2 1186.72 287.658   7
  -7  -3   2 1571.74 384.315  20
  -7  -3   2 1030.88 448.060   2
   7  -3  -2 981.271 233.245   5
   7  -3  -2 949.704 235.125  16
  -7  -3   1 9074.72 603.120  13
  -7   3   1 11202.7 521.256  13
   7  -3  -1 13902.5 841.586   7
  -7  -3   1 10530.8 1149.59   2
   7  -3  -1 9910.45 885.669   3
  -7  -3   1 8793.63 696.704  20
   7  -3  -1 12251.7 613.296   5
   7  -3  -1 11362.0 633.534  16
  -7  -3   0 2903.87 384.490  13
  -7   3   0 4226.76 339.697  13
   7  -3   0 4012.16 499.332   7
  -7  -3   0 3724.45 715.199   2
   7  -3   0 3218.82 535.316   3
   7  -3   0 4069.32 390.601   5
   7  -3   0 3615.91 390.261  16
  -7  -3  -1 4089.76 460.892  13
  -7   3  -1 5665.12 389.817  13
   7  -3   1 5862.64 642.896   7
  -7  -3  -1 6516.41 909.959   2
   7  -3   1 5578.45 698.787   3
   7  -3   1 6839.94 497.031   5
   7  -3   1 5435.48 474.736  16
   7  -3   2 7939.40 836.764   7
  -7  -3  -2 7175.67 947.161   2
   7  -3   2 5946.78 724.477   3
   7  -3   2 7842.52 537.199   5
   7  -3   2 6241.89 508.397  16
   7  -3   3 2693.24 268.082  22
   7  -3   3 2954.49 607.292   7
   7  -3   3 3970.31 418.388   5
   7  -3   3 2848.26 358.648  16
   7  -3   4 999.249 448.459   7
   7  -3   4 1166.01 192.294  22
   7  -3   4 1347.30 317.111   5
   7  -3   4 1068.79 252.504  16
  -7  -3  -5 11709.7 496.084  11
   7  -3   5 11598.7 513.584  22
   7  -3   5 10333.7 587.404  16
  -7  -3  -5 10215.3 471.029   8
  -7   3  -6 1383.99 189.186   8
  -7  -3  -6 1611.39 229.106  11
   7  -3   6 1493.72 213.781  22
   7  -3   6 1001.99 388.461  17
  -7  -3  -6 1565.79 223.704   8
   7  -3   6 1274.37 236.683  16
  -7   3  -7 12624.8 476.068   8
  -7  -3  -7 14389.6 564.544  11
   7  -3   7 12227.0 653.881   6
   7  -3   7 14097.7 567.952  22
   7  -3   7 14583.5 616.692  16
  -7  -3  -7 14040.7 556.653   8
  -7  -3  -8 172.279 160.739   8
  -7  -3  -8 42.7341 136.556  11
   7  -3   8-208.064 239.220   6
   7  -3   8 72.9697 116.509  22
   7  -3   8-179.116 304.528  17
   7  -3   8 144.317 150.259  16
  -7  -3  -9 294.706 160.232   8
  -7  -3  -9 64.8707 158.210  11
   7  -3   9-35.0240 175.800   6
   7  -3   9 78.1157 267.384  17
   7  -3   9 265.627 148.880  16
  -7  -3 -10 6572.77 396.723  11
   7  -3  10 6593.76 366.184   6
   7  -3  10 5812.21 406.992  16
  -7  -3 -10 7067.75 398.234   8
  -7  -3 -11 7872.52 411.632  11
  -7   3 -11 2482.92 235.687  11
   7  -3  11 10552.5 400.309   6
   7  -3  11 4298.12 358.205  17
   7  -3  11 7882.43 396.499  16
  -7  -3 -11 7731.39 397.577   8
  -7  -3 -12 921.295 179.660   8
  -7  -3 -12 1297.34 201.750  11
   7  -3  12 724.996 134.688   6
  -7   3 -12 750.329 142.598  11
   7  -3  12 1157.43 226.496  17
   7  -3  12 1111.52 162.249  16
  -7  -3 -13 9501.11 394.594  11
   7  -3  13 9416.25 368.588  16
  -7  -3 -13 10146.8 396.363   8
  -7  -3 -14 1116.63 146.460  11
  -7  -3 -14 1280.73 149.092   8
  -7   5  16 14138.2 335.470  13
  -7   5  16 13559.0 292.309  19
  -7   5  15 6078.30 255.487  13
  -7   5  15 6147.60 229.995  19
  -7   5  14 3172.38 212.406  13
  -7   5  14 3106.14 181.117  19
  -7   5  13 8267.30 345.479  13
   7  -5 -13 6018.09 329.106   7
   7  -5 -13 6798.44 362.294   5
  -7   5  13 8074.21 297.343  19
  -7   5  13 7554.65 268.711   9
  -7   5  12 14148.0 464.526  13
  -7   5  12 13775.9 395.772  19
   7  -5 -12 13618.6 518.485   5
  -7   5  11 2882.37 233.611  13
   7  -5 -11 2558.02 246.330   7
  -7  -5  11 3312.96 251.598   9
  -7   5  11 2624.81 189.262  19
   7  -5 -11 2913.76 279.095   5
  -7   5  10 7458.17 361.418  13
   7  -5 -10 6880.14 401.210   7
  -7  -5  10 8868.32 386.318   9
  -7   5  10 7057.90 295.112  19
   7  -5 -10 8279.88 445.185   5
  -7   5   9 5273.99 308.189  13
   7  -5  -9 5291.49 365.321   7
  -7  -5   9 5847.08 330.051   9
   7  -5  -9 5755.60 397.460   5
  -7   5   8-17.8411 113.014  13
   7  -5  -8 93.0443 134.322   7
  -7  -5   8 110.926 131.787   9
   7  -5  -8 60.4604 156.582   5
   7  -5  -8 142.677 175.904  16
  -7   5   7 2475.89 222.458  13
  -7  -5   7 2614.73 241.303   9
   7  -5  -7 2974.86 300.865   5
   7  -5  -7 2917.85 329.351  16
  -7   5   6 1171.31 168.165  13
   7  -5  -6 1152.94 219.285   5
   7  -5  -6 1054.49 242.193  16
  -7   5   5 5116.27 302.034  13
   7  -5  -5 5847.69 393.952   5
   7  -5  -5 5593.87 430.204  16
  -7   5   4 2158.28 202.055  13
   7  -5  -4 2258.42 268.949   5
   7  -5  -4 2259.18 316.498  16
   7  -5  -3 4671.00 351.597   5
   7  -5  -3 4600.76 402.707  16
   7  -5  -2 3405.11 300.044   5
   7  -5  -2 3441.18 367.355  16
   7  -5  -1 344.227 165.476   5
   7  -5  -1-104.546 197.796  16
   7  -5   0 12062.0 521.939   5
   7  -5   0 11090.2 611.012  16
   7  -5   1 3903.06 273.741  22
   7  -5   1 4192.33 395.137  16
   7  -5   2 3213.90 253.336  22
   7  -5   2 2983.79 339.662  16
   7  -5   3 2151.78 209.745  22
   7  -5   3 1832.73 277.305  16
   7  -5   4 696.572 138.960  22
   7  -5   4 460.968 178.301  16
   7  -5   5 1464.62 165.639  22
   7  -5   5 1093.03 196.712  16
   7  -5   6 2048.03 185.281  22
   7  -5   6 1484.72 256.126  17
   7  -5   6 2038.27 225.867  16
   7  -5   7 538.749 113.880  22
   7  -5   7 754.951 178.059  17
   7  -5   7 706.228 133.426  16
   7  -5   8 298.577 124.530  17
   7  -5   8 330.481 96.1477  16
   7  -5   9 1089.33 121.935  17
   7  -5   9 527.275 86.6697  16
   7  -5  10 4171.06 175.416  16
  -8   0  22 512.194 98.6638  18
  -8   0  21 54.3251 113.852  18
  -8   0  20 12196.4 437.256  18
  -8   0  19-110.717 174.079  18
  -8   0  18 1940.81 263.408   9
  -8   0  18 1127.57 157.128  19
   8   0 -17-14.1325 161.500   7
  -8   0  17-76.1885 135.606   9
  -8   0  17 114.076 113.961  19
   8   0 -16 561.108 225.117   7
  -8   0  16 913.740 195.742   9
  -8   0  16 811.668 169.269  19
   8   0 -15-73.9852 183.604   7
  -8   0  15 38.9218 122.497  19
  -8   0  15 38.5716 138.268   9
   8   0 -14-0.69664 180.961   7
  -8   0  14-108.798 135.713  19
  -8   0  14 65.1099 142.916   9
   8   0 -13 60.1703 185.292   7
  -8   0  13 26.0299 134.306  19
  -8   0  13 116.079 149.260   9
  -8   0  12 4485.07 349.047  19
   8   0 -12 3817.01 448.571   7
  -8   0  12 4363.40 327.253   9
   8   0 -11 6.37098 203.219   7
   8   0 -11 166.793 583.802   1
  -8   0  11-8.86251 154.154  19
  -8   0  11 165.277 142.537   9
  -8   0  10 4371.39 312.371   9
  -8   0  10 4393.09 313.760  13
  -8   0  10 4450.97 350.405  19
   8   0 -10 4680.16 464.309   7
  -8   0   9 27.5039 117.039  13
   8   0  -9-128.119 196.832   7
   8   0  -9 273.973 560.845   1
  -8   0   9-121.320 146.336  19
  -8   0   9 0.10923 114.881   9
  -8   0   8 17940.1 635.533  13
   8   0  -8 20288.6 878.416   7
  -8   0   8 18817.6 674.338  19
  -8   0   8 18104.1 575.038   9
   8   0  -8 16222.7 1691.20   1
  -8   0   7 96.1273 121.819   9
  -8   0   7 95.4318 132.759  13
   8   0  -7-165.905 211.855   7
   8   0  -7 259.460 421.414   1
  -8   0   7-65.9292 140.063  19
  -8   0   6 13618.7 574.052  13
  -8   0   6 13733.6 576.315  19
   8   0  -6 15782.3 787.517   7
  -8   0   6 13421.0 479.063   9
   8   0  -6 12899.1 1377.51   1
  -8   0   5-116.809 131.094  13
   8   0  -5 12.5550 310.573   1
  -8   0   5 42.6254 112.886   9
   8   0  -4-94.1331 293.999   1
  -8   0   4 110.370 138.331  13
  -8   0   3-189.945 174.755  13
  -8   0   2 8174.18 499.763  13
  -8   0   2 4666.20 744.532   2
  -8   0   1 119.421 191.950  13
   8   0  -1-244.453 283.165   7
  -8   0   1-238.853 377.885   2
  -8   0   0 10055.8 595.679  13
   8   0   0 10725.2 918.355   7
  -8   0   0 8402.57 923.825   2
  -8   0  -1 55.8220 185.198  13
   8   0   1-39.9944 365.740   7
  -8   0  -1-35.8200 180.956   2
   8   0   1-65.1669 185.566   3
  -8   0  -2 15388.5 831.025  13
   8   0   2 12744.0 1154.92   7
   8   0   2 13384.3 1024.60   3
  -8   0  -2 13289.2 1114.27   2
  -8   0  -3 75.9159 158.791   8
  -8   0  -3-110.400 247.777  13
   8   0   3-145.285 465.810   7
   8   0   3-453.189 267.829   3
  -8   0  -4 33457.1 872.527   8
  -8   0  -4 32676.3 1410.36  13
   8   0   4 34390.7 1723.69   3
   8   0   4 31009.2 1009.98   6
  -8   0  -5-23.2375 153.662   8
  -8   0  -5-47.2128 241.857  13
   8   0   5-282.205 249.007   6
  -8   0  -6 24304.3 775.253   8
  -8   0  -6 25184.0 1228.10  13
  -8   0  -7 79.9670 174.274   8
  -8   0  -7-205.316 255.158  13
  -8   0  -7-171.167 196.859  11
   8   0   7 26.3996 212.160   6
   8   0   7 135.284 333.757  21
   8   0   7 347.764 187.708  17
  -8   0  -8 38796.9 1008.74  11
   8   0   8 35285.4 980.947   6
   8   0   8 38318.3 962.018  17
  -8   0  -8 37055.6 981.783   8
  -8   0  -9-42.0816 198.941   8
  -8   0  -9 47.2036 168.058  11
   8   0   9 314.432 212.157   6
   8   0   9-104.635 305.921  21
   8   0   9 598.736 197.745  17
  -8   0 -10 32004.2 891.099  11
   8   0  10 28805.6 743.297  17
  -8   0 -10 30479.5 871.841   8
   8   0  11-42.5706 369.915  21
  -8   0 -11 53.8468 176.356   8
  -8   0 -11 5.38605 181.902  11
   8   0  11 336.010 184.096   6
  -8   0 -12 202.370 161.426   8
  -8   0 -12 286.518 168.064  11
  -8   0 -13-52.1707 123.124   8
  -8   0 -13-142.478 152.748  11
  -8   0 -14 2680.75 211.680  11
  -8   0 -14 2412.96 184.526   8
   8   0  15 620.469 208.169  15
  -8   0 -15-20.4149 74.3910  11
   8  -2 -21 202.942 94.4949   7
  -8   2  21 367.859 93.5692  18
   8  -2 -20 6026.73 378.057   7
  -8   2  20 9594.17 313.935  19
  -8   2  19 18339.6 503.354  19
  -8  -2  19 17316.9 509.978  18
   8  -2 -18 2666.31 346.213   7
  -8  -2  18 3374.22 248.589   9
  -8   2  18 3564.47 268.703  19
  -8  -2  18 3281.50 267.763  18
  -8   2  17 7634.28 346.798  13
  -8  -2  17 8221.32 400.566   9
  -8   2  17 8030.39 360.096   9
  -8   2  17 7871.63 406.586  19
  -8  -2  17 7329.25 393.312  18
  -8   2  16 6773.29 397.537  19
  -8   2  16 7040.65 365.572  13
  -8  -2  16 6735.04 392.215   9
  -8   2  16 6779.65 354.544   9
  -8  -2  16 6240.30 382.033  18
  -8   2  15 491.307 146.770  13
   8  -2 -15 382.032 263.947   7
  -8  -2  15 513.561 196.220   9
  -8   2  15 448.846 183.665  19
  -8   2  15 517.010 157.985   9
  -8  -2  15 444.272 181.712  18
  -8   2  14-35.0642 114.687  13
   8  -2 -14 63.5318 223.652   7
  -8  -2  14-144.687 194.547   9
  -8   2  14 22.5161 156.781  19
  -8   2  14-32.4351 127.966   9
  -8  -2  14 19.7085 151.387  18
  -8   2  13 20967.2 702.762  13
  -8   2  13 19415.1 635.193   9
   8  -2 -13 19977.5 973.029   7
  -8   2  13 20720.2 718.615  19
  -8  -2  13 19690.8 676.692  18
  -8   2  12 1573.18 232.166  13
   8  -2 -12 1317.67 343.075   7
  -8  -2  12 1976.74 316.126   9
  -8   2  12 1546.02 239.290  19
  -8  -2  12 1361.68 231.568  18
  -8   2  12 862.463 177.918   9
  -8   2  11 19815.6 704.510  13
   8  -2 -11 21970.3 1016.39   7
  -8  -2  11 24111.5 803.068   9
  -8   2  11 19419.2 705.119  19
  -8  -2  11 17906.1 638.322  18
  -8   2  10 1483.55 223.815  13
   8  -2 -10 1544.05 342.779   7
  -8  -2  10 1413.01 224.642   9
  -8   2  10 1343.15 222.794  19
   8  -2 -10 1515.56 234.787   5
  -8  -2  10 1228.46 206.793  18
  -8   2   9 1170.93 210.847  13
   8  -2  -9 1405.54 339.646   7
  -8  -2   9 1349.70 219.155   9
  -8   2   9 1265.26 216.867  19
   8  -2  -9 1242.17 222.064   5
  -8  -2   9 1007.20 188.523  18
  -8   2   8 4078.11 341.920  13
   8  -2  -8 4666.05 489.502   7
  -8  -2   8 4491.58 336.354   9
  -8   2   8 4425.04 355.029  19
   8  -2  -8 4213.85 364.408   5
  -8   2   7 5024.50 383.894  13
   8  -2  -7 4861.92 511.622   7
  -8   2   7 4513.18 354.761  19
  -8  -2   7 4495.17 331.356   9
   8  -2  -7 4854.51 383.778   5
   8   2  -7 4876.31 1019.11   1
   8   2  -6 1851.63 715.567   1
   8  -2  -6 2532.04 292.921   5
  -8   2   6 2829.91 297.204  13
   8  -2  -6 2910.14 407.728   7
  -8  -2   6 2517.21 254.745   9
  -8   2   6 2647.73 272.635  19
  -8   2   5 7718.78 463.530  13
   8  -2  -5 8443.84 644.049   7
  -8  -2   5 7381.03 396.527   9
   8  -2  -5 7589.76 471.891   5
  -8   2   5 7286.16 411.290  19
  -8  -2   4 21714.6 923.861  13
  -8   2   4 24216.8 798.650  13
  -8  -2   4 24373.5 1835.30   2
   8  -2  -4 23646.9 821.925   5
  -8  -2   4 22481.1 659.104   9
  -8   2   4 24267.3 733.933  19
  -8   2   3 2225.52 271.658  13
   8  -2  -3 2636.17 402.633   7
  -8  -2   3 1207.58 267.745  13
   8  -2  -3 2429.78 304.026   5
  -8  -2   3 1563.11 509.289   2
  -8   2   3 1837.94 229.227  19
  -8   2   2 2357.39 290.077  13
  -8  -2   2 1770.80 324.664  13
   8  -2  -2 2313.33 391.248   7
  -8  -2   2 2231.96 583.151   2
   8  -2  -2 2650.55 321.099   5
  -8  -2   1 1622.69 339.855  13
  -8   2   1 1645.29 258.726  13
   8  -2  -1 2249.34 431.002   7
  -8  -2   1 2086.68 542.227   2
   8  -2  -1 2266.03 310.112   5
  -8   2   0 1378.99 249.490  13
  -8  -2   0 1372.31 316.242  13
   8  -2   0 1632.45 412.163   7
  -8  -2   0 1534.69 494.784   2
   8  -2   0 2241.70 327.956   5
   8  -2   0 889.026 346.907   3
   8  -2   1 412.728 294.043   3
  -8  -2  -1 303.137 238.628  13
  -8   2  -1 442.274 178.397  13
   8  -2   1 369.426 377.925   7
  -8  -2  -1 919.299 411.065   2
   8   2   1 204.986 239.565   3
  -8  -2  -1 1204.99 422.858  20
   8  -2   1 571.254 242.467   5
  -8   2  -2 1658.93 295.384  13
  -8  -2  -2 1356.64 340.568  13
   8  -2   2 1586.35 533.795   7
   8  -2   2 1417.71 356.681   5
   8   2   2 986.472 351.849   3
  -8  -2  -2 961.069 398.660  20
   8  -2   2 1137.17 224.163  16
  -8  -2  -2 1163.76 187.286   8
  -8  -2  -3 664.427 180.207   8
  -8  -2  -3 820.466 287.059  13
  -8   2  -3 684.638 237.194  13
   8  -2   3 716.017 497.081   7
  -8  -2  -3 182.241 321.383  20
   8  -2   3-324.407 416.174   5
   8  -2   3 645.031 168.400  16
  -8  -2  -4-51.6994 134.349   8
  -8  -2  -4-2.86337 235.480  13
  -8   2  -4-78.7488 183.302  13
   8  -2   4 54.6454 453.802   7
  -8  -2  -4 134.605 114.946  11
   8  -2   4-6.35231 120.480  16
  -8   2  -5 3729.68 311.186   8
  -8  -2  -5 2844.70 467.348  13
  -8   2  -5 2548.22 397.692  13
  -8  -2  -5 3519.03 291.788  11
   8  -2   5 2635.62 377.250  21
   8   2   5 2876.55 447.876  21
   8  -2   5 2217.62 444.165  17
   8  -2   5 3621.57 300.654  16
  -8  -2  -5 3326.50 309.154   8
  -8   2  -6 14521.7 574.234   8
  -8  -2  -6 13997.7 559.053  11
   8  -2   6 14266.1 740.283   6
   8  -2   6 9053.73 619.797  21
   8   2   6 9679.01 689.100  21
   8  -2   6 10880.3 751.810  17
   8  -2   6 15958.1 577.302  16
  -8  -2  -6 14156.6 584.884   8
  -8  -2  -7 1147.86 237.253   8
  -8   2  -7 1095.79 203.304   8
  -8  -2  -7 1025.75 195.475  11
   8  -2   7 622.418 268.375   6
   8  -2   7 622.034 266.774  21
   8   2   7 723.860 305.917  21
   8  -2   7 586.191 284.059  17
   8  -2   7 1253.24 197.309  16
  -8  -2  -8 9993.06 480.497  11
   8  -2   8 7839.49 538.287   6
   8  -2   8 5569.16 511.475  21
   8   2   8 6802.06 605.307  21
   8  -2   8 8732.40 598.148  17
   8  -2   8 10258.1 490.165  16
  -8  -2  -8 9819.57 507.541   8
  -8   2  -8 9803.49 457.319   8
  -8  -2  -9-17.1834 169.552   8
  -8   2  -9-3.14005 142.189   8
   8   2   9-194.109 298.431  21
  -8  -2  -9-67.2064 153.761  11
   8  -2   9 111.970 195.778   6
   8  -2   9-275.387 268.599  21
   8  -2   9 262.517 232.698  17
   8  -2   9-71.1217 109.794  16
  -8  -2 -10 40.0655 159.371   8
  -8   2 -10-4.40831 131.337   8
  -8  -2 -10 85.3652 152.021  11
  -8   2 -10-537.814 223.117  11
   8  -2  10 417.113 205.087   6
   8   2  10-170.761 274.288  21
   8  -2  10 913.360 262.330  17
   8  -2  10 188.441 122.303  16
  -8   2 -11 820.158 146.174   8
  -8  -2 -11 1193.96 205.347  11
  -8   2 -11 1168.41 190.606  11
   8  -2  11 1681.85 246.989  17
   8  -2  11 1313.51 177.374  16
  -8  -2 -11 1399.23 215.640   8
  -8  -2 -12 130.457 146.482   8
  -8  -2 -12 48.0428 132.814  11
  -8   2 -12 243.599 136.584  11
   8  -2  12 203.396 137.085   6
   8  -2  12 154.456 119.134  17
  -8  -2 -13 490.841 133.234   8
  -8  -2 -13 476.226 135.513  11
  -8   2 -13 598.382 118.419  11
  -8  -2 -14 647.481 113.201   8
  -8  -2 -14 589.793 110.331  11
  -8   4  18 4898.93 191.840  19
  -8   4  17 3619.94 191.633  13
  -8   4  17 3776.84 203.017  19
  -8   4  16 17104.8 460.342  13
  -8   4  16 17949.2 463.308  19
  -8   4  15 782.782 142.700  13
   8  -4 -15 469.261 172.031   7
  -8   4  15 727.229 111.438   9
  -8  -4  15 777.682 146.989   9
  -8   4  15 630.894 134.068  19
   8  -4 -15 379.910 108.939   5
  -8   4  14 22802.9 620.307  13
   8  -4 -14 18227.3 689.696   7
  -8  -4  14 22051.0 570.805   9
  -8   4  14 23064.3 533.306   9
  -8   4  14 23032.8 587.812  19
   8  -4 -14 18327.9 563.643   5
  -8   4  13 4214.98 297.163  13
   8  -4 -13 3439.47 345.403   7
  -8  -4  13 4451.40 295.883   9
  -8   4  13 3432.56 239.928   9
  -8   4  13 4127.05 281.246  19
   8  -4 -13 3532.64 285.667   5
  -8   4  12-1.38014 129.437  13
   8  -4 -12 46.7859 172.190   7
  -8  -4  12-16.7515 148.048   9
  -8   4  12 61.8763 110.791  19
   8  -4 -12-50.8126 128.912   5
  -8   4  11 2434.83 255.284  13
   8  -4 -11 2082.77 300.800   7
  -8  -4  11 2286.10 246.433   9
  -8   4  11 2270.21 221.578  19
   8  -4 -11 2140.20 268.292   5
  -8   4  10 14519.6 564.033  13
   8  -4 -10 14792.7 707.182   7
  -8  -4  10 16394.7 575.457   9
  -8   4  10 14198.0 508.990  19
   8  -4 -10 15900.8 647.768   5
  -8   4   9 911.245 186.798  13
  -8  -4   9 985.072 198.367   9
   8  -4  -9 1070.71 261.471   7
  -8   4   9 879.490 159.597  19
   8  -4  -9 909.124 215.831   5
  -8   4   8 46461.0 1008.10  13
   8  -4  -8 47546.8 1276.04   7
  -8  -4   8 47809.0 968.561   9
  -8   4   8 46699.8 884.400  19
   8  -4  -8 47012.3 1157.56  16
  -8   4   7 273.684 153.660  13
   8  -4  -7 203.237 201.544   7
  -8  -4   7 198.142 146.526   9
   8  -4  -7 216.992 180.199   5
   8  -4  -7 200.755 164.129  16
  -8   4   6 13.9118 137.228  13
   8  -4  -6 80.6063 192.379   7
  -8  -4   6 33.8817 123.533   9
   8  -4  -6 53.6554 152.886   5
   8  -4  -6 55.7433 166.708  16
  -8   4   5 2073.94 239.204  13
   8  -4  -5 2150.18 336.398   7
  -8  -4   5 1744.86 214.036   9
   8  -4  -5 2089.85 283.144   5
   8  -4  -5 2019.00 282.128  16
  -8   4   4 4384.48 322.610  13
   8  -4  -4 4093.25 439.215   7
   8  -4  -4 4413.04 379.852   5
   8  -4  -4 4194.94 390.260  16
  -8   4   3 24.4212 114.085  13
   8  -4  -3-53.0443 220.424   7
   8  -4  -3 1.62073 151.908   5
   8  -4  -3-95.8871 166.818  16
  -8   4   2 3537.13 289.791  13
   8  -4  -2 3011.29 436.002   7
   8  -4  -2 3755.86 361.560   5
   8  -4  -2 3247.27 353.394  16
  -8   4   1 1495.60 200.392  13
   8  -4  -1 2210.89 445.054   7
   8  -4  -1 2160.52 290.317   5
   8  -4  -1 1675.64 287.991  16
   8  -4   0 1.79526 272.167   7
   8  -4   0 340.245 191.331   5
   8  -4   0-9.75410 184.332  16
   8  -4   1 13920.4 970.993   7
   8  -4   1 14497.8 693.765  16
   8  -4   2 1609.72 429.257   7
   8  -4   2 1794.12 367.262   5
   8  -4   2 2200.72 293.263  16
   8  -4   3-507.311 388.643   5
   8  -4   3 138.862 161.543  16
  -8   4  -4 2672.06 200.777   8
   8  -4   4 3033.71 230.402  22
   8  -4   4 2316.16 269.956  16
   8  -4   5-26.3199 192.885   6
   8  -4   5 184.306 102.695  22
   8  -4   5-23.1238 309.511  17
   8  -4   5 374.424 156.501  16
   8  -4   6 4669.10 333.459   6
   8  -4   6 5011.83 446.426  17
   8  -4   7 12322.2 435.989   6
   8  -4   7 11940.0 551.630  17
   8  -4   8 1683.00 158.307   6
   8  -4   8 1562.47 224.014  17
   8  -4   8 1636.90 177.117  16
  -8  -4  -9 16.0970 44.5705  11
   8  -4   9 121.716 60.4365   6
   8  -4   9 26.0754 71.1066  16
  -8   4 -10 1521.35 124.347  11
   8  -4  10 1958.26 163.871  17
   8  -6  -9 436.954 84.3063   5
   8  -6  -8 5242.46 221.695   5
   8  -6  -7 9153.33 298.162   5
   8  -6  -7 6436.91 269.939  16
   8  -6  -6 2597.71 177.165   5
   8  -6  -6 1848.27 167.787  16
   8  -6  -5 302.307 100.202   5
   8  -6  -5-47.8389 93.3747  16
   8  -6  -4 10132.5 337.674   5
   8  -6  -4 7369.77 315.882  16
   8  -6  -3 29.8103 79.8801   5
   8  -6  -3 59.1658 91.1341  16
   8  -6  -2 7966.84 356.691   5
   8  -6  -2 8802.26 326.269  16
   8  -6  -1 4755.59 234.941  16
   8  -6   0-153.314 133.053  17
   8  -6   0 112.058 73.9961  16
   8  -6   1-106.808 100.104  17
   8  -6   1 61.4429 61.3793  16
   8  -6   2 2818.29 141.696  16
  -9   1  21 320.691 85.3142  18
  -9  -1  20 635.855 129.797  18
  -9   1  20 385.676 119.223  18
  -9  -1  19 9357.41 333.647   9
  -9  -1  19 11236.7 397.304  18
   9  -1 -18 245.831 162.688   7
  -9   1  18 216.727 119.079  19
  -9  -1  18 273.404 140.229   9
  -9   1  18 367.600 130.795   9
  -9  -1  18 162.406 140.160  18
  -9  -1  17 15059.6 559.621   9
  -9   1  17 14266.7 488.308   9
  -9   1  17 13654.9 497.839  19
  -9  -1  17 13057.4 497.632  18
  -9   1  16 11324.5 468.809   9
  -9   1  16 10937.3 480.530  19
  -9  -1  16 10066.0 459.930  18
  -9   1  15 3787.87 322.233  19
   9  -1 -15 3409.42 405.509   7
  -9  -1  15 4679.21 373.885   9
  -9   1  15 3958.21 308.529   9
  -9  -1  15 4120.06 316.226  18
  -9   1  14 5404.64 337.699  13
   9  -1 -14 5521.80 503.038   7
  -9  -1  14 5742.03 395.226   9
  -9   1  14 5762.63 363.383   9
  -9   1  14 5485.39 389.702  19
  -9  -1  14 5386.27 365.540  18
  -9   1  13 3487.39 292.966  13
   9  -1 -13 3233.68 417.907   7
  -9  -1  13 3382.34 314.166   9
  -9   1  13 3266.24 294.560   9
  -9   1  13 3281.33 321.250  19
  -9  -1  13 3185.09 290.760  18
  -9   1  12 5056.30 362.691  13
   9  -1 -12 4638.58 495.150   7
  -9  -1  12 4979.16 361.257   9
  -9   1  12 4437.08 333.183   9
  -9   1  12 4693.10 383.174  19
  -9  -1  12 4291.08 334.078  18
  -9   1  11 34512.6 925.771  13
   9  -1 -11 35239.7 1237.99   7
  -9  -1  11 33366.0 867.941   9
  -9   1  11 33037.0 931.834  19
  -9   1  11 32663.8 827.761   9
  -9   1  10 1172.27 210.387  13
   9  -1 -10 1226.37 327.038   7
  -9   1  10 993.655 217.965  19
  -9  -1  10 1011.49 210.183   9
  -9   1  10 976.826 188.234   9
  -9   1   9 7694.73 460.584  13
   9  -1  -9 7992.18 641.213   7
  -9   1   9 7383.57 463.686  19
  -9  -1   9 7804.22 431.411   9
  -9   1   9 7556.41 411.929   9
  -9  -1   8 1424.03 235.144  13
  -9   1   8 1406.83 238.268  13
   9  -1  -8 1751.86 363.402   7
  -9  -1   8 1401.80 221.171   9
  -9   1   8 1308.76 242.703  19
  -9   1   8 1159.10 194.510   9
  -9  -1   7 715.447 203.165  13
  -9   1   7 717.206 209.073  13
   9  -1  -7 669.326 299.299   7
  -9  -1   7 853.791 190.289   9
  -9   1   7 590.811 197.253  19
  -9   1   7 461.016 138.929   9
  -9  -1   6 94917.4 1770.84  13
  -9   1   6 100981. 1696.30  13
  -9  -1   6 97259.3 1380.97   9
  -9   1   6 100812. 1614.24  19
   9   1  -6 94076.4 3963.96   1
  -9  -1   5 39159.6 1152.04  13
  -9   1   5 43093.3 1131.56  13
   9  -1  -5 46154.1 1524.94   7
   9  -1  -5 48680.4 1122.70   5
  -9  -1   5 40083.3 871.385   9
   9   1  -5 38935.5 2513.03   1
  -9  -1   4 35277.1 1149.54  13
  -9   1   4 38699.8 1098.59  13
  -9  -1   4 35272.2 805.768   9
   9   1  -4 36822.1 2403.97   1
  -9  -1   3 4175.41 444.065  13
  -9   1   3 4697.02 414.958  13
   9  -1  -3 5451.31 635.309   7
   9  -1  -3 5700.87 456.634   5
  -9  -1   3 3483.98 803.816   2
  -9  -1   2 1667.21 202.284   8
  -9  -1   2 2501.35 377.138  13
  -9   1   2 2636.02 340.506  13
   9  -1  -2 2801.39 499.725   7
   9  -1  -2 2915.19 374.948   5
  -9  -1   1 6459.81 354.915   8
  -9  -1   1 6807.86 600.404  13
  -9   1   1 8217.95 566.253  13
   9  -1  -1 7155.66 769.845   7
   9  -1  -1 6496.67 662.241   5
  -9  -1   0 39154.7 1478.74  13
  -9   1   0 40912.2 1259.84  13
   9  -1   0 43475.5 1926.83   7
  -9  -1  -1 19520.7 628.434   8
  -9  -1  -1 19598.6 1069.73  13
  -9   1  -1 23298.1 1001.83  13
   9  -1   1 22782.4 1476.13   7
  -9  -1  -2 21525.3 675.322   8
  -9  -1  -2 24244.6 1173.18  13
  -9   1  -2 24931.5 1078.65  13
   9  -1   2 22806.2 1610.28   7
  -9  -1  -3 170.172 158.814   8
  -9   1  -3-42.4458 180.576   8
  -9  -1  -3-33.3470 244.697  13
  -9   1  -3-14.1343 235.326  13
   9  -1   3-42.0930 529.335   7
  -9  -1  -3 206.250 130.684  11
  -9  -1  -3-20.2975 304.038  20
   9  -1   3-241.628 241.613  17
  -9   1  -4 8868.29 475.609   8
  -9  -1  -4 8975.15 748.762  13
  -9   1  -4 7567.22 695.836  13
  -9  -1  -4 8730.96 442.920  11
   9   1   4 7007.40 405.829   6
   9  -1   4 8169.98 590.006   6
  -9  -1  -4 8486.12 452.797   8
  -9   1  -5 10268.9 506.103   8
  -9  -1  -5 9987.90 795.713  13
  -9   1  -5 8814.61 717.120  13
  -9  -1  -5 10457.4 485.834  11
   9   1   5 10819.1 469.184   6
   9  -1   5 8703.99 581.369   6
   9  -1   5 8584.11 575.985  17
  -9  -1  -5 10077.3 503.481   8
  -9  -1  -6 918.921 221.728   8
  -9   1  -6 1137.73 227.206   8
  -9  -1  -6 733.163 355.158  13
  -9   1  -6 935.008 296.740  13
   9  -1   6 820.469 319.998  21
  -9  -1  -6 1122.29 211.291  11
   9   1   6 2041.86 233.381   6
   9  -1   6 806.340 266.086   6
   9   1   6 781.741 363.108  21
   9  -1   6 799.992 246.804  17
  -9   1  -7 7778.93 595.758  13
  -9  -1  -7 9537.64 462.319  11
  -9   1  -7 7301.34 445.049  11
   9  -1   7 7718.37 499.623   6
   9  -1   7 5626.80 547.691  21
   9   1   7 5925.65 601.522  21
   9  -1   7 8492.57 485.964  17
  -9  -1  -7 8730.21 484.504   8
  -9   1  -7 9774.41 491.094   8
  -9  -1  -8 18664.5 621.337  11
  -9   1  -8 18586.2 666.475  11
   9   1   8 11337.8 494.788   6
   9  -1   8 16721.5 634.690   6
   9  -1   8 9982.51 693.551  21
   9   1   8 11249.5 760.970  21
   9  -1   8 15960.9 581.655  17
   9  -1   8 17039.1 548.057  16
  -9  -1  -8 18079.3 651.773   8
  -9   1  -8 17664.2 617.423   8
  -9  -1  -9 2765.23 264.727  11
  -9   1  -9 3116.49 291.690  11
   9  -1   9 3669.01 312.573   6
   9  -1   9 1200.33 336.392  21
   9   1   9 1654.34 378.372  21
   9  -1   9 3277.54 275.186  17
  -9  -1  -9 2940.46 295.552   8
  -9   1  -9 2689.91 269.479   8
  -9  -1 -10 348.352 170.190   8
  -9   1 -10 441.860 156.012   8
   9  -1  10 40.7022 273.723  21
  -9  -1 -10 301.445 143.941  11
  -9   1 -10 499.458 179.010  11
   9   1  10 133.002 284.962  21
   9  -1  10 277.797 104.836  17
  -9  -1 -11 5416.79 311.757  11
  -9   1 -11 5945.68 315.228  11
  -9  -1 -11 5621.77 312.596   8
  -9   1 -11 4891.14 274.743   8
  -9  -1 -12 1550.38 168.611  11
  -9   1 -12 1619.42 162.975  11
  -9  -1 -12 1538.07 170.013   8
  -9   1 -12 1024.76 124.130   8
  -9   1 -13 3545.74 176.937  11
  -9  -1 -13 3363.91 178.878   8
   9  -3 -18 3636.72 273.765   7
  -9  -3  18 4573.95 195.968   9
  -9   3  17 1518.12 140.877  13
   9  -3 -17 1061.76 203.400   7
  -9  -3  17 1456.87 155.512   9
  -9   3  16 177.481 100.604  13
   9  -3 -16-55.6289 158.475   7
  -9  -3  16 87.3115 114.614   9
  -9   3  16-23.3791 110.254  19
  -9   3  16 51.5260 92.6141   9
  -9   3  15 97.2072 114.719  13
   9  -3 -15 43.8338 188.351   7
  -9  -3  15-5.73292 132.522   9
  -9   3  15 39.5059 125.485  19
  -9   3  15 92.3659 110.918   9
  -9   3  14 171.357 130.717  13
   9  -3 -14-71.9084 200.032   7
  -9  -3  14 106.145 150.538   9
  -9   3  14 88.2873 136.250  19
  -9   3  14-5.34881 116.835   9
  -9   3  13 283.050 149.121  13
   9  -3 -13 16.1139 221.682   7
  -9  -3  13 179.137 161.438   9
  -9   3  13 246.532 149.463  19
  -9   3  13 114.795 137.910   9
  -9   3  12 6840.08 403.542  13
   9  -3 -12 6316.32 512.572   7
  -9  -3  12 6923.20 399.231   9
  -9   3  12 5743.77 341.215   9
   9  -3 -12 5311.42 338.798   5
  -9   3  12 6446.86 381.132  19
  -9   3  11 716.537 195.629  13
   9  -3 -11 575.470 266.375   7
  -9  -3  11 508.466 184.040   9
  -9   3  11 509.099 163.623  19
   9  -3 -11 366.855 142.783   5
  -9   3  10 188.588 154.347  13
   9  -3 -10 317.408 262.008   7
  -9  -3  10 31.3683 150.145   9
  -9   3  10 19.3119 133.694  19
   9  -3 -10-50.0233 132.241   5
  -9   3   9 6925.40 434.744  13
   9  -3  -9 7255.28 584.923   7
  -9  -3   9 7069.16 417.086   9
  -9  -3   9 7548.07 569.074  20
   9  -3  -9 6672.09 426.360   5
  -9   3   9 6576.16 391.461  19
  -9   3   8 4357.57 353.826  13
   9  -3  -8 4894.79 504.655   7
  -9  -3   8 4152.90 333.472   9
   9  -3  -8 4022.44 348.602   5
  -9  -3   8 5281.72 494.864  20
  -9   3   8 4436.20 327.545  19
  -9   3   7 1682.08 250.550  13
   9  -3  -7 1832.79 349.649   7
  -9  -3   7 1526.24 224.026   9
   9  -3  -7 1597.43 245.026   5
  -9  -3   7 2320.87 392.726  20
  -9   3   7 1441.51 204.671  19
  -9   3   6 5237.66 390.019  13
   9  -3  -6 4997.46 519.644   7
  -9  -3   6 4463.24 332.643   9
   9  -3  -6 4661.12 391.086   5
  -9  -3   6 5836.76 565.353  20
  -9   3   6 5185.02 335.094  19
  -9   3   5 57.1531 153.713  13
   9  -3  -5-44.9850 250.117   7
  -9  -3   5 243.162 295.758  20
  -9  -3   5 11.0525 127.881   9
   9  -3  -5 195.070 199.054   5
  -9   3   4 5788.10 413.294  13
   9  -3  -4 5736.30 583.918   7
   9  -3  -4 5815.20 447.679   5
  -9  -3   4 4615.41 552.350  20
  -9   3   3 21164.7 764.390  13
   9  -3  -3 21991.6 1107.09   7
   9  -3  -3 22866.0 822.881   5
  -9   3   2 1662.20 252.771  13
   9  -3  -2 1485.45 417.613   7
   9  -3  -2 1861.71 311.764   5
  -9   3   1 7140.76 459.634  13
   9  -3  -1 9009.31 864.916   7
   9  -3  -1 8873.85 591.953   5
  -9   3   0 313.157 171.139  13
   9  -3   0 154.703 404.131   7
   9  -3   0 127.197 209.536   5
   9  -3   0 141.484 141.187  16
  -9   3  -1 757.718 207.975  13
   9  -3   1 418.521 392.142   7
   9  -3   1 190.700 329.707   5
   9  -3   1 389.474 153.129  16
  -9   3  -2 389.964 165.045  13
   9  -3   2 77.2174 404.873   7
   9  -3   2 569.126 149.897  16
  -9   3  -3 19029.2 588.367   8
   9  -3   3 18588.4 604.092  16
  -9   3  -4 549.060 150.539   8
   9  -3   4 615.425 145.442  16
   9  -3   5 3518.68 368.363   6
   9  -3   5 3715.73 448.651  17
  -9   3  -6 2993.26 223.381   8
   9  -3   6 2716.70 349.237  17
   9  -3   6 3206.67 234.539  16
  -9  -3  -6 3470.67 240.752   8
  -9  -3  -7 112.204 104.685   8
  -9   3  -7-41.7765 98.7516   8
   9  -3   7 39.2006 159.233   6
   9  -3   7 219.029 210.238  17
   9  -3   7-59.0242 82.3339  16
  -9  -3  -8 357.824 113.795   8
  -9   3  -8 309.118 90.6170   8
  -9  -3  -8 365.485 112.851  11
   9  -3   8 525.338 150.461   6
   9  -3   8 408.624 183.847  17
   9  -3   8 279.146 99.8469  16
  -9  -3  -9 5672.35 250.483  11
  -9   3  -9 6802.27 303.750  11
   9  -3   9 8158.45 295.948   6
   9  -3   9 3568.22 238.285  17
   9  -3   9 5564.54 275.891  16
  -9  -3  -9 7323.59 286.721   8
   9  -3  10 1623.84 151.948   6
   9  -3  10 2301.34 162.686  17
  -9   5  13 1610.31 115.086  13
  -9   5  12 1188.58 114.529  13
   9  -5 -12 1187.73 114.312   5
  -9   5  12 1262.12 100.768   9
  -9   5  11 4570.90 220.546  13
   9  -5 -11 4145.20 215.288   5
  -9   5  11 4495.34 198.013   9
  -9   5  10 83.6486 82.5194  13
   9  -5 -10 166.004 82.0034   7
  -9   5   9 4843.09 245.668  13
   9  -5  -9 5292.54 272.308   5
  -9   5   8 12357.6 385.670  13
   9  -5  -8 12415.4 546.301   7
   9  -5  -8 12151.5 423.737   5
  -9   5   7 925.351 125.378  13
   9  -5  -7 1171.43 217.064   7
   9  -5  -7 1321.20 176.902   5
  -9   5   6 1811.96 162.393  13
   9  -5  -6 1601.82 187.961   7
   9  -5  -6 1634.14 173.527  16
  -9   5   5 405.271 99.4565  13
   9  -5  -5 373.987 160.063   7
   9  -5  -5 492.031 125.227  16
   9  -5  -4 790.566 159.225   5
   9  -5  -4 438.983 128.351  16
   9  -5  -3 1950.31 224.225   5
   9  -5  -3 1089.24 154.107  16
   9  -5  -2 3689.16 329.414   5
   9  -5  -2 2605.65 210.257  16
   9  -5  -1-418.532 213.642   5
   9  -5  -1 65.2036 93.8159  16
   9  -5   0 793.687 124.679  16
   9  -5   1-175.325 103.877   6
   9  -5   1-129.514 195.207  17
   9  -5   1 140.769 79.5420  16
   9  -5   2 71.8344 62.8608   6
   9  -5   2 912.759 217.500  17
   9  -5   3-38.8213 134.903  17
   9  -5   3 98.8010 62.0902  16
   9  -5   4 109.532 109.247  17
   9  -5   4 76.3136 44.9673  16
   9  -5   5 330.365 87.8238  17
 -10   0  19 114.294 97.1232  18
 -10   0  18 12744.0 418.328   9
 -10   0  18 12890.2 409.264  18
 -10   0  17-114.710 160.678   9
 -10   0  17-20.8336 123.327  18
 -10   0  16 1972.04 233.870   9
 -10   0  16 1647.21 201.961  18
 -10   0  15 8.98641 148.484   9
 -10   0  15 21.9416 136.977  18
 -10   0  14 21386.2 665.526   9
 -10   0  14 20347.0 600.192  18
 -10   0  13 137.415 169.027   9
 -10   0  13-133.002 153.009  18
  10   0 -12 23612.8 903.167   7
 -10   0  12 27014.2 766.115   9
 -10   0  11 53.3023 123.147  13
  10   0 -11 195.052 215.227   7
 -10   0  11 13.9303 147.998   9
 -10   0  10 248.924 164.173  13
  10   0 -10 447.109 217.225   7
 -10   0  10 222.353 160.617   9
 -10   0   9 320.083 181.739  13
  10   0  -9 243.547 217.609   7
 -10   0   9-7.32163 147.865   9
 -10   0   8 960.005 215.768  13
  10   0  -8 1299.07 307.499   7
 -10   0   8 1110.63 194.528   9
 -10   0   7 100.616 165.846  13
  10   0  -7 106.211 260.717   7
 -10   0   7 172.744 134.169   9
 -10   0   6 25348.8 953.464  13
  10   0  -6 26517.0 1181.28   7
 -10   0   6 24741.9 696.037   9
 -10   0   5 265.800 210.166  13
  10   0  -5-50.4802 260.447   7
 -10   0   5-12.7275 112.078   9
 -10   0   4 28487.9 1040.95  13
  10   0  -4 28120.1 1363.59   7
 -10   0   4 26371.2 687.158   9
 -10   0   3 71.5628 209.242  13
  10   0  -3 63.0866 343.459   7
 -10   0   2 14832.6 829.787  13
  10   0  -2 14137.8 1069.32   7
 -10   0   1 16.3563 138.188   8
 -10   0   1 87.5912 233.769  13
  10   0  -1 3.42725 378.841   7
 -10   0   0 31065.6 806.683   8
 -10   0   0 32585.6 1289.47  13
  10   0   0 29169.1 1633.12   7
 -10   0  -1-47.7893 142.724   8
 -10   0  -1-151.049 319.016  13
  10   0   1-30.0270 222.574   6
 -10   0  -2 38085.6 901.111   8
 -10   0  -2 37807.2 878.442  11
 -10   0  -3 94.1659 171.499   8
 -10   0  -3 121.648 268.878  13
 -10   0  -3 39.4331 126.689  11
  10   0   3-80.0216 193.923   6
 -10   0  -3 83.3577 244.864  20
 -10   0  -4 4182.67 517.545  13
 -10   0  -4 4624.80 322.125  11
  10   0   4 3644.41 332.246   6
 -10   0  -4 4448.72 341.776   8
 -10   0  -5-35.2808 178.721   8
 -10   0  -5 136.772 240.971  13
 -10   0  -5 100.232 148.147  11
  10   0   5 19.5311 154.788   6
  10   0   5 272.987 333.761  21
 -10   0  -6 1367.67 314.469  13
 -10   0  -6 1475.42 244.403   8
 -10   0  -6 1940.89 229.732  11
  10   0   6 1954.27 236.842   6
  10   0   6 995.502 351.725  21
 -10   0  -7 41.1877 169.253   8
 -10   0  -7 62.1918 130.539  11
  10   0   7-109.777 259.909  21
 -10   0  -8 1679.59 202.890  11
  10   0   8 1530.37 184.454   6
 -10   0  -8 1420.02 206.151   8
 -10   0  -9 38.0503 127.291   8
 -10   0  -9 79.9407 116.123  11
  10   0   9-229.764 259.255  21
 -10   0 -10 2762.38 193.925  11
 -10   0 -10 2798.11 202.453   8
 -10   0 -11 71.7315 71.2826   8
 -10   0 -11 44.8432 72.7159  11
  10  -2 -18 635.157 140.797   7
 -10  -2  18 751.145 106.460   9
 -10   2  18 594.965 101.537  18
  10  -2 -17 106.285 142.881   7
 -10  -2  17 19.4639 102.499   9
 -10   2  17-14.6593 86.0294   9
  10  -2 -16 1159.12 227.192   7
 -10  -2  16 1537.10 189.553   9
 -10   2  16 1635.61 177.774   9
 -10   2  16 1515.21 185.232  19
 -10   2  15 207.844 112.522  13
  10  -2 -15 128.955 185.564   7
 -10  -2  15 288.425 155.654   9
 -10   2  15 273.859 139.881  19
 -10   2  15 430.335 144.032   9
 -10  -2  15 317.920 129.462  18
 -10   2  14 314.009 132.150  13
  10  -2 -14 341.548 215.698   7
 -10  -2  14 263.749 161.617   9
 -10   2  14 272.827 155.431  19
 -10  -2  14 171.088 121.172  18
 -10   2  14 359.315 148.873   9
 -10   2  13 1285.09 195.612  13
  10  -2 -13 1130.05 291.126   7
 -10  -2  13 1488.84 238.372   9
 -10   2  13 1218.56 199.516   9
 -10   2  13 1296.74 217.896  19
 -10  -2  13 1130.10 172.708  18
 -10   2  12 825.183 187.281  13
  10  -2 -12 793.683 272.065   7
 -10  -2  12 900.716 218.032   9
 -10   2  12 674.051 191.235  19
 -10   2  12 674.602 182.582   9
 -10   2  11 1222.97 213.127  13
  10  -2 -11 1275.17 316.429   7
 -10   2  11 1280.45 209.133   9
 -10  -2  11 1363.06 246.368   9
 -10   2  11 975.585 209.245  19
 -10   2  10 692.531 197.521  13
  10  -2 -10 607.078 285.801   7
 -10  -2  10 734.130 215.409   9
 -10   2  10 525.641 184.381  19
 -10   2  10 410.769 171.612   9
 -10   2   9 1993.61 266.411  13
  10  -2  -9 2157.10 392.691   7
 -10  -2   9 2339.19 295.146   9
 -10   2   9 1889.19 229.889   9
 -10   2   9 1685.41 244.964  19
 -10   2   8 3085.31 321.586  13
  10  -2  -8 3416.06 476.131   7
 -10  -2   8 3720.21 348.075   9
  10  -2  -8 3923.63 321.598   5
 -10   2   8 2680.83 258.130   9
 -10   2   7 959.991 231.518  13
  10  -2  -7 1187.33 351.349   7
  10  -2  -7 1379.06 229.052   5
 -10  -2   7 965.466 221.904   9
 -10   2   7 705.017 157.751   9
 -10   2   6 7574.55 496.106  13
  10  -2  -6 8261.07 697.621   7
 -10  -2   6 8203.93 452.172   9
  10  -2  -6 9281.67 518.505   5
 -10   2   6 6538.56 365.439   9
 -10  -2   5 507.798 213.391  13
 -10   2   5 727.678 213.341  13
  10  -2  -5 908.837 353.248   7
  10  -2  -5 1215.40 254.538   5
 -10   2   4 16931.4 741.131  13
  10  -2  -4 16090.8 988.160   7
 -10  -2   3 3455.99 418.273  13
 -10   2   3 4809.31 426.368  13
  10  -2  -3 4005.41 604.455   7
  10  -2  -3 4439.03 461.335   5
 -10   2   3 3229.11 247.243   9
 -10  -2   2 5631.44 532.662  13
 -10   2   2 8023.32 549.452  13
  10  -2  -2 8771.82 904.014   7
  10  -2  -2 5562.34 657.054   5
 -10  -2   2 9665.42 766.350  20
 -10  -2   1 2436.77 384.890  13
 -10   2   1 3913.51 420.777  13
  10  -2  -1 3521.53 651.820   7
 -10  -2   1 2950.44 531.594  20
 -10  -2   0 963.959 286.562  13
 -10   2   0 1219.10 285.874  13
  10  -2   0 1276.13 517.020   7
 -10  -2   0 292.711 349.081  20
 -10  -2  -1 453.209 266.850  13
 -10   2  -1 540.238 234.589  13
  10  -2   1 266.566 428.265   7
  10  -2   1-175.022 264.875  17
 -10   2  -2 12362.9 509.508   8
 -10  -2  -2 10667.9 732.297  13
 -10   2  -2 12133.7 698.056  13
  10  -2   2 9624.95 1005.53   7
 -10  -2  -2 11157.7 437.354   8
 -10  -2  -3 256.276 137.940   8
 -10   2  -3 193.058 157.100   8
 -10   2  -3-84.8509 202.642  13
  10  -2   3-115.282 297.849   6
  10  -2   3 283.237 218.638  21
  10   2   3 466.602 277.460  21
  10  -2   3-45.0691 233.741  17
 -10   2  -4 7747.37 386.154   8
 -10   2  -4 8267.09 542.661  13
  10  -2   4 5450.54 455.874   6
  10  -2   4 4683.42 408.810  21
  10   2   4 5380.66 464.433  21
  10  -2   4 5993.20 458.666  17
 -10  -2  -4 7743.73 371.723   8
 -10   2  -5 2626.58 244.195   8
  10  -2   5 1826.74 290.347   6
  10  -2   5 1123.02 244.716  21
  10   2   5 1392.56 284.692  21
  10  -2   5 2301.22 283.528  17
 -10  -2  -5 2663.56 233.135   8
 -10   2  -6 7168.29 383.924  11
  10  -2   6 8262.99 427.982   6
  10  -2   6 5369.12 409.257  21
  10   2   6 6523.45 483.625  21
  10  -2   6 8434.14 409.421  17
 -10  -2  -6 10355.6 398.497   8
 -10   2  -6 10280.7 401.510   8
 -10  -2  -7 1632.71 160.641  11
 -10   2  -7 2640.52 231.824  11
  10  -2   7 2649.37 241.763   6
  10  -2   7 1331.05 250.807  21
  10   2   7 1541.12 296.109  21
  10  -2   7 2295.91 213.320  17
 -10  -2  -7 2952.77 224.550   8
 -10   2  -7 2634.63 217.523   8
 -10   2  -8 3096.47 223.348  11
  10  -2   8 3291.10 222.478   6
  10  -2   8 2546.56 189.095  17
 -10  -2  -8 3288.21 211.840   8
 -10   2  -8 2320.65 179.903   8
 -10   2  -9 2055.50 169.381  11
  10  -2   9 1161.10 140.720   6
 -10  -2  -9 2058.84 156.652   8
 -10   2  -9 1055.51 107.712   8
 -10   4  14 2168.18 151.602  13
 -10  -4  14 2087.17 134.579   9
 -10   4  13 79.9017 82.9395  13
  10  -4 -13 76.2735 119.403   7
 -10  -4  13 52.3336 78.6863   9
 -10   4  13-17.0665 70.1983   9
 -10   4  12 709.597 127.985  13
  10  -4 -12 596.838 175.474   7
 -10  -4  12 669.605 114.692   9
  10  -4 -12 712.118 101.865   5
 -10   4  12 819.556 119.358   9
 -10   4  11 13241.2 435.564  13
  10  -4 -11 10849.1 531.931   7
 -10  -4  11 12561.0 372.717   9
  10  -4 -11 10532.2 362.314   5
 -10   4  11 13739.2 391.846   9
 -10   4  10 158.530 105.208  13
  10  -4 -10 132.687 170.641   7
 -10  -4  10 95.6568 95.9278   9
 -10   4  10 40.1209 107.419   9
  10  -4 -10 460.484 119.977   5
 -10   4   9-14.9058 110.626  13
  10  -4  -9-202.509 206.345   7
 -10  -4   9 57.4013 93.6948   9
 -10   4   9-404.315 144.826   9
 -10   4   8 1505.96 185.403  13
  10  -4  -8 1317.70 268.719   7
 -10  -4   8 1231.24 146.781   9
  10  -4  -8 1850.13 206.900   5
 -10   4   7 537.656 143.087  13
  10  -4  -7 193.991 222.180   7
 -10   4   6 1640.78 200.536  13
  10  -4  -6 1437.62 313.697   7
  10  -4  -6 2165.98 250.307   5
 -10   4   5 14135.0 508.120  13
  10  -4  -5 14424.5 795.389   7
 -10   4   4 2713.90 242.348  13
  10  -4  -4 2590.35 405.338   7
  10  -4  -4 3325.67 306.247   5
 -10   4   3 1897.43 213.341  13
  10  -4  -3 1371.54 353.816   7
  10  -4  -3 998.010 235.825   5
 -10   4   2 6680.18 354.707  13
  10  -4  -2 5434.18 543.947   7
  10  -4  -1 135.328 244.405   7
 -10   4   0 163.818 92.7921   8
 -10   4  -1 2480.42 167.111   8
  10  -4   1 1013.86 261.717  17
  10  -4   2 1505.54 197.779   6
  10  -4   2 1099.27 241.470  17
  10  -4   3 506.436 132.505   6
  10  -4   3 484.391 169.053  17
 -10   4  -3 655.566 87.0372   8
  10  -4   4 7028.34 270.584   6
  10  -4   4 8277.91 362.122  17
  10  -4   5 301.124 101.166  17
 -11  -1  17 282.020 101.874   9
 -11   1  17 258.609 111.083   9
 -11  -1  16 7606.30 325.643   9
 -11   1  16 7874.66 323.262   9
 -11  -1  15 3684.33 274.698   9
 -11   1  15 3426.81 242.292   9
 -11  -1  14 5118.71 340.662   9
 -11   1  14 4401.08 289.985   9
 -11   1  13 829.695 164.046  13
  11  -1 -13 745.704 221.005   7
 -11  -1  13 702.216 210.332   9
 -11   1  13 623.762 167.975   9
 -11   1  12 18844.9 640.499  13
  11  -1 -12 15995.3 738.892   7
 -11   1  11 1234.38 217.819  13
  11  -1 -11 779.080 274.547   7
 -11   1  11 1207.52 198.237   9
 -11  -1  11 1270.88 230.383   9
 -11   1  10 25908.2 827.971  13
  11  -1 -10 24257.5 1001.92   7
 -11   1   9 4821.27 397.471  13
  11  -1  -9 4493.02 481.473   7
 -11  -1   9 4871.81 335.082   9
 -11   1   9 4922.65 324.803   9
 -11   1   8 17615.6 732.671  13
 -11  -1   8 18709.5 607.632   9
 -11   1   8 18923.8 585.252   9
 -11  -1   7-164.597 220.596  13
 -11   1   7 273.054 203.834  13
  11  -1  -7-83.3417 321.418   7
 -11  -1   7 106.079 141.773   9
 -11   1   7 178.761 136.493   9
 -11  -1   6-201.005 228.960  13
 -11   1   6 420.771 217.549  13
  11  -1  -6-6.16013 343.259   7
 -11  -1   6 256.852 155.319   9
 -11   1   6 149.960 127.375   9
 -11  -1   5 2947.02 383.688  13
 -11   1   5 3813.75 404.535  13
  11  -1  -5 4545.65 623.686   7
 -11   1   5 3950.70 262.090   9
 -11  -1   4-44.1837 209.219  13
 -11   1   4 363.756 227.722  13
  11  -1  -4 362.911 371.832   7
 -11  -1   3 3061.67 415.436  13
 -11   1   3 3838.02 431.967  13
  11  -1  -3 3690.82 630.461   7
 -11   1   2 9982.63 444.571   8
 -11  -1   2 9208.00 664.202  13
 -11   1   2 10938.0 686.326  13
  11  -1  -2 10328.4 945.063   7
 -11   1   1 2582.64 261.435   8
 -11  -1   1 2589.20 402.644  13
 -11   1   1 2513.30 375.765  13
  11  -1  -1 1823.10 532.669   7
 -11  -1   1 2619.08 487.451  20
 -11  -1   1 2269.49 207.766   8
 -11  -1   0-86.9355 119.452   8
 -11   1   0 63.2404 157.100   8
  11  -1   0-356.438 474.477   7
 -11  -1   0 77.7622 226.256  13
 -11   1   0-158.677 249.383  13
 -11  -1   0-65.1220 260.625  20
 -11   1  -1 2328.95 249.786   8
 -11  -1  -1 2187.61 382.014  13
 -11   1  -1 2259.91 375.119  13
 -11   1  -1 2167.22 214.205  11
  11  -1   1 1487.63 253.218   6
 -11  -1  -1 1945.51 212.274   8
 -11   1  -2 2372.21 235.986   8
 -11  -1  -2 1974.13 358.402  13
 -11   1  -2 2074.60 365.446  13
 -11   1  -2 2060.35 204.320  11
  11  -1   2 1388.15 246.828   6
 -11  -1  -2 2117.66 217.005   8
 -11   1  -3 2929.09 255.888   8
 -11  -1  -3 2275.28 375.374  13
 -11   1  -3 2755.72 362.619  13
 -11   1  -3 2914.06 230.032  11
  11  -1   3 2072.67 262.223   6
  11  -1   3 1915.36 325.973  21
  11   1   3 2042.53 355.446  21
 -11  -1  -3 2746.64 240.254   8
 -11   1  -4 13763.6 680.798  13
 -11   1  -4 14773.5 466.868  11
  11  -1   4 13153.2 476.727   6
  11  -1   4 7882.60 514.043  21
  11   1   4 9050.33 571.488  21
 -11  -1  -4 14047.4 464.194   8
 -11   1  -4 14154.3 478.435   8
 -11   1  -5 8652.57 348.520  11
  11  -1   5 9355.99 359.069   6
  11  -1   5 4334.70 375.276  21
  11   1   5 4927.49 411.362  21
 -11  -1  -5 8228.35 349.890   8
 -11   1  -5 8165.10 355.098   8
 -11   1  -6 7440.20 300.904  11
  11  -1   6 9664.36 329.568   6
  11  -1   6 3494.30 339.988  21
  11   1   6 3915.57 366.795  21
 -11  -1  -6 6824.55 298.698   8
 -11   1  -6 6449.66 303.163   8
 -11  -1  -7 515.773 113.068   8
 -11   1  -7 459.291 111.103   8
  11  -1   7 665.809 111.406   6
 -11   1  -7 595.522 106.512  11
  11  -1   7 379.359 175.493  21
  11   1   7 211.939 174.092  21
 -11   1  -8 1680.62 126.770   8
 -11   3  14 1076.38 122.262  13
 -11  -3  14 903.673 107.361   9
 -11   3  14 1165.49 118.872   9
 -11   3  13 279.321 103.561  13
  11  -3 -13 65.4102 148.685   7
 -11  -3  13 226.346 89.5604   9
 -11   3  13 236.994 94.4103   9
 -11   3  12 5676.14 298.369  13
 -11  -3  12 5447.52 251.452   9
 -11   3  12 6284.84 274.308   9
 -11   3  11 3287.18 253.614  13
 -11  -3  11 3532.75 217.441   9
 -11   3  11 3685.74 225.459   9
 -11   3  10 3564.75 273.037  13
  11  -3 -10 2984.73 361.231   7
 -11  -3  10 3265.22 213.311   9
 -11   3  10 3898.20 239.686   9
 -11   3   9 13766.4 521.620  13
  11  -3  -9 12091.0 663.918   7
 -11  -3   9 12657.0 389.100   9
 -11   3   8 1454.75 220.358  13
  11  -3  -8 887.986 272.975   7
 -11  -3   8 993.025 133.844   9
 -11   3   8 1456.35 167.942   9
 -11   3   7 1030.03 194.961  13
  11  -3  -7 284.718 252.094   7
 -11   3   7 625.028 133.789   9
  11  -3  -7-208.341 189.713   5
 -11   3   6 1805.60 241.194  13
  11  -3  -6 1882.72 406.354   7
 -11   3   6 1597.63 165.763   9
 -11   3   5 5792.09 379.976  13
  11  -3  -5 5550.01 597.105   7
 -11   3   5 5071.05 253.718   9
 -11   3   4 5798.80 390.383  13
  11  -3  -4 5430.49 598.519   7
 -11   3   4 5106.33 242.778   9
 -11   3   3 10497.2 508.351  13
  11  -3  -3 9406.55 773.789   7
 -11   3   2 88.7197 126.993  13
  11  -3  -2-8.00099 321.083   7
 -11   3   1 108.449 118.775   8
  11  -3  -1-374.107 370.045   7
 -11   3   1 119.049 131.505  13
  11  -3  -1-241.998 206.979  17
 -11   3   0 113.892 101.984   8
 -11   3   0-86.4893 146.225  13
  11  -3   0-53.9710 199.132  17
 -11   3  -1 807.900 127.142   8
 -11   3  -1 625.032 134.294  13
  11  -3   1 184.595 177.003   6
  11  -3   1 351.094 174.495  17
  11  -3   2 1301.87 204.062   6
  11  -3   2 1638.46 205.606  17
  11  -3   3 619.471 144.429   6
  11  -3   3 812.391 139.328  17
 -11   3  -3 932.507 111.286   8
 -11   3  -4 3196.04 183.510  11
  11  -3   4 3455.76 200.243   6
  11  -3   4 3795.21 192.534  17
 -11   3  -4 2879.33 148.772   8
  11  -3   5 803.906 95.4553   6
 -12   0  15 1.06593 88.3523   9
 -12   0  14 873.467 155.038   9
 -12   0  13 114.384 148.516   9
 -12   0  12 673.506 165.582   9
 -12   0  11 31.3406 118.269   9
 -12   0  10 73114.0 1331.81  13
 -12   0  10 99293.4 1207.01   9
 -12   0   9-129.681 167.488  13
 -12   0   9 123.672 117.440   9
 -12   0   8 14286.5 667.226  13
 -12   0   8 18539.9 520.870   9
 -12   0   7-243.044 204.410  13
 -12   0   7 21.5772 103.298   9
 -12   0   6 700.862 231.384  13
 -12   0   5-270.526 236.552  13
 -12   0   4 22438.0 517.510   8
 -12   0   4 29366.7 1050.80  13
 -12   0   3 103.385 102.399   8
 -12   0   3 57.8029 220.596  13
 -12   0   2 3347.53 396.012  13
 -12   0   2 4026.21 440.701  20
 -12   0   2 3074.49 213.517   8
 -12   0   1 39.9112 103.798   8
 -12   0   1 99.1069 193.469  13
 -12   0   1 78.4500 196.844  20
 -12   0   0 2726.87 351.617  13
 -12   0   0 2368.68 203.112   8
 -12   0  -1-141.802 113.414   8
 -12   0  -1-48.2540 174.021  13
  12   0   1 204.554 205.658  21
 -12   0  -2 80.2637 104.798   8
 -12   0  -2-85.7173 172.595  13
  12   0   2 65.3412 185.159  21
 -12   0  -3-93.4456 99.1978   8
  12   0   3 59.3344 163.943  21
 -12   0  -4 586.854 112.085   8
  12   0   4 298.663 159.832  21
  12   0   5-27.8482 124.779  21
 -12  -2  13 17159.8 362.675   9
 -12   2  13 19995.3 411.228   9
 -12   2  12 777.213 136.423  13
  12  -2 -12 600.806 201.939   7
 -12  -2  12 776.836 109.561   9
 -12   2  12 995.031 127.404   9
 -12   2  11 81.7377 109.915  13
  12  -2 -11 157.982 192.644   7
 -12  -2  11-148.310 138.141  20
 -12  -2  11-26.8205 82.9613   9
 -12   2  11 66.2393 93.7781   9
 -12   2  10 975.173 178.680  13
  12  -2 -10 949.221 287.249   7
 -12  -2  10 683.790 111.571   9
 -12   2  10 1017.18 141.509   9
 -12   2   9 3191.88 282.951  13
  12  -2  -9 2675.70 387.438   7
 -12   2   9 3432.10 210.704   9
 -12   2   8 12253.0 529.090  13
  12  -2  -8 11145.5 699.711   7
 -12   2   7 9907.58 496.648  13
  12  -2  -7 9196.66 673.119   7
 -12   2   7 10215.6 329.557   9
 -12   2   6 6956.97 424.065  13
  12  -2  -6 6319.09 577.413   7
 -12   2   6 7221.22 271.416   9
 -12   2   5 124.731 104.583   8
 -12   2   5 177.374 147.237  13
  12  -2  -5 21.2480 288.526   7
 -12  -2   5-11.4340 229.072  20
 -12   2   4 1016.30 143.825   8
 -12   2   4 909.979 202.409  13
  12  -2  -4 883.728 334.647   7
 -12   2   3 7125.25 307.184   8
  12  -2  -3 6368.16 599.209   7
 -12   2   2 96.5722 106.212   8
 -12   2   2-143.272 187.082  13
  12  -2  -2-305.502 178.799   6
 -12   2   1 62.8651 97.9482   8
 -12   2   1 102.589 147.550  13
  12  -2  -1-267.389 166.895   6
  12  -2  -1 103.554 124.420  21
  12   2  -1 194.559 147.457  21
 -12   2   0 1148.20 139.888   8
 -12   2   0 1155.88 196.707  13
  12  -2   0 438.409 140.417   6
  12  -2   0 404.346 128.922  21
  12   2   0 603.700 152.734  21
 -12   2  -1 188.930 98.7802   8
 -12   2  -1 122.794 106.977  13
  12  -2   1 102.546 109.702   6
  12   2   1-109.104 110.832  21
  12  -2   2 8835.30 294.924   6
 -12   2  -2 10426.7 303.669   8
 -12   2  -3 5459.40 200.479   8
 -13  -1   9 209.576 146.770  20
 -13   1   8 384.943 132.229  13
 -13  -1   8 248.675 165.345  20
 -13   1   7 345.853 135.056  13
 -13  -1   7-119.167 161.816  20
 -13   1   6 134.165 126.954  13
 -13  -1   6-112.794 161.777  20
 -13   1   5 881.437 174.818  13
 -13   1   4 3136.70 273.462  13
  13  -1  -3 1737.16 186.537  21
  13   1  -3 1958.73 201.987  21
 -13   1   2 1203.58 176.381  13
  13   1  -2 836.440 145.898  21
   0   0   0    0.00    0.00   0
TITL xall2 in C2/c
REM C2/c (#15 in standard setting)
CELL 1.54184  10.611374   6.318444  19.062615  90.0000 104.0745  90.0000
ZERR    4.00   0.000933   0.000660   0.001957   0.0000   0.0091   0.0000
LATT  7
SYMM -x, y,-z+1/2
SFAC C H N O
UNIT 36.00 96.00 8.00 20.00
TREF
HKLF 4
END
;
_shelx_hkl_checksum              51101
_shelx_res_file
;
TITL xall2 in C2/c
CELL  1.54184  10.6114   6.3184  19.0628   90.000  104.075   90.000
ZERR     4.00   0.0009   0.0007   0.0020    0.000    0.009    0.000
LATT   7
SYMM  - X,   Y, 1/2 - Z
SFAC  C    H    N    O
UNIT  36   96   8    20
MERG   2
EQIV $1 x, y+1, z
HTAB C3 O1_$1
EQIV $2 -x+3/2, -y+1/2, -z+1
HTAB C4 O1_$2
HTAB N1 O2
EQIV $3 x+1/2, y-1/2, z
HTAB N1 O3_$3
HTAB O1 O3_$3
EQIV $4 -x+3/2, y-1/2, -z+3/2
HTAB O1 O2_$4
EQIV $5 -x+3/2, y+1/2, -z+3/2
HTAB N1 O2_$5
FMAP   2
PLAN   25
ACTA
BOND   $H
CONF
LIST   4
L.S.   4
TEMP  -173.00
WGHT    0.092700    1.367300
FVAR       4.83825
O3    4    0.500000    0.725469    0.750000    10.50000    0.01592    0.01423 =
         0.02582    0.00000    0.00620    0.00000
O2    4    0.608369    0.421209    0.772102    11.00000    0.01413    0.01888 =
         0.02229    0.00215    0.00937    0.00306
O1    4    0.797408    0.119849    0.598070    11.00000    0.02171    0.02023 =
         0.02213   -0.00112    0.00867    0.00347
N1    3    0.802451    0.503454    0.695011    11.00000    0.01317    0.01837 =
         0.01886    0.00021    0.00994    0.00056
C5    1    0.500000    0.522368    0.750000    10.50000    0.01353    0.01698 =
         0.01587    0.00000    0.00901    0.00000
C1    1    0.743956    0.494350    0.614608    11.00000    0.01382    0.01730 =
         0.01875    0.00037    0.00912    0.00043
C3    1    0.627881    0.643587    0.596783    11.00000    0.01592    0.02175 =
         0.02595    0.00357    0.00964    0.00246
AFIX  33
H11   2    0.588521    0.639797    0.544661    11.00000   -1.50000
H10   2    0.563670    0.599039    0.623059    11.00000   -1.50000
H12   2    0.656740    0.787981    0.611154    11.00000   -1.50000
AFIX   0
C4    1    0.848362    0.559279    0.576414    11.00000    0.01695    0.02151 =
         0.02249   -0.00063    0.01245   -0.00124
AFIX  33
H8    2    0.812574    0.554584    0.523956    11.00000   -1.50000
H7    2    0.877645    0.703408    0.590902    11.00000   -1.50000
H9    2    0.922070    0.461637    0.589801    11.00000   -1.50000
AFIX   0
C2    1    0.696560    0.268356    0.594430    11.00000    0.01528    0.02052 =
         0.02053   -0.00056    0.00601   -0.00037
AFIX  23
H5    2    0.642596    0.222165    0.627296    11.00000   -1.20000
H6    2    0.640520    0.268982    0.544636    11.00000   -1.20000
AFIX   0
H3    2    0.738168    0.489275    0.719731    11.00000    0.01681
H4    2    0.868601    0.406777    0.707236    11.00000    0.03508
H1    2    0.821695    0.072741    0.640993    11.00000    0.04112
H2    2    0.842366    0.643414    0.707773    11.00000    0.03810
HKLF 4
REM  xall2 in C2/c
REM R1 =  0.0532 for    1124 Fo > 4sig(Fo)  and  0.0605 for all    1296 data
REM     90 parameters refined using      0 restraints
END
WGHT      0.0927      1.3676
REM Highest difference peak  0.373,  deepest hole -0.302,  1-sigma level  0.072
Q1    1   0.7971  0.5300  0.6003  11.00000  0.05    0.37
Q2    1   0.6882  0.5721  0.6054  11.00000  0.05    0.30
Q3    1   0.6127  0.2584  0.6115  11.00000  0.05    0.29
Q4    1   0.8610  0.1472  0.5765  11.00000  0.05    0.28
Q5    1   0.5542  0.3883  0.7977  11.00000  0.05    0.28
Q6    1   0.5833  0.7503  0.7303  11.00000  0.05    0.26
Q7    1   0.6772  0.2796  0.5329  11.00000  0.05    0.26
Q8    1   0.8321 -0.1038  0.6111  11.00000  0.05    0.24
Q9    1   0.6866  0.4307  0.7475  11.00000  0.05    0.23
Q10   1   0.5962  0.4542  0.7074  11.00000  0.05    0.22
Q11   1   0.8781 -0.0613  0.6622  11.00000  0.05    0.22
Q12   1   0.6208  0.1259  0.6008  11.00000  0.05    0.22
Q13   1   0.5480  0.6540  0.6207  11.00000  0.05    0.21
Q14   1   0.6644  0.4886  0.7592  11.00000  0.05    0.20
Q15   1   0.6484  0.7181  0.5692  11.00000  0.05    0.20
Q16   1   0.6736  0.2246  0.6698  11.00000  0.05    0.20
Q17   1   0.4844  0.7456  0.6793  11.00000  0.05    0.20
Q18   1   0.5355  0.5441  0.5981  11.00000  0.05    0.19
Q19   1   0.8022  0.4597  0.5146  11.00000  0.05    0.18
Q20   1   0.6212  0.9072  0.6632  11.00000  0.05    0.18
Q21   1   0.3954  0.6240  0.7467  11.00000  0.05    0.18
Q22   1   0.5721  0.2173  0.6610  11.00000  0.05    0.18
Q23   1   0.7124  0.3362  0.7681  11.00000  0.05    0.17
Q24   1   0.9632  0.4651  0.6119  11.00000  0.05    0.17
Q25   1   0.9443  0.1294  0.6650  11.00000  0.05    0.16
;
_shelx_res_checksum              39409
_shelxl_version_number           2.014
loop_
_space_group_symop_operation_xyz
'x, y, z'
'-x, y, -z+1/2'
'x+1/2, y+1/2, z'
'-x+1/2, y+1/2, -z+1/2'
'-x, -y, -z'
'x, -y, z-1/2'
'-x+1/2, -y+1/2, -z'
'x+1/2, -y+1/2, z-1/2'
loop_
_atom_site_type_symbol
_atom_site_label
_atom_site_fract_x
_atom_site_fract_y
_atom_site_fract_z
_atom_site_U_iso_or_equiv
_atom_site_adp_type
_atom_site_calc_flag
_atom_site_occupancy
O O3 0.5000 0.7255(3) 0.7500 0.0185(4) Uani d 1
O O2 0.60837(11) 0.4212(2) 0.77210(7) 0.0176(4) Uani d 1
O O1 0.79741(13) 0.1198(2) 0.59807(8) 0.0208(4) Uani d 1
N N1 0.80245(14) 0.5035(2) 0.69501(8) 0.0158(4) Uani d 1
C C5 0.5000 0.5224(4) 0.7500 0.0145(5) Uani d 1
C C1 0.74396(17) 0.4943(3) 0.61461(10) 0.0157(4) Uani d 1
C C3 0.62788(17) 0.6436(3) 0.59678(11) 0.0204(4) Uani d 1
H H11 0.5885 0.6398 0.5447 0.031 Uiso calc 1
H H10 0.5637 0.5990 0.6231 0.031 Uiso calc 1
H H12 0.6567 0.7880 0.6112 0.031 Uiso calc 1
C C4 0.84836(17) 0.5593(3) 0.57641(10) 0.0190(4) Uani d 1
H H8 0.8126 0.5546 0.5240 0.029 Uiso calc 1
H H7 0.8776 0.7034 0.5909 0.029 Uiso calc 1
H H9 0.9221 0.4616 0.5898 0.029 Uiso calc 1
C C2 0.69656(17) 0.2684(3) 0.59443(10) 0.0185(4) Uani d 1
H H5 0.6426 0.2222 0.6273 0.022 Uiso calc 1
H H6 0.6405 0.2690 0.5446 0.022 Uiso calc 1
H H3 0.738(2) 0.489(4) 0.7197(13) 0.017(5) Uiso d 1
H H4 0.869(3) 0.407(5) 0.7072(17) 0.035(7) Uiso d 1
H H1 0.822(3) 0.073(5) 0.6410(19) 0.041(8) Uiso d 1
H H2 0.842(3) 0.643(5) 0.7078(17) 0.038(8) Uiso d 1
loop_
_atom_site_aniso_label
_atom_site_aniso_U_11
_atom_site_aniso_U_22
_atom_site_aniso_U_33
_atom_site_aniso_U_12
_atom_site_aniso_U_13
_atom_site_aniso_U_23
O3 0.0159(8) 0.0142(9) 0.0258(10) 0.000 0.0062(7) 0.000
O2 0.0141(7) 0.0189(7) 0.0223(7) 0.0031(5) 0.0094(5) 0.0022(5)
O1 0.0217(7) 0.0202(7) 0.0221(8) 0.0035(5) 0.0087(5) -0.0011(5)
N1 0.0132(7) 0.0184(8) 0.0189(8) 0.0006(6) 0.0099(6) 0.0002(6)
C5 0.0135(11) 0.0170(12) 0.0159(12) 0.000 0.0090(9) 0.000
C1 0.0138(8) 0.0173(9) 0.0187(9) 0.0004(6) 0.0091(6) 0.0004(6)
C3 0.0159(8) 0.0217(9) 0.0260(10) 0.0025(7) 0.0096(7) 0.0036(7)
C4 0.0170(8) 0.0215(9) 0.0225(9) -0.0012(7) 0.0124(7) -0.0006(7)
C2 0.0153(8) 0.0205(9) 0.0205(9) -0.0004(7) 0.0060(6) -0.0006(7)
loop_
_atom_type_symbol
_atom_type_description
_atom_type_scat_dispersion_real
_atom_type_scat_dispersion_imag
_atom_type_scat_source
C C 0.0181 0.0091 'International Tables Vol C Tables 4.2.6.8 and 6.1.1.4'
H H 0.0000 0.0000 'International Tables Vol C Tables 4.2.6.8 and 6.1.1.4'
N N 0.0311 0.0180 'International Tables Vol C Tables 4.2.6.8 and 6.1.1.4'
O O 0.0492 0.0322 'International Tables Vol C Tables 4.2.6.8 and 6.1.1.4'
loop_
_geom_angle_atom_site_label_1
_geom_angle_atom_site_label_2
_geom_angle_atom_site_label_3
_geom_angle_site_symmetry_1
_geom_angle_site_symmetry_3
_geom_angle
C2 O1 H1 . . 109(2)
C1 N1 H3 . . 110.0(15)
C1 N1 H4 . . 109.5(19)
H3 N1 H4 . . 115(2)
C1 N1 H2 . . 109.3(18)
H3 N1 H2 . . 107(2)
H4 N1 H2 . . 106(2)
O3 C5 O2 . 2_656 119.62(11)
O3 C5 O2 . . 119.62(11)
O2 C5 O2 2_656 . 120.8(2)
N1 C1 C3 . . 108.29(14)
N1 C1 C4 . . 107.95(14)
C3 C1 C4 . . 111.69(15)
N1 C1 C2 . . 108.64(14)
C3 C1 C2 . . 108.84(14)
C4 C1 C2 . . 111.33(14)
C1 C3 H11 . . 109.5
C1 C3 H10 . . 109.5
H11 C3 H10 . . 109.5
C1 C3 H12 . . 109.5
H11 C3 H12 . . 109.5
H10 C3 H12 . . 109.5
C1 C4 H8 . . 109.5
C1 C4 H7 . . 109.5
H8 C4 H7 . . 109.5
C1 C4 H9 . . 109.5
H8 C4 H9 . . 109.5
H7 C4 H9 . . 109.5
O1 C2 C1 . . 114.11(14)
O1 C2 H5 . . 108.7
C1 C2 H5 . . 108.7
O1 C2 H6 . . 108.7
C1 C2 H6 . . 108.7
H5 C2 H6 . . 107.6
loop_
_geom_bond_atom_site_label_1
_geom_bond_atom_site_label_2
_geom_bond_distance
O3 C5 1.283(3)
O2 C5 1.2934(17)
O1 C2 1.412(2)
O1 H1 0.85(3)
N1 C1 1.508(2)
N1 H3 0.92(3)
N1 H4 0.92(3)
N1 H2 0.99(3)
C1 C3 1.523(2)
C1 C4 1.523(2)
C1 C2 1.532(3)
C3 H11 0.9800
C3 H10 0.9800
C3 H12 0.9800
C4 H8 0.9800
C4 H7 0.9800
C4 H9 0.9800
C2 H5 0.9900
C2 H6 0.9900
loop_
_geom_hbond_atom_site_label_D
_geom_hbond_atom_site_label_H
_geom_hbond_atom_site_label_A
_geom_hbond_site_symmetry_A
_geom_hbond_distance_DH
_geom_hbond_distance_HA
_geom_hbond_distance_DA
_geom_hbond_angle_DHA
C4 H8 O1 7_656 0.98 2.58 3.498(2) 155.5
N1 H3 O2 . 0.92(3) 1.94(3) 2.8536(18) 173(2)
N1 H4 O3 3_545 0.92(3) 1.84(3) 2.7403(19) 169(3)
O1 H1 O2 4_646 0.85(3) 1.90(4) 2.738(2) 168(3)
N1 H2 O2 4_656 0.99(3) 1.84(3) 2.823(2) 171(3)
loop_
_geom_torsion_atom_site_label_1
_geom_torsion_atom_site_label_2
_geom_torsion_atom_site_label_3
_geom_torsion_atom_site_label_4
_geom_torsion
N1 C1 C2 O1 -71.47(18)
C3 C1 C2 O1 170.81(14)
C4 C1 C2 O1 47.3(2)
loop_
_cod_related_entry_id
_cod_related_entry_database
_cod_related_entry_code
1 PubChem 139062241
