#------------------------------------------------------------------------------
#$Date: 2025-08-19 13:01:59 +0300 (Tue, 19 Aug 2025) $
#$Revision: 301802 $
#$URL: file:///home/coder/svn-repositories/cod/cif/2/10/59/2105990.cif $
#------------------------------------------------------------------------------
#
# This file is available in the Crystallography Open Database (COD),
# http://www.crystallography.net/. The original data for this entry
# were provided by IUCr Journals, http://journals.iucr.org/.
#
# The file may be used within the scientific community so long as
# proper attribution is given to the journal article from which the
# data were obtained.
#
data_2105990
loop_
_publ_author_name
'Fortes, A. Dominic'
'Wood, Ian G.'
'Alf\`e, Dario'
'Hern\'andez, Eduardo R.'
'Gutmann, Matthias J.'
'Sparkes, Hazel A.'
_publ_section_title
;
 Structure, hydrogen bonding and thermal expansion of ammonium carbonate
 monohydrate
;
_journal_coeditor_code           EB5035
_journal_issue                   6
_journal_name_full               'Acta Crystallographica Section B'
_journal_page_first              948
_journal_page_last               962
_journal_paper_doi               10.1107/S205252061402126X
_journal_volume                  70
_journal_year                    2014
_chemical_formula_moiety         'C O3, H2 O, 2(H4 N)'
_chemical_formula_sum            'C H10 N2 O4'
_chemical_formula_weight         114.11
_chemical_melting_point          273
_chemical_name_common            'ammonium carbonate monohydrate'
_chemical_name_systematic
;
ammonium carbonate monohydrate
;
_space_group_crystal_system      orthorhombic
_space_group_IT_number           62
_space_group_name_Hall           '-P 2ac 2n'
_space_group_name_H-M_alt        'P n m a'
_symmetry_space_group_name_Hall  '-P 2ac 2n'
_symmetry_space_group_name_H-M   'P n m a'
_atom_sites_solution_hydrogens   difmap
_audit_creation_method           SHELXL-2014
_cell_angle_alpha                90
_cell_angle_beta                 90
_cell_angle_gamma                90
_cell_formula_units_Z            4
_cell_length_a                   12.056(3)
_cell_length_b                   4.4519(11)
_cell_length_c                   11.016(3)
_cell_measurement_reflns_used    550
_cell_measurement_temperature    100(2)
_cell_volume                     591.3(3)
_computing_cell_refinement       'SXD2001 (Gutmann, 2005)'
_computing_data_collection       'SXD2001 (Gutmann, 2005)'
_computing_data_reduction        'SXD2001 (Gutmann, 2005)'
_computing_molecular_graphics    'DIAMOND (Putz and Brandenburg, 2006)'
_computing_publication_material  'publCIF (Westrip, 2010)'
_computing_structure_refinement  'SHELXL-2014 (Gruene et al., 2014)'
_computing_structure_solution    'SHELXS-2014 (Gruene et al., 2014)'
_diffrn_ambient_temperature      100(2)
_diffrn_detector_area_resol_mean 0
_diffrn_measured_fraction_theta_full 0.857
_diffrn_measured_fraction_theta_max 0.181
_diffrn_measurement_device_type  SXD
_diffrn_measurement_method       'time-of-flight LAUE diffraction'
_diffrn_radiation_source         'ISIS neutron spallation source'
_diffrn_radiation_type           neutron
_diffrn_radiation_wavelength     0.48-7.0
_diffrn_reflns_limit_h_max       31
_diffrn_reflns_limit_h_min       -32
_diffrn_reflns_limit_k_max       10
_diffrn_reflns_limit_k_min       -12
_diffrn_reflns_limit_l_max       26
_diffrn_reflns_limit_l_min       -27
_diffrn_reflns_number            7209
_diffrn_reflns_theta_full        25.242
_diffrn_reflns_theta_max         85.422
_diffrn_reflns_theta_min         0.002
_diffrn_standards_decay_%        0
_diffrn_standards_interval_count 0
_diffrn_standards_interval_time  0
_diffrn_standards_number         0
_exptl_absorpt_coefficient_mu    0.000
_exptl_absorpt_correction_type   none
_exptl_crystal_colour            colorless
_exptl_crystal_density_diffrn    1.282
_exptl_crystal_density_method    'not measured'
_exptl_crystal_description       cuboid
_exptl_crystal_F_000             248
_exptl_crystal_size_max          4.00
_exptl_crystal_size_mid          4.00
_exptl_crystal_size_min          4.00
_refine_diff_density_max         2.093
_refine_diff_density_min         -2.515
_refine_ls_extinction_coef       0.043(3)
_refine_ls_extinction_expression Fc^*^=kFc[1+0.001xFc^2^\l^3^/sin(2\q)]^-1/4^
_refine_ls_extinction_method     SHELXL
_refine_ls_goodness_of_fit_ref   1.093
_refine_ls_hydrogen_treatment    refall
_refine_ls_matrix_type           full
_refine_ls_number_parameters     104
_refine_ls_number_reflns         7209
_refine_ls_number_restraints     0
_refine_ls_restrained_S_all      1.093
_refine_ls_R_factor_all          0.0939
_refine_ls_R_factor_gt           0.0939
_refine_ls_shift/su_max          0.000
_refine_ls_shift/su_mean         0.000
_refine_ls_structure_factor_coef Fsqd
_refine_ls_weighting_details
'w=1/[\s^2^(Fo^2^)+(0.1933P)^2^+22.6698P] where P=(Fo^2^+2Fc^2^)/3'
_refine_ls_weighting_scheme      calc
_refine_ls_wR_factor_gt          0.2660
_refine_ls_wR_factor_ref         0.2660
_reflns_number_gt                7209
_reflns_number_total             1618
_reflns_threshold_expression     'I > 2\s(I)'
_cod_data_source_file            eb5035sup1.cif
_cod_data_source_block           II
_cod_original_cell_volume        591.2(3)
_cod_database_code               2105990
_cod_database_fobs_code          2105990
#BEGIN Tags that were not found in dictionaries:
_shelx_space_group_comment
;
The symmetry employed for this shelxl refinement is uniquely defined
by the following loop, which should always be used as a source of
symmetry information in preference to the above space-group names.
They are only intended as comments.
;
_shelx_hkl_file
;
   3   3  -5 3722.95   43.56   1    2.17
   1   3  -5 2733.12   36.36   1    2.18
   3   4  -6  4062.2   53.61   1    1.66
   6   5  -8 5220.89   80.68   1    1.29
   2   2  -3 2176.92   33.07   1    3.29
   2   3  -4 1831.23   28.89   1    2.23
   2   5  -8 3192.38   61.33   1    1.32
   6   3  -8 2309.16   39.05   1    1.77
   4   3  -8 1968.03   39.55   1    1.89
   2   2  -5 1408.04   27.55   1    2.95
   3   2  -3 1077.96   22.33   1    3.13
   2   5 -10 2618.91   63.86   1    1.27
   3   4 -10 1965.76   46.12   1    1.49
   7   4  -9 2204.54   56.07   1    1.44
   4   4 -11 2177.34   53.58   1    1.42
   3   5 -10 2165.55   63.07   1    1.28
   2   2  -6  885.79   21.63   1    2.72
   3   4  -9  1377.4   39.13   1    1.54
   4   5  -8 1946.65   55.33   1    1.32
   2   4  -8 1171.66    34.6   1    1.59
   7   4 -10 1668.81    52.5   1     1.4
   8   5  -9 2423.47   72.24   1    1.22
   4   5 -10 2041.96   62.32   1    1.28
   2   3  -8  990.87    28.8   1    1.93
   5   4  -6 1032.09    31.6   1    1.61
   2   3  -6  743.29   23.46   1    2.13
   7   5  -7 1885.75   55.81   1    1.27
   4   5 -11 1826.12   60.99   1    1.24
   5   5  -8 1114.64   43.61   1    1.31
   6   4  -7  921.37   33.84   1    1.55
   2   2  -4  533.65   17.74   1    3.16
   4   4  -7  843.54   32.25   1    1.62
   1   2  -5  456.35   16.04   1    2.96
   3   3  -6  486.09   20.22   1    2.11
   1   1  -3  511.56   18.27   1    5.43
   6   3  -7   631.1   23.82   1    1.84
   3   6  -9 1716.82   70.96   1    1.11
   2   4  -6  513.97   22.87   1    1.66
   1   2  -3  281.06   11.76   1    3.32
   5   3  -7  459.02    23.2   1    1.92
   3   6 -10 1283.77   67.77   1     1.1
   8   5  -8  866.46   45.19   1    1.23
   3   5 -13    1174   61.41   1    1.17
   3   4 -11  695.58   36.22   1    1.42
   4   4 -12  773.88   40.31   1    1.36
   2   3  -9  533.82   23.12   1    1.81
   4   4  -8  572.67   32.93   1    1.58
   4   6 -11  1333.6   82.06   1    1.08
   5   5 -12 1273.99   63.46   1     1.2
   5   4  -8   513.2   31.87   1    1.55
   3   3  -8  377.48   18.49   1    1.96
   3   5  -7  488.67   33.01   1    1.33
   6   4 -11  752.36    40.5   1    1.38
   6   6 -15 2193.72   118.1   1    0.99
   6   5  -7  590.98    40.4   1     1.3
   6   6 -11 1355.41    82.4   1    1.07
   8   4  -9  645.35   35.35   1    1.39
   4   5  -9  687.45   40.28   1     1.3
   7   5  -9  645.72   45.55   1    1.25
   3   2  -4  209.78   12.45   1    3.03
   7   6 -10 1472.65   81.87   1    1.07
   1   4  -8  381.32   23.99   1    1.57
   7   5  -8  682.57   42.72   1    1.26
   9   5 -10 1024.07   67.97   1    1.17
   9   6 -13 1350.17   87.54   1       1
   6   4  -6  487.42   24.27   1    1.56
   7   5 -14     895   70.82   1     1.1
   2   3  -5   205.7   14.41   1    2.19
   3   6 -11  856.93   68.23   1    1.08
   7   5 -12  687.07   63.45   1    1.17
   1   1  -2  207.97   12.75   1    6.31
   4   7 -10 1084.26   93.28   1    0.95
   1   2  -4  164.23   10.29   1    3.17
   6   6 -12  963.36   89.69   1    1.05
   1   5  -8  405.27   31.32   1     1.3
   4   6 -15 1165.08   101.8   1    0.99
  10   6 -13  818.75   101.6   1    0.98
  10   6 -12  746.38    79.4   1    0.99
   3   5  -8  349.34   32.43   1    1.32
   8   5 -11  540.55   54.54   1    1.18
   8   5 -10  416.23   42.63   1     1.2
   6   4 -10  307.38   27.82   1    1.43
   4   6 -12  617.35   68.96   1    1.06
   3   5  -9  385.38   35.32   1     1.3
   5   3  -8  208.66   21.06   1    1.84
   7   5 -13  428.18    51.4   1    1.14
   2   4  -7  231.86   18.15   1    1.63
   8   7  -9 1157.05  101.54   1    0.93
   4   3  -5   184.3   16.79   1    2.11
   3   5 -14  631.47   60.74   1    1.13
   7   4  -8  211.44   27.17   1    1.47
   9   5 -11  423.34   41.61   1    1.15
   6   4  -8  286.06   27.49   1    1.52
   4   4 -10  164.12   25.85   1    1.48
   3   2  -5   95.48    9.71   1    2.86
   7   6 -11  583.72   79.58   1    1.06
   3   3  -9  143.09   17.51   1    1.81
   5   5 -15  643.69   67.65   1    1.09
   6   5  -6  212.88    29.1   1     1.3
   6   5 -11  464.45   48.59   1    1.22
   4   6 -10  413.49    52.9   1     1.1
   3   4 -12  189.46   26.89   1    1.36
  10   5 -12  535.69   66.94   1     1.1
   3   7 -17 1390.99  137.71   1    0.85
   9   6 -12  662.53    86.1   1    1.01
   8   6  -9     267   50.68   1    1.06
   4   4  -6  166.92      23   1    1.64
   4   5 -14  369.44   43.76   1    1.14
   3   8 -17  673.29  147.13   1    0.78
   7   7 -16   856.1  138.67   1    0.87
   5   7 -12  647.61   99.29   1    0.94
   4   7 -16  1129.6  128.32   1    0.87
   4   5 -15  260.13   49.66   1    1.09
   5   4  -7  111.51    19.4   1    1.59
   9   6  -9  348.46   54.64   1    1.04
   4   3  -6   169.3    20.9   1    2.04
   7   6  -8  422.76   44.75   1    1.09
   7   5 -11  247.16   48.13   1     1.2
   4   5 -12  318.79   47.67   1    1.21
   7   8 -10  485.51   93.37   1    0.83
   4   6  -9  242.21   51.72   1    1.11
   4   8 -15  547.13  118.81   1    0.81
   4   3  -7   67.76   12.54   1    1.98
   3   5 -11  265.48   45.54   1    1.24
   4   2  -5   43.31    8.61   1    2.71
   5   4  -5  135.38   22.18   1    1.61
  -1   3  -2 3058.16    34.5   1    1.83
   1   3  -2 2994.94   35.68   1    2.06
   3   3  -2 3209.03   38.73   1    2.07
   3   3  -1 2364.72    30.1   1     1.9
   1   3  -3 1965.16   31.54   1    2.17
   2   5  -4 3540.55   64.48   1    1.28
   0   4  -4 2096.46   41.22   1    1.57
  -2   5  -4 3899.74      76   1    1.11
   3   6  -6 4820.97  102.03   1     1.1
   2   4  -3 1641.49   35.13   1    1.59
   0   3  -3 1108.01   24.55   1    2.09
  -2   4  -3  1678.1   38.86   1    1.33
   0   6  -8 4007.29   95.08   1    1.07
   2   3  -2     908    22.3   1     2.1
  -1   4  -2 1110.88    30.5   1    1.32
   5   5  -1 2178.17   59.19   1    1.08
   1   4  -2 1077.98   30.55   1    1.47
   3   4  -2 1125.58   31.64   1    1.51
   2   4  -2 1272.29   33.35   1     1.5
   4   4  -3 1049.06   31.31   1    1.58
   1   5  -1 1674.23   56.88   1    1.04
   0   6  -6 2303.36   83.99   1    1.05
   5   5  -2 1444.03   51.33   1    1.16
   2   3  -1  394.19   15.14   1    1.91
   2   2  -1  369.03   12.44   1    2.99
   2   3  -3  438.34   16.55   1     2.2
   1   5  -5  998.28   38.84   1    1.32
   1   2  -2  388.84   14.21   1    3.29
   2   7  -4 2359.52  131.83   1    0.86
   0   5  -5  843.41   41.46   1    1.25
   3   6  -2 1551.43   86.71   1    0.95
   0   6  -4 1596.52   82.48   1    0.98
   4   6  -3 1169.74   69.07   1    1.01
  -1   5  -3  705.77    45.2   1    1.11
   0   1  -1  334.78   15.34   1    6.26
   4   4  -1  479.08   24.54   1    1.38
   5   7  -2 2111.21  130.34   1     0.8
   5   6  -3 1313.08    75.9   1       1
   7   6  -5 1111.23   61.74   1    1.05
   2   4  -4  433.37   24.79   1    1.64
   6   7  -4 2203.41  122.48   1    0.87
   4   5  -3   731.7   45.04   1    1.23
  -2   7  -4 2482.39  146.41   1    0.77
   1   6  -6 1006.58   61.88   1    1.07
   1   7  -2 2156.07  170.87   1    0.76
   0   4  -2  209.83    21.2   1     1.4
  -1   6  -6  905.28   67.15   1    1.01
   0   2  -2  186.35   10.09   1    3.12
   3   5  -5  369.37   33.18   1    1.32
   4   6  -6  899.36    60.9   1     1.1
   3   4  -1  278.66   22.01   1    1.38
   2   5  -1  424.31    44.6   1    1.06
   0   7  -7 1548.26  119.59   1    0.89
  -1   7  -7  1190.4  119.71   1    0.87
   3   5  -1  431.73   40.89   1    1.08
   6   6  -1  726.22      76   1    0.89
   2   4  -1   256.7   21.78   1    1.37
   6   7   0 1749.28  167.82   1     0.7
   1   7  -7 1334.34  105.88   1    0.91
  -2   5  -3  535.66    47.1   1    1.05
   5   5  -4  331.88   31.44   1    1.27
   3   8  -6 2358.56  201.78   1    0.79
   8   7  -5 1295.77  110.87   1    0.89
   1   6  -5  650.92   64.57   1    1.03
   3   5  -2  404.94   33.22   1    1.17
   3   7  -5 1080.15   95.07   1     0.9
   0   3  -1  134.85    11.6   1    1.76
   1   7  -3 1032.25  127.78   1     0.8
  -1   7  -3  977.36  109.31   1    0.76
  -3   8  -6 1868.86  220.78   1    0.69
   2   5  -3  371.75   35.56   1    1.22
   7   7  -1 1175.74  131.57   1    0.75
  -3   7  -5  1508.1  143.88   1    0.77
   2   6  -6  369.18   47.65   1    1.09
   1   3  -1  101.82    12.1   1    1.85
   4   5   0  555.17   55.99   1    0.99
   7   8  -6 1783.31   191.8   1    0.79
   7   7  -4   397.4    73.9   1    0.87
   2   7  -8  761.25   87.19   1    0.94
   2   8  -3 1133.47  155.47   1     0.7
   0   8  -4 1555.76   179.4   1     0.7
   6   8  -7  855.12  135.28   1    0.81
   1   7  -5  345.64   88.53   1    0.87
   3   7  -6  465.31   78.69   1    0.92
   6   7  -5  498.65   93.42   1     0.9
   5   7  -3  323.38    72.6   1    0.85
   4   8  -4  706.17  146.36   1    0.75
   1   7  -9  246.58    87.3   1    0.93
   4   6  -1  262.31   53.09   1    0.89
   2   5  -2   97.46   18.78   1    1.15
   6   9  -8  956.82  186.38   1    0.72
   1   5  -2   217.2    38.8   1    1.12
   7   8  -3  572.94  119.92   1    0.72
   3   9  -5  761.55  153.45   1    0.67
   3  10  -6  336.31  125.87   1    0.61
   5   6  -1  484.43   81.75   1    0.89
   0   8  -8  533.79  115.56   1    0.78
   0   7  -5   77.34   36.13   1    0.85
   7   8  -7  531.59  105.34   1    0.81
  -4   2   0 16999.7  110.28   1    0.67
   0   1   1 1638.85    8.07   1    1.32
   3   2   2 2642.31   24.44   1    1.13
   3   3   2 5610.28   52.34   1    1.02
  -2   1   0 1031.67    8.57   1    1.35
  -3   3  -1 3404.96   38.89   1    1.21
   1   1   1 1073.98     7.6   1    2.08
   1   3   2 5192.65   60.17   1    0.89
  -2   2   0 1303.63   16.65   1    1.43
   3   3   1 2949.95   31.68   1    1.34
  -1   3   2 6121.78   96.53   1    0.65
  -4   4   0 6632.18  125.23   1    0.71
  -3   3   1 4302.97   85.01   1    0.66
   2   2   1  466.16   10.12   1    1.78
   2   3   2 1280.33   35.58   1    0.97
   1   2   2  742.88   21.73   1     0.9
   5   2   3  2059.8    48.7   1    0.69
  -7   3  -1 4361.26  148.03   1     0.5
   5   3   3 1757.27   54.53   1    0.76
   3   4   2 1626.36   62.14   1    0.87
   5   4   3 1953.76   79.36   1    0.72
  -4   3  -1  835.51   33.23   1    1.01
   4   2   3  2026.3   49.83   1    0.65
  -2   2   1  614.42   28.47   1    0.77
  -2   3  -1  388.78   16.79   1    1.42
   6   3   4 2887.56   109.6   1    0.53
   1   3   3 3499.53   93.03   1    0.55
   0   8   0 8008.42  319.28   1    0.55
   1   5   1 1727.41    81.2   1     0.8
   1   4   2 1330.09   64.49   1    0.78
  -4   3   0  879.75   51.53   1    0.76
   0   5   1 2122.31   97.35   1    0.76
  -5   3  -1 1248.29   55.82   1    0.81
  -5   5  -1 2150.14  125.93   1    0.67
  -5   5  -2 1565.91  110.58   1    0.76
  -5   2  -1  542.04    34.7   1    0.77
  -1   5   1 1835.21  109.58   1    0.71
   6   5   4 3629.27  192.47   1    0.54
   5   5   2 1323.82   80.73   1    0.76
   4   4   1  482.75   31.15   1    1.06
  -2   5   0  1049.9   75.58   1    0.77
  -6   3  -1  924.32   69.57   1    0.64
  -1   4   2 1270.95   84.45   1    0.64
   4   4   3 1463.02   87.82   1     0.7
  -4   4  -1  474.29   53.71   1    0.86
  -2   3   2  830.63   71.21   1    0.51
  -1   2   1   10.51    5.13   1    1.12
   4   4   4 1266.28  117.24   1    0.52
  -6   4  -1 1198.89  105.33   1    0.64
   3   4   1  234.07    20.2   1    1.05
  -2   3   1  552.37   43.35   1    0.83
   3   4   3  573.38   59.86   1    0.67
   3   5   1  468.02   60.71   1    0.86
   3   6   2 1856.74  165.48   1    0.64
  -3   5  -1  434.38   58.06   1    0.81
  -5   4  -1  798.24   78.09   1    0.75
  -5   7  -2 1903.01  215.23   1    0.58
  -3   4  -1  335.55   38.76   1    0.98
  -2   4  -1  268.09   26.69   1    1.09
  -4   6   0  818.17  166.35   1    0.57
   2   5   1  316.57   44.52   1    0.84
   1   7   2 1924.94  227.42   1    0.53
   4   5   3  241.32   61.96   1    0.64
   1   2   1   50.89    6.05   1    1.66
  -7   6  -2 2478.79  240.57   1    0.56
  -3   7  -1   604.4  133.28   1     0.6
  -1   7   2 2141.93  333.84   1    0.48
  -2  -1  -4  7306.8   36.19   1    1.13
  -1  -1  -3 2332.38   18.25   1    1.15
   3  -2  -6 5376.66   58.96   1    1.07
   1  -1  -3 1228.53   14.27   1    2.05
   7  -2  -6 4782.33   70.58   1    0.99
   0  -1  -3  977.91      12   1    1.69
   3  -1  -2  810.31   10.75   1    1.68
   1  -1  -2  538.11    8.25   1    1.39
   2  -2  -5 2862.99   50.04   1    0.91
   6  -2  -7 2476.64   48.03   1    1.08
   4  -2  -4 3124.63   60.44   1    0.83
   5  -1  -1 2957.82   53.36   1    0.95
   1  -2  -9 3139.87   62.59   1    1.04
   2  -1  -3  532.04   10.55   1    2.16
   2  -2  -7  1853.6   42.77   1    1.08
   2  -2  -6 1381.96   39.63   1    1.03
   7  -2  -3 3493.06   85.72   1    0.66
   2  -2  -8 1834.28   46.11   1     1.1
   4  -1  -3  329.79    9.69   1     1.9
   0  -2  -8 1902.77   56.92   1    0.97
   0  -2  -6 1794.68   56.13   1    0.85
   6  -2  -3 2034.94   69.91   1    0.66
   6  -2  -5 1560.59   44.27   1    0.97
   2  -3 -10 4878.06  154.57   1    0.69
  -2  -2  -7 3072.23   93.97   1    0.71
   7  -2  -5 1565.19   50.78   1    0.93
  -2  -2  -8 2857.97   82.81   1    0.78
   4  -1  -2  180.71    6.71   1    1.57
   4  -2  -7  922.41    34.6   1    1.12
   2  -1  -2  243.91    7.09   1    1.68
   6  -2  -4  979.18   45.29   1    0.84
   6  -2  -6 1119.62   41.71   1    1.04
   8  -2  -6 1162.59   47.14   1    0.95
   4  -3 -10 3151.91  133.72   1    0.73
   4  -2  -3 1618.92    71.7   1    0.59
   6  -3  -8 3147.89  137.37   1    0.69
   4  -3  -8 3057.09  144.16   1    0.67
  -2  -3 -10    5746  275.94   1     0.5
   5  -2  -3  1838.5    68.4   1    0.63
   2  -2  -4   876.2   51.84   1    0.69
  -2  -2  -6  1580.2    89.9   1    0.57
   1  -3 -14 3064.85  187.83   1    0.68
   7  -2  -7  725.38    38.6   1    1.04
   1  -2  -5  740.45   46.72   1    0.81
   8  -3  -9 1604.63   123.9   1    0.71
  -1  -2  -8  491.63   40.48   1    0.92
  12  -3  -9 2160.73  165.25   1    0.63
   3  -2  -8  360.49   23.55   1    1.12
  10  -3  -5 2191.31  183.08   1    0.48
   7  -3 -10 1413.03  105.03   1    0.74
  -1  -2  -6  785.37   68.09   1    0.72
   4  -4 -11 3213.89  327.61   1    0.49
   1  -2  -8  434.52   39.36   1    1.05
   1  -3  -7 4747.99  225.49   1    0.47
   8  -2  -4  558.73    47.3   1    0.78
   8  -3  -8 1414.57  114.83   1    0.68
   8  -3  -5 2499.73  173.19   1    0.48
   6  -4 -15 3200.63  307.97   1    0.56
  10  -3  -6 1223.59  125.81   1    0.55
   6  -4 -12 1670.21  251.93   1    0.53
   9  -2  -2 1440.87  156.13   1    0.47
   3  -2  -4  163.13   23.03   1    0.79
   2  -3 -12  831.53  129.86   1    0.71
   3  -4 -17 2548.65  311.73   1    0.53
   5  -3  -9  505.99   97.37   1    0.71
   4  -4 -15 1789.92   239.9   1    0.55
  11  -3  -7  1326.4  184.82   1    0.58
   1  -1  -4    24.9    4.23   1     2.2
   6  -1  -8 5431.91   61.84   1    1.55
   2  -1  -8 3852.57   48.21   1    1.73
   2  -1 -10 4213.89    59.7   1    1.48
   1  -1  -7 2167.67   31.77   1    1.83
   3  -1  -6 1685.76   27.22   1       2
   4  -1  -8  2387.9   41.43   1     1.7
   8  -1  -9 3079.11   57.63   1    1.33
   4  -1 -10 3243.62   58.12   1    1.48
   3  -1 -10 2897.44   53.24   1    1.49
   3  -1  -5 1017.52   19.08   1    2.11
   4  -2 -11 3290.05   75.41   1    1.05
   5  -1  -8 1537.82   36.37   1    1.63
   4  -1 -11 2430.01   62.52   1    1.38
   5  -1 -12 2378.09   65.04   1    1.28
   7  -2  -9 2144.35   59.66   1    1.05
   6  -1  -7  912.45   26.45   1    1.62
   4  -1 -16 3387.21  107.46   1    1.02
   7  -1  -8  967.49   32.99   1    1.47
   3  -1  -7  673.19   21.48   1    1.87
   4  -1  -9  802.21   31.01   1    1.59
   9  -2 -13 2177.51  109.73   1    0.91
   6  -2 -19 5583.51   240.5   1    0.77
   6  -2 -12 1952.39   85.78   1    1.01
   3  -1  -8  499.13   23.87   1    1.73
   7  -2 -10 1507.55    60.6   1    1.04
   6  -2 -15  2772.3  124.83   1     0.9
   4  -2 -15 2493.89  124.76   1     0.9
   7  -1  -9  806.81   35.84   1    1.41
   1  -1  -6  372.55   13.88   1    1.99
   7  -1 -14 2101.14   84.21   1    1.11
   3  -1 -13 1215.08   54.79   1    1.22
   9  -1 -14 2040.96   94.69   1    1.05
   5  -1  -6  473.25   18.95   1    1.81
   7  -1 -17 3418.73  140.36   1    0.96
   2  -1  -6  339.69   16.35   1    2.04
  10  -2 -13 2542.49  124.09   1    0.89
   2  -1  -9  532.81   25.17   1     1.6
   3  -1  -9  553.64   27.74   1    1.61
   4  -2 -16 1682.77  119.19   1    0.88
  10  -2 -12 1679.76   99.73   1    0.91
   5  -2 -12 1336.37   71.48   1    1.02
   3  -2 -17 3379.25  166.91   1    0.83
   8  -1 -11  757.98   48.96   1    1.24
   8  -2 -18 3351.51  212.19   1     0.8
   5  -1 -15 1371.64    77.6   1    1.08
   8  -1 -15 1334.21   81.02   1    1.03
  10  -1 -12  1183.2   67.51   1    1.09
   6  -1 -11  759.35    46.9   1    1.33
   8  -1 -10  710.58   40.96   1    1.29
   9  -1 -11  699.42   50.16   1    1.18
   9  -2 -12 1563.36   98.44   1    0.94
   7  -1 -16 1696.59  101.05   1       1
   3  -1 -14 1186.46   66.77   1    1.15
   5  -1  -9  488.28   30.08   1    1.55
   4  -3 -16    2653  179.62   1     0.7
   9  -1 -10  571.46    40.5   1    1.23
   6  -2 -10  652.73   46.26   1    1.07
   7  -3 -17 2865.93   224.8   1    0.69
   4  -2 -14 1510.89   98.73   1    0.94
   2  -1  -5  188.26   10.34   1    2.17
   7  -1 -11  510.15   39.63   1    1.28
   7  -1 -12  707.74   58.84   1    1.22
   3  -1 -11  491.04   35.37   1    1.39
   5  -1 -16  851.26   92.38   1    1.02
  10  -1 -14  889.73   74.87   1    1.02
   3  -3 -17 3510.56  213.73   1    0.68
  11  -1 -16 1602.79  118.54   1    0.92
   4  -1 -12  466.52   46.28   1     1.3
  11  -3 -16 2472.94  243.03   1    0.68
   9  -1 -15   935.8   85.24   1    1.01
   3  -2 -11  649.55   50.31   1    1.05
   3  -2 -18 1549.77  146.05   1    0.79
   7  -1 -10  491.76   35.47   1    1.35
   8  -2  -9  393.53   44.01   1    1.02
  11  -1 -14  637.08   76.28   1    0.98
   7  -1 -18  956.36  106.53   1    0.91
   4  -1 -15  641.78   63.38   1    1.08
  14  -3 -14 1761.04  226.21   1    0.64
  11  -2 -15  942.41  132.48   1    0.82
   4  -1 -13  621.61   64.93   1    1.22
   9  -3 -14 1498.59  155.64   1    0.72
   2  -1 -11  294.71   28.04   1    1.38
  12  -2 -18 1657.05  202.87   1    0.75
   9  -3 -15 1125.04  154.57   1    0.71
   4  -2 -18 1638.19  177.63   1     0.8
  11  -1 -18 1067.84  131.99   1    0.85
   2  -2 -13   320.6   54.91   1    0.95
   5  -1 -14  637.31   70.01   1    1.14
   5  -3 -16 1513.11  175.53   1    0.71
   7  -2 -13  379.47   63.62   1    0.96
  10  -2 -18 1233.36  204.96   1    0.77
   7  -2 -19  697.12  120.36   1    0.77
   8  -3 -15  845.72  140.35   1    0.72
  10  -1 -13  327.25   56.49   1    1.06
   3  -2 -12  240.47   39.89   1    1.01
   7  -2 -18 1273.23  169.81   1     0.8
   6  -1 -16  429.59   67.31   1    1.02
   8  -2 -15  335.43   72.08   1    0.89
   9  -1 -13  350.17   51.16   1    1.11
   2  -1  -7   67.99    9.72   1    1.88
  13  -2 -17  590.69  158.85   1    0.74
   5  -1  -7   85.63   17.11   1    1.75
   7  -1 -20  816.94  149.03   1    0.83
   5  -1 -10  163.19   30.26   1    1.45
  14  -3 -20 1116.43  230.35   1     0.6
  14  -2 -16  373.06  156.29   1    0.73
   4  -2 -13  213.08   41.71   1    0.98
   6   1  -8 4543.79   52.69   1     2.1
   4   1 -10 2859.92   47.15   1    1.93
   3   1 -10 2255.18   41.39   1    1.97
   4   1  -8 2149.69   39.12   1    2.34
   5   1  -8 1520.47   31.96   1    2.23
   3   1  -6 1402.98   28.43   1    3.09
   5   1 -12 2103.42   47.27   1     1.6
   4   1 -11 1808.22   39.87   1    1.77
   9   2 -13 2119.93   62.65   1    1.32
  10   2 -13 2282.02   63.99   1    1.28
   6   2 -15 2353.95   66.81   1    1.29
   6   2 -19 5135.68  138.29   1    1.03
   6   2 -12 1591.21   44.67   1    1.55
   9   1 -14 2130.78   67.19   1    1.25
   4   2 -15 2006.65   60.46   1    1.32
   7   1 -14 1839.56   62.51   1    1.33
   9   2 -12  1495.8   47.87   1    1.39
   7   1 -17 2957.24    96.8   1    1.11
   4   1  -9   792.7   25.56   1    2.12
   7   1  -9  825.54   27.39   1    1.83
   8   2 -18 3184.69  112.28   1    1.06
   4   2 -14 1118.26   44.79   1     1.4
   5   2 -12  850.39   33.54   1    1.59
   6   1 -11  764.34   31.46   1    1.67
   8   1 -11  750.74   35.34   1    1.53
   5   1 -15 1077.48   50.65   1    1.29
   3   1  -9  494.49   20.24   1    2.18
   3   1  -8  536.38   20.28   1    2.43
   8   1 -10  585.29   27.31   1    1.63
  11   2 -15  1281.8   73.18   1    1.13
   5   1  -9  460.55   23.28   1    2.04
   7   1 -16 1565.47   72.16   1    1.18
  11   1 -16 1513.04   88.42   1    1.06
   8   2 -13  928.33   47.25   1    1.37
   3   1 -11  488.13   27.15   1    1.79
   8   1 -15 1345.96   66.86   1    1.22
   9   1 -15 1108.14   63.97   1    1.19
   7   1 -10  360.49   23.47   1    1.72
   7   1 -11  465.34   30.61   1    1.61
  10   1 -14  734.89   57.02   1    1.21
   7   1 -12  589.48   36.22   1    1.51
   4   1 -15  545.35   38.62   1     1.3
  12   2 -18    1900  137.69   1    0.97
   5   1 -16  777.75   54.06   1    1.21
   7   1 -18 1089.32   77.87   1    1.06
   7   2 -18  991.33   80.02   1    1.08
  10   2 -19 1827.21  129.26   1    0.98
  10   2 -16  934.05    74.2   1    1.12
   6   1 -20 1219.75  110.79   1    0.96
   5   1 -14  426.89   36.27   1    1.38
   6   2 -13   442.8   38.22   1    1.46
   4   1 -12  352.78    29.4   1    1.63
  11   1 -14  783.97   55.71   1    1.16
   7   3 -18  943.86   81.85   1    1.06
  11   3 -18  975.44   90.07   1    0.99
   9   2 -21 1520.39  144.17   1    0.92
  11   3 -20 1288.29  133.36   1    0.92
   5   1 -18  445.89   64.05   1    1.08
   5   1  -7  100.41   13.08   1    2.43
  10   2 -18 1140.21  105.87   1    1.02
  10   1 -22  1352.3  176.04   1    0.84
  10   1 -13  314.47   36.76   1    1.26
   6   3 -20  662.66   79.76   1    0.98
  11   1 -18  854.58   92.04   1    0.98
   5   1 -13  161.45   26.81   1    1.49
   7   2 -15  482.22   61.96   1    1.27
   4   1  -7  111.99   11.71   1     2.6
   6   1  -9  196.45   20.06   1    1.94
   8   1 -13  389.75   41.95   1    1.37
   4   2 -13  244.19   30.28   1     1.5
   6   2 -16  259.77   36.78   1    1.21
   2   1  -7   74.77    8.98   1     2.8
   9   1 -19  383.24   87.26   1    0.98
   7   1 -20  691.75    90.2   1    0.96
   5   1 -10   172.5   24.09   1    1.87
  11   1 -20 1019.62  130.59   1     0.9
   7   1 -25  892.72  150.83   1    0.77
   9   1 -17  653.39   96.86   1    1.08
   7   2 -11  215.52   26.43   1     1.6
   7   3 -20  996.96  123.91   1    0.97
   7   1 -13  196.33   32.74   1    1.41
   6   1 -16  341.01   45.93   1     1.2
   5   2 -17  442.07   57.68   1    1.16
   6   2 -20  463.72   86.49   1    0.99
   6   2 -23  644.43  118.57   1    0.86
  12   1 -15  477.65    65.1   1    1.07
  14   1 -20  869.81  131.48   1    0.84
  14   3 -20  758.76  129.69   1    0.86
   5   1 -17  405.34   72.08   1    1.14
  16   3 -20   837.9  122.88   1    0.82
  11   0 -24 1034.05  208.05   1    0.74
   6   1 -22  636.16  139.05   1    0.88
  10   1 -23  996.15  205.28   1    0.81
   4   2   0 5604.94   33.06   1    2.19
   5   3  -2 5346.37   44.11   1    1.91
   6   3   0 2926.81   32.44   1    1.46
   9   3  -2 4199.07   49.87   1    1.43
   7   3  -1 3626.36   41.01   1    1.54
   8   3  -1 3649.43   42.31   1    1.43
  10   3  -1 3649.44   48.55   1    1.22
   6   2  -1 1629.73   22.01   1    2.07
   7   4  -2 2999.92   46.03   1    1.36
  10   4   0 4759.39   75.36   1    0.99
   8   3  -3 1954.12   33.52   1    1.63
   6   2   0  687.37   14.07   1    1.78
   9   3  -3 1197.42   28.73   1    1.51
  10   4  -1 2548.58   55.98   1    1.08
   7   4  -3 1476.17    33.1   1    1.43
   5   3  -1  839.95   18.77   1    1.75
   8   5  -3 2322.24   57.13   1    1.14
   4   2  -1  642.88   14.51   1    2.58
   7   3  -2 1033.04   24.69   1    1.67
   5   2  -2  658.47   15.53   1    2.53
   6   3  -1  799.18   20.55   1    1.65
   4   3  -1  632.92   16.13   1    1.84
   4   3   0  604.46    15.5   1    1.61
   7   4  -1 1157.27   32.83   1    1.26
   6   4  -1 1015.23   28.35   1    1.31
   2   1   0  399.15    9.34   1    4.37
   5   2  -1  549.33      14   1    2.32
   8   4  -1 1149.32   36.97   1     1.2
  10   6   0 3865.11  123.87   1    0.77
   4   3  -2  477.67   14.88   1       2
   9   4  -2 1267.44   40.12   1    1.23
  12   4  -2 1748.97    57.6   1    1.03
  12   4  -4 1635.26   50.09   1    1.13
   3   1  -1  406.79   12.31   1    4.51
   5   4  -1  591.38   22.37   1    1.35
   3   2  -1   327.9   10.38   1    2.82
  11   5  -3 1834.31   74.56   1    1.02
   8   3   0  573.77   22.45   1    1.28
  13   5  -3 2213.76   91.43   1    0.93
  10   5  -2 1349.58   58.66   1    1.01
  10   5  -1 1421.33   64.82   1    0.95
   6   3  -2  399.91   17.38   1    1.79
  10   6  -1 1871.37   96.49   1    0.83
   8   4  -3  539.18    25.4   1    1.36
  11   4  -1 1060.29   54.17   1    1.04
  13   5  -5 1490.96   69.71   1    0.99
   9   4  -3  507.28   31.18   1    1.29
  11   4  -2  789.72    44.2   1    1.09
   8   5  -1  754.34   46.42   1    1.01
   6   4  -3  403.25    21.7   1    1.49
  11   5  -1 1335.96   76.75   1    0.91
  12   4   0  707.07   57.57   1    0.89
  13   5  -1 1499.27   92.85   1    0.84
  11   5  -4  939.28   52.43   1    1.05
   6   4   0  347.42   24.24   1    1.18
   9   6  -2 1054.37   71.98   1     0.9
   9   3  -1  236.62   19.33   1    1.32
  13   7  -3 2084.35  163.01   1    0.74
  10   6  -4 1257.15   75.67   1    0.95
   7   5  -1  475.52   38.32   1    1.04
   9   5  -2  695.48   46.25   1    1.05
  13   5  -4  798.43   71.66   1    0.96
  10   7  -5 1413.73  101.33   1    0.86
   8   4  -2  290.53    23.4   1    1.29
   7   5  -4  405.31   30.72   1    1.22
  10   6  -3 1040.61   78.93   1    0.92
   9   4  -1  462.75   33.16   1    1.14
  14   6  -3 1708.64  119.11   1     0.8
   9   5  -1   533.2    46.9   1    0.98
   8   6  -3   494.7   50.28   1    0.96
  12   5  -2   767.1   73.39   1    0.93
   9   6  -3  665.51   76.13   1    0.94
  17   6  -5 1533.73  142.17   1    0.77
  14   6  -1 1421.59  123.73   1    0.73
   7   5  -2  354.07   30.96   1    1.11
   9   6  -4  467.93   57.85   1    0.98
  10   5  -3  415.35   44.04   1    1.06
  15   5  -2  816.84    96.3   1    0.81
  16   6  -6 1186.04  132.03   1    0.81
  12   6  -4  919.15   89.34   1    0.89
  18   6  -4  1646.4   177.6   1    0.71
  11   7  -3 1422.21   128.9   1    0.78
  11   5  -2  500.58    52.4   1    0.97
  11   4  -4  212.06   30.99   1     1.2
  11   7  -4  1036.3   99.29   1    0.81
  13   4  -1   442.2   46.26   1    0.91
  11   4  -3  253.78   30.33   1    1.15
  12   4  -1  532.77   56.49   1    0.97
   8   5  -2  241.68   34.36   1    1.08
  17   7  -1 1183.57  178.56   1    0.61
   8   6  -2  469.71   66.88   1    0.92
  12   5  -1   676.1   82.18   1    0.87
  13   7  -5   773.2  120.53   1    0.79
  16   6  -3  269.31   83.15   1    0.75
   6   2  -2   21.11    4.54   1    2.26
   5   1   1 2686.22   21.57   1    1.62
   8   0   0 3001.08   35.81   1    1.07
  10   0   0 6572.69   78.99   1    0.86
  10   0  -1 3603.67   46.98   1    1.05
   8   1   1 2248.79   31.37   1     1.1
   6   1   2 2027.62    28.9   1    0.87
   6   0   0  890.53   13.65   1    1.43
   7   1   1 1396.87   21.92   1    1.24
  10   2   1 4011.77   62.83   1    0.99
   7   2   3 3798.29   64.77   1     0.7
   8   0  -1 1064.19   20.01   1    1.37
  10   1   1 3112.59   58.67   1     0.9
   9   1   1 1826.66    38.5   1    0.99
  10   0   1 4319.52   93.96   1    0.64
   9   2   2 2431.63   56.98   1    0.87
   2   0   0  309.92    6.37   1    4.28
   9   0  -1  942.73   22.27   1     1.2
   9   1   2 1949.27   55.61   1    0.72
   7   0  -1  460.95    11.6   1    1.62
   8   1   0  624.18   17.38   1    1.42
   8   0   1 1127.94   34.22   1    0.73
   4   0   0  194.38    5.21   1    2.15
   6   1   1  366.02   11.67   1    1.41
  11   2   1 1627.02   52.91   1    0.91
  13   3   3 5642.15   181.6   1    0.59
  13   1  -1 1946.28   63.32   1    0.93
  12   2   2  2540.6   97.77   1    0.71
  11   1   1 1257.93   54.19   1    0.82
  14   0  -1 2039.16   95.96   1    0.72
  13   1   1 1914.73   86.02   1    0.69
   9   2   1  566.26   27.71   1    1.09
  12   2   1 1443.12   65.18   1    0.84
  14   2   1 1784.19   96.06   1    0.72
  17   1  -1 3326.85  159.17   1    0.67
  14   3   1 1555.54   92.46   1    0.75
  13   1   0  882.85   60.35   1    0.81
  10   1   0  648.55   24.85   1     1.1
  18   0  -1 2656.94  178.06   1    0.54
  14   0   0 1469.86  103.13   1    0.61
  15   1  -1  1186.2   79.44   1    0.78
  14   0   1 1678.32  122.18   1     0.5
  13  -1  -1    1680  109.74   1    0.57
  15   2   3 1857.07  178.05   1    0.49
  14   2   0 1028.56   82.32   1    0.82
  17   3   3 4020.91   244.8   1    0.49
  13   0  -2  477.46   40.98   1    0.89
  17   1   1 2839.31  187.97   1    0.53
   8   1   2  330.52   30.73   1    0.78
  12   1   1  815.56   61.03   1    0.75
  13   2   1 1087.18   80.05   1    0.78
  18   2   1 1816.63  172.43   1    0.56
  18   0  -3 1496.81   112.9   1    0.65
  16   0  -2 1176.41  107.45   1    0.69
  11   2   2  795.07   66.63   1    0.76
  13   3   2 1002.78   80.93   1     0.7
  12   1   2  782.33   72.53   1     0.6
  17   3   1 2303.97  158.84   1    0.63
  14   1  -1   594.8    53.1   1    0.85
  21   0  -2 2298.02  210.74   1     0.5
  18   4   1 1860.85  167.18   1    0.59
  16   2   0  787.77   93.58   1    0.71
  15   2   1 1160.12  113.46   1    0.68
  18   2   0 1789.58  169.72   1    0.62
   8   2   2  189.81   21.75   1    0.93
  11   1   2  275.62   51.89   1    0.64
  13   2   2  663.34   85.98   1    0.66
  19   1  -1  774.47  144.63   1    0.59
  12   0  -1  298.42   33.39   1    0.85
  12   0   0  302.68   49.64   1    0.72
  22   2  -1  671.89  170.42   1    0.53
  12  -1  -1  540.92   74.96   1     0.6
   5   0   0    7.79    2.03   1    1.74
  15  -1  -1  146.52   45.39   1     0.5
  13   0   1  189.38   52.97   1    0.53
   3   0   0     9.5    1.36   1    2.88
   7   0  -6 5085.85   47.81   1    2.01
   7   0  -5 2223.63   31.92   1    2.09
   5   0  -3 1939.95   27.09   1    2.95
  11   0  -7 4239.76   63.41   1    1.34
   9   0  -4 2086.81   31.61   1    1.61
   6  -1  -5 1538.34   22.37   1    1.69
  15   0  -7 6437.79  111.68   1    0.97
   6   0  -3 1135.87   19.74   1    2.44
   9   0  -6 2011.06   36.65   1    1.63
  12   0  -6  2855.6   55.77   1    1.22
  10   0  -4 1666.79   31.48   1    1.42
   8   0  -3  964.03   19.55   1    1.75
   5   0  -4  1074.5      21   1    2.86
  14  -1 -10 6073.06  124.94   1    0.92
   9   0  -8  1238.7    29.9   1    1.55
   7   0  -3  648.88   15.45   1    2.05
  11   0  -9 2025.46   48.35   1     1.3
   4   0  -3  729.48   18.51   1    3.62
   6   0  -4   681.3   17.66   1    2.45
   8  -1  -6   834.3    24.2   1    1.41
  13   0  -8 2066.56   62.71   1    1.14
  10  -1  -8 1409.61   40.35   1     1.2
  13  -1 -11 3543.08  103.22   1    0.97
  16   1  -9 3565.75  113.36   1    0.99
  16   0  -6 3118.34   98.34   1    0.88
  12   0 -10 1749.41   53.04   1    1.19
  11  -1  -8 1552.65   51.06   1    1.12
   8  -1  -7  689.08   22.81   1    1.41
  10  -1  -7 1167.84   36.68   1    1.21
   9  -1  -7  940.32   29.15   1    1.31
  12  -1  -9 1798.71   63.78   1    1.05
  10   0  -8  767.54   29.95   1    1.44
  12   0  -8 1143.03   45.64   1    1.23
  10  -1  -9 1007.38   38.51   1    1.19
   3   0  -2  412.29    14.7   1    4.89
   9   0  -7  589.36   22.85   1    1.61
   5   0  -2  207.02    8.38   1    2.84
  14   0 -10 1686.32   70.25   1    1.05
  13   0  -9 1285.35    55.6   1    1.13
  16  -1  -9 2367.67  122.53   1    0.82
  13  -1 -10 1160.93   67.57   1    0.98
  13   0  -7  782.81   43.89   1    1.14
  15   0 -11  1718.9    92.5   1    0.97
  14  -2 -11  2780.9  132.45   1    0.78
  17   1 -11 1718.89   97.12   1    0.93
   9  -1  -6  344.13   21.94   1     1.3
  15   0 -13 1660.38   97.18   1    0.94
  14   0  -7  753.18   48.33   1    1.05
  14   0 -11 1183.83   71.31   1    1.03
  14  -1 -14 1987.65  113.89   1    0.87
  12   0  -9  558.05   34.89   1    1.21
  13  -1 -13  1232.5   79.54   1    0.93
  18   0 -10 1917.07  135.96   1    0.82
  14  -1 -12 1128.78  100.54   1    0.91
  20  -1  -9  1654.3  147.53   1    0.65
  16  -1 -12 1645.78  113.49   1    0.82
  11   0  -5  285.83   21.43   1    1.32
  17  -1 -11 1490.03  126.17   1    0.78
  13   0 -11  504.67   52.74   1    1.09
  10   0  -7  191.29   19.65   1    1.47
  18   1 -10  890.18   93.28   1    0.88
  16   0 -11  908.54   93.51   1    0.92
   2   0  -1  126.23    9.68   1    7.32
  11  -1 -10  319.17    38.6   1     1.1
  19   0 -11 1112.56  137.89   1    0.78
  14   0  -6  372.98   40.37   1    1.03
  15  -1 -15 1247.64  117.41   1    0.82
  12   0  -5  220.86   28.09   1     1.2
  19   0  -7  919.06  115.22   1    0.74
  24   0 -15 2464.85  300.86   1    0.62
  17   0  -7  258.04    65.3   1    0.84
  16  -1 -14 1251.01   153.8   1     0.8
  17  -1 -16 1378.14  160.94   1    0.75
  15  -2 -12 1114.12  121.58   1    0.74
  18   0 -13  540.92   91.56   1    0.82
  17  -2 -11  545.19   95.79   1    0.68
  15   0 -12  541.63   80.03   1    0.96
  13  -1 -12   559.5   64.44   1    0.96
  18  -1 -10  532.53  103.61   1    0.74
  17   0 -11  960.91   111.9   1    0.87
  13   0 -10  371.01   42.44   1    1.11
  11   0 -10  232.93   28.37   1    1.26
  10  -1  -6   93.83   18.12   1    1.19
  15   0  -8  503.23   59.97   1    0.98
  11   0  -4   135.7   18.36   1    1.28
  24  -2 -15 2084.52  397.95   1    0.53
  24   1 -12 1082.79  202.74   1    0.65
   9  -1  -8  165.58   19.27   1     1.3
  17   1 -10  205.07   46.15   1    0.93
  16   0 -14  243.98   57.46   1    0.87
  15  -2 -11  160.19    44.2   1    0.74
  14  -1 -11   130.6   41.73   1    0.92
  10   0  -6   27.44    9.63   1    1.48
  23   1 -12  659.39  117.19   1    0.68
   7   2  -6 4118.43    56.6   1    2.07
   6   1  -4 2700.79   40.53   1    2.68
  10   3  -5 2351.24   47.25   1    1.47
   8   2  -8 2588.35   51.88   1    1.77
  14   3 -10 5908.46   131.9   1    1.12
  11   2  -9 2593.07   62.03   1    1.41
   7   2  -5 1537.97   34.16   1    2.12
  13   3 -11 4166.27  107.22   1    1.16
  13   2  -8 2593.96   67.68   1    1.25
  11   2  -7 2092.33   50.17   1    1.47
   6   2  -5 1285.55   32.39   1    2.32
   9   2  -8 1563.72   44.14   1    1.66
   8   2  -6 1353.78    37.1   1     1.9
   6   2  -6  1083.1   30.05   1    2.23
   8   3  -8 1331.96   41.32   1    1.62
  14   5 -10 3778.31   124.5   1    0.99
   6   2  -4  753.42   22.92   1    2.37
  11   3  -7 1327.32   47.35   1    1.38
  11   4  -9 2234.13   72.35   1    1.23
   9   2  -7 1065.01   36.44   1    1.71
  13   4  -8  1734.6   74.74   1    1.13
  10   2  -8  959.64   37.89   1    1.55
   9   3  -8 1006.64    39.1   1    1.53
   5   1  -3  454.71   16.25   1     3.2
   3   1  -2  531.29   18.93   1    4.73
  13   3 -13 2505.02   95.67   1     1.1
   7   2  -7  780.21   26.93   1    1.99
  11   3 -10 1009.72   52.18   1    1.31
  10   3  -7 1021.67   43.29   1    1.47
  13   5 -11 2352.08  100.07   1    1.02
   8   3  -7  712.73   31.11   1    1.66
  13   4 -12 1783.75   93.84   1    1.08
   5   1  -4  391.31   16.32   1    3.09
  12   3  -7  900.12   46.04   1    1.29
  14   3 -14 2265.36   110.6   1    1.03
   4   1  -3  321.53   16.27   1     3.8
  10   3 -11  880.44   49.05   1    1.33
  17   3 -11 1905.21   117.9   1    0.95
  10   2  -7  540.93   31.14   1    1.58
  14   4 -11 1831.53  102.92   1    1.05
  10   3  -6   496.1   30.71   1    1.48
  11   3 -11  666.81   47.53   1    1.27
  10   3 -10  733.65   47.43   1    1.38
   8   2  -9  489.28    27.6   1    1.69
   9   3  -7  437.25   30.17   1    1.56
  11   3 -12  803.47   59.19   1    1.23
  16   3  -9 1206.54   81.78   1    1.01
   9   2  -6  260.94    19.7   1    1.75
  13   4  -7   737.9   51.79   1    1.13
  13   3 -14 1022.35   76.26   1    1.07
  14   4 -15 1485.52  110.54   1    0.97
  14   2  -9  479.05   46.19   1    1.16
  13   2  -9  559.22   42.42   1    1.24
  12   4 -13  744.69   74.98   1    1.09
  12   3  -9  597.69   52.98   1    1.27
  15   4 -13 1190.75  113.08   1    0.98
  12   4  -9  338.48   41.14   1    1.18
  14   5 -12 1188.33  112.23   1    0.97
  14   3 -12   840.6   81.51   1    1.08
  13   4 -13 1433.81  103.63   1    1.05
  13   4  -9  475.24   59.92   1    1.12
   9   2  -5  141.45   15.98   1    1.76
   8   2  -7  173.92   23.68   1    1.85
  14   5 -14 1085.89  105.23   1    0.94
  13   3  -8  552.43   58.46   1    1.21
  16   3 -12   784.4   87.97   1    0.99
  15   4 -12  807.78  100.46   1       1
  13   3 -15  864.05   78.66   1    1.04
  10   3  -8  209.79    31.5   1    1.45
  16   5  -9  1481.9  116.14   1    0.91
  16   4 -14  627.61  135.23   1    0.93
  12   4 -12  394.74   52.38   1    1.12
  17   4  -9  800.58  101.54   1    0.93
  14   3  -8  372.98   54.74   1    1.14
  10   3  -9  320.56   38.15   1    1.42
  13   3  -7  208.32   36.29   1    1.21
   9   3  -9  146.62    24.5   1    1.49
  10   2  -9   114.8   24.89   1     1.5
  10   2  -6  168.83    25.4   1     1.6
  16   4 -11  503.58   86.83   1    0.96
  17   3 -14  427.95   71.55   1    0.91
  12   4 -10  383.78   51.42   1    1.16
   8   2  -5  101.77   12.85   1    1.94
  17   3 -13  528.97   87.76   1    0.93
  16   4  -9  424.29   73.09   1    0.97
  18   4 -10  961.15  128.04   1    0.88
  14   4 -10  494.98   78.29   1    1.06
  19   4 -11  601.02  119.33   1    0.84
  12   2  -7  167.76   27.35   1    1.36
  18   4 -13  677.95  145.77   1    0.87
  19   6 -13  247.85   88.39   1    0.76
  13   3 -12  260.61   49.71   1    1.13
  20   4 -14   792.5  166.57   1    0.79
   9   2  -9  104.29   19.77   1     1.6
   3   1  -3   22.81    4.76   1    4.46
   8   1  -3 2666.35   35.01   1       2
  10   2  -1 3491.17   47.01   1    1.32
   5   1  -1 1702.95   24.76   1    2.87
   5   1  -2  1748.2   27.04   1    3.15
  11   1  -3 2537.91   44.56   1    1.36
  10   2  -4 1970.49   37.42   1    1.58
  13   3  -3 4966.21   86.96   1    1.11
   9   2  -2 1528.12    30.4   1     1.6
  12   2  -4 2795.58   51.66   1    1.31
   6   1  -2 1121.69   20.68   1    2.61
  15   2  -7 3708.83   83.63   1    1.09
  12   2  -2 2301.13   49.48   1    1.18
  11   1  -4 1663.71   37.42   1    1.43
   8   2  -3 1066.42   23.76   1    1.89
  11   2  -1 1458.42   35.14   1    1.19
  13   1  -3 1658.61   43.34   1     1.1
   7   1  -1  615.16   14.82   1    1.97
  13   1  -5 1453.08   43.83   1    1.21
   9   1  -2  513.86   16.48   1    1.63
  17   3  -3 4584.67   145.5   1    0.84
  13   1  -4 1212.84   42.07   1    1.17
  11   2  -3  937.09   31.55   1    1.38
  17   2  -5 3062.48  109.91   1    0.91
   9   1  -3   609.4   20.29   1    1.74
   6   1  -1  319.73   10.91   1    2.35
  11   2  -2  615.19   29.36   1     1.3
  13   2  -6  991.78   41.85   1    1.25
  16   3  -5 1729.28   82.88   1    0.97
   8   1  -2  274.01   12.37   1    1.88
  17   4  -5 2220.08  110.33   1    0.87
  17   3  -7 1840.85   95.01   1    0.94
  13   3  -2 1270.13   57.05   1    1.05
  16   1  -5 1716.84   81.74   1    0.94
   9   2  -3  399.43    19.5   1    1.69
  20   3  -5  3026.6  158.92   1    0.75
  10   1  -3  437.83   20.55   1    1.54
  16   3  -6 1821.17   83.69   1    0.99
  15   2  -3 1075.94   54.04   1    0.97
  16   2  -6  1409.9   70.79   1       1
  14   3  -1 1336.65    65.7   1    0.91
   9   2  -1  427.78   18.95   1    1.46
  12   3  -4  608.44   35.57   1    1.24
  20   1  -5 2076.48  125.79   1    0.71
  11   2  -4  402.73   25.64   1    1.43
  18   4  -4 2338.55  155.81   1     0.8
  16   2  -7   836.5   58.69   1    1.02
  17   3  -6 1062.05   77.45   1    0.93
  14   2  -5  612.21   49.89   1    1.14
  16   4  -6 1089.82   76.59   1    0.95
  15   3  -5  705.69   58.13   1    1.03
  20   3  -7 1987.53  149.81   1    0.79
  18   2  -5 1312.04  105.26   1    0.85
  14   1  -5  484.51   39.76   1    1.11
  17   2  -7  861.36   75.56   1    0.95
   7   1  -2   132.8    9.25   1    2.19
  21   4  -6  2134.4     225   1    0.73
  13   2  -2  430.71   34.76   1    1.08
  17   3  -4 1000.27   94.37   1    0.88
  12   2  -3  280.75   27.81   1    1.26
  20   3  -3 1777.22  154.46   1     0.7
  20   3  -9 1495.85  130.54   1    0.82
  12   1  -4  207.54   21.09   1    1.29
  21   2  -6  2108.6  158.24   1    0.72
  18   2  -4  623.59    64.9   1    0.82
  18   2  -9  565.87   72.37   1    0.91
  10   2  -2  174.74   20.65   1    1.44
  20   4  -4  1564.3  170.82   1    0.72
  19   4  -5  968.93  134.04   1    0.78
  19   2  -5  795.57  110.69   1    0.79
  20   5  -7  941.74   135.1   1    0.75
  17   2  -6  333.37    63.7   1    0.93
   7   1  -3   84.62     7.8   1    2.32
  16   4  -5  361.39   56.82   1    0.92
  18   3  -5  737.01   90.24   1    0.85
  15   1  -4  315.61    46.5   1    0.98
   9   1  -4  126.49   14.45   1     1.8
  21   4  -2  945.97   160.1   1    0.63
  16   2  -5  392.93   59.44   1    0.98
  20   2  -8  818.46  137.79   1     0.8
  17   1  -5  690.53   82.06   1    0.87
  19   3  -2  1045.4  132.41   1     0.7
  18   2  -8     360   74.93   1     0.9
  14   2  -4  317.31   38.69   1     1.1
  21   4  -5  878.55   151.8   1    0.71
  20   3  -4  733.09  116.62   1    0.73
  10   1  -2   32.51    6.61   1    1.43
  15   2  -4  115.15   25.89   1    1.02
  16   1  -4  208.01   38.39   1     0.9
  15   3  -4  579.36   81.85   1       1
   4   1  -1    7.25    2.35   1    3.47
  -6  -1   8 1345.12   26.93   2    1.99
  -7   0   6 1490.41   28.99   2    2.42
  -7  -1   7  908.44   24.03   2    2.14
  -5   0   6  757.61   19.46   2    2.67
  -8  -1   9 1142.59   31.21   2    1.74
  -7   0   5  690.99   18.18   2    2.66
  -7   0  10  888.55   26.87   2    1.63
  -4   0   6  449.28   13.86   2    2.73
  -6  -1   5  499.21   16.06   2    2.72
  -7   0   7  612.27   20.34   2    2.19
  -5  -1   8  491.75   15.86   2       2
  -9   0  13 1313.16    44.9   2    1.26
  -8  -1   8  547.96   21.15   2    1.89
 -13  -1  11  1264.5   51.38   2    1.32
 -10   0  12  882.66   37.96   2    1.34
  -8   0   9  465.76   23.02   2    1.76
  -9   0  12  836.88   36.22   2    1.36
 -11  -1   8  587.77   25.04   2    1.67
 -11   0   9  676.31    29.1   2    1.58
 -12  -1   9  594.97   31.15   2    1.52
  -9   0   8  513.75   23.05   2    1.85
 -10  -1   8  493.46   22.84   2    1.75
  -7  -1   9  315.92   18.84   2    1.78
  -5   0   4  308.09   13.25   2    3.52
 -10  -2  13  834.85   43.44   2     1.2
 -11  -1  12  629.48   39.32   2    1.31
  -6   0   9  360.14   16.57   2    1.82
  -8  -1   6  321.11    14.8   2    2.22
 -13   0  12  933.59   49.93   2    1.25
  -6  -1   7  289.58   14.99   2    2.21
  -7   0   9   351.2   18.97   2     1.8
  -7  -1   8     393   19.35   2    1.95
 -14  -2  11  917.22   52.01   2    1.23
  -9  -2  13  802.41   41.43   2     1.2
  -8  -1   7  269.92   16.57   2    2.05
 -10  -1  12  508.96   34.06   2    1.34
 -10   0  13  623.08   37.61   2    1.25
 -14  -2  13  974.21   61.09   2    1.12
  -9  -1  14  749.95   39.01   2    1.18
  -9   0   9  296.72   22.84   2    1.71
  -6   0   8  172.83   12.61   2    2.03
 -10  -1  11  440.77    30.5   2    1.43
  -5  -1   6  203.75   11.22   2    2.55
  -6   0   6  176.89   11.36   2    2.56
  -6  -1   6  184.69   11.81   2    2.46
 -14   0  13     825   52.51   2    1.15
  -4   0   3  215.08   11.58   2    4.54
  -4   0   4  199.32   11.33   2    3.84
 -10  -1   9  357.25   22.51   2    1.64
 -14   0  10  494.45    33.1   2    1.33
  -8  -1  10  235.13    19.4   2    1.61
 -14  -2  15  905.38   81.98   2    1.02
  -9  -1  11  284.37   26.38   2    1.46
 -11  -2  15  488.07    51.1   2    1.06
 -13  -1  14   641.9   56.97   2    1.12
 -15   0  13  526.27   47.32   2    1.12
 -14  -1  14  803.18   63.66   2     1.1
 -13  -2  12  602.73   49.35   2     1.2
 -13  -1  10  377.42   31.44   2    1.38
  -9   0   7  189.36   14.77   2    1.99
 -10  -1  10  224.14   26.33   2    1.53
 -14  -1  12   433.6   44.95   2    1.21
 -10   0   8  209.98   16.47   2    1.76
  -7  -1  11   203.8   19.42   2    1.49
  -5   0   7  127.95    9.84   2    2.33
 -15   0  11  471.71   37.45   2    1.23
  -7  -1  10  160.68   17.99   2    1.62
 -14   0  11  432.42   37.06   2    1.27
 -13   0  13  729.87   59.32   2    1.18
 -16  -1  12  656.02   53.05   2    1.15
 -13  -1  13  458.16   45.71   2    1.19
 -10   0  10  143.24   19.15   2    1.54
 -11  -1  16  687.52   78.99   2    1.03
 -12  -2  13  303.19      41   2    1.17
 -13   0  14  507.39    53.1   2    1.12
  -5   0   5    95.5    8.61   2    3.07
 -15  -1  15   407.2   65.31   2    1.03
 -14   0  15   611.4   67.83   2    1.04
 -12  -2  18  698.01   82.61   2     0.9
  -8  -1  11  213.96   19.69   2    1.48
 -12   0   9  178.25   20.09   2    1.52
 -11  -1  10  246.41   33.94   2    1.48
 -16  -2  14  433.21    68.9   2    1.02
  -7   0   8   82.63   14.58   2    1.98
 -10  -1  13  235.26   40.21   2    1.25
 -14  -1  16  411.54   60.85   2       1
 -11  -1  11  295.05    37.1   2     1.4
  -6  -1   9   77.86   11.21   2    1.79
 -10  -2  16  371.07   51.92   2       1
 -12   0  13  209.81   35.04   2    1.21
 -17  -1  16  620.89   97.53   2    0.95
 -13  -1  15  268.33   57.85   2    1.07
 -12   0  12  361.76   39.91   2    1.28
  -9  -1   8  104.12   15.86   2    1.83
  -2   0   3   49.88    5.16   2    5.45
 -15  -2  13  345.53   52.38   2     1.1
 -10   0  14  314.24    39.8   2    1.17
 -13  -2  13  412.08   47.13   2    1.15
 -15  -2  11  161.39   32.58   2    1.19
 -11   0  11  151.98   26.08   2     1.4
 -15   0  12  268.91   38.79   2    1.18
  -5  -1   7   35.48     8.1   2    2.25
 -13  -1  12  194.77   31.76   2    1.25
 -14  -2  16  220.74   57.72   2    0.98
 -16   0  14  255.87   60.97   2    1.05
 -17  -3  16  437.77   69.21   2    0.89
 -17  -2  13  351.56   54.95   2    1.04
 -10  -1  14  272.97   42.22   2    1.17
 -13   0  11  186.63   28.38   2    1.31
  -6   0   7   48.82   10.26   2    2.28
  -8   0  12  100.72   19.62   2    1.36
 -12   0  16  271.16   43.44   2    1.02
  -1   0   9 1867.64   30.97   2    1.42
  -2  -1  10  1772.1   36.37   2     1.4
  -2  -1   8 1380.23   26.77   2    1.78
  -3   0   6 1121.09    22.3   2     2.7
  -1   0   6  805.88   16.44   2    2.25
  -1  -1   7  810.95   17.91   2    1.83
  -4   0   8  1005.2   24.19   2    2.03
  -3   0   9 1043.38   25.91   2     1.7
  -1   0  11 1700.12   41.23   2    1.13
  -3  -1  10 1203.21   31.33   2    1.49
  -4   0  11 1274.65   36.11   2    1.41
  -4  -1  10 1116.04    31.1   2    1.57
  -2   0   8  712.79   19.75   2    1.82
  -1  -1  10 1041.61    30.9   2    1.26
  -3   0  11 1109.79    34.5   2    1.34
  -6   0  11 1141.97    32.7   2    1.48
  -4  -1   8  741.45   21.03   2    1.98
  -4   0  10  743.94   25.69   2    1.57
  -4  -1  11  900.13   32.34   2    1.41
  -6   0  12  960.28   37.66   2    1.35
  -2   0   6  275.91    11.4   2    2.55
  -4   0  12  828.34   37.75   2    1.27
  -6  -2  15 1301.01   69.84   2    1.02
  -1  -1   8  328.97   15.77   2     1.6
  -5   0  12  569.99   31.64   2    1.32
  -1   0   8  279.61   14.56   2    1.62
  -3   0  13  821.81   52.48   2     1.1
  -4   0  15 1458.82   74.62   2    0.98
  -4  -1  16 1805.93  100.28   2    0.92
  -7  -1  14  895.02   47.64   2    1.16
  -3   0   8  245.92   15.09   2    1.95
  -3  -1   7  229.15   11.97   2    2.18
  -4  -1   9  301.98   16.01   2    1.75
  -7  -1  17 1566.11   98.05   2    0.94
  -6  -2  19 2810.53  158.45   2    0.79
  -2  -1   9  247.68   18.25   2    1.56
  -3  -1  17 1721.27  111.71   2    0.81
  -4  -2  15 1167.14   67.66   2    0.95
  -3   1  17  1470.5  117.53   2    0.76
  -3   1  13  652.76    49.3   2    1.02
  -8  -2  18 1708.62   110.6   2    0.88
  -1   0  10  310.35   23.14   2    1.26
  -3  -2  17 1763.73  128.82   2     0.8
  -3  -1  13  610.72   40.09   2    1.11
  -1  -1   9  214.82   16.55   2    1.41
  -3  -1   9  250.59   15.34   2    1.68
  -7   1  17 1507.68   97.02   2    0.89
  -4  -2  14  751.62   63.54   2    1.02
  -2   0  15  1173.9   78.77   2    0.87
  -3  -1   8  209.21   13.78   2     1.9
  -4   1  16 1543.43   89.98   2    0.86
  -6   0  19 1947.61  145.52   2     0.8
  -1   0   7  140.82   10.42   2    1.89
  -3   1  14  652.05   56.22   2    0.94
  -1  -1  13   366.7   42.16   2    0.95
  -3  -1  11   280.1   27.66   2    1.34
  -5   0  14  438.25    41.2   2    1.11
  -3  -1  14  562.15   48.94   2    1.02
  -5   0  13  507.28   41.19   2     1.2
  -7   1  16  703.68      75   2    0.95
  -2   0   4  130.41    8.79   2    4.04
  -3   0  17 1064.15  125.92   2     0.8
  -2   1  11  185.89   24.71   2    1.12
  -7  -1  16  652.09   64.79   2       1
  -5   1  15  623.28   60.42   2    0.96
  -3   1  11  225.86   23.35   2    1.22
  -2   0   9   109.8   15.14   2    1.58
  -1   0   4   51.29    5.26   2    3.62
  -8   0  18  702.23    88.9   2    0.89
  -4   0   9  155.73   15.78   2    1.77
  -7  -1  18  596.26   88.75   2    0.88
  -4  -1  12  157.45   22.76   2    1.28
  -4   0  19 1131.21  145.78   2    0.74
  -3   0   7   64.82    8.78   2    2.27
  -5   1  14  215.93   33.87   2    1.04
  -5   0  17  559.36   87.84   2    0.88
  -4  -2  16  574.41   78.37   2    0.89
  -9  -2  21  879.48   145.1   2    0.75
  -7  -2  18  485.47   78.92   2    0.86
  -4  -2  18  543.42  104.46   2    0.78
  -4   1  12  158.67   27.68   2    1.17
  -2  -2  17  295.07   67.39   2    0.75
  -4   1  20  817.68  183.62   2    0.67
  -2  -1   7   43.79    7.18   2    2.04
  -1   0   3   41.31    4.93   2    5.08
  -7   1  18   578.5   82.86   2    0.83
  -6  -1  20  450.61  117.33   2    0.76
 -11  -2  22  190.22   73.46   2    0.74
  -2  -2  19 1185.57  163.11   2    0.67
  -4   0  16  236.42   55.64   2    0.91
  -4  -2  19 1031.19  160.83   2    0.74
  -3   0  15  228.93   41.48   2    0.93
  -2  -1   6   18.37    5.48   2    2.36
   1   0   6 1572.82   20.65   2    1.32
   1  -1   3  619.43    8.79   2    1.51
   0   1   3  392.91    5.78   2    1.61
   0   1   7 1246.95   21.74   2    1.24
   1   0   9 2616.93   49.03   2    0.99
   1  -1   7  1192.3    22.9   2    1.21
   2  -1   8 3142.78   61.73   2    0.84
   1   1   7 1423.23    32.4   2    0.91
   0   1  11    2824   67.04   2    0.88
   1  -1   5  487.86   12.21   2    1.44
   0   1   5  318.52    9.09   2    1.49
   2  -1  10 2770.24   80.89   2    0.76
   2   1   8 3258.59    82.2   2    0.61
   0   0  12 2251.58   65.33   2    0.91
   2  -2   5 1499.45   47.28   2     0.7
   2   0   8 1347.05   48.54   2    0.79
   2   1  10 3174.09  120.93   2    0.61
   0   2   6  714.07   27.54   2    0.81
   1   0  11 1971.26   68.04   2    0.85
   1   0   3  103.44    4.07   2    1.59
   2   0   6  654.52   30.43   2     0.8
   1  -1  10 1161.33   46.67   2    0.94
   1   2   9 1536.56   74.09   2    0.61
   0   2   8  877.04   40.62   2     0.8
   2  -2   7  952.05   46.65   2    0.77
   1   1  10  1369.9   62.92   2    0.78
   1   0   4  101.23    5.18   2    1.58
   2  -2   6  686.57   41.55   2    0.75
   3   0  10  1892.6  120.57   2    0.54
   1  -1   6  226.85   12.47   2    1.33
   3  -1  10 2232.39  124.73   2    0.58
   3   0   9  1755.2  103.67   2    0.53
   1  -1   8  365.01   22.44   2    1.11
   1   0  13 1702.48   94.66   2    0.74
   2  -2   8 1127.78   60.66   2    0.76
   1   0   7  205.13   15.28   2    1.19
   0   1   9   507.8   25.99   2    1.03
   1  -1  14  1906.6  123.49   2    0.71
   1   1  14 1481.86  142.62   2    0.63
   1   1   6  240.57   18.13   2    0.93
   1  -2  11  802.61   63.25   2    0.82
   0   3   7 1034.01   83.84   2    0.49
   0   2  12 1255.68   92.41   2    0.68
   3  -2   9  839.33   91.82   2    0.57
   3  -2  10  964.11  106.23   2    0.57
   0   1  13 1091.24   92.65   2    0.76
   1   0  10  321.73   33.48   2    0.91
   1   0   8  260.08   21.45   2    1.08
   0   0  16 1691.55  127.03   2    0.68
   3   0  11 1337.62  123.68   2    0.54
   0   2  16 2050.21  182.14   2    0.56
   3  -2  17  2645.3  339.08   2    0.47
   1  -1   9  343.15   30.07   2    1.02
   1   1   9  234.28    43.5   2    0.83
   1  -2  12 1645.91  111.23   2    0.77
   1   1  15  241.53   78.21   2     0.6
   3  -1  13  816.35  131.62   2    0.54
   2   0  15 1015.87   169.2   2    0.57
   1   2  12  293.71   54.95   2    0.57
   1   0   2    1.66    0.65   2    1.72
  -6   1  -4 1984.05   33.99   2    0.98
  -6  -1  -4 1824.09    29.7   2    1.31
  -5   0  -3  917.77   15.82   2    1.79
  -7   0  -6 4739.18   90.16   2    0.72
  -4   0  -3  465.26   10.61   2    1.62
  -5   0  -4  770.35   20.39   2    1.15
  -7   0  -5 1485.87   40.36   2       1
  -4  -2  -4 1815.84   45.19   2    0.79
  -3   1  -2  377.19   10.23   2    1.21
  -7  -2  -6 3722.46  110.23   2    0.71
  -8  -1  -5 1099.88   38.16   2    1.08
  -3   0  -2  225.81    6.21   2    2.59
  -6  -1  -5 1242.09   41.16   2    0.95
  -2  -1  -2  148.54    4.93   2    1.56
 -10   1  -5 1356.37   47.21   2    0.95
  -8   1  -5 1374.24   52.05   2    0.89
 -11   0  -7 2465.83   96.84   2    0.76
  -9   0  -6  988.93   51.49   2    0.87
  -5  -1  -3  259.58   11.32   2    1.72
  -4   0  -4   512.5    21.1   2    0.85
  -4   1  -3  212.95   12.86   2    0.98
  -7   1  -4  324.99   21.96   2    1.09
  -4  -1  -3  224.03   11.36   2    1.57
  -7  -1  -4  275.41   15.52   2    1.36
  -1   0  -1   33.95    1.41   2    3.41
  -7  -1  -7 2125.49  127.51   2    0.55
 -14  -1 -10 2829.94  244.45   2    0.52
  -5   2  -3   736.3   48.49   2    0.67
 -11  -2  -7 1243.31   97.04   2    0.75
  -5  -1  -4  267.84   19.43   2    1.18
  -8  -1  -6  607.09   51.55   2    0.85
 -13  -2  -8 1576.59  146.93   2    0.67
  -8  -2  -6 1026.01   86.68   2    0.78
  -9  -1  -5  172.69   21.04   2     1.1
  -8   1  -6  582.58   66.27   2    0.67
 -11  -1  -8 1427.38  145.29   2    0.65
  -8   0  -5  114.64   22.18   2    1.06
  -7   2  -5  780.51    86.4   2    0.54
  -7   0  -7 1096.72  120.45   2     0.5
 -13  -2  -7  772.06   88.85   2    0.77
 -11   1  -8 1098.31  156.77   2    0.55
  -8   1  -4  115.12   16.15   2    1.14
  -9  -1  -7  507.54   71.54   2    0.71
  -6   2  -4  106.75    29.9   2    0.61
  -9  -2  -7  644.24  112.65   2    0.67
 -10  -1  -7  665.28   78.12   2    0.75
 -13   0  -8  949.61  118.31   2    0.67
 -13   2  -8  916.19  145.21   2    0.52
 -16  -1  -9   963.7  167.56   2    0.62
 -13   2  -7   867.7   131.7   2    0.61
  -8  -1  -8  287.16   61.38   2    0.48
  -9   1  -6  116.14   27.35   2    0.73
  -8  -1  -3 1161.25    26.5   2    1.65
 -10   0  -3 1336.98   33.95   2    1.51
  -7   0  -2  831.07   20.39   2     2.2
 -10   0  -1 1047.27   28.75   2    1.91
 -10  -1  -1 1015.34    29.6   2    1.88
 -13  -1  -3 1862.01   56.78   2    1.28
 -11  -1  -3 1459.56   43.59   2    1.43
 -10  -1  -2  975.11   32.82   2     1.7
  -8   0  -3  462.72    16.5   2    1.69
  -9  -1  -2  737.26   24.58   2    1.82
 -12   0  -2 1055.03   35.33   2    1.49
  -8  -1  -1  706.97   22.44   2    2.24
 -10   0  -4  849.26   30.29   2    1.29
  -6   0  -1  466.57   15.99   2    2.97
 -11  -1  -4  817.66    36.3   2    1.26
  -9   0  -2   584.5   22.97   2    1.86
  -9   0  -3     549   21.97   2     1.6
  -9  -1  -1  624.07    22.8   2    2.04
 -13  -1  -1  876.01   39.15   2     1.5
 -11   0  -2  538.45   27.74   2     1.6
 -14   0  -1  800.05   40.45   2     1.4
 -14   0  -3 1134.84   48.45   2    1.21
 -17  -1  -3 2033.23   90.99   2    1.05
 -11  -1  -1  582.67   28.13   2    1.73
 -16   0  -6  1858.8  100.37   2    0.84
 -12   0  -4  683.58   36.54   2     1.2
 -13   0  -4  659.59   42.18   2    1.15
  -8   0  -1   363.9   17.27   2    2.33
 -12  -1  -2  493.94   37.14   2    1.49
 -18   0  -1 1207.14   73.73   2     1.1
 -13  -1  -4  749.73    44.7   2    1.16
 -15  -2  -3  918.86   62.01   2     1.1
  -9   0  -1  293.27   16.98   2     2.1
  -7   0  -1  213.65   13.14   2    2.62
  -8   0  -2  261.57   15.21   2    2.02
 -17  -1  -4 1482.86  102.13   2    0.98
 -18   0  -4 1364.33  104.94   2    0.93
  -5   0  -2  103.41    6.74   2    2.58
 -12  -1  -1  341.33   26.33   2    1.61
  -3   0  -1  133.25    7.91   2    4.78
  -9  -1  -3  296.37   20.88   2    1.58
  -6   0  -2   126.1    9.37   2     2.4
 -18   0  -3  668.11   75.11   2       1
 -17   1  -4 1120.23   92.83   2    0.91
  -5   0  -1  184.86   10.99   2    3.44
 -14  -1  -1   288.7   29.57   2     1.4
  -8  -1  -2  188.01    14.5   2    1.96
 -16   1  -5   877.2   73.42   2    0.87
 -16   0  -2  726.35   58.17   2    1.17
 -10  -1  -3  295.14   21.91   2     1.5
 -20  -1  -5 1848.09  154.56   2    0.82
 -20   1  -5 1637.99  159.42   2    0.77
 -14  -1  -6     909   85.27   2     0.9
 -15  -2  -1  393.68   37.56   2    1.24
 -15   0  -3  468.28   53.41   2    1.15
  -7  -1  -2   92.45   10.42   2     2.1
 -21   0  -5 1132.93  152.46   2    0.78
 -20   0  -4 1261.93  120.54   2    0.86
 -21   0  -6 1854.17  190.99   2    0.73
 -16  -1  -5  981.39   88.24   2    0.94
 -20  -1  -3 1469.17   116.2   2    0.92
 -16  -2  -6  719.43   93.27   2    0.83
 -17  -1  -7 1290.67  162.72   2    0.76
 -19  -2  -3  773.67  101.17   2    0.93
  -4   0  -1  107.29     8.4   2    4.03
 -21  -2  -6 1434.38   210.8   2    0.73
 -11  -1  -2  213.82   28.52   2    1.58
 -17   1  -6  548.45   90.28   2    0.77
 -17  -2  -2  568.53   63.65   2    1.07
 -16  -2  -2  375.69   51.13   2    1.12
 -17  -1  -2  215.51   54.38   2    1.12
 -16  -1  -6   678.8   85.92   2    0.86
 -20   1  -7  915.21  160.06   2    0.67
 -20  -3  -5  1267.2  176.91   2    0.76
 -20   1  -4  468.92  108.89   2    0.82
 -21  -2  -2   855.5   116.9   2     0.9
 -14   0  -4  150.99   41.12   2     1.1
 -12   0  -3  121.18   21.11   2    1.35
 -19   0  -5  731.96  111.58   2    0.84
 -24  -3  -4  568.26  153.11   2    0.72
 -13   0  -1  182.49   26.84   2     1.5
 -20  -3  -7  524.25  149.85   2    0.67
 -21   1  -4  598.59  102.79   2     0.8
 -20  -1  -4  760.04  134.34   2    0.87
 -27  -2  -2  626.88  170.53   2    0.72
 -20  -3  -8  424.94  138.33   2    0.62
 -13  -1   3 1510.87   39.56   2     1.7
 -10  -1   1  959.83   25.94   2    2.12
 -10   0   1  900.48   24.07   2    2.17
 -11  -1   3 1051.94   29.64   2    1.99
 -10   0   3   874.9   24.37   2    2.22
  -8  -1   1  599.92   18.71   2     2.6
 -10  -1   2  770.34   24.28   2    2.17
  -7   0   2  575.05   18.27   2    3.17
 -12   0   2  907.12   28.64   2    1.84
 -11  -1   4  669.81   24.41   2    1.97
  -9  -1   1  616.07   20.86   2    2.34
  -9  -1   2  600.63   20.78   2    2.39
 -17  -1   3  1367.4   57.51   2    1.31
 -14   0   3  848.17   32.61   2    1.59
 -14   0   1  688.53   29.23   2    1.53
 -17  -1   1 1229.44   52.89   2    1.26
 -13  -1   1   712.6   30.11   2    1.65
 -11  -1   1  513.74   21.99   2    1.93
  -9   0   2  468.11    18.5   2    2.47
 -17  -2   5 1178.39   60.99   2    1.26
 -17  -1   4  929.06   51.75   2    1.31
 -11   0   2  415.23   19.95   2    2.01
 -18   0   1  996.12   49.46   2    1.18
 -18  -2   1 1151.37   60.92   2    1.15
  -9   0   3  350.48      15   2    2.45
 -12   0   4  429.69   20.94   2    1.84
  -8   0   1  266.76   13.38   2    2.73
 -12  -1   2  385.57   21.76   2    1.82
  -6   0   1  340.57   14.29   2    3.68
 -18   0   4  923.47   50.84   2    1.24
 -16  -1   5  699.78   44.54   2    1.39
 -15  -1   1  563.65   40.53   2    1.43
 -18  -2   4 1114.43   60.14   2     1.2
 -12  -1   1  380.38      23   2    1.78
 -13  -1   4  437.53   24.93   2     1.7
 -18   0   3  687.65   53.24   2    1.23
 -13   0   4  453.73   24.17   2    1.71
 -20  -1   5 1262.65   77.38   2    1.12
  -9   0   1   269.7   14.68   2    2.42
 -21   0   6 1138.79   75.03   2    1.06
 -20  -1   3 1123.29   70.77   2    1.11
 -21  -2   5  1047.8   99.28   2    1.04
  -9  -1   3  216.21   14.31   2    2.38
 -16   0   2  471.63   35.06   2    1.37
 -21  -2   2  755.91   71.98   2    1.01
  -7   0   1   180.4   11.33   2    3.14
 -20  -1   7  860.96   72.36   2    1.11
 -20   0   4     710   58.59   2    1.11
 -10  -1   3  213.47   16.59   2    2.17
  -8   0   2  197.94    11.9   2    2.78
 -17  -2   2  372.53   37.24   2    1.23
 -19   0   5   546.9   50.67   2    1.17
 -21  -2   6  851.49   77.77   2    1.04
 -19  -2   3  660.13   62.57   2    1.13
 -17  -1   6  433.18   37.29   2     1.3
 -18  -2   5  488.72   43.33   2     1.2
 -13   0   2  214.63   20.38   2     1.7
  -5   0   1   123.3    9.05   2    4.44
 -20  -2   4  580.09   63.91   2    1.09
 -21   0   5  928.12   81.14   2    1.06
 -14  -1   1  234.77   28.09   2    1.53
 -19  -2   5  534.94   60.99   2    1.14
 -11  -1   2  165.24   16.11   2    1.98
 -16  -2   1  420.95   38.67   2    1.27
  -8  -1   2  160.95   12.31   2    2.65
 -13   0   1  129.09   20.25   2    1.66
 -12  -1   0    36.8    9.72   2    1.71
  -6   0   2   87.61    8.25   2    3.68
 -21   0   2  816.29   68.46   2    1.03
 -20  -1   4  522.82   90.12   2    1.12
 -17   0   2  332.37   36.78   2    1.29
 -15   0   3   251.4   25.86   2    1.48
 -17  -1   5   318.3   38.42   2    1.31
 -19  -2   1  311.06   46.86   2    1.09
  -4   0   1   83.17    8.01   2    5.56
 -19  -1   1  495.52   60.62   2    1.13
 -19   0   3  223.01   47.67   2    1.16
 -12   0   3  129.86   16.65   2    1.86
 -12   0   1  126.66   16.59   2     1.8
 -20  -1   1  753.15   80.45   2    1.07
 -17   0   3  256.09   39.45   2     1.3
 -12  -1   4  106.62   17.53   2    1.82
 -16  -1   4  155.69   31.08   2    1.39
 -21  -1   4  661.39   79.11   2    1.06
  -3   0   1   80.35    8.79   2    7.35
 -16   0   3  128.01   23.97   2    1.39
 -17  -2   3  291.03   42.52   2    1.25
 -22  -1   4  340.39   68.54   2    1.02
 -22   0   1  531.51   86.88   2    0.96
 -11   0   1   55.88    9.54   2    1.96
 -24  -1   4  678.17  125.23   2    0.93
 -17   0   5  914.97   48.16   2     1.3
 -22  -2   1  222.37   62.33   2    0.95
 -27   0   2  428.87  129.35   2    0.79
  -2   1   4  738.53   12.57   2    2.74
  -4   1   8  791.16   18.78   2    1.78
  -3   1   6  572.45   13.82   2     2.2
  -4   2  11 1493.71   41.84   2    1.09
  -6   3   8 1120.37   34.48   2    1.11
  -6   2   7  629.89   19.85   2    1.58
  -5   1   8  537.21    16.8   2    1.82
  -8   2   8  613.26   22.91   2    1.47
  -4   2   7  394.02   15.22   2    1.48
  -7   2   9  672.16   25.37   2    1.38
  -6   2  12  907.49    40.1   2     1.1
  -3   1   7  246.39   10.16   2    1.92
  -2   1   3  132.82    5.43   2    3.18
  -4   1   9  317.84   15.93   2    1.58
  -3   1   8  210.84   11.14   2    1.68
  -2   1   6  166.11    8.42   2    2.02
  -7   2  10   595.5   27.34   2    1.29
  -6   2  15 1134.59   67.53   2     0.9
  -9   2  13  952.18   49.92   2    1.08
  -5   2   6  220.18   11.52   2    1.66
  -4   2  15 1166.94   68.21   2    0.82
  -5   2   8  214.54   14.67   2    1.43
  -9   2  12  512.64   36.09   2    1.14
  -6   1  11  308.56   20.01   2    1.37
  -5   2  12  420.77   30.91   2    1.06
  -2   1   5   86.31    6.05   2    2.34
  -4   2  14  732.24   56.46   2    0.88
  -5   1   9  195.58   14.33   2    1.63
  -7   3  16 1406.95  107.91   2    0.77
  -7   3  17 1620.65  121.32   2    0.73
  -9   3  14  721.69   66.88   2    0.89
  -8   2  18 1158.99  106.87   2    0.79
  -9   4  13  769.28   77.22   2    0.79
  -6   2  10  258.66   23.27   2    1.27
  -6   2   8  191.39    17.7   2    1.47
  -7   3  14   712.1   62.85   2    0.85
  -9   4  12  731.76   71.39   2    0.82
 -10   3  11  364.54   39.23   2    1.03
 -10   3  14  539.45   65.26   2     0.9
  -6   3  16  654.09    86.6   2    0.74
  -7   1  12  213.04   23.48   2    1.27
  -9   3  11  388.54   36.25   2    1.03
  -8   2  13  376.05   36.58   2    1.07
 -12   2  18  663.93   79.63   2    0.83
 -11   3  16  954.92   81.64   2    0.82
  -5   2  15  413.77   55.05   2    0.86
  -4   2  16  462.51    64.5   2    0.77
 -11   3  11  259.73   38.42   2    1.03
  -7   2  13   218.4   34.23   2    1.05
  -9   3  13  369.94   49.45   2    0.93
 -10   2  19  517.89   85.44   2    0.78
  -4   2  12     179   24.43   2    1.01
  -4   1   7   45.27    6.28   2    2.01
  -9   3  15   757.6   90.26   2    0.85
  -3   1   4   39.19    4.77   2    2.93
 -10   2  16  526.54   70.94   2    0.91
 -13   3  14  389.04   62.53   2     0.9
  -4   2   0 2788.94   25.54   2    1.37
  -2   2   3 1975.41   20.82   2    1.37
  -5   3   2  3364.1   46.41   2    1.04
  -1   1   1  336.28    5.04   2    2.47
  -3   3   5 2825.02   50.86   2    0.92
  -3   2   2  802.92   13.59   2    1.57
  -3   3   2 2823.81   57.96   2    0.72
  -3   2   3   594.3   13.08   2    1.65
  -2   3   4 1882.29   50.94   2    0.71
  -7   3   1 1211.74   31.64   2     1.1
  -5   3   5  910.77   28.59   2    1.14
  -6   3   0 1343.21   38.11   2    0.92
  -2   1   0  176.11    4.83   2    2.75
  -3   4   6 3184.31  115.52   2    0.59
  -7   4   6 2244.83   75.03   2    0.87
  -4   2  -1  370.32   12.98   2    1.06
  -2   2   1  275.15   10.54   2    0.99
  -5   3   3  651.33   24.85   2     1.1
  -4   2   1  255.26     9.4   2    1.62
  -7   4   2 1496.52    65.8   2    0.76
  -3   2   1  169.75    8.17   2    1.39
  -6   5   8 3208.35  157.95   2     0.6
  -7   4   5 1172.94   56.02   2    0.86
  -5   3   1  382.62   23.68   2    0.93
  -2   3   6  563.94   36.21   2    0.79
  -6   3   1  378.78   21.15   2    1.04
 -10   4   1 1019.56   61.28   2    0.82
  -4   3   1  458.16   33.75   2    0.78
  -5   3  -1  437.22   35.32   2    0.65
  -5   4   3  931.18   73.82   2    0.67
  -6   3  -1  467.91   34.49   2    0.78
  -2   1   1   85.96    4.86   2    3.53
  -6   3   2  185.69   19.06   2    1.12
 -10   5   5 1151.11  105.38   2    0.71
  -6   5   4 1481.58  125.46   2    0.53
  -4   3   2  263.96   23.42   2     0.9
  -8   5   9 1093.14  107.85   2    0.68
  -4   4   4  763.22   72.02   2    0.62
  -1   2   4   93.08    9.29   2    1.07
  -7   4   1  466.48    59.2   2     0.7
  -5   4   6  730.38   68.94   2    0.76
  -4   5  10 1141.25   140.5   2    0.51
  -3   3   3  172.86   25.74   2    0.83
  -8   4   3  231.55   33.28   2    0.85
  -8   4   1  482.92   60.79   2    0.76
  -6   4   4  377.66   50.81   2    0.79
  -8   5   5  571.99   88.45   2    0.65
 -10   5   1  675.25  116.11   2     0.6
  -9   4   2  386.92   46.84   2    0.85
 -10   5   2   537.4  111.67   2    0.63
  -5   5   8  609.27  108.59   2    0.55
  -2   3   5  111.89   18.59   2    0.77
  -4   4   7  269.05   47.83   2     0.7
  -6   4   5  114.16   27.06   2    0.81
  -3   5  10 1393.51  161.61   2    0.47
 -10   2   0 1164.43   27.65   2    1.44
 -10   2  -1   916.5    26.5   2    1.33
 -10   1  -2  624.06   19.71   2    1.52
 -10   1  -1   574.9   19.52   2    1.69
 -10   2   1  659.11   23.78   2    1.53
  -8   1  -1  404.19   13.55   2    1.96
  -9   1  -2  468.85   15.97   2    1.61
 -12   2  -2   720.2   32.34   2    1.13
  -8   2   0  346.05   14.35   2    1.55
  -7   1  -1  261.87   11.16   2    2.11
  -9   1  -1   369.8   15.31   2    1.82
 -12   2   0  682.93   31.59   2    1.31
 -12   2   2  428.77   23.48   2    1.43
 -13   1  -1  554.57   25.86   2    1.38
 -17   1  -1 1042.24   46.05   2     1.1
 -11   2  -1  404.05   27.09   2    1.28
 -17   3  -3 1624.64  101.03   2    0.77
  -6   1   0  213.37      10   2    2.63
 -12   2  -1  356.98   26.23   2    1.23
 -11   1  -1  336.97   21.19   2    1.58
 -15   2  -3  633.59   55.17   2    0.95
 -14   2  -1   547.2   41.99   2    1.13
  -7   1   1  167.63    9.65   2    2.57
 -12   2   1  280.73   24.44   2    1.38
 -18   2  -1  906.43   80.26   2    0.96
 -15   1  -1  465.77   31.13   2    1.23
 -14   2   1  351.72   28.09   2    1.25
 -12   1  -1  263.88   20.79   2    1.48
  -6   1  -1   90.93    6.75   2    2.26
  -4   1   0   78.52    4.94   2     3.1
 -13   2  -1  263.98   29.41   2    1.18
  -8   1  -2   95.87     9.8   2     1.7
 -18   2   1   672.4   57.17   2    1.03
 -18   2   0  586.09   67.01   2       1
  -9   2   1  110.01   13.33   2     1.6
  -9   2  -1  138.86   12.46   2    1.37
 -10   1   0  152.25   14.56   2    1.83
 -13   3   1  269.88   35.64   2    1.07
 -17   2  -2  315.18   42.05   2    0.94
  -8   1   0  108.09    9.41   2    2.18
 -13   2   1  219.01   25.51   2    1.31
 -15   2   1  266.33   31.71   2    1.19
 -14   3   1   336.4   35.38   2    1.04
 -20   3  -3 1067.26  139.46   2    0.72
 -17   3  -1  829.89   83.25   2    0.86
 -14   3  -1  514.99   53.88   2    0.94
 -17   3   1  560.89   62.95   2    0.94
 -13   3  -1  281.93   38.08   2    0.96
 -18   2  -4  872.66   77.06   2    0.81
 -20   3   1  700.52  120.64   2    0.85
 -15   2  -1  316.28    43.4   2    1.08
 -19   1  -1  384.19   44.08   2       1
 -11   2  -2  159.51   23.53   2    1.17
  -6   1   1   51.97    5.63   2    2.85
 -13   2  -2   155.5   28.38   2    1.09
 -18   4  -1  778.92   119.9   2    0.72
 -20   3  -1  573.56  102.42   2    0.79
 -21   2  -5  680.02  117.95   2     0.7
 -18   4   1  430.14   90.39   2    0.78
 -16   2   1  239.48   35.92   2    1.13
 -19   3   2  174.95   49.43   2     0.9
 -14   1  -1   228.3   33.11   2     1.3
 -14   1  10 1907.32   60.32   2    1.27
  -6   1   4  582.56   18.39   2    2.66
 -10   1   5  814.01   28.27   2    1.91
  -8   1   3  502.23   19.18   2    2.36
  -8   1   5  414.85   19.09   2    2.18
 -11   1   4  424.86   22.72   2    1.83
 -15   2   7  999.57   58.75   2    1.22
 -11   2   7  525.92   27.49   2    1.43
 -16   1   9  994.83   64.52   2    1.22
  -8   1   6  262.38   15.28   2    2.04
 -10   1   7  353.72   22.36   2    1.74
 -14   1   6  547.17   33.96   2    1.45
 -11   1   8  430.65   26.07   2    1.57
 -12   1   9  536.17   31.37   2    1.43
 -13   2   7  385.86   35.82   2    1.33
 -17   1   7  647.37   47.67   2    1.22
 -16   1   6  401.42   41.12   2    1.31
 -13   1   5  371.83   25.48   2    1.57
 -17   1  11  587.86   59.93   2     1.1
 -20   1   9  853.24   81.86   2    1.03
  -7   1   4  114.36   10.15   2    2.48
 -16   1   7  326.66   35.96   2    1.29
  -9   1   5  113.37   13.93   2    2.04
  -9   1   3  114.74   12.57   2    2.17
 -13   2   6  261.78   31.23   2    1.36
 -16   2   7   206.4   35.86   2    1.17
 -16   2   6   380.9   38.38   2    1.19
 -11   1   7   78.41   14.75   2    1.66
 -17   3  11  578.53   75.88   2    0.93
 -16   1  12  474.75   52.43   2     1.1
  -9   1   6  111.19    14.4   2    1.94
 -12   2   6  140.11   21.09   2    1.42
 -11   1   5  127.85   21.66   2     1.8
 -14   2   9  162.22   36.73   2     1.2
 -24   1  12  408.02  104.65   2    0.85
 -18   2   8  205.35   40.61   2    1.06
 -12   2   5   31.39   10.86   2    1.44
 -17   2   7   205.3   51.85   2    1.12
 -10   1   6   28.74   11.11   2    1.83
 -18   3  10  257.22   58.88   2    0.93
  -8   1   4   36.19    8.29   2    2.29
  -7   2   2  645.39   18.74   2    1.81
  -9   3   2  998.45   29.41   2     1.2
  -5   2   3  344.57   12.89   2    1.88
  -8   3   5   810.2   30.63   2    1.25
  -7   2   3  515.39   18.34   2    1.84
  -7   2   5  387.88    17.6   2    1.75
  -7   3   5  471.64   23.52   2    1.24
  -6   2   5  332.81    16.2   2    1.78
 -11   3   3  777.08   38.32   2     1.2
  -8   2   6  264.05   15.06   2    1.64
  -6   2   4   201.2    11.7   2    1.85
 -10   3   5  616.11   33.94   2    1.24
  -8   2   3  227.57   14.47   2    1.77
 -11   3   4  427.97   34.46   2    1.21
 -11   3   7  363.62      32   2    1.18
 -14   3   6  487.71   37.55   2    1.11
  -8   3   7  285.08   27.49   2     1.2
  -3   1   2   96.23    6.36   2    3.69
 -11   4   7  709.15   63.61   2    0.94
 -15   4   7   943.8   80.69   2     0.9
 -11   4   9  804.99   73.32   2    0.91
  -4   1   3   75.37    6.23   2    3.28
 -10   3   3   301.8    27.5   2    1.22
  -8   2   4   114.3   11.48   2    1.76
 -17   4   5  857.47   89.28   2    0.86
 -10   3   7  214.39   28.66   2    1.19
  -8   2   2   57.82   10.43   2    1.74
  -9   3   5  188.39   23.56   2    1.25
 -14   5  10  840.49  132.95   2    0.74
 -13   4   8   407.1   56.81   2    0.92
  -9   4   8  470.01      52   2    0.91
 -14   5  12  234.89   65.39   2    0.72
  -5   2   4   10.58    3.46   2    1.74
  -4   1   2   25.73    4.24   2    3.51
 -13   4   7  177.11   53.98   2    0.93
   3   3  -5 4355.96   45.26   3    2.06
   3   2  -6 4110.34    47.4   3    2.59
   7   4  -6 5264.71   67.07   3    1.46
   6   5  -8 6188.78   90.67   3    1.23
   4   2  -4 2368.92   34.86   3    2.78
   5   3  -5 2460.58   38.42   3    1.96
   6   3  -8 3281.33   52.88   3    1.75
   4   3  -8 2668.06   46.21   3    1.83
   2   2  -5 1835.58   30.62   3    2.83
   4   3 -10 2850.64   51.16   3    1.65
   3   2  -3 1252.26   22.28   3       3
   7   4  -9  2825.5    65.9   3     1.4
   4   4 -11 2918.53   64.23   3    1.37
   7   4 -10 2569.17   65.26   3    1.37
   3   4 -10 2411.72   55.89   3    1.41
   2   4  -8 1437.79   38.11   3    1.49
   6   4 -15 3626.28   93.26   3    1.15
   4   5 -10    2699   71.11   3    1.21
   7   3 -10 1902.83    48.4   3    1.56
   2   3  -6 1048.93   25.54   3       2
   2   2  -6 1137.01   25.92   3    2.62
   3   5 -10 2953.36   73.56   3     1.2
   4   2  -7 1077.98   26.69   3    2.34
   3   4  -9 1739.08   45.84   3    1.46
   8   3  -8 1582.95   41.51   3    1.61
   8   3  -9 1611.93   43.99   3    1.56
   7   3  -7 1297.64   37.23   3    1.74
   9   4 -13 2930.36   87.65   3    1.19
   4   5 -11 2431.39   76.17   3    1.18
   6   4  -7 1206.77   40.13   3    1.49
   9   4 -12 1983.94   69.28   3    1.23
   2   2  -4   604.1    17.5   3    3.01
   4   4  -7  935.92   35.36   3    1.54
  10   4 -12 2312.19   78.26   3     1.2
   7   4  -7 1041.33   40.82   3    1.45
  10   4 -13 2219.07   81.39   3    1.16
   1   1  -3  745.49   22.93   3    5.24
   5   4 -12 1277.29   56.18   3    1.31
   6   3  -7  763.15   30.05   3    1.81
   3   3  -6  606.38   23.56   3    2.01
   3   4  -8  527.04   29.06   3     1.5
   5   3  -7  627.62   27.63   3    1.87
   3   3  -8  563.72   26.08   3    1.88
   8   5  -8 1218.34   63.57   3    1.19
   5   3  -9  802.42   34.21   3    1.71
   8   4  -9  982.81   49.01   3    1.37
   4   4  -8  598.85   33.66   3    1.51
   2   1  -3  505.17   18.22   3    5.01
   4   5  -9  910.32    52.5   3    1.23
   5   5 -12 1504.93   74.24   3    1.15
   6   4  -6  549.92   27.47   3     1.5
   5   4  -8  587.17   34.71   3    1.49
   6   6 -15 2918.82  143.03   3    0.95
   6   4 -11  854.94   51.18   3    1.35
   4   4 -12  960.22   48.49   3    1.31
   7   5 -17 2534.18  132.91   3    0.98
   8   4  -8  836.98   42.99   3    1.39
  10   5  -9 1271.61   73.76   3    1.13
   6   6 -11 1687.81   97.57   3    1.02
   7   5  -8  881.71   53.61   3    1.21
   9   5 -14 1824.25  110.06   3    1.05
   7   6 -10 1525.77   91.04   3    1.02
   3   2  -4  257.68   13.16   3    2.93
   7   5 -14 1478.04   89.22   3    1.08
  10   6 -12 1616.68  128.81   3    0.97
   9   6 -13 1918.54  136.18   3    0.97
   7   3  -9  393.71    29.7   3    1.62
   8   4 -13  869.52      68   3    1.21
   1   2  -4  162.63     9.6   3    2.97
   7   5  -9  795.16   57.12   3     1.2
   9   5 -11  947.37   84.51   3    1.12
   7   5 -12  774.03   76.09   3    1.14
   1   1  -2  246.86   13.13   3    6.01
  10   5 -11 1082.72   89.99   3     1.1
   6   6 -12   892.7   84.32   3    1.01
  11   6  -9 1034.87   97.25   3    0.96
  11   5 -12 1221.05  102.66   3    1.05
   6   4  -8  384.14   34.57   3    1.47
   6   4 -10  363.35   38.03   3    1.39
   2   1  -2  200.65   11.58   3    5.55
   7   4 -11  511.51   52.75   3    1.33
   5   3 -10   339.1   29.25   3    1.63
   7   4  -8  386.71   34.26   3    1.44
  10   5 -12  725.45   70.44   3    1.08
   4   3 -11  244.72   27.17   3    1.56
   9   5 -10  864.82   72.01   3    1.14
   7   5 -16 1035.16   96.91   3    1.01
  14   5 -14 1340.38  124.18   3    0.94
   3   3  -9   187.4   21.17   3    1.75
   4   4  -9  302.01    33.4   3    1.46
   4   3  -5  117.62   15.74   3    2.02
   7   5 -18 1161.48  115.53   3    0.95
   7   7 -17 1527.74  213.21   3    0.82
  10   5 -10  709.05   77.53   3    1.11
  14   5 -16 1122.92  106.26   3     0.9
   4   6 -12   816.9   103.7   3       1
   8   5 -11     806   80.84   3    1.15
  10   5 -14  616.84   77.18   3    1.03
  14   6 -13 1181.05  150.45   3    0.88
   5   5 -13  736.81   87.75   3    1.12
   5   3  -8  190.46   21.61   3     1.8
   7   6 -11  567.93   71.52   3    1.01
   3   2  -5  106.74   11.51   3    2.78
   4   4 -10  226.43   34.89   3    1.42
  13   7 -11 1329.52  169.97   3    0.82
  12   5 -15  446.95   94.55   3    0.96
   4   3  -6   88.23    13.8   3    1.98
  12   6 -12  493.17   104.2   3    0.93
  13   5 -13  651.07  110.66   3    0.99
   5   5 -10  223.64   46.98   3    1.21
   9   5 -15  722.12  109.49   3    1.03
   9   6 -12  702.94   91.97   3    0.98
  13   5 -14  933.34  112.58   3    0.96
   6   8 -19 1866.81  287.66   3    0.72
   6   6 -14  213.65   53.19   3    0.96
   5   5 -15  581.09    91.6   3    1.05
   7   6 -16  279.54   82.15   3    0.91
  10   6 -13  582.46  104.83   3    0.95
   8   5 -10   489.8   63.94   3    1.17
   7   7 -16 1002.79  162.84   3    0.83
   6   4  -9   118.3   28.37   3    1.44
  10   7 -12  395.69   83.52   3    0.86
  13   6 -14  437.84   89.34   3    0.89
  13   6 -12  892.05  112.32   3    0.91
   8   4 -12  110.35   26.74   3    1.26
   9   7 -14  902.58  168.98   3    0.85
   6   5  -9  179.92   41.97   3    1.22
  10   7 -11  547.58  106.75   3    0.86
   1   3  -2 4028.68   39.68   3    1.82
   3   3  -2  4384.7   45.48   3     1.9
   3   3  -1 3226.83   34.59   3    1.72
   1   3  -5 3995.21    46.6   3    2.01
   1   3  -3 2932.47   38.12   3    1.95
   0   4  -4 2794.43    49.7   3    1.38
   2   3  -4 2610.77   38.69   3    2.06
   2   5  -4 5035.39   86.61   3    1.14
   3   2  -2 1731.55   27.26   3    2.93
   2   5  -8 4792.19   86.44   3    1.21
   0   3  -3 1486.06   27.25   3    1.84
   2   4  -3  2157.7   43.05   3    1.43
   3   6  -6  7108.3  137.99   3       1
   6   5  -4 4083.77   82.86   3    1.17
   2   3  -2 1159.34    24.3   3    1.89
   5   4  -3 2107.27   44.93   3    1.44
   2   4  -2 1709.56   41.99   3    1.31
   3   4  -2 1624.43   37.07   3    1.36
   7   6  -6 5945.47  135.42   3       1
   4   4  -4 1736.32   41.84   3    1.52
   1   4  -2 1391.84   36.32   3    1.27
   5   5  -1 2787.75   75.13   3    0.97
   4   4  -3 1350.42   36.98   3    1.46
   3   5  -6 2049.37   63.19   3    1.23
   1   2  -2  569.21   15.54   3    2.98
   2   2  -1  477.09   13.41   3    2.72
   1   6  -9  3622.9  125.23   3    0.99
   5   5  -2 1787.61   63.38   3    1.06
   1   4  -6  952.65   32.52   3     1.5
   4   3  -2  585.53   19.28   3    1.88
   6   5  -5 1698.06   63.35   3     1.2
   1   5  -7 1830.99    66.3   3    1.19
   2   3  -3  581.34   20.15   3    2.01
   2   4  -6  731.79   30.68   3    1.53
   0   1  -1  504.72   15.66   3     5.5
   0   5  -5 1351.88   63.23   3     1.1
   3   6  -9 2594.29  102.58   3    1.02
   0   6  -6 3062.98  116.87   3    0.92
   3   4  -3  647.82   30.51   3    1.45
   2   4  -5  733.74   33.95   3    1.53
   1   2  -3  382.05   13.48   3    3.06
   7   6  -2 2705.35  111.13   3    0.86
   7   6  -7 1646.44   92.97   3    1.02
   6   5  -2 1080.03      58   3    1.05
   6   4  -4  592.33   29.84   3    1.46
   0   2  -2  267.04   11.21   3    2.75
   4   5  -3   923.7   57.53   3    1.12
   4   4  -1  566.66   29.42   3    1.24
   5   6  -6  1767.8  103.37   3    1.01
   1   1  -1  451.75   17.57   3    6.04
   2   4  -4  557.97   28.52   3    1.49
   3   3  -3  405.81   19.75   3    2.02
   2   7  -4 3211.87  179.01   3    0.75
   0   6  -4 2012.38  112.75   3    0.85
   3   6  -2  1607.7   94.83   3    0.82
   7   6  -5 1399.95   94.31   3    0.98
   6   7  -8 2460.85  162.32   3    0.88
   4   6  -8  1232.2   92.91   3    1.03
   5   6  -3 1806.21  105.18   3    0.91
   1   5  -3  749.85   55.76   3    1.04
   1   3  -4  319.48   18.56   3    2.01
   4   7  -8 2360.64  158.28   3    0.87
   6   7  -4 2850.28  163.42   3     0.8
   1   6  -6 1354.17  103.92   3    0.95
   3   5  -7  744.16   49.36   3    1.24
   5   7  -2  2904.6  201.51   3    0.71
   1   5  -6  741.82   57.56   3    1.18
   4   6  -6 1052.27   82.64   3    1.01
   2   6  -8 1529.49   99.01   3    1.01
   3   7  -5 1989.46  162.87   3     0.8
   7   5  -4  706.27   52.28   3    1.15
   1   7  -7    1889  151.43   3    0.81
   4   6  -3 1628.29  107.72   3     0.9
   5   5  -4  555.17    44.3   3    1.18
   5   4  -2   199.9   25.35   3    1.35
   4   6  -7  986.86   92.12   3    1.02
   7   6  -3  939.25  104.71   3    0.91
  -1   6  -6 1513.26  116.34   3    0.88
   8   7  -5 1751.81  164.27   3    0.82
   0   7  -7 1882.81  186.23   3    0.79
   1   2  -1   82.93    7.24   3    2.65
   7   8  -6  2513.2  290.38   3    0.73
   2   6  -6  599.82   84.62   3    0.98
   9   6  -6  829.54   88.82   3    0.98
   4   7 -10  1657.4  132.52   3    0.88
  -1   7  -7 1835.62  194.66   3    0.76
   3   7 -10  859.48  114.35   3    0.87
   6   6  -7  553.42   72.07   3    1.03
   5   4  -4  162.61   25.58   3     1.5
   4   3  -3  158.68   15.66   3    1.98
   3   8  -6 2651.62  276.69   3     0.7
   6   6  -6  675.19    78.9   3    1.01
   5   5  -6  553.97   52.09   3    1.23
   3   4  -1  401.84   26.79   3    1.22
   7   7  -7  782.83  110.94   3    0.86
   8   7  -8  610.25   98.03   3    0.88
   6   8  -7 1304.09  188.42   3    0.75
   5   6  -8  253.38   48.43   3    1.03
   6   6  -4   543.5    82.1   3    0.96
   3   5  -2  577.53   52.95   3    1.03
   6   8  -3 1223.81  196.08   3    0.64
   7   8  -2 1273.24  174.85   3    0.62
   7   7  -9   473.6  104.51   3    0.88
  11   8  -9  698.97  130.13   3    0.76
  11   8  -7 1480.01   226.2   3    0.73
   3   5  -5  340.31   41.28   3     1.2
   7   7  -5  434.13   85.25   3    0.83
   5   5  -5  100.53   24.04   3    1.21
   6   9  -8 1369.49  274.05   3    0.66
   1   6  -5  619.93  109.38   3     0.9
   0   2   0 9676.98   37.56   3    1.74
   1   1   1 1464.89    8.07   3    1.58
  -3   3  -2 7097.01   60.26   3     1.1
   3   3   1 4052.18   40.98   3    1.16
   0   4   014782.77  126.02   3    0.87
  -3   3  -1 5169.76   70.72   3    0.87
   2   2   1   630.9   12.35   3     1.5
  -2   2  -1  609.06    14.4   3    1.48
   1   3   2 7013.46  101.44   3    0.63
   5   2   3  2046.1   51.88   3    0.63
   5   3   3 2138.79   74.07   3    0.66
   2   4   0 1430.11   47.44   3    1.03
  -3   4  -2 1998.07    76.3   3    0.86
   5   5   1 2901.42  107.78   3    0.77
   2   3   1  488.84   22.92   3    1.09
   2   3   2 1577.59   52.65   3    0.75
   1   5  -1  2360.9   88.31   3    0.86
  -2   3  -1  602.46   28.84   3    1.07
  -1   5  -1 2393.67  117.13   3    0.75
   0   6   0 6902.25  257.58   3    0.58
   4   3   2  661.84   35.69   3    0.89
   5   4   1  760.21   43.92   3    0.94
   5   4   3  2287.6  113.72   3     0.6
   7   6   2 2668.54  217.77   3    0.59
   4   4   1  546.16   43.81   3    0.93
   2   5   0 1418.09   94.53   3     0.8
   5   5   2 1848.59  136.63   3    0.65
   4   4   3 1423.25  126.85   3    0.57
   1   5   1 1999.79  132.55   3    0.64
   1   4   2 1487.69  121.23   3    0.58
   5   6   3 1721.65  227.29   3    0.48
  -4   5  -3 1329.55  135.35   3    0.71
   6   5   2  865.09   96.86   3    0.67
   4   8   0 4849.37  392.39   3    0.51
   0   5   1 2433.54  176.09   3    0.58
   6   3   4 2663.93  125.94   3    0.47
   4   6   0 1105.11  120.11   3     0.7
  -1   2  -1    80.5    8.41   3    1.97
  -1   5   1 1550.23  183.91   3    0.53
  -4   6  -3 1737.44  193.53   3     0.6
  -5   6  -3 1527.93  203.44   3    0.55
   3   6   2 2138.86  270.38   3    0.51
   7   7   1  378.43   80.61   3    0.57
  -7   5  -3  167.12   70.32   3     0.5
   6   6   1 1108.66  143.73   3    0.66
  -1  -1  -3  2066.9   16.72   3    1.44
   4  -2  -4 3399.54   41.85   3    1.19
   7  -2  -3 4411.99   59.36   3    0.99
   2  -2  -5 3032.21   41.23   3    1.22
   1  -1  -3 1260.37   16.62   3    2.56
   0  -1  -3 1037.73   14.96   3    2.11
   7  -2  -2 7115.58   87.38   3     0.8
   4  -2  -3 2257.02   39.67   3    0.99
   6  -2  -3 2676.19   47.85   3    1.02
   3  -1  -2  846.08   13.05   3    2.33
   5  -2  -3 2153.57   44.43   3    1.02
   1  -1  -2  567.26    8.96   3    2.12
   3  -3  -5 9568.15  190.79   3    0.59
   2  -2  -6  1554.4    34.2   3    1.28
  -3  -2  -6 9136.75   158.8   3    0.55
   0  -2  -4 5722.23   78.76   3     0.7
   6  -2  -4 1155.55    33.6   3    1.17
   0  -2  -6 1913.38   47.14   3    1.06
   6  -3  -8 3343.33   97.17   3    0.89
   4  -3  -8  3396.5   99.85   3    0.86
   2  -1  -2  245.06    7.53   3    2.38
   1  -3  -7 6229.04  154.82   3    0.66
  -2  -3 -10 6524.45  221.92   3     0.6
   6  -3  -4 3863.29  144.36   3     0.6
  10  -3  -5 3311.37  135.04   3     0.7
  -2  -2  -6 1931.57   72.85   3    0.72
  -2  -2  -5 3219.47  100.57   3    0.54
   1  -2  -5  863.71   31.53   3     1.1
   5  -3  -5 3809.13  137.54   3    0.69
   2  -2  -4  927.15   32.53   3    1.06
   2  -3  -8 1820.52   99.66   3    0.78
   5  -2  -2 1069.98   53.43   3    0.76
  -1  -3  -7 5891.21  219.58   3    0.49
   0  -3  -7 3275.18  168.41   3    0.58
   7  -3  -5 1938.08  118.82   3    0.73
  -1  -2  -6  718.16    44.1   3     0.9
  10  -3  -6 1412.98  100.65   3    0.77
  -1  -2  -5  940.91   53.51   3    0.74
   4  -4 -11 3728.99  234.88   3    0.63
   1  -3  -9 1280.87  100.22   3    0.77
   7  -2  -1 2417.93  153.42   3    0.57
   7  -3  -7 1132.72   84.43   3    0.85
   7  -4  -9 2454.18  215.78   3    0.62
  11  -3  -3 4003.98  217.99   3    0.53
   3  -4 -10 3537.01   257.5   3    0.58
  10  -3  -7 1239.86  100.82   3     0.8
  11  -4  -7 2426.67  214.48   3    0.55
  -4  -2  -7 1694.31  134.59   3    0.53
   3  -3  -6  528.73   79.09   3    0.71
   8  -3  -7   705.3   78.47   3    0.84
   0  -4 -12 2991.67  309.06   3    0.52
   9  -3  -7   192.4   36.26   3    0.83
  -1  -4 -13 1544.11  257.71   3    0.51
   6  -1  -8 5987.81   70.48   3    1.74
   2  -1  -4 2471.47   28.21   3    2.66
   7  -1  -7 3351.12   50.15   3    1.73
   6  -2  -7 3016.28   50.61   3    1.31
   8  -1  -9 3783.41    60.8   3     1.5
   4  -1 -10 3481.46   59.23   3    1.61
   3  -1 -10  3306.4   56.56   3    1.61
   4  -1  -8 2593.65   44.05   3    1.88
   3  -1  -6 1901.61   33.06   3    2.26
   8  -2  -8  3353.2   65.45   3    1.21
   4  -2 -11 4003.66   80.22   3    1.19
   5  -1  -8 2021.94   40.57   3    1.82
   3  -1  -5 1197.08   25.02   3    2.44
   7  -2  -9  2703.4   66.05   3    1.23
   4  -1 -11 2397.76   54.04   3     1.5
   5  -1 -12 2815.86   63.46   3    1.39
   1  -1  -5  799.99   17.49   3    2.39
   3  -2 -10  2207.1   56.65   3    1.23
   9  -2  -8 1869.46   57.35   3    1.16
   9  -2 -13 4976.65  153.34   3    1.03
   7  -1  -8 1103.88   36.24   3    1.66
   6  -1  -7 1122.51   33.05   3    1.84
   7  -2 -10 2119.81   67.85   3     1.2
   3  -1  -7  836.08   25.84   3    2.07
   6  -2 -12 2368.93   78.28   3    1.13
   6  -2 -19  7068.8  234.84   3    0.84
   6  -1  -6  707.65   24.68   3    1.93
  13  -3 -11 4899.09   190.3   3    0.78
   7  -1  -9 1009.15   36.46   3    1.57
  10  -2 -13 3140.04  122.82   3    1.01
   4  -1  -9  874.45    31.4   3    1.74
   5  -1  -6  625.89   22.73   3    2.07
   5  -3 -12  2775.7  113.96   3    0.88
   6  -2 -15  3219.3  128.43   3       1
   4  -2 -15 3369.36  127.83   3    0.99
   7  -2  -7  859.14   39.13   3    1.26
  10  -2 -12 2474.43  102.03   3    1.04
   9  -2 -12 1987.52    94.6   3    1.07
   6  -1 -11  927.68    44.1   3    1.45
   3  -1  -9  638.75   27.51   3    1.75
   3  -1  -8  557.87   25.29   3     1.9
   4  -2 -14 2072.57   97.42   3    1.04
   4  -3 -16 3575.21  182.79   3    0.79
   5  -2 -12 1433.99    73.8   3    1.14
   3  -2  -8  539.92   29.65   3    1.32
   8  -1 -10  732.03   41.52   3    1.43
  14  -2 -15 3806.06   190.6   3    0.85
   7  -3 -17 3872.51     232   3    0.78
   8  -2 -18 4126.62   194.4   3    0.87
   2  -1  -6  380.98   16.66   3    2.27
   5  -2  -8  680.78   35.97   3    1.32
   7  -3 -16 3814.98  191.83   3    0.81
   9  -1 -10  879.83   46.92   3    1.37
   3  -2 -11  862.37   50.99   3    1.18
   7  -1 -10  563.04   36.39   3    1.49
   5  -1  -9  519.35   28.64   3     1.7
   7  -3 -14 1632.71  132.74   3    0.85
   6  -2 -10  731.94   47.94   3    1.22
   8  -2 -13 1282.14    97.7   3    1.06
  13  -3 -13 3168.93  209.36   3    0.78
   9  -3 -14 2475.42  177.28   3    0.84
   8  -2  -9  593.63   48.55   3    1.19
   5  -3 -16 2150.85  176.44   3     0.8
   9  -3 -11 1491.16  114.26   3    0.87
  14  -3 -14  2668.9  240.54   3    0.75
   6  -2  -8  465.97   37.26   3    1.29
   2  -1  -5  200.35   12.17   3    2.47
   5  -3 -15  1665.4  134.12   3    0.82
   9  -3 -15 1690.43  155.44   3    0.82
   3  -3 -14 1963.75  138.54   3    0.82
  11  -2 -15 1584.49  138.51   3    0.92
   6  -3 -11  746.31   91.44   3     0.9
   6  -3 -16 1894.19  185.65   3    0.81
   3  -1  -4  101.87    9.38   3    2.59
  10  -2 -19 2457.03  232.78   3    0.82
   6  -4 -19 4428.11  356.24   3    0.63
  11  -3 -10    1421  129.55   3    0.83
  11  -3 -16 2915.82  226.03   3    0.77
  10  -3 -14  965.43   135.7   3    0.83
   7  -2 -18 1455.04  173.46   3    0.88
   3  -2 -12  526.94   60.15   3    1.13
  10  -3 -11 1146.82  118.32   3    0.85
   7  -2 -13  681.06   82.22   3    1.07
  10  -2 -16 1324.55  145.56   3    0.91
  13  -2 -13 1167.99  141.61   3    0.91
   7  -3 -18 1357.87  227.53   3    0.76
  12  -2 -13  946.67  114.32   3    0.94
   6  -1  -9  170.53   21.97   3    1.64
  10  -2 -18 1429.54  196.89   3    0.85
   8  -3 -15 1187.05  164.21   3    0.82
  13  -3 -15 1590.63   228.1   3    0.76
   4  -1  -7  123.05    16.5   3    2.03
   4  -4 -19 1319.75  288.86   3    0.61
  12  -2 -18 2643.21  229.51   3    0.82
  14  -4 -13 2097.35  290.04   3    0.63
  12  -3 -15  484.54   107.2   3    0.77
  14  -3 -17  451.31  130.33   3    0.72
   6  -2  -9  177.53   35.79   3    1.26
  11  -3 -18 1392.76  275.07   3    0.74
   5  -3 -14  387.01  100.55   3    0.84
  12  -2 -12  397.29   68.18   3    0.96
   8  -2  -7   39.67   10.64   3    1.21
   7  -2 -19  354.35   75.38   3    0.84
  11  -3 -20 1358.89  290.36   3     0.7
   6   1  -8 5774.93   59.78   3    2.17
   3   0  -6 4148.32   47.03   3    3.07
   4   0  -8  3461.6   45.04   3     2.3
   5   0  -6 2991.25   39.93   3    2.66
   8   1  -9 3647.73   52.15   3     1.8
   6   0 -15 6715.79    98.6   3    1.26
   4   0 -11 3122.59   47.55   3    1.72
   4   1 -10 3124.63   48.27   3    1.97
   6   0 -11 3779.74   60.73   3    1.65
   7   0 -10 3374.76   55.68   3    1.71
   9   0 -13 4965.26   89.83   3    1.32
   4   0  -6 2019.44   33.87   3    2.89
   6   0 -12 2797.68   55.27   3    1.54
   4   0 -10 1916.29   36.82   3    1.89
   5   1 -12 2503.68   51.46   3    1.64
   9   0 -12 2929.65    66.2   3    1.39
  10   0 -12 3167.15   69.02   3    1.33
   4   0  -7 1436.43   29.61   3    2.57
   7   0  -9 1534.96   38.47   3    1.83
   8   0  -9  1628.3   40.85   3    1.73
   6   0  -9 1227.84   32.52   3    1.93
   9   1 -14  2876.9   77.69   3     1.3
   7   1 -17 3911.99  106.14   3    1.15
   7   0 -11 1676.78   45.01   3     1.6
   7   1  -8 1152.81   29.46   3    2.04
  11   1 -12  2116.7   60.82   3    1.33
   7   1 -14 2268.06   65.26   3    1.37
   5   0 -12 1462.41   40.18   3    1.57
   8   2 -18 3787.66  110.21   3    1.08
  10   0 -13 2307.29   72.87   3    1.27
   4   1  -9  893.05   25.24   3    2.16
  10   1 -11 1417.27   47.47   3    1.46
   7   1  -9     964   32.52   3    1.91
  10   1 -12 1593.23   55.36   3    1.39
   3   0  -8  617.39   20.06   3    2.36
   7   1 -16 1866.68   71.28   3    1.22
   6   0  -8  734.58   26.01   3    2.09
   9   0 -14 1892.05   69.44   3    1.25
   5   0 -14 1239.66   45.93   3    1.36
   9   1 -10  912.54   37.18   3    1.61
   6   1 -11  972.17   36.22   3    1.72
   5   0 -13 1013.79   40.65   3    1.45
   8   1 -11  942.67   39.78   3     1.6
   5   1  -9  615.16   25.07   3    2.09
   8   1 -15 1531.95   64.18   3    1.27
   5   0  -8  599.94   23.67   3    2.21
   8   1 -10   787.1   35.41   3     1.7
  13   1 -14 1700.34   83.44   3    1.13
  11   1 -16 1964.77   95.29   3    1.12
   9   1 -15 1346.38   71.07   3    1.24
   2   0  -4  486.04   17.57   3     4.6
  13   0 -14 1890.62   91.46   3    1.09
   4   0  -9  439.74   22.04   3    2.08
  10   1 -14  1061.8   68.09   3    1.26
   8   0 -10  608.08      34   3    1.63
   8   0 -18 1972.67  109.19   3    1.04
   9   1 -11  851.42   39.79   3    1.53
   7   1 -12  795.51    39.6   3    1.56
   7   1 -11  677.44   34.64   3    1.67
   5   0  -7  433.93   19.88   3    2.42
  10   0 -11     800   43.65   3     1.4
   8   0 -13  820.14   52.19   3    1.36
  14   1 -16 1890.34  116.67   3    1.02
  11   1 -14  929.52   62.79   3    1.22
  11   0 -15 1116.44   81.79   3    1.12
   8   0 -12  582.55   41.87   3    1.45
   7   1 -18  1494.3    94.9   3    1.09
   7   1 -10  530.56   31.89   3    1.78
  14   0 -15 2124.02     110   3    1.01
  10   2 -19 1687.71  116.14   3       1
  10   2 -18 1334.16  102.27   3    1.05
  11   1 -18  1939.5  144.86   3    1.02
  10   0 -16 1110.39   90.51   3     1.1
   7   2 -18 1066.43   75.42   3    1.09
   7   0  -8  337.36   22.64   3    1.95
  11   0 -17 1326.21  108.18   3    1.03
   3   0  -7  193.71   13.32   3    2.68
  12   0 -13  660.77   61.64   3    1.17
   3   0  -5  220.92   12.63   3    3.56
   6   0 -10  253.45   29.46   3    1.78
   9   1 -17  824.37   72.78   3    1.12
   6   0 -14  406.79   47.42   3    1.34
   9   2 -21 1455.59  127.91   3    0.93
  12   0 -18 1123.35  116.82   3    0.96
  11   1 -20 1398.32  148.22   3    0.94
   6   1  -9  245.21   22.31   3    2.01
   2   0  -3  179.87   12.15   3    5.76
  13   2 -17  883.05   96.48   3    1.01
   5   1 -13  249.79   31.18   3    1.52
  10   1 -13  454.13   44.37   3    1.32
  10   0 -19  931.88  112.11   3    0.96
   7   0 -19  681.63    83.9   3       1
  14   2 -16  786.02    93.7   3    1.02
  10   0 -18  867.26  101.57   3    1.01
   8   1 -13  394.63      45   3    1.42
  10   1 -22 1371.89  165.82   3    0.88
   5   1 -10  136.55   20.94   3    1.92
   6   1 -16  351.11   44.76   3    1.23
  13   2 -22 1138.25  163.37   3    0.85
  10   0 -15  463.53   66.34   3    1.16
   7   1 -13  261.99   34.69   3    1.46
   5   0  -9  185.48   18.58   3    2.01
  13   1 -15  769.78   86.04   3    1.09
   9   0 -21  739.24  103.98   3    0.89
  10   0 -17  436.27   71.74   3    1.05
   8   0 -16  287.05   46.65   3    1.15
  16   0 -20  932.08  143.15   3    0.82
  17   0 -21 1733.69  231.45   3    0.77
   7   0 -18  414.45   71.47   3    1.05
  16   2 -20 1270.15   187.3   3    0.85
  14   1 -17  368.14   77.35   3    0.98
  12   1 -15  344.87   47.98   3    1.13
   5   0 -10   81.28   14.29   3    1.84
  12   1 -17  418.74   74.04   3    1.04
   7   0 -17  310.09    43.8   3    1.11
  11   0 -14  210.55   38.84   3    1.17
   6   1 -13  316.28   40.85   3    1.49
  16   0 -18  437.47   97.49   3    0.86
  17   2 -21 1306.61  246.86   3    0.81
  17   2 -19  733.24  141.28   3    0.85
   4   0  -5    8.91    3.96   3    3.14
  10   1 -17  273.02   70.75   3    1.09
   5   3  -2 6602.43   49.66   3    1.81
   7   2  -2 4334.47   40.77   3    2.04
   7   3  -1 3982.26   41.47   3     1.5
   9   3  -2 5094.31   53.45   3    1.43
   8   3  -1 4190.04   44.81   3    1.41
  10   3  -1 4185.96    52.9   3    1.23
   6   2  -1 1972.95   24.76   3    2.06
   7   2  -1 1845.12   24.85   3    1.86
   7   4  -2 3679.15   50.54   3    1.29
   8   3  -3 2436.55   37.83   3    1.61
  11   3  -3 3531.75   54.45   3    1.31
   6   2   0  752.08   14.57   3    1.78
   9   3  -3 1619.55   32.55   3    1.51
   5   3  -1  941.62   19.15   3    1.65
   4   2  -1  757.14   15.02   3    2.49
   7   3  -2 1269.54   27.04   3    1.63
   7   4  -3 1772.31   39.47   3    1.37
   6   3  -1  962.03   21.54   3    1.58
   8   5  -3 2800.49   64.74   3    1.08
  10   5  -5 3277.33   78.26   3     1.1
   5   2  -2  806.23   17.41   3     2.5
  10   4  -4 1891.83   47.83   3    1.25
   6   4  -1 1317.34   33.21   3    1.22
   5   2  -1  579.74   14.06   3    2.28
   7   4  -1 1350.58   36.15   3    1.19
  10   3  -3 1181.55   31.09   3    1.41
   8   4  -1 1393.13   39.99   3    1.15
  10   3  -2 1224.96   33.29   3    1.33
   9   4  -2 1565.95   44.31   3    1.19
  12   4  -4 2046.79   55.21   3    1.13
  10   3   0 1204.19      35   3    1.11
   3   1  -1   576.2   14.82   3    4.51
  11   4  -1 2021.95   75.24   3    1.02
  12   4  -2 2009.61   61.62   3    1.03
   8   3   0  741.71   24.49   3    1.26
  11   5  -3 2244.88   79.46   3    0.99
   7   3  -3  511.91   19.88   3    1.72
  10   5  -2 1651.79   72.06   3    0.97
  10   5  -1 1808.74   72.31   3    0.91
   6   3  -2   467.7   18.26   3    1.73
  13   5  -5  1806.6   79.87   3    0.98
   8   4  -3  770.87   32.12   3    1.32
   9   4  -3  720.18   34.49   3    1.26
   2   1  -1  382.84   13.91   3    5.46
  11   4  -2  891.78   45.96   3    1.09
  14   4  -1 1746.47    77.4   3    0.87
  11   5  -4  1104.6   57.03   3    1.03
   8   5  -1  785.37   54.89   3    0.95
  13   5  -1 1786.77   92.68   3    0.82
   9   5  -2  760.76   50.87   3       1
  11   5  -1 1400.61   76.04   3    0.88
   9   4  -1  469.87   33.61   3    1.11
  17   5  -3 2330.41  130.35   3    0.78
  17   5  -4 1997.79  121.05   3    0.81
  10   6  -4 1504.03   82.62   3    0.91
  11   3  -2  351.31   27.68   3    1.24
  13   4  -2  802.31   60.43   3    0.98
   9   5  -1  867.19   60.76   3    0.93
  12   6  -2 1494.46  107.23   3    0.79
  15   4  -3 1086.17   76.31   3    0.93
   8   4  -2  456.02   31.98   3    1.24
  12   4   0  754.55   54.27   3    0.89
   9   3  -1   338.6   21.74   3    1.32
  13   7  -3  2510.9  184.23   3    0.71
  17   5  -1    1974  125.73   3     0.7
   9   4  -4  437.23   26.96   3    1.31
   9   5  -5  624.63   47.66   3    1.13
  11   5  -5  517.68   59.97   3    1.06
  11   4  -3  506.34   44.34   3    1.14
  17   6  -5 2215.11  164.03   3    0.76
  13   5  -4  1100.1      80   3    0.95
   9   6  -2 1348.43    86.2   3    0.84
  10   6  -3  874.54   72.64   3    0.87
  14   6  -1 1637.26  135.15   3    0.71
  14   6  -3 1413.99   119.7   3    0.79
  15   5  -1 1317.88  100.35   3    0.76
  11   5  -2  687.87   63.53   3    0.94
  14   4  -3  598.58   55.74   3    0.98
  16   5  -5 1013.42   90.79   3    0.87
  13   4  -1  553.51   60.55   3    0.92
  16   6  -6 1661.32  147.95   3    0.81
  10   5  -3     321   45.51   3    1.02
  12   5  -2  636.21   56.65   3    0.91
  12   6  -4 1004.81   93.48   3    0.86
  11   7  -3 1420.75  131.14   3    0.74
  15   4  -1   410.2   56.98   3    0.83
  17   5  -5  649.95   83.58   3    0.83
  20   6  -4 1411.91  169.74   3    0.67
  14   4  -4  338.74   39.72   3    1.02
  17   5  -2  636.77   80.58   3    0.74
  10   4  -3  219.16   30.41   3     1.2
   8   4  -4  202.97   23.77   3    1.36
  18   6  -4 1324.26  142.63   3    0.71
  12   5  -1  459.79    54.2   3    0.85
  12   6  -6 1253.15   99.88   3    0.91
   4   2  -2    76.2    6.58   3    2.73
  17   7  -3 1942.97  280.72   3    0.65
  14   4   0  413.88   56.65   3    0.81
  13   7  -5  656.59  113.13   3    0.77
   8   5  -2   250.2   35.38   3    1.02
  11   4  -4  197.68   29.47   3    1.19
  13   7  -1 1333.19  161.01   3    0.65
  11   6  -2  536.64   91.96   3    0.81
  17   5  -6  494.23   75.87   3    0.85
  16   7  -6  911.31   153.4   3    0.73
   9   5  -3  187.49   31.69   3    1.05
  12   5  -4  394.64   66.79   3    0.99
  14   5  -5  297.13   56.77   3    0.95
   5   1   1 2379.33   19.83   3    1.73
   6   0   1 2653.06   24.39   3    1.16
  10   0   0 7367.93   66.92   3    1.08
   8   0   0  3383.9    33.5   3    1.35
   8   1   1 2184.46   29.09   3    1.25
   6   1   2 1857.16   25.27   3    0.99
  10   0   1 4847.25    70.5   3    0.85
  10   2   1 3712.82      53   3    1.06
   6   0   0 1025.22   14.95   3    1.79
   7   1   1 1224.27   18.72   3    1.39
   7   2   3 3851.41    61.9   3     0.7
  10   1   1 2916.99   48.18   3    1.03
   9   1   1 1841.16   32.67   3    1.13
   5   0   1  774.01   11.87   3    1.25
   8   0   1  1484.3   30.66   3    0.99
   9   2   2 2233.35   47.05   3    0.92
  10   1   2 2787.48   60.68   3    0.81
   7   0   1  716.14   18.32   3    1.08
   9   1   2  1941.6   46.77   3    0.86
   9   0   1 1179.95   35.27   3    0.92
  11   2   1 1638.55   45.33   3    0.98
   9   0   2 1889.31   60.22   3    0.63
   6   1   1  356.45     9.9   3    1.55
  11   1   3  3396.4  105.59   3    0.58
  13   3   3 5471.91  154.86   3    0.62
  13   1   3 4161.59  136.14   3    0.54
  11   1   1 1308.27   42.71   3    0.95
   2   0   0  337.51    8.99   3    5.36
   4   0   0  216.74    6.27   3    2.69
  12   2   2 2674.17   80.81   3    0.77
  13   1   1 2602.82   80.87   3    0.81
  14   0  -1 2373.86   75.19   3    0.87
   8   2   3 1406.86   53.83   3    0.71
  12   0   2 3586.42  121.99   3    0.58
  10   2   4 2133.29  101.25   3     0.5
  12   2   1 1244.73   50.21   3    0.91
  14   2   1  2005.9   81.65   3     0.8
  11   0   2 1389.41   78.99   3     0.6
  14   0   1 2428.35   121.2   3    0.66
   8   1   2  351.92   23.06   3    0.91
  12   1   2 1100.31   68.86   3    0.72
  17   1   3 3615.09  211.16   3    0.47
  17   3   3    4120  219.72   3    0.54
  12   2   4 2564.07  132.54   3    0.49
  17   1   1 3213.91  160.47   3    0.63
  12   1   1   959.5   49.25   3    0.88
  15   2   3 2240.74  158.97   3    0.56
  18   2   1 2453.56  157.24   3    0.63
  13   2   1 1005.02   57.77   3    0.85
  14   0   0 1685.99   89.41   3    0.77
   9   1   3  597.74   52.38   3    0.59
  17   3   1 1801.42  119.64   3    0.67
  11   2   2  619.04   45.91   3    0.82
  11   2   3  908.88   67.58   3    0.66
  16   0   2 1379.96  169.66   3     0.5
  15   2   1 1075.79   78.58   3    0.75
  12   0  -1  381.48   32.68   3    1.04
   7   1   2  141.07   14.49   3    0.95
   9   2   3  374.38   40.07   3     0.7
  13   2   2  584.65   63.73   3    0.73
  12   0   0  600.38   48.83   3     0.9
  13  -1   1 2136.77  150.23   3    0.53
  11   1   2  601.47   50.87   3    0.76
  10   1   3  434.93   58.23   3    0.59
  20   3   3 1450.47  217.08   3    0.48
  16   2   1  663.37    84.1   3     0.7
  17   2   2  694.17   96.47   3    0.59
  16   2   2  720.98  106.45   3    0.62
  14   1   1  637.77   75.96   3    0.76
  21   2   2 2238.38  292.66   3    0.49
  20   3   1 1508.61   194.6   3    0.58
  14   2   2  197.83    46.2   3     0.7
  22   2   1  995.28  204.94   3    0.52
  15  -1   1 1160.08  156.34   3    0.49
  13   0   1  649.42   82.56   3     0.7
  16   3   1  377.85   80.88   3    0.71
  21   4   2 1651.64  233.49   3    0.51
  22   3   1  804.88  227.08   3    0.53
  19   2   1  352.32   88.82   3     0.6
  17  -1   1  3589.4  257.83   3    0.46
  13   1   2   86.79   42.47   3    0.68
   6  -1  -4 3704.01    34.7   3    1.99
  10  -1  -5 4105.88   54.62   3    1.38
  15   0  -7 8347.63  118.63   3     1.1
   8  -1  -5 2579.09   36.86   3    1.65
   9   0  -4 2707.37   37.21   3    1.82
  12   0  -6 3410.71   56.54   3    1.37
  14  -1 -10 7384.66  127.94   3    1.05
   6   0  -3 1419.98    24.2   3    2.74
  11  -1  -4 2513.18   48.51   3    1.21
  13  -1 -11  4258.3   95.36   3    1.09
  10  -1  -8 1804.59   45.57   3    1.37
   8  -1  -6 1214.47   29.65   3    1.65
   7   0  -3  802.68   18.92   3    2.33
  11  -1  -8 1948.02   51.34   3    1.29
  10   0  -5 1180.46    31.6   3    1.63
  11  -2  -7 2260.29   66.54   3    1.04
   7  -1  -4  624.08   18.52   3    1.79
  10  -1  -7 1425.01    38.2   3    1.39
  14  -1  -6 2874.67   87.78   3    1.03
  12  -1  -9 2316.24   65.15   3    1.19
   9  -1  -7 1253.44   34.34   3     1.5
  13  -2  -8 3039.91   94.85   3    0.94
  15  -2  -7 4232.27   132.9   3    0.83
  13  -1  -5 2002.13   60.98   3    1.07
  14  -2 -11 3750.69  130.18   3     0.9
  16  -1  -9 3129.71  125.38   3    0.94
  16   0  -7  2274.7   85.55   3    1.02
  13  -2  -7 1710.57   87.59   3    0.93
   9  -1  -5   538.7   24.27   3     1.5
  13  -1 -10 1511.09    71.7   3    1.11
   9  -1  -6  465.15   25.84   3    1.52
  16  -1  -5 2149.47  100.37   3    0.86
  13   0  -7  980.51   46.91   3    1.27
  17  -1  -7 2391.04  109.36   3    0.86
  16  -1 -12 2063.56  120.35   3    0.92
  14   0  -7 1062.89   52.76   3    1.18
  18   0 -10 2343.37  127.03   3    0.92
  17  -1 -11 2369.79  138.91   3    0.89
  20  -1  -7 2295.19  166.78   3    0.73
  20  -1  -9 3437.65   218.7   3    0.76
  16  -1  -6 1623.03   99.98   3     0.9
   8  -1  -4  243.31   18.97   3    1.61
  10  -2  -7  549.43    39.7   3     1.1
  11   0  -5  378.02   22.76   3    1.49
  11  -1  -5  353.66   33.51   3    1.26
  11  -1 -10  459.86   39.15   3    1.23
  15  -2 -12 1313.63  131.88   3    0.86
  16  -1  -7 1223.94    84.4   3    0.92
  17  -3 -11 1984.29  176.72   3    0.68
  17  -1  -6 1371.21  112.14   3    0.84
  19   0 -11 1529.07  130.31   3    0.87
  14   0  -6  446.08   43.46   3    1.17
  15   0  -8  622.53   52.18   3     1.1
  11  -1  -7  381.34   33.15   3     1.3
  13  -2  -9  645.35   78.26   3    0.95
  18  -1 -10  992.52  112.87   3    0.85
  12  -1  -5  365.33    37.8   3    1.16
  12   0  -5  309.26   30.89   3    1.35
  17  -1  -5  945.47  104.02   3    0.81
   9  -1  -8   190.7   20.58   3    1.46
  16   0  -8  556.78   57.18   3    1.03
  11  -1  -6  279.85   36.34   3    1.29
  14  -2 -10  803.46    83.6   3    0.91
  17   0  -7  492.32   62.02   3    0.96
  20  -2 -12 1040.41  171.46   3     0.7
  10  -1  -6   90.07      20   3     1.4
   9  -1  -4  122.14   18.96   3    1.45
  24  -2 -15 2619.76  291.66   3     0.6
  18  -2  -9  934.34  116.46   3    0.75
  11   0  -6  205.02   24.53   3    1.51
  17  -2  -7  874.78  144.94   3    0.74
  18  -2  -8  562.95  133.91   3    0.72
  19  -2 -12  828.13  137.17   3    0.73
  18  -1  -7  323.27    57.9   3    0.81
   8   0  -4   74.32   11.34   3    2.07
  18  -2 -13  846.71  138.79   3    0.76
  12  -1  -8   91.89   26.28   3    1.21
   7   2  -6 4957.22   60.89   3     2.1
   6   1  -4 3545.15   47.76   3    2.81
   8   1  -5 2488.23   43.39   3    2.16
  14   3 -10 7496.07  146.15   3    1.16
   6   1  -5 2000.63    37.2   3    2.68
  10   2  -5 2157.85   43.65   3    1.67
  13   3 -11    5182  113.02   3    1.19
  11   2  -9 3532.33   73.25   3    1.46
  11   2  -7 2964.77   64.09   3    1.53
   9   2  -8  2326.1   53.48   3    1.71
  13   2  -8 3382.26   80.68   3    1.32
  14   2 -11 4407.96  108.36   3    1.18
   9   2  -7 1499.19   42.87   3    1.76
  13   2  -7 1717.83   55.03   3    1.33
  14   2 -13 3540.64  111.97   3    1.12
   8   1  -6 1192.35   34.77   3    2.09
  10   2  -8  1342.4   47.05   3     1.6
  13   2 -12 2091.29   82.45   3    1.21
   7   1  -4  758.34   23.85   3    2.47
   9   1  -5   600.2   24.62   3    1.94
   5   1  -3  595.95    21.1   3    3.32
  11   3 -10 1304.51   58.81   3    1.33
  13   4 -12 2358.66  102.16   3    1.09
  14   4 -11 2507.21  115.07   3    1.07
   5   1  -4  512.58   20.01   3     3.2
  14   4 -13 2603.48  123.71   3    1.03
  17   3 -11 2588.16  137.28   3    0.99
   4   1  -3  456.81    18.8   3    3.88
   9   1  -6  493.57      25   3    1.91
  15   2 -13 1450.12   90.34   3    1.07
   8   1  -4  294.58   16.77   3    2.17
  10   2  -7  780.78   39.02   3    1.64
  16   3  -9 1888.33   100.3   3    1.05
  12   2  -6  638.22   37.44   3    1.43
  15   2 -12 1734.08    99.9   3     1.1
  12   3  -9  719.05   50.03   3     1.3
   9   2  -6  389.83    28.9   3     1.8
  18   3 -10 1714.88  133.98   3    0.95
  13   2  -9  683.62   51.52   3     1.3
  14   3 -12 1093.95   94.75   3    1.11
  15   4 -13 1517.92  117.47   3       1
  13   3  -8  537.98   49.85   3    1.24
  16   2 -11 1047.99   93.48   3    1.07
  17   2  -9 1036.18   96.12   3    1.03
  17   2 -11 1310.94   124.6   3    1.01
  14   2  -9  779.44   64.11   3    1.22
  18   2 -10 1156.06   96.43   3    0.97
   8   2  -7  307.11   20.77   3    1.89
  15   3  -7  764.48   66.36   3    1.11
  17   3 -16 2125.95  174.09   3    0.91
  13   2 -11  419.26   49.23   3    1.24
   9   2  -5  207.95   19.75   3    1.81
  16   3 -12 1122.33  118.24   3    1.02
  15   2  -8  459.34   55.29   3    1.16
  12   2 -10  292.88   40.54   3    1.34
  16   4 -11 1023.68  108.05   3    0.98
  10   2  -9  277.07   29.71   3    1.55
  17   2 -13  1112.1  116.36   3    0.98
  17   3 -10  929.67  105.24   3       1
  24   4 -15 2655.85  334.29   3    0.71
  20   2 -12  952.79  138.31   3    0.86
  19   2 -12 1038.33  122.83   3    0.91
  14   3  -8  517.13   59.73   3    1.18
  10   3  -9  258.96   30.43   3    1.43
  12   2  -7  237.28   37.72   3    1.42
  13   3 -10  325.25   56.93   3    1.21
  18   4  -9   616.3   94.03   3    0.91
  22   5 -19  550.61  138.22   3     0.7
  17   3 -14 1225.75  152.01   3    0.95
  15   3  -8  403.38   70.76   3    1.11
  16   4 -13  348.74  109.84   3    0.96
  19   2 -11  769.35  124.45   3    0.92
  16   5 -14  900.63   104.1   3    0.89
  15   2 -11  596.51   70.31   3    1.12
  17   3 -15 1008.59  142.58   3    0.93
  13   3  -7  329.23   44.27   3    1.24
  10   2  -6  107.12   19.96   3    1.66
  18   4 -10  943.75  129.72   3    0.91
  18   3  -9  641.78  101.59   3    0.95
  11   1  -6  214.98   26.04   3    1.58
  11   3  -8  120.29   22.13   3    1.39
  15   4 -12  708.03      89   3    1.01
  21   5 -12  238.24  102.58   3    0.77
  17   4 -13  670.85   99.37   3    0.93
  10   1  -6  120.88   19.68   3    1.74
  17   5 -14   294.6   61.14   3    0.86
  11   2  -6  137.04   24.12   3    1.54
  19   4 -11 1074.71  145.55   3    0.87
   8   1  -3  2941.9   35.74   3    2.14
  13   1  -3 4717.04   66.44   3    1.23
  11   1  -3 3571.73   52.47   3     1.5
   5   1  -1 1750.18   25.73   3       3
  10   1  -2 2593.07   40.69   3    1.57
   9   1  -2 1561.86   25.98   3    1.77
  12   2  -4 3215.96   53.99   3    1.38
  11   1  -4 2465.04   43.07   3    1.56
   6   1  -2 1415.17   24.47   3    2.76
   7   1  -1 1202.46   20.96   3    2.13
  12   2  -2 2778.07   50.67   3    1.25
   8   1  -1 1493.37   26.75   3    1.84
  14   1  -6 2349.56    58.5   3    1.23
  13   1  -5 1946.97   45.13   3    1.32
  11   2  -1 1747.31   43.01   3    1.26
  17   3  -3 5673.31  138.23   3    0.89
  13   1  -4 1471.42   43.54   3    1.28
  12   2  -1 1530.07   42.13   3    1.16
  15   2  -3 2428.82   71.35   3    1.05
  11   2  -3 1110.86   31.61   3    1.45
  17   2  -5 4004.94  118.95   3    0.98
  17   1  -3 3764.97   111.2   3    0.89
  16   1  -5 2646.17   88.82   3    1.04
   9   1  -1  545.58    15.9   3    1.61
  17   1  -7 2755.32   88.18   3    1.01
   6   1  -1  418.03   12.33   3    2.51
  14   2  -1 1798.05    56.6   3    0.99
  16   3  -5  2246.4   79.75   3    1.01
  17   1  -4 3136.46  111.77   3    0.93
  10   1  -3  601.41   22.93   3    1.67
  16   2  -6 1540.71   71.22   3    1.07
   8   1  -2  415.24   15.36   3    2.03
  18   2  -4 2453.81   96.47   3    0.89
  11   2  -2  564.45   24.22   3    1.37
  20   1  -5  4052.8  168.06   3     0.8
  20   3  -5 3325.64   151.6   3    0.81
  20   1  -7 2299.76  130.13   3    0.84
  17   1  -6 1442.26   81.45   3    0.99
  11   1  -2  405.94   19.44   3     1.4
  17   3  -1 2168.34  103.98   3    0.79
  15   3  -5  895.05    51.2   3    1.08
  14   2  -5     771   43.95   3    1.21
  13   2  -2  646.17   35.21   3    1.15
  12   1  -2  572.19   26.87   3    1.27
  10   1  -1  214.78   11.79   3    1.43
  20   3  -7 2117.45  141.19   3    0.84
  12   2  -3  440.22   29.18   3    1.33
  20   3  -3 2945.14  165.71   3    0.75
  17   3  -6 1513.72  100.53   3    0.98
  21   2  -6 2871.98  172.16   3    0.79
  18   2  -5 1537.84  101.88   3    0.92
  15   2  -1  966.73    58.3   3    0.92
  14   1  -5  567.75   33.54   3    1.21
  12   1  -4  394.66   29.06   3    1.41
  12   1  -5  366.92   25.14   3    1.45
  17   3  -4  960.06   82.83   3    0.92
  17   1  -5 1363.73   86.37   3    0.97
  14   2  -2   595.2   47.95   3    1.06
  15   1  -4  513.29   44.67   3    1.09
  10   2  -2  166.55   16.02   3     1.5
   7   1  -2  160.19   11.07   3    2.35
  20   1  -3 1397.47  111.64   3    0.73
  16   2  -1  686.89   63.16   3    0.86
  21   2  -5 2213.69  161.96   3    0.77
  19   2  -5 1206.56  111.13   3    0.86
  21   4  -6 2169.59  172.89   3    0.76
  20   3  -1 1646.23  138.18   3    0.67
  19   2  -3 1063.53  114.18   3     0.8
  16   2  -5  664.27   59.26   3    1.05
  20   2  -4 1832.85  137.69   3    0.79
  21   4  -2  1385.7  155.29   3    0.66
  16   2  -2  752.11   68.92   3    0.92
  11   1  -1   144.4   14.48   3    1.28
  20   4  -4  1291.2  142.95   3    0.75
  20   1  -4 1376.16  116.07   3    0.77
  18   1  -7  643.24   70.14   3    0.95
  21   4  -5 1356.49  150.22   3    0.74
  17   2  -3  660.72   64.64   3    0.91
  16   3  -4  750.96    68.2   3    0.98
  17   2  -6  716.62   74.58   3       1
  18   3  -5  719.22   92.32   3     0.9
  16   2  -3  352.55   46.79   3    0.97
  21   3  -5  790.88  127.59   3    0.77
  19   3  -2  822.12   127.5   3    0.75
  17   2  -2  516.13   69.19   3    0.86
  14   2  -4  402.14    41.9   3    1.18
  21   1  -4 1105.03  125.86   3    0.72
  20   2  -8  771.27  100.94   3    0.86
  24   1  -4  990.31  162.95   3    0.61
  16   1  -4  524.56   66.19   3       1
  19   3  -1  484.02   73.14   3    0.71
  20   3  -6  441.78   93.52   3    0.83
  19   1  -3  123.64   33.34   3    0.78
  21   2  -7  910.02  135.86   3    0.81
  25   2  -6 1232.39  200.88   3    0.65
  19   3  -5  196.23   66.01   3    0.85
  21   4  -7  329.24      95   3    0.77
  -7   0   6 2049.75    34.5   4    2.35
  -7  -1   7 1229.94   27.86   4    2.02
 -11   0   7 1643.83   39.26   4    1.76
  -8  -1   9 1260.82   33.54   4    1.63
  -7   0   5  892.33   23.28   4    2.61
  -7   0   7  770.25   23.68   4    2.11
  -9   0   6  835.15   26.71   4     2.1
 -13  -1  11 1681.86   64.56   4    1.27
  -8  -1   8  773.72   26.64   4    1.79
 -13   0   8 1039.63   40.55   4    1.51
  -5   0   3  608.99   19.69   4    3.95
 -11   0   9  924.14   39.51   4    1.54
  -9   0   8  606.64   29.15   4    1.79
 -10  -1   7  623.03   29.03   4     1.8
 -11  -1   8  705.72   32.01   4    1.62
 -10  -1   8  656.07   31.51   4    1.68
  -5   0   4   424.3   16.25   4    3.43
  -8  -1   6  451.46   20.35   4    2.14
  -8   0   9   525.6    25.3   4    1.67
 -12  -1   9   847.1   42.83   4    1.47
  -8  -1   7  373.75   22.21   4    1.96
 -13   0  12 1405.47   69.22   4     1.2
 -14  -2  13 1146.44    73.3   4    1.06
  -6   0   4  295.44   14.67   4    3.15
 -10  -1   9  409.78   29.55   4    1.57
  -9   0   9   444.6   26.45   4    1.64
 -14   0  13 1096.96   79.94   4    1.12
  -4   0   3  269.65   13.06   4    4.45
 -10   0   8  363.77   26.41   4    1.72
 -14   0  10  671.85   38.94   4    1.31
  -9   0   7   263.2   18.86   4    1.94
  -4   0   4  240.96   12.01   4    3.68
  -6   0   6  238.59   15.25   4    2.46
 -12   0   8  428.37    31.2   4    1.58
 -10  -1  11  573.63    44.7   4    1.35
 -13   0   9  597.61   41.15   4    1.43
 -14  -1  12  633.34   62.58   4    1.17
 -15   0  11  864.05   64.89   4    1.21
 -13  -1  13  583.82   61.42   4    1.13
 -13   0  13 1001.16   77.25   4    1.14
  -9  -1   6  173.28   18.76   4    2.02
 -14   0  11  623.58   56.06   4    1.24
 -14   1  14  788.84   83.31   4    1.02
 -13  -1  14  611.95   66.79   4    1.07
 -13   1  14  524.12   63.99   4    1.04
 -13   0  14  728.34   70.47   4    1.07
  -5   0   5  134.81   10.16   4    2.94
 -12   0   9  282.68    29.3   4    1.48
 -14   0  15   955.2   86.15   4       1
  -3   0   2   158.3    11.9   4    6.29
 -10   0  11   252.9    32.2   4    1.36
  -8   0   5  110.34   12.36   4    2.43
 -11  -1   7   181.3   25.65   4    1.72
 -17   1  16 1080.03  150.28   4    0.89
 -17  -1  16  627.01  101.35   4    0.91
 -14  -1  16   398.8   67.36   4    0.94
 -11  -1  11  378.36    46.7   4    1.32
 -17   0  11  295.05   48.08   4    1.12
 -19  -2  12  424.82   81.99   4    0.99
 -13  -1  12  253.06      36   4    1.19
 -18  -2  13  377.32   100.3   4    0.98
 -12   0  12  500.95   48.88   4    1.23
  -7   0   8   63.68    9.63   4    1.88
 -16  -2  11  595.94   75.23   4    1.12
 -14   1  13      98   23.92   4    1.09
  -9  -1   8  105.47    15.3   4    1.74
 -23  -1  13  759.48  108.09   4    0.88
 -24  -2  16  571.24  135.76   4    0.78
  -2  -1   8 2238.54   33.79   4     1.5
  -3   0   6  1643.6   26.95   4    2.45
  -4   0   8 1474.14   30.61   4    1.84
  -3   0   9 1479.48    33.8   4    1.49
  -4   1  10 1825.75   41.95   4    1.29
  -3  -1  10 1838.95   44.67   4    1.28
  -2   0   8  941.99   23.74   4    1.56
  -4  -1   8 1143.52   28.95   4    1.76
  -4   0  11 1673.29   48.86   4    1.25
  -6   0  11 1584.95   48.26   4    1.36
  -3   0  11 1437.85   49.81   4    1.16
  -4   0  10  950.33   36.92   4    1.41
  -4   1  11 1341.12   44.58   4    1.16
  -7   0  10 1209.64    37.7   4    1.53
  -9   0  13 2332.36   75.29   4    1.17
  -4  -1  11 1414.27   49.67   4    1.23
  -5  -1  12 1489.22   60.95   4    1.17
  -5  -1   8  758.74   24.79   4    1.82
  -4   0   6  635.27   18.96   4    2.54
  -2   0   6  400.25   13.88   4    2.24
  -5   1  12 1429.77   56.35   4    1.11
  -4   0   7  550.88   20.02   4    2.14
  -4   0  12 1151.02   55.76   4    1.12
  -6   0   9  512.17   27.09   4    1.69
  -6   0  12  1475.8   58.71   4    1.23
  -7   0  11  803.34   41.95   4    1.38
  -3  -1   8  376.84   23.04   4    1.66
  -3  -1   7  295.05   16.03   4    1.91
  -7  -1  14 1071.82    76.1   4    1.04
  -9   1  14 1351.89   81.47   4    1.05
  -3   1   9  323.96   22.11   4    1.35
  -5   0  12  919.52   54.16   4    1.18
  -7  -1  17 2801.24  174.14   4    0.83
  -9  -1  14  996.48   73.65   4    1.08
  -6   2  19  3496.4  257.62   4    0.63
  -6  -2  15 2014.75  133.33   4    0.89
  -5   0   8  252.42   19.69   4     1.9
  -3   0   8  307.66   20.32   4    1.73
  -7   1  14 1116.27   70.48   4    1.01
  -2   0   4  179.49   10.13   4    3.67
  -6  -1  11  551.31   40.98   4    1.33
  -6   0  19 3030.91   234.8   4     0.7
  -4  -1  16 1865.33  148.39   4    0.78
  -8  -2  18  2278.4  207.42   4    0.78
  -5   0  14   588.7    69.3   4    0.98
  -8   1  15   833.9   82.85   4    0.96
  -8  -1  15  699.68   71.68   4    0.99
  -5  -1   9  140.06   16.33   4    1.61
  -6   1  11  428.08   33.27   4    1.27
 -11  -1  16  514.05   88.52   4    0.95
  -8   0  13  355.48   47.61   4    1.17
  -1   0   3    72.8    5.56   4    4.48
  -7  -1  16  826.65  103.36   4    0.89
  -9  -1  15  783.34   93.24   4       1
 -11   1  16  992.56  110.75   4    0.92
  -7   1  16 1276.65  146.07   4    0.86
  -1   0   2  115.03   10.37   4    7.33
  -3   0   5   87.95    9.46   4    3.02
  -2   0   3   22.43    3.87   4    5.06
  -3   0   7   67.19   12.39   4    2.05
  -7   1  12   352.6   40.24   4    1.19
  -8   0  18  632.89  139.02   4    0.81
 -10   1  14   515.7   75.82   4    1.05
 -11   1  20  399.57  108.42   4    0.73
 -11   1  18  605.97  113.81   4    0.82
  -7   1  18  535.16  122.88   4    0.75
  -1   1   7 1352.82   24.61   4    1.31
   0   1   3  479.98    7.01   4    1.36
  -1   2   9 1844.44   63.47   4    0.81
  -1  -1  10 1454.19   55.86   4    1.02
   0   1   5  398.84   12.93   4     1.2
  -1   0  13 2302.52  119.78   4    0.76
   0   2   6  895.83   46.06   4    0.68
  -1   1   6  221.67   11.81   4     1.5
   0   1   9  709.29   56.97   4    0.82
   1   0   8  124.29   29.08   4    0.78
  -2   1  11  109.61   29.08   4    0.97
   0  -3  15  308.06   91.14   4    0.51
  -6   1  -4 1721.87   26.73   4    1.39
  -6  -1  -5 1094.63   27.95   4     1.2
  -7   0  -5 1367.29   32.09   4    1.32
  -4   0  -3  379.13   11.13   4    2.17
  -5  -1  -4  280.22      15   4    1.47
 -14   1 -10 3898.21  226.73   4    0.63
  -8  -1  -6  507.43   39.61   4    1.07
  -6  -2  -6  905.88   72.39   4    0.77
 -11  -1  -8  856.69    77.3   4    0.83
 -13  -3 -11 1914.99  328.36   4    0.51
 -13   2  -8 1280.59  101.27   4     0.7
  -9  -2  -8 1371.48  143.59   4     0.7
 -12  -1  -9 1063.89  136.25   4    0.73
  -8   2  -6  306.87   47.08   4    0.76
 -11   1  -8  299.42    51.8   4    0.76
 -13  -1 -11  2218.3  234.67   4    0.56
  -9   2  -8  221.94   60.06   4    0.58
 -11   0  -9   228.9   52.86   4    0.71
  -8  -3  -8  335.67   69.96   4    0.56
  -1   0  -1   15.76    1.73   4    5.47
  -8  -1  -3 1288.46   30.69   4    1.86
 -11  -1  -3 1585.57   43.77   4    1.58
 -13  -1  -3 2098.42   60.53   4    1.41
  -9   0  -4 1177.61   35.62   4    1.59
 -10   0  -3 1395.48    38.2   4    1.73
  -7   0  -2  892.86   24.91   4    2.51
 -12   0  -6 1936.75   72.92   4     1.1
  -6   0  -3   522.1   17.45   4    2.19
 -15   0  -7 3436.59  134.24   4    0.92
 -10   0  -4  981.18    38.6   4    1.52
 -14   0  -3 1366.13   56.04   4    1.36
 -11  -1  -4  992.08   40.96   4    1.42
 -11   1  -4  760.75   35.13   4    1.34
  -9   0  -3  585.84   27.49   4    1.84
  -9   0  -2  627.29   25.39   4    2.09
 -13  -1  -5  729.77   56.15   4    1.18
 -15  -2  -7 2133.49  127.58   4    0.87
  -7   0  -3  358.74   18.08   4    2.08
 -18   0  -4 1758.44   105.6   4    1.05
 -12   0  -4  805.46   47.26   4    1.38
 -17  -1  -4  1558.8   99.89   4    1.09
 -16  -1  -5 1308.11  100.08   4    1.06
 -16   0  -6 1968.73  112.85   4    0.98
 -13   0  -4  774.35    50.9   4    1.32
 -13  -1  -4  673.37    53.3   4     1.3
 -17  -2  -5  1798.9  126.88   4    0.97
 -18  -2  -4 1526.26  108.66   4       1
  -9  -1  -3  356.84   22.43   4    1.77
 -20  -1  -5 1716.82   149.8   4    0.91
 -17   1  -4 1357.61  100.31   4    1.05
  -6   0  -2  153.09   12.61   4    2.76
  -5   0  -1   208.8   13.65   4    3.84
 -17  -1  -7 1895.93  169.07   4    0.88
 -21   0  -6 1812.35  199.91   4    0.84
  -5   0  -2  140.92   10.96   4    3.04
 -16  -2  -6  940.17  108.34   4    0.93
  -3   0  -1  165.67   12.56   4    5.51
 -21  -2  -6 1732.55  204.85   4    0.81
 -20   0  -4  907.83  121.75   4    0.97
  -4   0  -1  107.91    9.95   4    4.57
 -17  -1  -6  426.52   91.49   4    0.95
  -9  -1  -5  218.21   25.04   4    1.32
 -17   1  -6  101.44   43.34   4    0.91
 -10  -1  -4   24.79    9.54   4    1.45
 -20   1  -5  400.34   83.04   4    0.89
 -20  -1  -9 1986.76   264.9   4    0.71
 -11   1  -5   27.53   10.08   4    1.19
  -2   0  -1   42.14    5.12   4    6.61
 -21   1  -4  381.29   90.67   4     0.9
  -8  -1  -4   92.33   15.47   4    1.58
 -18  -2  -5  545.68  105.13   4    0.94
 -24  -1  -6  438.91  130.97   4    0.76
 -10   0   0 1719.85   35.19   4    2.22
 -13  -1   3  1514.2   36.94   4    1.74
 -10   0   1 1255.34   32.07   4    2.29
 -10  -1   1 1034.85   29.18   4    2.19
 -17  -1   3 1967.46   67.67   4    1.35
  -8   0   0   781.7   23.16   4    2.77
 -12   0   2 1169.63   34.95   4    1.93
 -13  -1   1 1069.87   37.05   4    1.72
 -14   0  -1  946.71   38.34   4    1.52
 -17  -1  -1 1563.59   62.31   4    1.25
 -14   0   3  991.67   37.13   4    1.65
  -9   0   2  598.96   21.05   4    2.57
 -13  -1  -1  972.83   34.22   4     1.6
 -17  -1   1 1598.18   64.76   4    1.32
 -11  -1  -1  608.82   23.56   4    1.85
 -18   0  -1 1473.67   71.82   4     1.2
 -18   0   4 1266.42   61.74   4    1.29
 -11  -1   1  552.63   25.28   4    2.01
 -14   0   0  687.74   37.43   4    1.59
 -18   0   1 1518.97   73.19   4    1.26
 -14   0   1  849.75   39.61   4    1.63
 -12  -1   2  561.73   28.48   4    1.87
 -16   0   2  614.72    47.4   4    1.44
  -6   0   1  458.11    18.2   4    3.85
  -9   0   1  394.53    19.3   4    2.55
 -12  -1  -1  411.94   23.89   4    1.72
 -20  -1   3 1326.88   84.97   4    1.15
 -15  -1   1  583.25   42.95   4     1.5
 -12  -1   1  407.05   25.15   4    1.85
 -20   0   4 1193.59   81.09   4    1.16
 -21   0   2 1018.94   97.96   4    1.09
 -18   0   3  833.94   60.87   4    1.29
 -13   0   2  334.26   28.39   4    1.78
  -6   0   0   278.3   14.45   4    3.69
 -20  -1   1  819.98   85.56   4    1.13
 -20  -1  -1  776.36   80.55   4    1.08
  -5   0   1  165.24   11.51   4    4.62
  -7   0   1  229.91   13.72   4     3.3
 -11  -1   2  207.08   19.61   4    2.03
 -21  -2   2 1107.86  104.62   4    1.05
 -14  -1   1  372.03   31.33   4     1.6
 -19  -1   1   726.7   74.69   4    1.19
 -18  -1   0  290.87   48.65   4    1.22
 -15   0   3   333.6   37.41   4    1.54
 -12   0   0  192.84   21.57   4    1.85
 -12   0  -1  116.53   18.68   4    1.77
  -4   0   0    85.7    9.16   4    5.54
 -13   0   1  227.22   30.25   4    1.76
 -12   0   1  169.16      22   4    1.91
 -20  -1   4  671.72   75.24   4    1.15
 -11   0   1  124.47   18.37   4    2.08
 -24  -1   4  771.82  123.24   4    0.96
 -22   0  -1  629.05  113.43   4    0.99
 -21  -2   0  122.96    37.2   4    1.02
 -26  -2   6   193.4   58.39   4    0.87
 -11   0  -1  140.72   17.93   4    1.92
 -27  -1   3  930.35  189.07   4    0.85
 -22   0  -2  217.49   44.87   4    0.96
 -32   1   7  434.96  123.13   4    0.71
  -6   1   8 1693.11   28.32   4    1.74
  -7   2   6 1389.32   27.16   4    1.69
  -3   1   6  750.55   15.08   4    2.05
  -6   2   7  942.15   24.02   4    1.56
  -6   3   8 1400.29   39.07   4    1.11
  -8   2   8  916.72   27.14   4    1.46
  -5   1   8  651.75    20.2   4    1.72
  -3   1   5  431.75   11.51   4    2.42
  -4   2   7  510.32   17.93   4    1.43
  -7   2   9  919.82   32.87   4    1.35
  -3   1   7  347.17   12.91   4    1.76
  -2   1   3  191.08    6.47   4    3.13
  -5   2   6  348.18   15.44   4    1.65
  -6   2   6  389.93    15.4   4    1.69
  -7   2  10  853.42   37.07   4    1.24
  -6   2  12  895.15   46.95   4    1.03
  -9   2  13 1366.29   73.52   4    1.03
 -10   2  12 1009.51   55.27   4     1.1
  -8   3   8  613.97      35   4    1.17
 -10   2  13 1136.37   63.27   4    1.04
  -9   2  12   747.5   51.86   4     1.1
  -7   2   7  357.71   21.08   4    1.57
  -8   3   9  603.86   38.82   4    1.11
  -6   3   7  299.12   23.59   4    1.17
  -5   1   6  177.35    9.79   4    2.21
  -5   2  12  476.15   47.97   4    0.98
  -6   2  10  370.58   26.87   4    1.21
  -6   2   8  243.64   19.66   4    1.43
  -9   3  14 1057.12   91.92   4    0.85
  -9   4  13  1186.4   91.18   4    0.77
  -5   2   8  266.64   19.69   4    1.38
 -13   3  13  784.52   76.83   4    0.92
  -7   3  16 1703.15  143.09   4    0.72
 -11   3  16 1340.07  120.06   4    0.79
 -10   4  13  967.45  111.36   4    0.79
  -9   3  11   596.8   59.63   4    1.01
 -10   4  12 1096.86  103.11   4    0.83
  -8   2   9  151.64   19.32   4    1.36
  -7   3   9  307.75   34.94   4    1.09
 -11   3  10  453.28   42.04   4    1.07
 -11   2  15  503.32   72.04   4    0.92
  -8   3  15  516.36   73.64   4    0.78
 -10   3  10  302.37   43.79   4    1.07
 -10   3  11  493.17   50.27   4    1.02
  -8   2   7   53.16   11.56   4    1.57
 -12   2  18  826.98  101.99   4    0.78
  -3   1   4   50.04    5.75   4    2.87
  -4   2   0 2400.91   23.85   4     1.7
  -2   2   3 2094.05   21.05   4    1.44
  -5   3   2 3556.54   44.26   4    1.19
  -3   3   2  3298.5   47.58   4    0.87
  -3   3   5    2994   49.35   4    0.96
  -1   1   1  360.81    5.98   4    2.79
  -3   2   2  794.26   13.89   4    1.75
  -3   3   1 2396.79   49.28   4    0.78
  -6   3   0 1518.64   33.57   4    1.14
  -3   2   3  617.95   13.22   4    1.74
  -2   3   4 2029.07   49.31   4    0.76
  -2   2   1  336.35    9.81   4    1.24
  -3   4   6 3638.74  107.43   4    0.62
  -5   3   3  716.83   22.95   4    1.22
  -7   4   2 1655.48   60.72   4    0.89
  -5   3   1  531.49   23.55   4    1.13
  -6   5   8 3422.93  137.79   4    0.63
  -3   2  -1  212.05     9.9   4    1.13
  -6   3  -1  463.35   25.67   4    1.03
  -7   4  -2 1983.42  102.67   4    0.65
  -2   1   0  165.52    5.86   4     3.4
  -3   2   1  194.53    8.38   4    1.65
  -5   3  -1  526.84   32.72   4    0.91
  -4   3   1  458.63   24.19   4    0.98
  -6   3   1  373.97   21.36   4    1.22
  -4   3   0  414.52   29.34   4    0.87
  -4   4   4 1103.54   60.67   4     0.7
  -4   3   2  325.24   20.25   4    1.06
  -6   5   4 1952.24  123.83   4    0.61
  -7   5   7 1386.26  107.61   4    0.68
  -1   2   4   98.16   11.98   4    1.04
  -4   3  -1  548.12   46.37   4    0.74
  -8   5   3 1378.65  108.75   4    0.69
  -6   4   1  729.19   60.66   4    0.78
  -7   4   1  597.85   50.91   4    0.85
  -8   4   1  588.51   51.68   4     0.9
  -4   4   3  834.98    56.2   4    0.67
  -5   4   6  562.96   48.89   4     0.8
  -7   4  -1   627.6   74.76   4    0.73
 -10   5   2  914.89  106.06   4    0.74
 -10   6   0 1649.65  194.21   4    0.51
  -4   5   8 1127.86  136.34   4    0.51
  -5   4   1  338.53   57.05   4    0.68
 -10   5   1   716.5   78.04   4    0.71
  -2   3   3  302.43   29.04   4    0.72
  -8   4  -1  597.33   61.31   4    0.79
  -5   5   8     855  123.94   4    0.57
  -6   4   4  305.35   36.79   4    0.88
  -6   5   5  709.85  106.35   4    0.63
  -6   4  -1   621.2    84.5   4    0.65
  -4   4   7  442.21   57.18   4    0.71
  -4   3   5   77.13   14.28   4     1.1
  -6   5   2  456.98    85.2   4    0.56
  -7   6   5  423.36   91.31   4     0.5
  -7   6   7   454.6   86.54   4    0.52
  -6   4   5  150.56   26.42   4    0.88
  -8   5   1  391.05   75.62   4    0.64
  -8   5   7  476.28   72.36   4    0.72
  -9   5   2  435.81   71.85   4    0.71
  -2   3   5  115.19   22.59   4    0.78
 -10   3  -1 1369.25   41.88   4    1.16
  -8   2  -1  654.87   21.67   4    1.65
 -10   2  -1  942.25   31.42   4    1.54
 -12   2  -4 1265.46   50.33   4    1.11
  -7   2  -1  480.39   17.12   4    1.68
  -9   2  -2  694.84   26.27   4    1.46
 -13   3  -3 2126.13    82.3   4    0.98
  -5   1  -1  408.89   12.89   4    2.83
  -8   1  -1  451.73   16.43   4    2.23
 -12   2   0  741.35   33.89   4    1.47
  -8   2   0  419.07   18.21   4    1.78
 -12   2  -2  733.41   40.39   4    1.32
 -11   2  -1  418.92   27.55   4    1.47
  -7   1  -1  255.16   13.22   4    2.42
 -17   3  -3 1293.67   83.76   4     0.9
  -6   1   0  238.94    11.3   4    2.93
 -17   2  -5 1176.85   96.96   4     0.9
 -14   3  -1  491.95   50.83   4    1.07
 -12   2  -1  381.15   32.93   4     1.4
 -11   2  -3  456.41   39.45   4    1.25
  -6   1  -1  111.79    8.87   4    2.63
  -9   2  -1  118.13   13.14   4     1.6
 -13   3  -1  336.99    42.7   4    1.11
 -17   3  -1  463.93   61.21   4    0.99
  -4   1   0   84.66    6.35   4    3.55
  -8   1  -2  110.25   12.89   4    1.98
  -7   1  -3   36.46    4.96   4    1.76
 -13   2  -2  173.06    28.7   4    1.26
 -14   4  -1   364.7   51.66   4    0.88
 -17   5  -3  402.35   90.54   4    0.66
 -16   2  -6  175.23   36.06   4    0.87
 -17   5  -1   319.9   84.12   4    0.72
 -21   4  -6  903.14  153.06   4    0.63
 -18   4  -1  258.69   62.53   4    0.83
 -21   4  -5  758.91  112.79   4    0.66
 -20   3  -3   396.4   74.69   4    0.83
 -18   4   0   458.1   71.64   4    0.85
  -3   1   0    6.29    1.63   4    4.15
 -11   1   3   848.1      30   4    1.93
  -8   1   3  677.36    22.5   4    2.47
 -10   2   5  458.66   25.86   4    1.64
 -11   1   4  610.17   27.27   4    1.89
 -15   2   7  1297.5   66.49   4    1.26
 -10   2   4  498.58   24.93   4    1.69
 -12   2   4   739.6   38.75   4    1.54
 -13   1   4  469.35    31.5   4    1.66
 -14   1   6  758.64   45.82   4    1.49
  -6   1   2  244.27   13.42   4    3.07
 -16   3   6  883.52   73.67   4     1.1
  -7   1   4  171.44   13.65   4    2.52
  -5   1   3  104.34    8.37   4    3.15
 -16   3   5  651.71   74.06   4    1.11
 -11   2   3  212.13   22.08   4    1.64
 -10   1   3  173.81   17.17   4    2.09
 -16   2   6  457.75   53.44   4    1.23
 -21   2   6 1014.87  102.22   4    1.01
  -9   1   5  188.24   22.17   4    2.07
 -16   1   7  477.23   52.13   4    1.31
 -14   2   5  205.44   33.14   4    1.37
  -8   1   2   72.91    9.27   4    2.53
 -13   2   6  386.75   36.59   4     1.4
 -11   1   6   57.54   14.68   4    1.75
 -12   1   4   78.68   15.38   4    1.77
  -8   3   1 1188.93   30.33   4     1.3
  -7   2   2  783.89   20.46   4    1.98
  -9   3   2 1294.89   37.86   4    1.34
  -8   3   5 1106.26   34.74   4    1.32
  -7   2   3  617.67      19   4    1.96
  -6   2   1  395.82   15.55   4    1.98
  -6   2   3  451.25   16.35   4       2
  -5   2   3  406.04   15.04   4       2
  -7   3   5  513.62    26.5   4    1.31
 -11   3   3  919.38   38.67   4     1.3
 -10   3   5  819.92   37.95   4    1.31
  -7   2   1  378.17   15.91   4    1.94
  -8   2   3  313.05   16.61   4    1.89
  -6   2   4   230.1   13.43   4    1.92
  -9   3   3  406.11   27.92   4    1.35
 -11   4   7  828.53   58.53   4    0.99
 -11   3   7  421.52   35.95   4    1.21
 -15   4   7 1283.61   94.71   4    0.95
  -5   2   1  112.58    8.19   4    1.97
 -12   4   4  711.47      64   4    1.02
 -11   3   4  470.16    37.2   4     1.3
  -8   2   4  184.65   16.71   4    1.84
  -3   1   2   128.6    7.82   4    3.84
 -14   5  10 1166.43  130.67   4    0.77
 -10   3   2  294.25   25.88   4    1.32
 -12   4   2  532.45   50.95   4    0.99
 -10   3   3  268.46   28.14   4    1.33
  -3   1   1   90.52    6.83   4    4.05
 -17   4   5  892.82   91.71   4    0.93
  -8   3   3   119.3   14.98   4    1.36
 -11   4   1  277.33   33.07   4    0.97
 -13   4   8  554.15   60.18   4    0.96
 -18   4   4  646.81   86.15   4    0.91
 -12   3   4   90.56   16.63   4    1.27
 -12   3   5  135.43   24.89   4    1.25
 -17   5   4  603.04  111.97   4     0.8
  -9   3   4   50.62   18.34   4    1.34
  -9   3   5  299.13   31.84   4    1.32
 -22   6   9  500.19  134.47   4    0.65
 -20   5   5   355.3  103.14   4    0.76
   3   0  -6 3292.23   40.35   5    3.14
   4   0  -8 2704.27    38.2   5    2.35
   5   0  -6 2307.44    33.5   5    2.74
   7   0 -10 2841.73   45.43   5    1.75
   6   0 -15 5242.63   83.17   5    1.28
   6   0 -11 2870.28   46.44   5    1.69
   9   0 -13 4049.01   72.74   5    1.35
   4   0  -6 1521.51   27.47   5    2.96
   7  -1 -14 1908.96   52.49   5    1.24
   6   0 -12 2288.01    46.4   5    1.57
   4   0 -10 1561.77   31.91   5    1.92
   5   1 -12 1758.67   36.83   5    1.65
   9   0 -12 2321.38   52.06   5    1.43
   4   0  -7 1168.38      25   5    2.63
  10   0 -12 2541.96   56.86   5    1.37
   8   0  -9  1216.1   31.28   5    1.77
   7   0  -9 1103.55   29.04   5    1.88
   7   1 -17 3103.37   80.11   5    1.17
   7   0 -11 1259.19   35.91   5    1.64
  10   0 -13 1874.93   57.92   5    1.31
   7   1 -14 1824.15   53.63   5    1.39
   5   0 -12 1149.41   35.77   5     1.6
   6   0  -9  944.62   25.53   5    1.97
   7  -1 -17 3316.81   93.37   5    1.06
   9   1 -14 1905.67   60.32   5    1.32
  11   1 -12 1433.89   48.24   5    1.35
   9  -1 -14 1928.96   61.63   5    1.19
   6   0  -8  606.55   21.56   5    2.14
  13   0 -14 2179.79      90   5    1.12
  10  -1 -12 1095.51   41.29   5    1.25
   3   0  -8  478.63   16.55   5    2.41
  10   1 -12 1136.36   41.67   5    1.41
   5   0  -8  501.58   18.18   5    2.26
  10   1 -11  961.84   37.65   5    1.48
   8   1 -11   741.3   30.72   5    1.62
   9   0 -14 1427.04   53.78   5    1.28
   5   0 -13  863.21   33.56   5    1.48
   8  -1 -15 1244.62   56.28   5    1.15
   7  -1 -16 1404.79   57.75   5    1.11
   8   1 -15 1114.19   51.12   5    1.28
   9  -1 -15 1119.64   57.93   5    1.13
   7   1 -16  1330.5    54.9   5    1.23
   8   1 -10  580.69   25.37   5    1.72
  11   1 -16 1724.69   80.15   5    1.13
   2   0  -4  398.68    15.3   5     4.7
   9   1 -10  553.93   24.06   5    1.64
   5   0  -7   343.2      16   5    2.48
  13   1 -14 1281.43   65.42   5    1.15
   7   1 -12  602.76   29.59   5    1.58
   9   1 -11   609.3   29.23   5    1.55
   7   1 -11  471.26   25.18   5    1.68
   8   0 -10  421.96   24.03   5    1.67
  13  -1 -14 1347.37   72.93   5    1.04
   8   0 -13   709.3   37.22   5     1.4
   9   1 -15 1000.54   55.63   5    1.25
   8   0 -12  477.99   29.18   5    1.48
   4   0  -9  348.81   17.77   5    2.12
  10   0 -11  539.81   31.58   5    1.44
  14   0 -15 1646.95   83.35   5    1.04
   7   1 -18 1081.39    68.2   5     1.1
  11   1 -14  889.38   64.07   5    1.24
  10  -1 -14  745.58    54.2   5    1.15
   8   0 -18 1623.33    89.2   5    1.06
  11  -1 -14  848.24   56.02   5    1.12
   6   0 -13  705.59   37.98   5    1.47
  11   0 -15  972.23   60.49   5    1.15
  11   1 -20 1931.51  146.29   5    0.95
   7   0  -8   241.2   16.85   5    2.01
  14  -1 -16 1397.22  100.77   5    0.95
   3   0  -7  145.29   10.58   5    2.73
   7  -1 -18 1061.18   76.13   5    1.01
  10  -1 -13  477.29   42.68   5    1.21
  10   0 -16  855.52   56.81   5    1.13
  10   1 -14  595.98   47.26   5    1.28
   3   0  -5  179.74   10.91   5    3.64
  12   0 -13  454.97   43.85   5    1.21
   8   1 -13  331.87   32.51   5    1.44
   8  -1 -13  347.69   35.23   5    1.28
   7   0 -14  436.19   42.51   5    1.35
  10   0 -19 1119.97  104.76   5    0.98
  14  -1 -20 1823.01  180.74   5    0.83
  11  -1 -18 1068.88   89.51   5    0.95
  11  -1 -20 1379.28  126.41   5    0.88
   6   0 -10  216.89   18.06   5    1.82
  10   1 -17  345.37   47.98   5    1.11
  13   1 -15  602.07   57.94   5    1.11
  11   0 -17  790.61   73.43   5    1.05
  14   1 -20 1100.11  127.48   5     0.9
  13  -1 -15  436.51   51.49   5    1.01
   9  -1 -17   657.2   61.05   5    1.03
   8  -1 -16  579.54   55.75   5    1.12
   2   0  -3  131.96    9.92   5    5.91
  10   0 -15   361.9   43.07   5    1.19
   5   0  -9  126.17   15.62   5    2.06
  14   0 -17  952.69  116.03   5    0.97
  10  -1 -22 1391.46  139.72   5    0.82
   6   0 -14  312.06   35.08   5    1.37
  12   1 -15  296.66   53.68   5    1.15
  10   1 -13  392.21   34.97   5    1.35
   6  -1 -16  385.13   39.23   5    1.12
  13   0 -22 1167.56   149.4   5    0.83
  10   0 -22  607.16  121.86   5    0.87
   9   0 -21  824.98  130.92   5    0.91
  12  -1 -15  319.75   59.44   5    1.04
  16  -1 -20  813.58  118.86   5     0.8
  13   0 -24 1485.98  188.94   5    0.78
   7  -1 -13  193.57   23.86   5    1.31
  14  -1 -22 1359.63  200.02   5    0.78
  10   1 -23 1114.69  128.32   5    0.85
  10  -1 -17  249.21   53.09   5    1.01
  12   0 -16  300.01   66.68   5    1.07
  11   0 -14  484.48   61.39   5     1.2
   6   1 -13   104.8    17.2   5    1.51
  11   0 -13  186.03   29.55   5    1.26
   9  -1 -19  469.16   74.24   5    0.94
  13   0 -17  319.52   62.64   5       1
  17   0 -19  826.31  137.97   5    0.84
  14   1 -22 1150.21   180.2   5    0.84
  10  -1 -23  825.56  131.42   5    0.79
  11   1 -17   363.3   59.75   5    1.08
   7   1 -13   126.1   23.59   5    1.48
   6   0  -7   63.87    9.51   5    2.32
  10  -1 -19  949.41   122.8   5    0.93
  14  -1 -24 1341.55  237.36   5    0.74
  11  -1 -17  317.65   74.02   5    0.99
  14   1 -24 1169.49  170.44   5    0.78
  13   2 -24  910.93  161.76   5     0.8
  17   1 -22   927.4   190.4   5    0.79
   7   0 -15  140.85   40.33   5    1.27
   9   0 -19  210.39   65.57   5       1
  11   1 -22  818.74  138.84   5    0.88
  11   2 -24  702.37   95.34   5    0.82
  11   0 -24 1105.64  179.42   5    0.79
   9   1 -19  433.72    72.2   5    1.03
  11   1 -23  682.51  116.28   5    0.85
  17   2 -21   375.6   99.33   5    0.82
  12   1 -17  174.25   45.52   5    1.06
   6  -1  -8  5423.3    57.5   5    1.83
   7  -2  -6 4944.65    53.1   5    1.36
   2  -1  -4  1993.3   24.07   5    2.85
   7  -1  -7  2817.3   40.97   5    1.82
   6  -2  -7 2495.13   39.84   5    1.42
   4  -1  -8 2093.61   33.23   5    1.96
   2  -2  -8 1564.49   27.97   5    1.37
   3  -1  -6 1594.95   26.51   5    2.38
   8  -2  -8 2936.01   52.52   5    1.29
   4  -2 -11 3093.73   57.06   5    1.26
   5  -1  -8 1698.24   32.01   5     1.9
   3  -1  -5 1118.24   21.34   5    2.59
   3  -2  -9 1686.79    34.8   5    1.36
   7  -2  -9 2118.34   47.15   5    1.31
   6  -2  -6 1165.21   26.55   5    1.42
   8  -1  -8 1731.06   35.79   5    1.64
   3  -2 -10 1624.58   37.19   5     1.3
   2  -1  -3  413.34    9.82   5    2.96
   9  -2  -8 1969.14   50.63   5    1.24
   4  -2  -7  870.45   23.37   5    1.47
   6  -1  -7  988.65   25.61   5    1.94
   5  -2  -6  823.17   21.35   5    1.46
   6  -2 -12  2075.3   56.96   5    1.19
   7  -2 -10  1676.8   48.28   5    1.27
   9  -2 -13 2688.35   82.33   5    1.09
   7  -1  -8  818.04   24.88   5    1.73
   4  -1  -9  753.43   23.79   5    1.81
   6  -2 -15 2613.39   80.74   5    1.04
   5  -3 -12 2328.12    76.1   5    0.95
   3  -1  -7  595.38   18.02   5    2.17
  10  -2 -12 2144.53   74.62   5    1.09
  13  -3 -11 4844.78  156.67   5    0.84
   7  -2  -7  812.24   30.21   5    1.36
   5  -1  -6  499.97   17.12   5    2.18
   9  -2 -12 1833.03   67.99   5    1.12
   6  -1  -6  572.43   19.47   5    2.04
   7  -3 -10 1886.18    71.5   5    0.98
   3  -2  -8  515.12   20.89   5    1.41
  14  -2 -15 3390.86   138.3   5    0.89
   5  -2  -8  559.08   27.15   5    1.42
   5  -2 -11  916.67      50   5    1.26
   8  -3  -9 1639.13   69.39   5    0.97
   8  -2 -18 3338.97  128.53   5     0.9
   7  -3 -17 3576.76  159.33   5    0.83
   3  -1  -8  439.16   17.39   5    1.98
   6  -4 -15 3455.26  167.38   5    0.72
  11  -2 -15 2579.37  120.39   5    0.96
   6  -2 -10  756.67    36.9   5     1.3
   5  -2 -12  879.56   40.37   5     1.2
   9  -3  -8 1100.99   63.46   5    0.94
   2  -1  -6  304.19   12.13   5    2.39
   7  -3 -16 2860.48  132.42   5    0.85
   7  -3 -14 1997.05   101.3   5     0.9
   9  -4 -13 2766.41  137.38   5    0.74
   8  -2 -13 1069.06   59.73   5    1.11
   5  -3 -15 1706.56  100.42   5    0.87
  13  -3 -13 2511.53  140.08   5    0.83
   9  -3 -11  1037.7   70.18   5    0.94
   7  -2 -14 1452.92   81.82   5    1.06
   6  -2  -8  483.03   25.34   5    1.38
   4  -2 -12  565.56   37.34   5     1.2
  11  -3 -16 2747.96  151.75   5    0.82
   6  -4 -19 3950.43  234.22   5    0.66
   9  -3 -14 1996.49  116.67   5    0.89
  10  -4 -13 1950.82  134.05   5    0.73
  12  -2 -13 1176.19   84.37   5    0.99
  10  -4 -12 2277.39  158.22   5    0.73
  10  -3 -14 1587.25   109.6   5    0.88
   2  -1  -5  146.72    8.01   5    2.62
   5  -3 -16 1674.69  105.36   5    0.85
   8  -2  -9  474.36   32.49   5    1.27
  14  -3 -14 2508.34  156.49   5     0.8
   7  -2 -13  634.58    46.5   5    1.13
   7  -3 -18 2440.84  215.27   5     0.8
   4  -4 -15 1993.26  131.17   5     0.7
   9  -3 -15  1623.2  118.05   5    0.87
   8  -2  -7  270.27   26.88   5     1.3
   6  -3 -16 1554.22  104.41   5    0.85
  10  -2 -16  961.88   80.82   5    0.95
  14  -4 -11 2110.16  175.69   5    0.67
  10  -3 -11  984.22      80   5    0.92
  11  -3 -10 1015.75   75.37   5     0.9
  13  -2 -13 1101.65    85.5   5    0.96
   7  -2 -18  971.75   88.34   5    0.91
   6  -3 -11  555.39   58.96   5    0.97
  14  -4 -13 2185.61  205.51   5    0.68
   7  -5 -17  2584.7  222.58   5    0.58
   9  -3 -13  690.96   76.35   5    0.91
   7  -2  -8  269.23   24.19   5    1.34
   3  -1  -4  110.93    7.75   5    2.77
  11  -3 -12  912.94   97.09   5    0.89
   8  -3 -15  956.95   91.16   5    0.87
  14  -3 -20 1371.89  166.72   5    0.71
  11  -3 -11  746.06   84.19   5    0.89
  17  -3 -16 2033.78  241.12   5    0.72
  10  -3 -10  813.28   70.12   5    0.92
  14  -4 -15 1765.91  198.75   5    0.68
   4  -1  -7   128.9   12.56   5    2.13
  13  -4 -12 1636.37  163.82   5    0.69
   4  -3 -15  351.44   59.68   5    0.86
  12  -2 -14  411.07   68.72   5    0.97
   6  -3 -12  565.64   61.28   5    0.95
   6  -2 -13   359.3   44.78   5    1.14
  13  -2 -15   471.6   72.24   5    0.92
  11  -3 -18 1195.44  132.95   5    0.78
   5  -2  -7  170.09   20.21   5    1.46
  11  -3 -14  794.58  104.97   5    0.86
   7  -3  -9  381.42   48.27   5    0.98
   8  -4 -18 1537.98   169.2   5    0.69
  10  -3 -12   545.5   88.02   5     0.9
   7  -3 -20  1107.9  156.56   5    0.75
  10  -3 -23 1173.63  187.22   5    0.68
   6  -2  -9  221.29   27.23   5    1.34
   7  -2 -19  466.92   78.95   5    0.87
  11  -3 -20   936.5     159   5    0.74
  10  -2 -11   189.9   35.03   5    1.12
  15  -4 -13 1390.21  208.78   5    0.67
   5  -1  -4    9.29    3.22   5    2.36
   4  -2 -13  325.75   43.19   5    1.14
   4  -1  -5   40.29    7.13   5    2.47
   7  -2 -15  305.24   45.34   5    1.03
  15  -4 -12  711.46  136.69   5    0.67
  16  -3 -14  730.13  135.51   5    0.75
  10  -3 -13  431.55  105.16   5    0.89
  13  -2 -16  519.25   90.03   5    0.89
  14  -3 -12  755.22  114.95   5    0.81
  14  -3 -16  831.01  133.77   5    0.77
   7  -3 -12  316.43   53.15   5    0.95
   8  -2 -17  360.45   68.78   5    0.94
  12  -4 -18 1454.45  290.72   5    0.67
   6  -2 -14  106.93   29.25   5    1.08
   9  -4 -21 1012.99  206.26   5    0.64
  14  -2 -16  398.68   83.08   5    0.86
  16  -3 -20 1493.02  237.13   5    0.69
  12  -2 -12  365.13   53.66   5    1.02
   7  -3 -15  108.98    45.9   5    0.88
   7  -3 -21  550.78  149.72   5    0.72
   2  -2  -3 6069.74   42.56   5    0.98
   1  -1  -1 1692.76    9.14   5    1.16
  -1  -1  -3 1226.35    9.46   5    1.62
   2  -1  -1  622.61    6.58   5    1.79
   0  -2  -4 3646.81   39.15   5    0.87
   4  -2  -4 2279.21    26.4   5    1.36
   2  -2  -5 1987.14   24.33   5    1.37
   3  -2  -3 1870.01   24.18   5    1.12
   3  -1  -1   766.3    9.32   5    1.93
   3  -2  -2  3289.9    43.1   5    0.77
   6  -2  -3  2444.2   32.62   5    1.17
  -3  -2  -6 6319.19   85.87   5    0.62
   3  -3  -5 6991.82  100.11   5    0.72
   4  -2  -3 1674.52   24.47   5    1.18
   0  -1  -3  579.54    8.38   5    2.35
   5  -2  -3 1790.66   26.96   5     1.2
   4  -1   0  643.61   11.79   5    1.02
   0  -2  -6 1232.61   22.12   5    1.17
   3  -1  -2   678.6   11.16   5    2.62
   1  -3  -7 4806.39   87.37   5    0.76
   1  -1  -2  349.51    6.14   5    2.47
  -2  -2  -5 2657.16   53.37   5    0.64
   6  -2  -1 2855.16   58.29   5     0.7
   2  -2  -4   640.7   15.74   5    1.24
   1  -3  -5 5493.36  106.74   5    0.55
  -1  -3  -7 4347.84  103.65   5    0.58
   8  -3  -5 3513.75   78.33   5    0.83
   5  -3  -5 2734.21   65.54   5    0.82
   6  -3  -4 3351.75   82.62   5    0.73
   6  -2  -4  926.18   22.35   5    1.31
   4  -3  -8 2452.58    57.5   5    0.96
   7  -2  -1 2072.74   54.13   5    0.73
   5  -2  -2  989.93   26.37   5    0.95
   1  -2  -5  681.24   17.56   5    1.24
  -2  -2  -6 1293.56   33.51   5    0.81
   9  -3  -2 5661.02  156.26   5    0.53
   0  -3  -7 2644.05   77.63   5    0.68
   7  -4  -6 5772.24  178.64   5    0.58
  -1  -2  -5  680.48    24.4   5    0.86
   1  -2  -6  445.84   15.29   5    1.31
   6  -3  -5    1441   55.77   5    0.84
   2  -1  -2  180.74    5.67   5    2.72
   2  -3  -4  3216.2   99.55   5    0.48
  -1  -2  -6  420.61   19.53   5       1
   1  -2  -3  442.16   21.97   5    0.77
   5  -3  -3 1643.14   86.56   5    0.55
   8  -2   0 1783.11    90.5   5    0.51
   4  -4 -11 2743.38  120.38   5     0.7
   2  -3  -6 1144.92   58.39   5    0.76
   2  -3  -8  1235.2   53.32   5    0.88
   3  -2  -4   206.9   12.05   5    1.33
   1  -2  -4  159.91   11.06   5    1.08
   3  -4 -10 2218.51  117.35   5    0.66
   1  -4  -9    2593  156.03   5    0.54
   5  -2  -1  617.24   38.71   5    0.62
   0  -4 -12 3205.71  174.69   5    0.59
   3  -3  -6  491.01   43.37   5    0.82
   2  -3  -9  546.71    38.3   5     0.9
  -4  -2  -7  967.33   55.63   5    0.59
   1  -3  -9  854.57   51.57   5    0.85
   6  -3  -7   599.9   40.62   5    0.95
   7  -4  -9 1564.89  107.11   5    0.71
  -2  -3  -8    1149    84.3   5    0.57
  10  -3  -3 1266.81  102.49   5    0.64
   7  -4  -5 2394.02  167.26   5    0.51
   5  -3  -7  449.71   35.37   5    0.95
  11  -4  -7 2384.54  137.17   5    0.64
   1  -4 -13 1290.79  122.04   5    0.63
   8  -5  -9 3026.89  220.66   5    0.51
   3  -4  -9 1754.73  132.93   5    0.63
   7  -3  -2  903.22   97.97   5    0.48
  -1  -3  -9  760.08    60.3   5    0.71
   9  -4  -8 1457.12  120.93   5    0.68
   1  -4 -11 1380.55  122.84   5    0.61
  10  -4  -4  1653.5   190.6   5    0.48
  10  -4  -8 1126.74   107.8   5    0.67
  -2  -3  -9  856.42   81.22   5    0.63
  -1  -4 -11  1379.5  153.16   5    0.52
   7  -4  -7  1042.6  113.15   5    0.63
   4  -5 -10 2737.58  218.13   5    0.47
   4  -4  -7  814.16  114.97   5    0.56
   3  -5 -17 1453.11  210.27   5    0.54
   8  -3  -4  437.14   61.38   5    0.75
   8  -4  -9  657.06   80.72   5    0.71
   3  -4  -8  951.79  136.42   5    0.58
   3  -4 -11 1038.31  125.96   5    0.67
   9  -4  -7  465.12  109.41   5    0.64
   1  -3 -10  257.45   43.18   5    0.86
   7  -3  -6  195.42   34.96   5     0.9
  10  -3  -2 1022.35  122.54   5    0.54
   3  -5 -13 1710.41  228.58   5    0.52
   1  -2  -7    93.9   11.43   5    1.33
   3  -2  -5   77.74    9.23   5    1.43
  10  -4  -5  924.68  132.22   5    0.54
   0   2   011586.68   44.18   5     1.5
  -3   2  -2 3067.15   26.19   5    1.23
  -1   3  -2 4728.82   42.02   5    1.36
  -3   3  -2 7114.57   71.36   5    0.94
   0   4   017012.14  172.02   5    0.75
  -2   1  -1   752.6    7.69   5    1.65
   3   2   2 3968.72   47.78   5    0.82
   3   3   2 8869.48  109.62   5    0.72
   4   4   0 7055.72    91.8   5    1.01
   3   3   1  4541.5    65.8   5    1.04
  -5   3  -2 13164.4   184.1   5    0.54
  -1   1  -1  764.66   10.81   5    3.37
   2   2   0 1213.71   18.26   5    2.01
  -3   3  -1 5614.99   91.48   5     0.7
  -2   2  -1  729.01    15.5   5    1.24
   2   2   1  688.01   15.54   5    1.32
  -2   3  -2 1446.75    30.4   5    1.16
  -2   5  -4 5237.52  114.05   5    0.84
  -2   4  -3 2948.84    62.8   5    0.99
   1   3   2  6116.5  108.05   5    0.48
  -5   3  -3 2031.47   66.14   5    0.72
  -2   2   0  2027.2   43.25   5    0.65
  -2   3  -3  569.64   18.48   5    1.34
  -4   4  -4 2061.17   69.08   5    0.84
  -1   4  -2 1371.62    51.1   5    0.98
   2   4   0 1507.59   56.83   5    0.92
  -3   3  -3  519.54    23.6   5    1.12
  -3   4  -2 1878.28   78.56   5    0.74
   5   3   3 2096.21    95.5   5    0.58
  -5   4  -3 2722.01  133.73   5    0.62
   1   5  -1 2208.55  103.35   5    0.77
  -2   3  -1  578.91   35.51   5    0.91
  -4   4  -3 1712.66   82.41   5    0.74
   5   5   1 2890.14  136.97   5     0.7
  -6   5  -4 4001.76   208.3   5    0.53
   0   6   0 5940.85  285.15   5     0.5
   2   3   2 1599.28   75.58   5    0.61
  -7   6  -6 4615.79  261.51   5    0.51
   3   4   2 2280.31  132.54   5    0.61
  -3   4  -3  824.57   56.75   5    0.86
   5   4   3 2300.43  148.81   5    0.53
  -1   5  -1 2329.06  141.49   5    0.65
  -2   4   0 1421.58  123.63   5    0.54
  -1   5  -3  985.66   69.53   5    0.84
   4   3   2  610.12   46.94   5     0.8
   2   5   0 1230.27  112.43   5    0.71
  -6   5  -5 1805.88  172.84   5     0.6
   2   4  -1  315.91   31.24   5    1.08
  -2   7  -4  2826.9  232.92   5    0.57
   3   5  -1  608.17   75.47   5    0.86
   0   3  -1  132.59   17.13   5    1.31
   1   3  -1  161.69   14.09   5    1.46
   4   4   1  672.84   58.75   5    0.84
  -1   2  -1   75.42    6.77   5    1.72
  -4   6  -6    1274  149.38   5    0.67
  -4   3  -2  679.61   53.03   5    0.73
   2   5  -1  664.73   77.68   5    0.82
   1   5   1 1878.64  177.55   5    0.54
   0   5   1 1711.99  193.88   5    0.48
   4   6   0 1464.74  163.54   5    0.64
  -5   6  -6 1815.14  185.26   5    0.62
  -1   3  -1  136.72   20.19   5    1.12
   3   7  -2 1946.37  219.23   5    0.62
  -6   4  -4  708.89   82.38   5    0.61
  -3   6  -2 2083.17  285.74   5    0.51
   1   6  -2  223.67   64.03   5     0.7
   5   6  -1  419.59  100.11   5    0.73
   1   7  -2 2183.49  255.78   5    0.57
  -3   7  -5 1533.66  225.38   5    0.57
  -2   5  -1  709.04  122.94   5    0.58
  -3   4  -4  149.49   33.43   5    0.96
  -2   2  -2   37.39    6.84   5    1.68
  -3   5  -5  330.44   51.79   5    0.83
   5   7  -1 1188.19  218.44   5    0.61
   1   3  -2 3847.42   40.27   5    1.68
   3   3  -2 4002.97   47.98   5     1.8
   1   3  -5    3381   47.58   5    1.91
   1   3  -3 2552.95   37.04   5    1.83
   3   4  -6 4791.61   73.52   5    1.49
   0   4  -4 2721.57   49.88   5    1.28
   2   3  -4 2339.47   41.03   5    1.97
   2   2  -3 2009.53   35.13   5    2.98
   2   5  -4 4559.77   85.75   5    1.06
   0   3  -3 1451.22   26.95   5     1.7
   3   6  -6 9013.19  172.02   5    0.94
   2   5  -8 3975.92   85.46   5    1.16
   2   4  -3 1979.48   43.53   5    1.33
   2   3  -2 1055.66   23.54   5    1.77
   6   5  -4 3772.43   88.97   5    1.11
   5   4  -3 2029.97   48.19   5    1.37
   3   4  -2 1617.85   41.12   5    1.27
   0   4  -6 1707.49   43.75   5    1.36
   2   5 -10 3480.29   89.56   5    1.14
   0   6  -8 5247.38  144.56   5     0.9
   4   4  -3 1173.38   37.43   5    1.38
   7   6  -6 5141.73  149.46   5    0.96
   4   4  -4 1417.32   43.66   5    1.45
   4   5  -8 2238.06   71.93   5    1.19
   3   5  -6 2026.32   68.75   5    1.16
   7   5  -7 2430.71   75.35   5    1.17
   2   2  -1  440.35   13.33   5    2.56
   1   2  -2  504.36    15.3   5    2.81
   5   5  -2 1716.26   72.35   5    0.99
   0   6  -6 3308.34  133.56   5    0.85
  -1   5  -7 1762.99   71.24   5    1.03
   0   1  -1  532.05   15.12   5     5.1
   2   3  -3  516.89   19.84   5     1.9
   1   4  -6     872   35.04   5    1.42
   1   6  -9 3051.01  127.65   5    0.93
   1   5  -7 1454.66   63.81   5    1.12
   3   4  -3  706.84   33.52   5    1.37
   6   5  -5  1413.1   69.08   5    1.15
   3   6  -9 2307.67  115.61   5    0.98
   2   4  -6  644.39    32.4   5    1.46
   2   4  -5  695.86   34.63   5    1.45
   0   5  -7 1352.42   65.07   5    1.08
   0   2  -2  222.26    9.87   5    2.55
   0   5  -5 1164.63   62.39   5    1.02
   3   3  -3  400.03   20.69   5    1.93
   3   6 -10 1913.49  111.45   5    0.97
   4   6 -11  1650.3   98.47   5    0.98
   1   5  -6  738.22   55.37   5    1.11
   6   7  -4 2871.88  177.73   5    0.75
   5   6  -3 1652.62   99.15   5    0.85
   1   2  -3  299.07   13.96   5    2.92
   4   7  -8 2601.49  188.64   5    0.82
   5   6  -6 1449.04  100.86   5    0.96
   1   1  -1     374   18.77   5    5.77
   1   3  -4   308.4   18.08   5     1.9
   2   4  -7  348.84    30.7   5    1.46
   6   4  -5  666.32   37.66   5    1.45
   1   6 -11 1161.87  103.96   5    0.93
   6   5  -7  674.85    50.3   5    1.19
   3   8  -6 2674.66  249.25   5    0.65
   3   5  -7  622.32   48.07   5    1.18
  -1   6  -6 1219.53   107.5   5    0.81
  -1   5  -6  766.22   57.96   5       1
   1   5  -8  557.39    48.3   5    1.13
   7   6  -5 1325.56   93.97   5    0.93
   4   5  -3  870.43    63.2   5    1.05
   1   6  -6 1589.34  107.68   5    0.89
   7   6  -7 1595.83  109.75   5    0.98
   4   7 -10 1653.18  149.35   5    0.84
   5   5  -4  438.11   50.06   5    1.12
   8   7  -9 2057.53  175.38   5    0.85
   5   5  -6  414.07   48.68   5    1.18
   3   5  -5  513.25   47.62   5    1.14
   4   6  -8 1159.07   94.43   5    0.99
   0   7  -7 2189.41  169.83   5    0.73
   6   7  -8 2096.27  161.92   5    0.84
   0   7 -11 1989.68   160.6   5    0.78
   2   3  -5  194.03   14.95   5    1.97
  -1   7  -7 1533.39  170.37   5     0.7
   4   6  -3 1536.15  104.84   5    0.84
   7   6  -9  713.62   96.37   5    0.99
   7   8  -6 2048.33  217.26   5    0.69
   4   6  -6 1040.64  104.17   5    0.95
   2   6  -8 1067.84   99.38   5    0.95
   1   7  -7 1352.48  160.29   5    0.76
   4   4  -6  184.56   25.66   5    1.49
   4   6  -7  665.17   89.89   5    0.97
   9   6  -8  680.38   80.58   5    0.97
   4   6 -10  450.12   73.39   5    0.98
   3   5  -9  419.68   43.13   5    1.17
   2   6  -6  347.51   64.32   5    0.92
   3   4  -4  180.61   29.41   5    1.44
   8   7  -5 1573.37  164.95   5    0.78
   5   4  -4  190.83   24.63   5    1.44
   7   7  -4  948.77  154.32   5    0.75
   2   7  -8  911.13     131   5    0.79
   2   7 -10 1087.46  156.76   5    0.81
   3   7  -5 1321.97  153.46   5    0.75
   5   4  -5  131.15   25.84   5    1.47
   5   7 -12  776.23  103.79   5    0.84
   4   8 -15  752.56  191.97   5    0.72
   8   7  -8  942.94  195.02   5    0.84
  -1   8  -9  725.48  168.41   5    0.64
  11   8  -9  1188.8  210.04   5    0.72
   6   6  -8  220.53   49.71   5    0.99
   3   2  -6 2991.77   42.42   5    2.55
   5   3  -5 1965.36   33.58   5    1.91
   4   2  -4 1584.31    27.6   5    2.73
   6   3  -8 2502.74   46.22   5    1.72
   6   2  -7 1962.15   37.19   5    2.13
   2   3  -8  919.11   26.14   5    1.78
   4   3  -8 2118.28   42.15   5    1.79
   4   3 -10 2363.89    48.3   5    1.62
   2   2  -5 1358.64   28.05   5    2.76
   2   1  -4 1407.96   31.16   5    4.29
   3   4 -10 1886.11   48.91   5    1.37
   4   4 -11 2312.43   60.27   5    1.33
   5   3 -12 1881.21   49.61   5    1.45
   8   5  -9 2760.02   76.05   5    1.15
   7   4  -9 1764.31   51.85   5    1.38
   6   4 -15 3206.19   90.82   5    1.14
   2   2  -6   812.1      22   5    2.57
   3   4  -9 1394.64    39.9   5    1.42
   8   3  -9 1489.04   45.06   5    1.55
   7   3 -10 1384.53   44.16   5    1.54
   7   4 -10 1885.73   59.97   5    1.34
   7   3  -7  989.38   30.92   5    1.71
   6   4  -7  973.74   33.45   5    1.45
   4   2  -7  812.08   25.54   5    2.31
   9   4 -13 2172.33   77.62   5    1.18
   5   2  -6  745.29   22.97   5    2.37
   4   5 -11 2047.76   68.13   5    1.14
   2   2  -4  449.83   14.75   5    2.92
   9   4 -12 1808.56    70.3   5    1.22
  10   4 -12 1805.75   70.16   5    1.18
   6   3  -7  614.82   25.08   5    1.78
  10   4 -13 1815.64   76.96   5    1.15
   9   3 -11   970.3   41.76   5    1.39
   3   3 -10  632.44   25.56   5    1.62
  10   3 -11  879.14   43.52   5    1.34
   8   4  -8  693.49   35.12   5    1.37
   7   4  -7   768.7   33.07   5    1.42
   5   2  -8  488.06   20.84   5    2.09
   3   3  -6  443.32   18.57   5    1.95
   1   1  -3  483.55   18.31   5    5.12
   3   4 -11  731.13   35.68   5    1.33
   5   3  -9  601.55   29.02   5    1.69
   6   4 -11  722.06   44.11   5    1.32
   3   2  -8  420.04    18.3   5    2.18
   4   4  -8  560.06   32.93   5    1.46
   7   5 -17 2559.54  134.37   5    0.96
   5   3  -7  497.23   24.17   5    1.83
   5   4 -12 1036.83   54.37   5    1.28
   5   5 -12 1323.69   66.64   5    1.12
   2   1  -3  408.61   17.24   5    4.94
   7   5  -9  724.91    47.4   5    1.17
   5   4  -8  520.39   30.83   5    1.45
   8   4  -9  785.88   42.36   5    1.34
   7   5 -11 1024.14    77.4   5    1.14
   4   4 -12  719.88   44.38   5    1.29
   7   3  -9  358.19   25.32   5     1.6
   9   5 -14 1479.92   94.79   5    1.03
   6   6 -15 2596.07  154.59   5    0.92
   3   2  -4  193.35   11.38   5    2.86
   6   3 -11  575.15   34.51   5    1.51
   5   3 -10  328.04   29.09   5    1.61
  11   5 -12 1198.47   85.29   5    1.04
   5   3 -14  448.18   34.31   5    1.31
   3   3  -8  283.93   20.78   5     1.8
   1   1  -2  198.98   11.19   5    5.82
  10   4 -16 1022.27   89.18   5    1.05
   4   6 -15 1385.12  109.32   5    0.91
   7   5 -14  898.11   76.87   5    1.06
  10   5 -10  618.75   62.76   5    1.09
   6   3 -12  450.64    36.3   5    1.43
   6   6 -19 1877.47   171.8   5    0.83
  10   6 -12 1266.63  105.69   5    0.94
   6   6 -12  911.45   82.08   5    0.97
  10   5 -11 1059.83   78.02   5    1.08
   5   3  -8  202.57   19.34   5    1.76
   8   5 -11  683.36   65.89   5    1.12
   2   1  -2  141.27    9.58   5    5.45
  13   5 -14 1071.76  119.79   5    0.95
   7   4 -11  476.99   47.54   5     1.3
   7   5 -16   617.4   74.23   5    0.99
  11   4 -15  554.74   67.36   5    1.06
   9   5 -11  569.13   60.89   5     1.1
   8   3 -10  246.41   29.57   5     1.5
   5   5 -10  241.56   39.98   5    1.17
   6   4 -13  387.45    51.3   5    1.23
   6   4 -10  344.43   33.69   5    1.37
  13   6 -13  819.68  110.96   5    0.88
   4   2  -9  120.66    14.1   5       2
   7   7 -17 1453.27  187.16   5     0.8
   5   5 -15   578.2   71.82   5    1.03
  14   5 -16 1241.39  129.69   5     0.9
   4   3 -12  244.24   30.91   5    1.46
   5   2  -7  158.65    14.7   5    2.23
   4   3  -6  114.11   18.14   5    1.92
   9   4 -14  624.61   74.75   5    1.14
   8   5 -15  603.65   80.87   5    1.01
   7   5 -18  1093.2  130.42   5    0.93
   4   4  -9   248.9   28.16   5    1.42
   3   2  -5   89.29   10.43   5    2.73
  11   5 -14  609.83   92.83   5       1
   9   6 -12  822.49   100.7   5    0.96
   3   3  -9  158.28   19.23   5    1.71
  13   5 -13  641.02   82.45   5    0.97
   7   3 -12  193.83   24.79   5    1.41
   9   7 -14  767.41  124.72   5    0.83
   5   5 -14  116.44   41.15   5    1.06
   5   3 -13  216.08   31.83   5    1.38
   5   4 -13  499.35   59.32   5    1.24
   7   4  -8  216.91   27.33   5     1.4
   4   2  -5   60.65   10.13   5    2.63
   7   5 -13  306.95   59.06   5    1.09
  14   6 -15  1003.3  146.09   5    0.84
   7   4 -18  516.83   72.16   5       1
   4   5 -12  479.47   65.35   5    1.12
  12   4 -13  628.99   70.23   5    1.09
  12   5 -15  428.03   83.52   5    0.96
  11   5 -16   702.8  104.21   5    0.95
  10   5 -22  773.74  167.36   5    0.81
  10   5 -12  601.81   73.59   5    1.06
   7   7 -16  982.57  119.77   5    0.81
   4   4 -13  116.84   25.11   5    1.23
   4   3 -11  184.77   24.35   5    1.54
  11   5 -11  226.49   54.12   5    1.05
   2   3  -7   48.91   10.03   5    1.86
   5   6 -17  543.72  112.61   5    0.88
  10   6 -16  645.96   116.2   5    0.88
   5   5 -13  278.54   57.67   5    1.09
   4   4 -10  181.53   27.28   5    1.38
  14   7 -14   555.9  115.08   5    0.77
   8   3 -12  137.11   32.09   5    1.38
   9   5 -15  122.36   46.31   5       1
   9   6 -19  529.16   157.6   5    0.84
   2  -1  -8 3183.57   34.08   5    1.97
  -2  -1 -10  3912.3   43.36   5     1.3
   0  -1 -11 4275.72   48.61   5    1.41
   2  -1 -10    3590   43.25   5    1.65
   0  -1  -7 1885.39   22.77   5    1.95
   1  -1  -7  1619.1   21.84   5    2.09
   3  -1 -10 2618.49   36.06   5    1.67
  -1  -1 -10 1891.58   30.21   5    1.42
   1  -1 -10  1820.9   31.22   5     1.6
   2  -2 -11 2131.29   41.03   5    1.21
   1  -1 -14 2645.03   55.43   5     1.2
   0  -2 -12 1928.94   45.49   5    1.06
  -1  -1 -14 2761.86   61.22   5     1.1
   0  -1  -9  896.91   21.01   5    1.65
   1  -2 -10 1192.34   30.78   5    1.22
   0  -2 -16 4299.37  105.89   5     0.9
   1  -2 -11 1359.08   33.35   5    1.17
  -1  -1  -8   585.3   14.91   5    1.63
  -4  -1 -16 3402.18   93.38   5    0.84
   0  -1 -13 1570.92   41.21   5    1.23
  -3  -1 -17 3283.13   97.06   5    0.85
   3  -2 -17 2819.14   87.98   5    0.93
   1  -1  -8  577.44   15.34   5     1.9
  -3  -1 -13 1481.25   47.96   5    1.02
   2  -1  -9   473.6   16.09   5     1.8
   1  -1  -6   285.7    9.97   5     2.3
  -1  -1  -9  429.41   15.45   5    1.52
   3  -3 -17 2917.62  110.44   5    0.79
   0  -2 -14 1500.75   55.08   5    0.98
   1  -1 -15 1213.53   45.31   5    1.12
  -3  -2 -17 2944.57  111.45   5    0.75
   4  -2 -19 1959.03  102.22   5    0.87
   1  -1  -9  415.68   15.93   5    1.74
  -3  -1 -14 1025.27   46.23   5    0.98
  -1  -2 -13  932.46   43.38   5    0.96
  -1  -1 -15 1213.43   53.04   5    1.04
  -1  -1 -13  723.78   31.39   5    1.17
   1  -1 -13  657.62   31.02   5    1.28
   1  -2 -13  877.27   39.99   5    1.06
   0  -3 -19 3223.99   153.4   5    0.69
  -1  -2 -17  1792.2   90.36   5    0.83
   1  -2 -17 1559.85   75.63   5    0.89
   1  -2 -12  472.19   27.95   5    1.11
  -2  -1 -11  340.42   20.08   5    1.23
   0  -1 -15  756.88   40.25   5    1.09
   0  -1 -19 1573.13   88.17   5    0.88
   1  -3 -15 1108.32   71.06   5     0.8
  -2  -2 -19 1721.28  118.73   5    0.73
   2  -1 -11  250.01    16.5   5    1.52
   2  -1 -16  721.83   41.33   5    1.09
   2  -2 -17  902.56   63.36   5    0.91
  -2  -1 -16  888.55   57.51   5    0.94
   3  -2 -18 1267.34   82.46   5    0.89
   4  -2 -18 1190.44   79.62   5     0.9
   4  -2 -16  932.23   53.06   5    0.98
   2  -2 -19 1312.45   92.57   5    0.83
   3  -2 -15  471.68   39.21   5    1.02
  -3  -2 -18  1199.5   93.01   5    0.72
   0  -1 -27 2640.24   237.2   5    0.64
   2  -2 -13  313.01   30.27   5     1.1
   0  -1 -23 1859.52   143.4   5    0.74
   4  -3 -20    1226  124.26   5    0.73
  -1  -1 -18  771.26   64.41   5    0.89
  -4  -1 -15  537.25   52.78   5    0.87
   3  -2 -13  287.97   29.35   5    1.12
  -2  -1 -20  808.72   93.15   5    0.78
  -2  -2 -17  597.65   65.53   5    0.79
   2  -3 -14  439.45   52.55   5    0.85
  -1  -2 -21 1036.71  112.45   5    0.71
   4  -3 -19  865.65  102.36   5    0.76
   1  -2 -21 1591.36  133.36   5    0.75
  -4  -1 -20 1026.64  110.11   5    0.72
  -3  -1 -21  811.43  113.63   5    0.73
  -3  -1 -18   697.4   79.69   5    0.82
   6  -2 -20  695.39   84.35   5    0.84
   1  -3 -18  820.59    99.2   5    0.73
   2  -1 -18  512.67   60.97   5    0.97
   2  -3 -18  847.68   98.95   5    0.75
   4  -3 -18  531.08   81.18   5    0.78
  -2  -1 -18  457.13   52.11   5    0.86
  -1  -1 -17  504.58   75.52   5    0.94
   2  -1 -20  697.48   81.02   5    0.88
   1  -2 -25   937.5  195.83   5    0.65
   3  -2 -21  744.61   90.45   5    0.78
   3  -2 -14  206.74   33.27   5    1.07
   0  -3 -23 2077.46   206.2   5    0.61
   5  -3 -21  628.53  108.99   5    0.71
  -1  -3 -18  574.37   99.86   5    0.68
  -4  -1 -18  468.27   65.46   5    0.78
  -1  -2 -25  772.22  167.74   5    0.62
   2  -1 -13  116.14   17.45   5    1.32
  -1  -2 -20 1045.62  132.62   5    0.74
  -2  -1 -13   93.46   19.89   5     1.1
  -3  -2 -25 1601.99  231.45   5    0.58
  -4  -1 -24 1633.61  185.84   5    0.63
   0  -3 -27 1892.05  276.87   5    0.55
  -3  -2 -21  709.87  116.86   5    0.66
   6  -2 -21  389.22   87.47   5    0.81
  -1  -1 -21  489.53   75.51   5    0.78
   3  -3 -18   362.1   58.14   5    0.77
  -4  -3 -24   662.9   166.9   5    0.52
  -6  -2 -23  853.75  180.08   5    0.55
  -3  -1 -25  463.65  119.12   5    0.63
  -5   0  -6 4795.97   44.45   5    1.06
  -3  -1  -5 1430.13      19   5    1.11
  -6   1  -8 7597.07   76.72   5    1.05
  -4   0  -6  2307.6   25.55   5    1.41
  -4   0  -4 1187.45   16.27   5    1.15
  -6  -1  -8 8916.85  120.96   5    0.68
  -7   1  -7 4861.61   80.64   5     0.8
  -6   1  -5 2781.88   47.47   5    0.83
  -4   0  -7 1368.25   22.74   5     1.4
  -6   0 -11 3941.18    79.9   5    0.93
  -4   1  -3  557.42   12.11   5     1.2
  -8   1  -9 4659.51   108.7   5    0.74
  -5  -1  -8 2063.76   50.37   5    0.85
  -7   0  -7 2936.49   76.67   5    0.65
  -8   2  -8 3763.61   99.26   5    0.73
  -6   1  -7 1156.56   33.89   5    1.02
  -5   1  -6  694.65   19.99   5    1.25
  -5   1  -4  559.92   18.57   5    0.99
  -6   0  -9 1269.85   41.66   5    0.94
  -7   2 -10 1892.29   64.27   5    0.91
  -8   1  -8 2244.02   82.78   5    0.69
  -9   0 -13 4841.89  158.65   5    0.62
  -7   1  -8 1159.95   49.17   5    0.86
  -8  -1  -9 3712.02  131.07   5    0.47
  -7   0  -9 1702.38   67.08   5    0.78
  -6   1  -6  739.68   28.43   5    0.95
  -5   0  -5  389.46   19.11   5    0.92
  -6   0  -6  772.24   39.83   5    0.76
  -6   0  -8  798.96   36.07   5    0.92
  -2   0  -3  156.08     5.2   5    2.81
  -3   0  -3   74.39    3.85   5    1.52
  -7   0 -11 1806.28   75.49   5    0.81
  -5   0  -7  437.25   21.07   5    1.12
  -8   0  -9 1849.87   88.33   5    0.63
  -7   1  -9 1130.95   53.35   5    0.89
  -1   0  -1    68.3    2.42   5    4.56
  -9   2  -8  2029.2  106.62   5    0.61
  -9   2 -12 1803.77  101.66   5    0.71
  -9   2 -13 2574.98  124.96   5    0.71
  -8   2  -6 1643.29   95.98   5     0.6
  -7  -1 -14    2126  110.73   5    0.68
  -6  -1 -11   951.4    58.2   5    0.78
  -5  -1  -9  472.69   31.59   5    0.88
  -9   1 -14  2600.6  139.31   5    0.68
 -10   2 -12 2380.05  149.33   5    0.62
 -10   0 -12 2738.99  181.22   5    0.53
  -6   0 -10  695.35   46.06   5    0.95
 -10   2 -13 2755.69  164.47   5    0.63
  -9   2  -7 1143.73   98.11   5    0.54
  -7  -1  -9  907.42    83.6   5     0.6
  -8   1 -10  821.17   67.79   5    0.76
  -7  -1  -8 1051.75   77.77   5    0.53
  -9  -1 -14 1976.76  163.53   5    0.55
 -10   2 -14 2221.94  172.14   5    0.63
 -11   3 -16 2233.77  201.79   5    0.58
  -7  -1 -12  889.02   83.54   5    0.68
  -9   0 -14 1767.21   147.3   5    0.63
  -7   1 -10  502.03   45.75   5    0.89
  -8  -1 -15 1211.37   130.6   5    0.61
 -10   1 -11 1592.72   155.8   5    0.57
 -10   0 -13 1934.69  156.64   5    0.55
  -9  -1 -15 1455.89  165.21   5    0.55
  -7   1 -11   561.1   52.52   5    0.89
  -8   0 -12  596.91   81.44   5    0.71
  -9   1 -10  840.41  106.07   5    0.64
 -11   1 -12 2162.97  212.25   5    0.51
  -9   1 -11   831.1   86.72   5    0.67
 -11   1 -16 2250.53   216.5   5    0.55
  -8  -1 -11  658.93  114.25   5    0.57
  -7  -1 -11   549.3   81.46   5    0.67
  -5   0  -9  197.61   22.31   5    1.12
  -7   0  -8  455.95   50.87   5    0.73
 -10   1  -9  954.63  123.41   5    0.49
 -12   2 -13  691.89  145.82   5     0.5
  -7  -1 -10  612.98   79.32   5    0.64
 -10   1 -12 1223.12  136.12   5    0.59
 -10   1 -10  965.97  127.08   5    0.54
 -10   2  -8  644.62  131.08   5     0.5
  -5   1  -7    99.2   12.81   5    1.26
  -8   0 -13 1122.93  119.84   5    0.71
 -10   1 -14  924.59     125   5    0.61
 -10  -1 -22  776.94   196.8   5    0.49
 -12   2 -18 1623.08  239.65   5    0.52
 -10   0 -14  370.11  104.04   5    0.56
 -13   2 -16  587.81  152.49   5    0.47
 -10  -1 -19  882.41  242.53   5     0.5
  -8   1 -13  433.76   88.53   5    0.77
  -2   0  -2    9.08    1.38   5    2.28
  -8  -1 -10  362.46   76.41   5    0.53
  -3   2  -6 4075.63   39.56   5    1.71
  -1   3  -5 3964.26   39.17   5    1.68
  -1   3  -7 3521.46   44.41   5    1.64
  -2   2  -5 1838.73   26.27   5    2.04
   0   2  -4 1672.86    23.9   5    2.69
   0   4  -8 3372.37   51.38   5    1.34
  -2   3 -10 3700.67   57.13   5    1.36
  -4   3  -8 2899.91      51   5    1.22
  -2   2  -7 1564.55   27.41   5    1.87
  -2   2  -8 1622.29   29.07   5    1.76
  -2   5  -8 4699.86   88.67   5    0.99
   0   3  -7 1835.44   34.52   5    1.74
  -4   3 -10 2948.56   57.31   5    1.17
  -1   4  -9 2647.62   53.72   5    1.26
   0   5 -11 4623.53   95.76   5    1.06
  -2   2  -6 1120.72   22.37   5    1.97
  -4   2  -7 1015.15   22.35   5    1.43
  -2   2  -4  641.29   13.99   5    2.04
  -2   3  -6 1002.88   23.63   5    1.53
  -2   5 -10 3404.83   86.89   5    0.99
  -3   4 -10  2869.6   69.74   5    1.09
  -2   3  -8 1230.61   31.98   5    1.47
  -2   4  -8 1579.07   44.31   5     1.2
  -4   4 -11 3149.17   84.93   5       1
  -1   1  -3  671.42    16.8   5    3.93
  -3   4  -9 1823.53    53.7   5    1.11
  -3   5 -10 3271.47   97.64   5    0.94
  -1   2  -5  594.97   17.01   5    2.33
  -1   5 -10 2197.47   73.29   5    1.04
  -1   2  -3  349.38   10.28   5    2.36
  -3   3  -6  628.67   21.47   5    1.37
  -4   5 -10 3069.23   109.2   5    0.88
  -6   4 -15 4293.75  152.65   5    0.81
  -4   5 -11 2550.75  102.48   5    0.88
  -1   3  -9  675.86   26.18   5    1.52
  -1   2  -6  430.57   15.12   5     2.2
  -2   4  -6  775.93    30.6   5    1.18
  -3   3 -10  929.67   35.98   5    1.27
  -1   1  -2  264.58    8.77   5    4.09
  -5   3  -9  697.95   33.38   5    1.08
  -2   3  -9  689.24    29.9   5    1.42
  -3   4 -11 1167.93   61.43   5    1.07
  -4   4 -15 2074.29   97.53   5    0.91
  -6   4 -12 2035.02   96.78   5    0.85
  -1   5 -14 1824.47   89.39   5    0.96
  -3   6  -9 2651.68  121.92   5    0.79
  -5   4 -12 1330.42   72.28   5    0.92
   0   6 -12 2109.32   97.83   5     0.9
  -4   4  -8  696.19   43.81   5    1.03
  -2   4 -11  635.68   45.21   5    1.14
  -6   3 -11  793.79   50.89   5    0.95
  -4   6 -11 2081.71  129.73   5    0.76
  -2   3  -5  228.35   16.02   5    1.51
  -3   5 -17 2329.55  140.23   5    0.82
  -1   2  -4  160.98    8.54   5     2.4
  -6   4 -11 1227.13   80.55   5    0.86
  -4   5 -16 2055.13  131.01   5    0.81
  -4   5  -9  1106.1    72.9   5    0.87
  -2   3 -12  482.31   33.19   5    1.24
  -3   4 -13  828.56   58.39   5    1.02
  -5   5 -12 1658.93  109.54   5    0.82
  -3   4  -8  560.43   36.46   5    1.12
  -1   6 -11  1153.9   80.75   5    0.87
  -1   4 -12  602.37    41.1   5    1.15
  -1   4  -8  420.39   31.67   5    1.28
  -2   4 -15 1069.49   73.39   5       1
  -6   6 -15 2283.14  207.97   5    0.68
  -4   4 -12  898.46   67.34   5    0.98
  -3   6 -10 1608.52  110.07   5     0.8
  -7   5 -17 2639.48  196.57   5    0.69
  -4   4 -14  869.32   76.19   5    0.94
  -2   4  -7  379.95   30.34   5     1.2
  -7   5 -14 1380.34   131.6   5    0.71
  -6   6 -19 2518.43  238.87   5    0.65
  -3   3  -8  254.32   22.72   5    1.35
  -3   5 -14  667.93   88.03   5    0.88
  -2   3 -11  156.37   19.68   5     1.3
  -1   6 -13 1073.63  111.59   5    0.86
  -3   4 -12  409.18   52.75   5    1.05
   0   4 -10  228.47   25.56   5    1.28
  -4   5 -12  457.97   86.86   5    0.87
  -3   5  -9  462.82   52.46   5    0.93
  -5   3 -10  336.34   35.78   5    1.06
  -6   6 -12  926.84  135.54   5    0.68
  -4   6 -10  909.23  157.87   5    0.75
  -3   7 -17 1485.47  203.73   5    0.68
  -4   6 -15 1368.47  154.01   5    0.75
  -1   3  -8   149.2   21.88   5    1.58
  -3   6 -11 1461.37  128.19   5     0.8
  -3   3  -9  162.71   21.94   5    1.31
  -3   3 -12  172.65   24.22   5    1.17
  -1   7 -14   941.6   146.4   5    0.75
  -3   5  -8  523.98   67.93   5    0.92
  -1   4 -10  337.77   35.12   5    1.22
  -4   4 -16  274.53    48.9   5    0.88
  -4   4  -9  256.49    33.2   5    1.03
  -3   3 -11  126.65   25.81   5    1.23
  -5   5 -15  777.69  119.55   5    0.79
  -2   5 -16 1058.61  101.12   5    0.87
  -4   6 -12  821.52  108.45   5    0.76
  -5   5 -10  168.77   41.67   5    0.81
  -1   2  -7   75.42   10.12   5    2.06
  -3   4 -15  426.04   65.76   5    0.95
  -4   5 -20  485.88  129.52   5    0.73
  -4   6 -19 1483.69  206.27   5     0.7
  -2   5  -9  222.54   46.23   5    0.98
  -4   7 -16 1147.04  232.59   5    0.66
  -2   6 -15  687.03  112.31   5    0.81
  -3   7 -14  819.71  150.34   5     0.7
  -8   6 -18    1121  202.81   5     0.6
  -7   5 -16  822.64  122.85   5    0.69
  -3   6 -17 1238.35  210.98   5    0.75
  -1   1  -4   22.36    3.58   5    3.52
  -4   7 -18  452.18  127.29   5    0.65
   0   1 -11  3796.3   57.12   5     1.7
   2   1 -10 3023.31   49.52   5    1.99
   2   1  -8  2785.4   45.55   5    2.47
   3   1 -10 2291.37   42.63   5       2
   0   1  -7  1486.5   28.72   5    2.62
   2   2 -11 1864.86   42.32   5    1.71
   0   2 -16 4150.01   93.78   5    1.16
   6   2 -19 5591.86  134.95   5    1.05
   1   1 -10 1652.58   36.85   5    1.94
   3   2 -10 1460.22   35.48   5    1.86
   1   1  -7  1477.1   34.58   5    2.75
   1   1 -14 2527.18   61.97   5    1.38
   3   1 -17 2983.78   78.75   5    1.17
   4   1 -16 2824.17   72.45   5    1.25
   0   2 -12  1799.4   46.85   5     1.5
   4   2 -15 2487.73    71.3   5    1.31
   0   1 -13 1404.27   42.19   5    1.44
   1   2 -11 1265.96   38.35   5    1.67
   3   3 -17  3105.1   97.45   5    1.11
   4   3 -16 2609.77   82.46   5    1.18
   0   1  -9  788.92   24.27   5    2.07
   3   2 -17 3124.67   97.28   5    1.16
   4   2 -14 1399.56   49.53   5     1.4
   0   2 -14 1355.64   49.28   5    1.31
   3   1 -13 1153.12   37.44   5    1.54
   0   3 -19 3407.76   128.6   5    0.96
   1   2 -17  1989.9    78.5   5    1.12
   3   1 -14 1041.62   42.23   5    1.43
   1   1 -15 1210.65   50.17   5    1.28
   1   1  -8  524.65   20.55   5    2.42
   1   2 -13  856.25   37.78   5    1.44
   1   1  -5  450.75   17.85   5    3.69
   2   1  -9  441.97   20.87   5     2.2
   1   1  -9  405.81   19.79   5    2.16
   3   2 -18 1547.03    80.6   5    1.09
   4   2 -16 1110.69   60.69   5    1.24
   1   1 -13  679.71   35.71   5    1.49
   3   2 -11  612.17   27.99   5    1.72
   4   2 -18 1294.71   79.57   5     1.1
   1   2 -12  477.76   28.77   5    1.55
   3   1 -11  430.73   22.35   5    1.82
   0   1 -15  798.54   46.54   5    1.25
   2   1 -16  935.28    51.8   5    1.23
   4   2 -19 2003.97  104.94   5    1.05
   1   1  -6  292.07    14.8   5    3.16
   2   2 -19 1566.74   97.26   5    1.02
   4   1 -15  517.29    36.5   5    1.34
   4   1 -12  374.24   23.35   5    1.67
   4   1 -13  371.28   28.79   5    1.54
   4   3 -20 1757.47  136.37   5    0.97
   4   3 -15  491.59   44.82   5    1.24
   1   1 -18  808.72   61.63   5    1.06
   4   3 -19 1329.38   94.03   5    1.02
   2   1 -11  248.91   19.19   5     1.8
   3   2 -15  447.28   39.06   5    1.31
   6   3 -20 1113.45  100.69   5    0.98
   3   2 -12  339.79   24.79   5     1.6
   4   2 -20 1356.11  110.95   5    0.99
   2   2 -13  310.01   28.23   5    1.47
   3   3 -16  593.48   56.82   5    1.17
   0   3 -23 2308.87  195.38   5     0.8
   1   2 -21 1277.13   126.9   5    0.91
   2   1 -18  706.32   71.52   5    1.08
   1   1 -21  854.41   95.11   5    0.91
   1   3 -18  974.86   94.47   5    1.02
   3   3 -21 1667.14  138.09   5    0.92
   2   3 -18   616.5   65.17   5    1.04
   1   3 -19  714.24   95.54   5    0.98
  -1   3 -19  857.58  101.86   5    0.93
   1   2 -20  774.19   89.05   5    0.95
  -1   3 -18     532   69.52   5    0.97
   3   2 -13  239.97   25.94   5    1.49
   1   3 -21  626.44   96.34   5    0.89
   3   3 -18  540.67   70.47   5    1.06
   4   3 -18  636.36   73.07   5    1.07
   4   2 -13  159.23   23.83   5    1.49
   5   3 -21  978.55  107.71   5    0.93
   1   2 -25 1275.13  190.03   5    0.76
   5   2 -17     463   51.01   5    1.17
   4   1 -17  257.97   38.13   5    1.18
   2   2 -15  252.31   38.58   5    1.29
   5   3 -20  833.22  118.39   5    0.97
   3   2 -14   166.2   29.26   5    1.39
  -1   3 -17  341.29   49.91   5    1.02
   3   2 -21  632.37   79.36   5    0.94
   6   2 -23  970.08   115.7   5    0.87
   2   1  -7   78.14    8.77   5    2.79
   6   2 -20  834.58  110.09   5       1
   2   1 -20  754.91   80.65   5    0.97
   1   1 -19  493.28   64.41   5       1
   2   2 -21  480.38   74.76   5    0.93
   7   3 -22  850.91  127.22   5    0.89
   1   1 -17  433.18    52.2   5    1.13
   2   2 -20   189.3   65.28   5    0.97
   3   1 -19  134.13   32.68   5    1.04
   6   4 -27 1665.07  422.25   5    0.73
   3   2 -25 1413.37  155.34   5    0.79
  -1   3 -21  695.02  115.77   5    0.85
   4   3 -17  370.66   60.58   5    1.12
   4   2 -17  271.17   42.27   5    1.17
   3   2 -22  622.26  115.09   5     0.9
   1   4 -21  646.37   93.87   5    0.85
   1   4 -25  757.22   134.5   5    0.74
   4   4 -20  354.22   64.92   5    0.93
   6   4 -23  430.73   94.91   5    0.83
   3   4 -21  403.21   78.14   5    0.88
   1   3 -16  294.72   43.89   5    1.13
   0   2 -26 1123.38   170.3   5    0.72
   2   1 -13   112.3   21.19   5    1.52
   4   3 -24 1175.12  185.09   5    0.81
  -2   1  -8  3419.5   39.52   5    1.95
  -3   0  -9 2515.95   34.09   5     1.5
  -2   1 -10 3974.52   50.69   5    1.64
  -3   0 -10 2966.84   41.04   5    1.41
  -4   1  -8 2260.85   32.86   5    1.49
  -3   1  -6 1602.05   23.55   5    1.97
  -4   0 -11 3603.28   53.92   5    1.19
  -2   0  -8 1500.37   23.51   5    1.85
  -4   2 -11 3748.54   61.53   5    1.24
  -3   0 -11 2701.17   47.03   5    1.32
  -2   2 -11 2184.18   40.04   5    1.45
  -3   1 -10 2068.24   37.92   5    1.49
  -2   0  -6  665.01   14.16   5    2.25
  -4   0 -12 1977.13   46.26   5    1.13
  -4   1 -16 3779.14  100.39   5    0.97
  -3   1 -17 3724.28  106.51   5    0.98
  -4   0 -15 2974.73   83.18   5    0.97
  -3   2 -17 3228.44   96.45   5    0.98
  -3   0  -8   615.7   17.35   5    1.61
  -4   2 -15 2861.24   81.57   5    1.02
  -3   1 -13 1500.48   43.61   5    1.22
  -6   2 -12 2134.06   68.92   5    0.98
  -3   3 -17 3229.81  100.53   5    0.95
  -3   1  -7  534.23   16.03   5    1.85
  -3   2 -11  809.51   29.25   5    1.35
  -2   1  -9  540.52   18.79   5    1.78
  -3   1 -14 1187.32   47.05   5    1.15
  -5   2 -12 1348.66   54.34   5    1.08
  -6   0 -19 4523.13  181.89   5    0.73
  -4   2 -14 1783.87   70.31   5    1.07
  -5   0 -13  915.05   40.34   5    0.98
  -2   1  -6  314.49   12.22   5    2.36
  -3   1  -9  364.91   17.25   5     1.6
  -1   1  -6  322.64   11.85   5    2.71
  -7   3 -17  3112.9  150.45   5    0.76
  -5   0 -14 1245.21   62.84   5    0.94
  -3   1  -8  292.37   13.72   5    1.72
  -7   1 -17 2329.16   118.8   5    0.77
  -6   2 -19 2820.05  149.63   5    0.77
  -3   1 -11  453.35   24.82   5    1.39
  -6   2 -15 1494.54   76.04   5    0.89
  -3   2 -18  1465.1    90.5   5    0.93
  -5   0 -17 1410.74   97.89   5    0.83
  -2   1 -16  863.93   55.71   5    1.08
  -4   2 -19 1882.93  120.25   5    0.85
  -3   2 -12  371.38   27.97   5    1.27
  -4   2 -16 1065.72   74.34   5    0.98
  -1   0  -4   121.6    6.59   5     3.7
  -2   1 -11  280.15   20.41   5    1.51
  -7   1 -16 1365.11   93.94   5    0.79
  -4   2 -12  571.69   37.05   5    1.18
  -5   1 -12  436.37   32.25   5    1.09
  -4   2 -18 1303.64   92.58   5    0.89
  -4   1  -9  244.89   17.15   5    1.41
  -1   0  -3   89.68     5.7   5     4.5
  -3   1 -18  713.05   72.66   5    0.93
  -4   0 -14  450.19   39.95   5    1.02
  -4   3 -19 1169.09  106.72   5    0.84
  -3   1 -21 1070.45  115.44   5    0.81
  -7   2 -13  509.89   56.69   5    0.87
  -5   1 -16  655.88   64.23   5    0.91
  -2   1 -20  881.05   86.44   5    0.88
  -5   1 -15  434.28    46.7   5    0.95
  -7   3 -18 1076.06  129.58   5    0.74
  -4   3 -20 1203.18   124.3   5     0.8
  -2   1 -18  570.28   59.19   5    0.97
  -4   1 -24  1071.1  151.67   5    0.69
  -3   0 -12  142.21   20.42   5    1.24
  -8   2 -18  895.85  103.67   5    0.71
  -3   2 -15  523.98   46.78   5    1.08
  -3   1 -15  211.32   29.17   5    1.09
  -5   1 -18   564.1   81.14   5    0.84
  -5   1 -21  952.23   149.7   5    0.74
  -4   3 -18  778.27   88.33   5    0.87
  -2   0  -7   51.61    7.77   5    2.04
  -4   1 -18  680.72   80.07   5    0.88
  -3   2 -13  209.44   30.95   5     1.2
  -4   0 -16  290.67   42.64   5    0.93
  -5   2 -11  241.09   34.79   5    1.12
  -5   3 -20  631.25  105.73   5    0.77
  -6   0 -16  428.79   78.63   5    0.81
  -3   3 -18  682.63   89.55   5    0.91
  -7   0 -19  588.52     113   5    0.68
  -5   0 -20  514.79    88.2   5    0.74
  -2   1 -15  152.58   24.31   5    1.15
  -6   1 -20  978.63  128.78   5    0.73
  -6   3 -20  696.67  132.69   5    0.74
  -7   2 -19   261.1   68.97   5    0.73
  -2   1 -13  101.63   20.56   5    1.31
  -7   1 -18   685.7  101.53   5    0.74
  -2   1  -7   59.86    9.61   5    2.14
  -1   0  -5   10.24    2.48   5    3.27
 -10   0   0 2490.07    36.7   6    2.22
 -10   0  -1 1658.96   32.58   6    2.29
  -8   0   0 1212.43   24.73   6    2.77
 -13   1  -3 1902.53   40.08   6    1.71
 -12   0  -2 1608.85   38.43   6    1.93
 -17   1  -3 2101.69   64.35   6    1.33
 -14   0  -3 1447.78   42.51   6    1.65
  -9   0  -2   788.7   22.23   6    2.57
 -14   0  -1 1145.68   39.25   6    1.63
 -14   0   1  1130.5   38.99   6    1.52
 -18   0   1 1992.95   71.67   6    1.19
 -17   1  -4 1280.92   53.36   6    1.33
 -13   1  -1 1042.49   35.58   6    1.69
  -6   0  -1  714.06   21.61   6    3.85
 -18   0  -4 1661.05   65.51   6    1.29
 -11   0  -2  815.89   27.87   6    2.11
 -17   1  -1 1515.89   58.84   6    1.31
 -11   1  -1  563.82   23.07   6    1.97
 -17  -1  -1 1407.72   54.73   6     1.3
  -9   0  -1  495.88   18.37   6    2.55
 -20   1  -3 1477.59   81.35   6    1.14
  -6   0   0  398.06   14.98   6    3.69
 -12   1  -2  586.66   25.68   6    1.85
 -16   0  -2   857.2   49.79   6    1.44
 -20  -1  -3  1497.4   81.34   6    1.13
  -7   0  -1  339.45   14.72   6     3.3
 -15   1   1  624.25   35.92   6    1.38
 -12   1  -1  451.58   23.51   6    1.82
 -20   0  -4 1391.55   83.25   6    1.16
  -5   0  -1  243.92   12.62   6    4.62
 -18   0   0  819.37   61.19   6    1.23
 -20   1  -1   858.5   75.76   6    1.12
 -21   0  -5 1165.45   85.22   6     1.1
 -20   1  -4  566.04   58.85   6    1.14
 -21   0  -2 1474.81    87.8   6    1.09
 -19  -1   1  695.26   61.39   6     1.1
 -17   0  -4  438.11   39.39   6    1.36
 -12   0   0  202.75   18.35   6    1.85
 -20   1   1 1056.75   84.93   6    1.06
 -13   0   1  312.81   25.84   6    1.63
 -17   0  -2  464.39   43.53   6    1.36
 -14   1   1  277.76   27.89   6    1.47
 -16   0   0  257.39   30.62   6    1.39
 -22   0  -1  695.14   89.29   6    1.03
 -21  -1  -4  595.82   61.81   6    1.08
 -11   0  -1  187.64    18.9   6    2.08
 -21   1  -4  480.75   64.76   6    1.09
 -12   0  -1  194.16   19.08   6     1.9
  -4   0   0  111.09    8.34   6    5.52
 -12   0   1  196.76   21.89   6    1.76
 -27  -1  -3  767.55  144.07   6    0.85
 -22   0   1  666.64   97.55   6    0.98
 -22   0  -5  174.61   74.45   6    1.05
 -29  -1  -3  329.78   86.15   6    0.78
 -23  -1  -2   328.3   67.35   6    0.98
 -23   1  -3  295.37   56.36   6    0.99
 -10   0   3 1811.38   35.22   6    1.71
  -8   1   3 1286.52   25.12   6    1.78
  -7   0   2 1252.41   23.55   6    2.49
 -10  -1   5 2044.68   43.58   6    1.22
  -9   0   4 1327.04   31.37   6    1.57
 -11   1   3 1673.46   41.35   6    1.53
 -13   1   3  2103.2   54.13   6    1.38
  -6   0   3     673   16.46   6    2.16
  -9   0   2  835.73      24   6    2.08
 -10   1   2 1070.68    28.1   6     1.8
  -9   1   2  825.85   22.43   6    1.92
 -10   0   4  1153.7   33.38   6     1.5
 -15   0   7 3937.51  126.69   6    0.91
 -12   0   6 1827.42   63.06   6    1.08
 -17   1   3 2228.13   74.79   6    1.13
  -8   0   3  628.51   20.74   6    1.94
 -17  -1   3 2781.34   86.14   6    1.12
  -9   0   3  694.44   22.84   6    1.82
 -14   0   3 1574.45    51.6   6    1.35
 -11   1   4 1057.17   38.65   6    1.37
 -12   0   4  917.56   40.91   6    1.37
 -11   0   2  710.17   29.66   6    1.77
  -7   0   3  358.02   14.64   6    2.06
 -16   0   6 1939.42   96.82   6    0.97
 -17   0   5 2090.33   98.54   6    1.02
 -13  -1   5 1086.77   53.82   6    1.13
 -17  -1   4 1502.13   85.38   6    1.06
 -12   1   2  534.12    29.3   6    1.58
  -8   0   2  352.14   16.89   6    2.26
 -13   0   4  693.58    42.3   6    1.31
 -13   1   5  877.85   55.38   6    1.14
 -15   2   7 1943.92  107.29   6    0.83
 -16  -1   5 1297.86   76.16   6    1.03
 -14   1   6   956.1   73.19   6    1.01
 -17   2   5 1523.34    98.5   6    0.94
 -13  -1   4  609.81   38.27   6    1.25
  -9   1   3  329.34   21.32   6     1.7
 -20  -1   5 2235.48  137.92   6    0.89
 -18   2   4 1246.96   83.52   6    0.96
 -16   1   5 1118.25   77.65   6    1.03
  -5   0   1  262.69   12.54   6    3.82
  -3   0   1   221.6   11.05   6    5.47
 -14  -1   6  994.05   76.29   6       1
  -6   0   2  164.01   10.24   6    2.74
 -20   1   5  2061.4  160.26   6     0.9
 -14   0   4  227.54   30.66   6    1.24
  -5   0   2  133.11    8.81   6    3.01
  -4   0   1     141    9.04   6    4.52
 -21   0   6 2272.75   193.2   6    0.83
 -16   0   7  770.32   86.66   6    0.89
 -11   1   2  204.33   16.97   6    1.68
 -15   0   3  544.69   48.71   6    1.28
 -17  -1   7 1626.75  157.87   6    0.85
 -11   1   5  198.98   30.68   6    1.22
 -17   1   7 1123.28  104.98   6    0.86
  -2   0   1   75.99    6.14   6    6.47
 -21   2   5  770.14  118.92   6    0.83
 -16   2   6  555.92   84.19   6    0.89
 -20   1   4  940.94  106.13   6    0.94
 -18   2   5  426.25   71.58   6    0.91
 -17   1   5  550.55  101.52   6       1
  -8   1   4  165.71   18.88   6     1.5
 -10   0   2   67.75   12.24   6    1.91
 -18  -1   5   199.5   54.47   6    0.95
 -20   2   4  956.98  133.58   6     0.9
 -20   3   9  526.82  130.72   6    0.62
 -22   1   4  173.59   50.21   6    0.88
  -6   1   4  1948.1   23.95   6    1.46
  -7   0   6 5018.01   62.36   6    0.99
  -7   0   5 1723.34   30.58   6    1.29
  -5   0   4  911.65   17.67   6    1.55
  -4   0   3  588.08   11.52   6    2.12
  -6  -1   5 1550.75   33.42   6    1.08
  -8  -1   5 1382.52   32.64   6    1.22
  -4   0   4     631   15.33   6    1.32
  -4   2   4 1580.87   42.72   6    0.75
  -3   2   3 1024.25   31.84   6    0.75
  -4  -2   4 2675.78   69.18   6    0.69
  -2  -1   2   231.2    6.91   6    1.37
  -7   2   6 3410.65   83.85   6    0.77
  -4   1   3  223.81    8.87   6    1.69
  -5  -1   4  335.63   16.58   6    1.31
  -5   1   4   239.6   13.32   6    1.35
 -14   1  10 4128.91   222.7   6    0.64
  -6   2   5  945.45    43.8   6    0.86
 -14  -1  10 4245.99  223.59   6    0.63
  -2   1   2  104.87    4.35   6    1.49
  -8   1   6  688.99   42.76   6       1
 -11   2   7 1419.58   92.96   6    0.82
  -8  -1   6  797.85   44.12   6    0.99
  -5   3   5 1446.02  103.97   6     0.5
  -8  -1   8 1420.27   122.8   6    0.62
 -14   3  10 3001.19  262.28   6    0.54
  -9   1   7  550.34   52.52   6    0.86
 -10   1   8   474.9   62.41   6    0.75
 -11   0   9 1398.91  165.71   6    0.68
 -11   1   8 1118.24  101.87   6    0.78
  -9   0   8  985.24   91.72   6    0.73
 -10  -1   8  998.24   97.18   6    0.74
  -8   2   8 1906.76   145.5   6    0.55
 -11  -2   9  2338.8   196.1   6    0.59
  -8   1   8 1072.32  101.51   6    0.63
 -13   1  11 2326.64  309.06   6    0.53
  -5   0   5   32.48    9.86   6    1.05
  -9   2   7  542.96   64.93   6    0.75
 -10   1   7  662.37   58.68   6     0.9
 -11   2   9 1663.67   170.3   6    0.61
  -9   0   7  359.27   48.47   6     0.9
 -14  -2  11 3168.01  337.49   6    0.51
 -12   0  10 1162.57  171.98   6     0.6
  -9  -1   6   83.46   15.43   6    1.03
  -1   0  -9 2652.81   46.11   6     1.2
  -1   1  -7 1120.34   22.76   6    1.45
   0   1  -7 1469.63   31.97   6    1.14
  -1  -1  -7 1434.06   27.62   6    1.42
   0  -1  -7 1848.56   42.55   6    1.11
   0   0  -4  469.64   10.23   6     2.2
   0   1 -11  3200.2  114.07   6    0.77
  -1  -1 -10 1542.44      58   6    0.99
   0  -1 -11 4086.32  130.93   6    0.76
   0  -1  -5  542.64   18.13   6    1.41
   0   0 -10 1429.98   69.61   6    0.89
   0   1  -5  339.63   13.01   6    1.45
  -1  -1  -8  504.66   30.61   6    1.25
   0   2  -8  897.54   54.25   6    0.82
   0  -2  -8 1570.68   83.97   6    0.78
   1   2  -9 1707.68  127.92   6    0.59
  -1  -1 -14 2158.92   166.3   6     0.7
  -1   1 -14 1408.82  152.95   6     0.7
  -1   0 -10  163.28   20.11   6    1.06
  -1   1  -9  274.03   32.44   6    1.12
  -1   2 -11  764.74   81.85   6     0.8
   1   1  -6  121.22   17.87   6    0.82
   0   2 -16 1064.95  195.48   6    0.51
  -1   3 -15  753.53  122.53   6    0.54
  -1  -1  -9  332.78   41.03   6     1.1
  -3   0  -6 2182.65   35.33   6    2.49
  -4   0  -8 1722.13   37.08   6    1.87
  -3   0  -9 1616.87   37.43   6    1.53
  -4   1 -10 1822.08   46.21   6    1.37
  -3   1 -10  1650.2   45.64   6    1.28
  -9   0 -13 1530.75   62.42   6    1.19
  -2   0  -8  977.32   26.83   6     1.6
  -4  -1 -10 1913.02   51.22   6    1.35
  -3  -1 -10 1898.75   46.75   6    1.26
  -6   0 -11 1873.94   55.86   6    1.38
  -4   0  -6  819.88   24.35   6    2.57
  -4  -1 -11 1508.59   59.24   6    1.22
  -3   0 -11  1478.6   50.29   6    1.19
  -4   0  -7  668.16   24.49   6    2.18
  -6   0 -12 1753.42    67.6   6    1.25
  -4   1 -11 1318.78    52.4   6    1.23
  -5   1 -12 1324.08   57.97   6    1.17
  -5  -1 -12 1462.98   64.03   6    1.15
  -6   0  -9  666.35   33.17   6    1.71
  -2   0  -6  406.46   15.73   6    2.28
  -4   0 -12 1150.05   58.72   6    1.15
  -7   0 -11  805.14    48.5   6     1.4
  -5   0 -12  937.98   57.41   6     1.2
  -4   1  -9  475.78   30.47   6    1.54
  -9  -1 -14 1341.44   91.46   6    1.07
  -3   0  -8  315.96   20.87   6    1.77
  -7  -1 -14 1347.32   97.27   6    1.04
  -9   1 -14 1325.05   90.88   6    1.08
  -7   1 -14 1247.49   87.86   6    1.05
  -5   0  -8  298.42    21.6   6    1.93
  -4  -1  -9   463.5   28.69   6    1.52
  -6  -1 -11  473.09   45.58   6    1.32
  -4   1 -16 1773.62  155.27   6    0.78
  -6   2 -19 3761.71  262.41   6    0.68
  -7  -1 -17 2864.39  210.62   6    0.83
  -2   0  -4  233.77   12.81   6    3.74
  -4   0 -15  1510.2  109.09   6    0.87
  -3   0 -13  934.44   81.45   6    0.97
  -3   1  -9  282.94   23.56   6    1.43
  -6  -2 -19 4222.69  286.78   6    0.67
  -6   0 -19 2586.42  250.51   6    0.72
  -6   1 -11  531.03   49.85   6    1.33
  -7   1 -12  373.46   41.85   6    1.24
  -3  -1  -9  356.07   26.49   6    1.42
  -7   1 -17 2221.86  159.67   6    0.84
  -8  -2 -18 2455.66  233.09   6    0.76
  -8  -1 -15 5141.01  149.46   6    0.98
  -7   1 -16   786.1  108.32   6     0.9
  -1   0  -4  101.84    7.67   6     3.2
  -1   0  -3   98.44    7.72   6    4.57
  -8   0 -12  289.04   38.41   6    1.28
  -9   1 -15  777.12   87.02   6       1
  -8   2 -18 1631.76   192.2   6    0.77
  -7   1 -11   234.3   28.96   6    1.35
  -7   1 -10  277.45   32.97   6    1.49
  -9   0 -14 1171.51  106.01   6     1.1
  -5   0 -13  396.17   56.61   6    1.09
  -3   1 -11  110.32   19.42   6    1.14
 -12   2 -18  825.45  164.08   6    0.82
  -4  -1 -12  240.01   44.06   6     1.1
  -1   0  -2  162.44   14.72   6    7.47
  -2   0  -3   19.05    4.33   6    5.15
  -7   0  -6  3245.6   45.25   6    2.37
 -11   0  -7 2529.56   51.05   6    1.77
 -14   1 -10 3387.94   75.83   6    1.29
  -8   1  -9 1591.13   34.94   6    1.63
  -7   0  -5 1507.49   31.37   6    2.63
 -14  -1 -10 3517.52   82.53   6    1.29
  -7   0  -7 1064.42   28.81   6    2.13
  -9   0  -6 1279.75   33.42   6    2.12
  -5   0  -3 1008.29   26.12   6    3.98
 -13  -1 -11 2401.49   77.36   6    1.26
 -13   1 -11 2182.05   70.15   6    1.26
 -13   0  -8 1374.53    51.4   6    1.52
  -5   0  -4  736.23   22.32   6    3.46
  -8   0  -9  765.45    31.3   6    1.69
 -11   0  -9 1283.36   47.77   6    1.56
 -12   1  -9 1065.21   44.26   6    1.46
  -9   0  -8  904.72   33.27   6     1.8
 -11   1  -8  908.77   35.38   6    1.61
 -10   1  -8  898.96   31.86   6    1.67
 -16  -1  -9 1262.99    55.2   6    1.25
 -12  -1  -9  985.04   46.32   6    1.45
 -12   0 -10 1102.44   51.37   6    1.41
  -4   0  -3  504.67   18.85   6    4.49
 -13   0  -9  872.21   45.83   6    1.44
  -9   0  -9  615.45   34.24   6    1.66
  -6   0  -4  470.48   19.05   6    3.18
 -14   0 -10  1103.3   63.28   6    1.32
 -10   1  -9  494.48   31.37   6    1.56
 -13   0 -12 1451.74   72.51   6    1.22
  -9   0  -7  428.95    27.4   6    1.96
  -4   0  -4  318.42   14.86   6    3.72
  -6   0  -6  337.75   18.71   6    2.48
 -11   1 -12  889.29   53.64   6    1.24
 -10   0  -8  548.68   32.31   6    1.73
 -12   0  -8  670.47   41.67   6    1.59
 -14  -1 -12  938.19   67.15   6    1.16
 -11  -1 -12  954.06   54.87   6    1.23
 -16  -1 -12 1178.98   95.28   6     1.1
 -17   1 -11  972.18    77.5   6    1.12
 -10  -1 -11  672.88    43.4   6    1.34
  -9   1 -10  480.14   34.75   6    1.47
 -14   1 -14 1009.58   91.42   6    1.05
  -9  -1 -10  343.64   26.55   6    1.46
 -14   0 -13 1153.52   80.58   6    1.13
 -14   0 -11  760.59   61.37   6    1.25
 -10  -1 -10   428.9   31.71   6    1.44
 -13   1 -10  672.98   45.94   6    1.33
 -13  -1 -10  896.17   58.57   6    1.33
 -14   1 -12  841.25   59.23   6    1.17
  -5   0  -5  186.74   12.76   6    2.97
 -13   1 -13  704.46   71.59   6    1.13
 -13   0 -14 1032.47   93.04   6    1.08
  -3   0  -2  278.12   16.86   6    6.34
 -12   0  -9  432.83   36.67   6     1.5
 -13  -1 -14  705.11   71.03   6    1.06
 -14   0 -15  1302.5  104.97   6    1.01
 -12   0 -12  602.49   52.89   6    1.24
 -16   1 -12 1019.55   93.76   6    1.11
 -14  -1 -14  1075.2   92.83   6    1.04
 -15   0 -13 1246.64  104.38   6     1.1
  -8   0  -5  246.05   19.21   6    2.45
 -10   0 -11  295.31   39.28   6    1.38
  -7   0  -8  120.21   12.98   6    1.91
 -13   1 -14  942.65   89.47   6    1.07
 -10   0  -7  186.82   22.56   6    1.86
 -10   1 -10  358.47   40.36   6    1.45
 -19   0 -11  822.53      92   6    1.06
 -17   1 -16 1418.09   181.2   6    0.91
 -11   0 -11  328.78   39.03   6    1.36
 -15  -1 -15  685.93   90.41   6    0.98
 -13  -1 -12  431.79   60.27   6    1.19
 -13   1 -12  310.47   60.68   6     1.2
 -10   0 -10  341.11   40.39   6    1.49
 -17   1 -10   169.1   38.06   6    1.17
 -11  -1 -11  486.95   60.34   6    1.32
 -11   1 -10  171.87   32.16   6    1.41
 -24   0 -15 1109.62  183.71   6    0.81
  -7   2   2 1819.92   25.13   6    1.64
  -5   1   2  981.71   14.07   6    2.44
  -9   3   2 2062.11   38.21   6    1.19
  -8   3   1 1551.12    30.7   6    1.29
 -10   2   1 1519.01   30.77   6    1.63
  -5   1   1  783.74   15.14   6    3.01
 -10   3   1  1812.2   37.91   6    1.28
  -6   2   1  729.23   15.09   6    1.87
  -9   2   2 1097.88   25.29   6    1.57
  -8   2   1 1013.05   21.76   6    1.78
  -7   2   1  726.09   17.14   6    1.84
 -13   3   3 2786.36   71.88   6    1.06
  -6   1   2  542.14   12.84   6    2.34
  -8   2   0  676.67   18.39   6    1.92
 -11   3   3 1699.36   48.47   6    1.09
 -12   2   2 1095.02   32.94   6    1.39
 -12   2   4 1248.25   40.79   6    1.17
  -7   1   1   454.3   13.48   6    2.53
 -11   2   1  805.74   26.38   6    1.55
 -12   2   1  590.38   27.15   6    1.47
 -10   3   0  489.13   24.67   6    1.35
 -15   2   3   960.7    46.5   6    1.14
 -11   2   2  304.55   22.53   6    1.45
 -10   3   3  550.31   34.59   6    1.09
 -10   3   2  494.08   28.44   6    1.19
 -12   4   2  848.98   57.92   6    0.94
 -13   3   1  578.33   40.06   6    1.19
  -9   2   1   220.2   17.03   6    1.71
  -6   1   1  168.64    8.79   6    2.76
  -4   1   0  145.96    7.69   6    3.83
 -13   2   2  286.69   25.58   6    1.33
 -16   3   5  916.66   84.67   6    0.87
 -13   3   2   534.3   40.46   6    1.12
 -14   4   1  837.17   76.47   6    0.97
 -17   4   5 1316.61  121.96   6    0.75
  -8   2   2  157.63   14.27   6    1.61
  -9   2   3  165.17   17.39   6     1.4
 -11   4   1 1030.54   46.33   6    0.99
 -18   4   1  812.09   92.61   6    0.89
 -14   4   0  310.72   59.88   6    1.01
 -18   4   0  767.34   85.68   6    0.92
 -18   4   4 1101.67  116.91   6    0.78
 -21   4   2  495.73   80.38   6    0.79
 -14   2   2     189    26.9   6    1.27
 -17   5   1  755.09  111.94   6    0.79
 -17   3   4  390.83   64.45   6     0.9
 -17   5   4  887.81  142.32   6    0.69
 -15   4   3  622.18   90.96   6    0.86
 -17   3   7  925.07  102.06   6    0.74
 -20   4   4  858.22  122.84   6    0.76
 -17   4   2  593.11   86.18   6    0.87
  -3   3  -2 2100.44   32.91   6    1.14
  -2   2   0  565.93   10.47   6    1.39
  -3   2   2  1196.2   17.64   6    1.09
  -3   3   1 1986.16   45.78   6    0.77
  -2   3  -4 1457.36    35.6   6    1.01
  -1   3  -3 1789.91   47.62   6    0.73
  -4   4   0 3167.86   79.56   6    0.69
  -1   2  -2  257.01    9.51   6     1.3
  -2   2  -1  195.88    7.66   6    1.65
  -3   2   1  187.29     8.4   6    1.46
  -1   1  -1  182.75    5.93   6    3.53
  -2   3  -2  571.77   25.96   6    0.92
  -6   5  -4 1531.77    91.8   6    0.76
  -1   2  -3  164.04    9.73   6    1.36
  -4   3   0  328.34   19.35   6    1.12
  -3   2  -1  131.07    7.46   6       2
  -2   3  -3  741.62   28.52   6    0.98
  -4   4  -4  680.79    46.2   6    0.89
  -5   4  -3  745.54   43.41   6    0.96
  -6   4   1  538.34   45.95   6    0.82
  -3   4  -2  762.32   64.21   6     0.7
  -4   3   1  340.66   23.42   6    0.98
  -4   3  -2  193.93   15.49   6     1.3
  -5   5  -1 1353.11   106.8   6     0.6
  -4   3   2  235.88   25.71   6    0.81
 -10   6   0 1581.51  139.71   6    0.63
  -3   3  -3  155.58   16.15   6    1.18
  -7   4   1  542.92   44.72   6    0.89
  -5   5  -2  816.77   91.41   6    0.64
  -5   5   1  769.06  111.82   6     0.5
  -8   5   3 1357.34  138.02   6    0.58
  -6   5  -2   465.9   69.45   6    0.71
  -7   6  -2 1211.77  165.37   6    0.58
  -5   4   1  488.46    60.3   6    0.72
  -3   5  -6  1042.2  148.33   6    0.58
  -7   5   1  315.92   58.21   6    0.64
  -9   6  -2  477.21   109.8   6    0.65
  -7   6  -5   656.4  126.24   6    0.63
  -5   4  -1  347.12   39.89   6    0.87
  -8   5  -1  477.34   61.84   6    0.78
  -7   5  -1   206.7   47.04   6    0.73
  -6   5  -5  822.96  102.85   6    0.77
  -1   1   0    1.54    0.72   6    2.64
  -3   2  -6  1571.2    24.5   6    1.62
  -2   1  -4  892.25   16.51   6    2.87
  -3   1  -6  696.37   16.29   6     2.2
  -6   2  -7 1144.17   29.68   6    1.69
  -3   1  -5  466.23   14.17   6     2.6
  -6   3  -8 1161.02   37.96   6    1.24
  -4   2 -11 1562.51   54.79   6    1.09
  -7   2  -9    1082   34.85   6    1.44
  -7   2 -10  784.72   39.07   6    1.33
  -6   2 -12  924.03   51.06   6     1.1
  -4   2  -7  414.64    19.8   6    1.59
  -6   2  -6  459.08   19.37   6    1.83
  -5   2  -6  348.06   17.45   6    1.81
  -8   3  -9  722.27   40.88   6    1.21
  -2   1  -3  158.05    7.91   6    3.48
  -6   2  -8  256.91   21.22   6    1.55
  -7   4 -10  863.32   64.58   6    0.93
  -7   3 -10   815.5   58.18   6    1.12
  -9   4 -13 1147.44   96.85   6    0.85
  -5   2 -12  518.45   43.86   6    1.06
  -2   1  -6  158.66    9.87   6    1.99
  -7   4  -9  786.56   59.13   6    0.97
  -5   3 -12   963.7   78.53   6    0.92
  -5   2  -8   339.7   25.39   6    1.51
  -6   4 -12  527.36   72.02   6    0.81
  -9   3 -14  939.42   87.37   6    0.92
 -10   4 -12 1001.56   95.53   6    0.91
 -10   3 -10  380.91   50.98   6    1.15
  -7   3 -16 1263.01  120.26   6    0.78
  -9   4 -12  778.63   73.99   6    0.89
  -6   3  -7  260.06   25.65   6    1.31
  -6   2 -10  283.93   27.98   6     1.3
 -10   3 -11  364.01   39.32   6     1.1
  -7   3 -17 1606.04   166.7   6    0.73
  -7   3 -14  717.63   84.34   6    0.87
  -2   1  -5   80.03    7.47   6    2.38
 -13   4 -12  712.54   84.86   6    0.92
  -3   1  -4   78.26    8.27   6     3.1
  -9   3 -15  403.13   62.69   6    0.87
 -10   3 -14   777.8   94.47   6    0.93
  -4   2 -12  165.79   31.59   6       1
  -5   3  -9  260.53   34.71   6    1.11
  -9   5 -14  826.81  160.26   6    0.71
  -7   2  -8   58.82   12.43   6    1.56
 -10   3 -13  296.55   63.34   6    0.99
  -5   3  -7  222.97   28.71   6    1.26
 -15   6 -22  409.03   189.3   6    0.54
  -8   1  -3 1352.89   30.94   6    2.56
 -13   3  -3 2394.37   55.82   6    1.32
  -9   2  -2    1042   27.21   6    1.93
 -12   2  -4 1634.14    46.7   6    1.61
 -15   2  -7 2323.52    72.5   6    1.31
  -5   1  -2   948.5   26.86   6    3.58
 -10   2  -4 1239.02   38.52   6    1.79
 -10   2  -5 1068.49   37.73   6    1.74
 -17   2  -5 1995.41   76.72   6    1.24
  -6   1  -2  667.22   21.78   6    3.22
  -8   2  -3  598.21   20.65   6    2.03
 -14   3  -6 1238.29    61.5   6    1.24
 -11   2  -3  585.58   28.02   6    1.72
 -13   2  -7  859.72   45.46   6    1.42
 -17   3  -7 1426.06    88.2   6     1.1
  -7   1  -4  326.71   16.26   6    2.63
 -20   3  -5 1852.08  112.38   6    1.01
  -8   2  -4  334.54   20.12   6    1.97
 -16   3  -5 1268.91   75.07   6    1.17
 -17   4  -5 1475.84   87.23   6       1
 -13   2  -6  667.99   40.66   6    1.47
  -5   1  -3  267.39   13.26   6    3.33
  -9   1  -5  251.84   17.27   6    2.14
 -16   2  -6  622.13   49.76   6    1.28
  -9   2  -3  241.35   17.58   6    1.92
 -10   1  -3   287.2   18.89   6    2.16
 -16   3  -7  634.48   63.44   6    1.14
 -18   4  -4 1364.05   95.02   6    0.97
 -16   4  -6   874.9   81.81   6    1.02
 -12   2  -6  407.65   34.67   6    1.53
 -16   2  -7  549.67   49.07   6    1.25
  -8   1  -2  211.93   13.96   6    2.62
 -15   3  -5  494.84    42.8   6    1.21
 -11   2  -4  256.81   24.08   6     1.7
 -12   2  -3  152.85   20.58   6    1.64
 -19   2  -5  660.07   66.75   6    1.13
 -14   2  -5  469.07   42.09   6    1.43
 -17   3  -4   508.2   54.14   6    1.13
 -17   2  -9  579.09   61.46   6    1.14
 -16   4  -7  396.47   61.01   6       1
  -4   1  -2   86.15     8.4   6    3.93
 -16   3  -4  376.65    47.3   6    1.18
 -15   3  -7  425.66   60.02   6    1.17
 -17   2  -7  328.89   37.92   6     1.2
 -13   3  -8  290.26   36.83   6    1.21
  -8   1  -4  145.16   14.76   6    2.44
 -17   3  -6   478.6   68.76   6    1.12
 -21   4  -5  576.16   89.97   6    0.89
 -19   4  -5  559.76   94.36   6    0.94
 -17   3 -10   408.6   68.68   6    1.02
  -7   1  -3   57.84    7.38   6     2.8
 -14   2  -4  145.72   26.29   6    1.45
  -9   2  -4  115.51   17.66   6    1.88
 -18   3  -5  470.01   66.57   6    1.08
 -12   3  -5  352.06   38.87   6    1.34
 -18   4  -5  227.88   77.11   6    0.97
 -18   2  -9  734.92   81.96   6     1.1
 -19   3  -5  231.91   57.52   6    1.04
 -18   2  -8  424.59    77.7   6    1.14
 -27   4  -9  278.23  124.52   6    0.74
  -7   2  -2 1520.88   25.54   6    2.14
  -9   3  -2 2038.58   42.37   6    1.47
  -8   3  -1 1387.71   28.76   6    1.46
  -7   3  -1 1100.67   29.88   6    1.45
  -8   3  -5  1242.9   32.27   6    1.46
  -7   4  -6 2066.87   57.66   6    1.07
  -6   2  -3  740.12   19.43   6    2.19
  -6   2  -1  621.31    17.5   6    2.19
  -8   3  -3 1088.27   31.33   6    1.51
  -4   2  -3  450.27      14   6    2.18
  -5   2  -3  501.13   16.71   6    2.22
  -6   3  -4  681.65   23.38   6    1.47
  -6   2  -4  391.27   14.35   6     2.1
  -9   3  -3  641.15    25.8   6    1.49
  -7   3  -5  657.29    27.3   6    1.46
  -4   2  -1     249    9.61   6    2.17
  -7   3  -2  370.82    16.3   6     1.5
  -5   2  -2  298.55    12.8   6    2.27
  -7   4  -5  830.43   41.29   6    1.08
 -11   4  -7 1115.88   53.63   6    1.09
 -12   4  -4  852.91   48.04   6    1.12
 -10   3  -2  507.04   25.32   6    1.44
  -3   1  -2  228.47   10.43   6    4.19
 -12   4  -2  687.51   46.67   6    1.09
 -10   3  -3  424.99   24.15   6    1.45
 -10   4  -4  860.66      46   6    1.14
  -5   2  -1   164.8    8.92   6    2.22
  -3   1  -1  174.68    9.36   6    4.45
  -9   4  -2  532.51   37.44   6    1.11
 -13   5  -3 1215.61   85.13   6    0.89
 -10   5  -2  527.97   61.91   6    0.86
  -7   3  -4  141.11   17.78   6     1.5
  -8   4  -3   148.5   19.52   6    1.11
  -6   3  -2  149.04   15.26   6    1.47
 -11   5  -3  708.28   72.31   6    0.89
 -13   5  -5  972.73   91.62   6    0.91
 -15   6  -7 1053.83  146.74   6    0.75
  -9   4  -6  172.92   31.32   6    1.11
  -7   3  -3  111.07   14.53   6    1.51
 -10   4  -5  274.18   37.21   6    1.13
 -10   5  -8  633.57   83.98   6    0.87
  -9   4  -3  201.56   24.73   6    1.13
 -14   4  -3  246.96   30.99   6    1.07
 -11   5  -1  355.07   56.57   6    0.85
 -11   4  -2     280   32.94   6     1.1
 -10   5  -7  249.26   58.11   6    0.88
 -12   5  -9  498.86   87.68   6    0.87
 -17   6  -5  803.07  141.11   6    0.75
  -9   3  -4  132.73    19.2   6    1.48
 -14   6  -3  776.67  120.92   6    0.74
 -11   4  -3  206.63   30.27   6    1.12
  -6   2  -2   11.73     4.4   6    2.12
  -4   1  -1   11.09    2.56   6    3.79
   4  -2  -4  1062.8   21.66   7    2.65
   4  -3  -8 1187.74   31.41   7    1.73
   2  -2  -5     757   18.69   7    2.66
   6  -2  -7 1374.86   31.31   7    2.11
   6  -3  -8 1574.74   38.29   7    1.69
   8  -2  -8 1231.52   31.66   7    1.81
   4  -3 -10 1285.65   35.67   7    1.58
   4  -4 -11 1257.77   40.56   7    1.29
   6  -2  -6  604.67   22.17   7    2.21
   5  -3 -12    1032   38.08   7    1.42
   8  -3  -9   749.4   37.14   7    1.53
   7  -3  -7  599.11   25.43   7    1.68
   5  -2  -6  476.51   19.06   7    2.33
   9  -4 -13  1399.6   67.55   7    1.16
   4  -2  -7  508.05   19.68   7    2.27
   6  -4 -15 1575.67   67.32   7    1.11
   8  -3  -8  647.87   31.42   7    1.58
   7  -3 -10  824.02   38.51   7    1.52
   7  -4 -10 1097.38   46.28   7    1.31
  10  -4 -12 1023.95   64.91   7    1.17
   9  -3 -14 1038.73   62.85   7    1.22
  13  -5 -11 1234.94   85.04   7    0.99
   7  -2  -7  379.64   19.76   7       2
   6  -3  -7  384.51   22.75   7    1.74
   9  -3  -8     548   31.24   7    1.52
   9  -4  -8  695.16   37.36   7     1.3
   2  -1  -3  227.53   11.81   7    4.85
   9  -4 -12 1138.55   58.35   7     1.2
   9  -3 -11  656.27   43.19   7    1.38
   6  -4 -12  865.86   50.58   7    1.24
   7  -3 -14  727.54   46.02   7    1.27
   5  -5 -12  672.95   54.39   7    1.08
   8  -3  -7  386.53   23.72   7    1.61
   5  -2  -8  295.27   16.45   7    2.06
  10  -4 -13 1043.88   67.87   7    1.14
   5  -3  -9  333.67   25.14   7    1.65
   6  -4 -11  484.79   39.78   7    1.29
   8  -4  -8  375.58   29.16   7    1.34
   5  -3  -7  304.43   21.92   7    1.79
  14  -4 -13 1060.11   79.26   7    1.02
   9  -5 -14  805.59   94.09   7    1.01
  10  -3 -11  475.24   38.97   7    1.34
  10  -3 -10  342.75   34.28   7    1.38
   9  -6 -13  956.13  102.74   7    0.92
   8  -4  -9   447.3   37.49   7    1.31
  11  -3 -11  488.28   43.55   7    1.29
   6  -2  -8  259.45   21.04   7    1.99
   7  -3  -6  153.09   15.74   7    1.71
  11  -3 -12  453.81   49.08   7    1.25
   8  -4 -18  970.57   92.16   7    0.98
   7  -5 -14  736.64   81.64   7    1.03
   6  -6 -15 1326.15  132.19   7    0.89
   2  -1  -2  105.93    7.94   7    5.33
   7  -4  -8  255.54   31.49   7    1.37
   6  -3 -12  291.23    40.5   7    1.41
  10  -4 -16  386.58   54.05   7    1.03
   8  -5 -11  475.18   62.18   7    1.09
   5  -2  -7   96.89   13.39   7     2.2
   7  -5 -17 1082.74  106.68   7    0.94
  13  -4 -12 1045.96  106.21   7    1.08
  13  -4 -13  418.24   75.02   7    1.05
   3  -3  -8   99.21   11.75   7    1.74
   9  -3 -13  273.35   38.44   7    1.28
   9  -5 -10  430.38   54.23   7    1.09
  11  -5 -12  459.26   63.15   7    1.02
   7  -3  -9  243.54   25.02   7    1.58
   5  -3 -10  164.25   21.49   7    1.57
   8  -5 -10  299.15   48.41   7    1.11
  10  -6 -12  518.17   80.63   7    0.92
  12  -4 -13  490.11   70.62   7    1.09
   9  -4  -9     148   24.55   7    1.28
  14  -5 -14  621.01      90   7    0.93
   9  -5 -11  269.88   40.77   7    1.07
  10  -4 -18  470.18    92.7   7    0.97
   3  -1  -4   71.01    8.26   7    3.98
  10  -5 -10  271.16   49.93   7    1.07
   7  -5 -13  134.21    38.9   7    1.05
   5  -2  -9   100.8   18.81   7    1.93
  10  -3 -13  296.01   42.18   7    1.24
   6  -2  -9   91.61   15.48   7    1.88
  14  -6 -13  519.83  101.21   7    0.85
   7  -2  -8      61   11.68   7    1.91
   4  -2  -9   36.02   10.84   7    1.96
   8  -5 -15  272.13   49.19   7    0.99
   3  -4  -6 2812.86   49.31   7     1.4
   1  -3  -3 1455.13      23   7    1.69
   2  -3  -4 1322.98   25.63   7    1.85
   7  -4  -6  2851.9   54.85   7    1.38
   2  -4  -3  997.34    29.6   7    1.24
   3  -2  -2  985.66   19.26   7    2.71
   6  -5  -8  3515.8   80.88   7    1.14
   2  -5  -4 2338.44   63.04   7    0.98
   3  -2  -3  617.27   16.63   7    2.81
   5  -3  -3  851.45   23.97   7    1.79
   7  -4  -5 1259.15   38.26   7    1.36
   2  -3  -2  576.14   16.28   7    1.64
   6  -5  -4 1918.96    59.8   7    1.06
   2  -5  -8 2276.84   68.07   7    1.09
   3  -6  -6 3659.22  127.87   7    0.87
   4  -4  -4  871.93   32.11   7    1.37
   1  -2  -2  308.57   10.73   7    2.61
   7  -5  -7 1568.85   61.69   7    1.13
   7  -6  -6 2944.62  118.23   7    0.92
   3  -5 -10  1414.7   60.22   7     1.1
   2  -2  -1  199.23    7.87   7     2.4
   0  -6  -8 2625.14  102.93   7    0.83
   4  -4  -3   615.8   26.44   7     1.3
   4  -5 -10 1426.02   60.67   7    1.12
   2  -3  -6  462.69   17.92   7    1.84
   1  -4  -6  504.73   27.69   7    1.33
   4  -3  -2  290.54   14.95   7     1.7
   3  -5  -6 1054.56   49.92   7     1.1
   2  -3  -3  270.59   14.77   7    1.79
   5  -4  -6  703.96   33.52   7    1.43
   1  -1  -1  254.59   11.36   7    5.47
   1  -2  -3  195.69    9.95   7    2.75
   1  -6  -9 1569.16   91.53   7    0.87
   1  -5  -7  797.12   53.56   7    1.05
   2  -4  -5  377.06   25.81   7    1.36
   3  -6  -9  1355.5    92.5   7    0.92
   2  -4  -4  288.67   24.26   7    1.31
   2  -4  -6  395.94   27.23   7    1.38
   6  -5  -2  663.71   55.52   7    0.93
   6  -4  -4  328.43   25.54   7    1.36
   3  -4  -3  284.21    21.5   7    1.28
   0  -5  -7  804.41   51.55   7       1
   4  -4  -7  432.76   27.45   7    1.42
   3  -3  -3  214.02   15.88   7    1.82
   4  -5  -9   520.1   48.13   7    1.13
   8  -5  -5     747   57.62   7    1.08
   3  -4  -8  303.88    27.9   7    1.39
   7  -5  -8  507.86   43.82   7    1.14
   3  -6 -10  872.12   89.21   7    0.92
   4  -6 -11  888.33   86.09   7    0.93
   1  -3  -4  129.18   13.17   7    1.77
   6  -5  -7  415.77   44.88   7    1.14
   4  -6  -8  648.66   77.68   7    0.93
   7  -6 -10  938.64   87.94   7    0.95
   4  -5  -3  384.13   40.41   7    0.98
   3  -5  -7  438.34   45.19   7    1.11
   8  -5  -7  448.45   48.56   7    1.12
   7  -6  -7  567.81   68.23   7    0.93
   6  -4  -3  334.04   29.99   7     1.3
   1  -5  -6  387.26   45.54   7    1.02
   4  -7  -8 1297.74  136.76   7    0.77
   2  -3  -5  157.49   15.02   7    1.87
   3  -6 -11  535.97   77.96   7    0.92
   6  -4  -6  265.93    25.7   7    1.41
   6  -6 -11  779.73   79.23   7    0.95
   6  -4  -5  269.26   24.31   7    1.39
   7  -5  -2  172.07   31.77   7    0.94
   5  -5  -4  481.74   52.74   7    1.05
   4  -6  -4  412.43   74.75   7    0.82
   5  -5  -6  190.58   38.95   7    1.12
   5  -6  -6   646.2   67.35   7    0.91
   8  -7  -5  732.64  125.38   7    0.74
   9  -6  -6  469.86   68.56   7    0.91
   8  -7  -9  914.79   132.4   7    0.81
   3  -5  -9  262.42   41.28   7    1.11
   9  -5  -7  205.42   44.06   7    1.09
   4  -6 -12  392.64   62.52   7    0.92
   2  -6  -8  508.02   69.44   7    0.89
   7  -5  -4  244.22   45.07   7    1.06
   8  -6  -3  467.61   74.18   7    0.81
   1  -5  -8  155.54   41.36   7    1.06
  11  -6  -9  470.62   90.84   7    0.91
   9  -6  -4  482.71   98.28   7    0.84
   1  -1  -2    52.1    5.61   7    5.43
   2  -4  -7  121.94   18.67   7    1.38
   7  -4  -4   36.45   12.69   7    1.31
   4  -4  -6   142.4   23.06   7    1.43
   3  -7 -10  410.37   99.91   7    0.78
   2  -7 -10  794.85  137.45   7    0.76
   4  -6 -10  211.92   49.26   7    0.94
  10  -7  -7  381.91   96.07   7    0.78
   0  -2   0 7509.73   33.93   7    1.25
  -1  -3  -2 2803.46   34.66   7    1.19
   5  -3   2 6453.94   86.24   7    0.78
  -3  -2  -2 1815.04   24.64   7    0.97
  -1  -3  -3 1669.19   24.28   7    1.37
   2  -1   1  379.95    5.69   7    1.74
  -3  -3  -2 4071.04   62.48   7    0.76
  -1  -1  -1  500.22    6.65   7    2.84
   4  -4   0 4457.94   74.46   7    0.93
   3  -3   1 2701.58   46.47   7    0.93
   0  -4   0 8460.96  141.24   7    0.62
   2  -2   0  671.27   12.22   7    1.85
   3  -3   2 4340.61   90.41   7    0.62
   3  -2   2 2175.75   41.75   7    0.72
  -1  -2  -2  338.38    8.62   7     1.9
   6  -2   3 1574.64   55.44   7    0.62
   2  -2   1  368.74   11.71   7    1.17
  -2  -5  -4 2879.75   99.09   7    0.74
  -2  -2  -1  361.96   14.23   7    0.96
  -2  -4  -3 1242.22   49.06   7    0.85
   1  -4  -2  620.55   31.87   7    1.04
  -3  -3  -1 2332.49   85.07   7    0.51
   4  -3   1  510.02   28.13   7       1
  -3  -6  -6 3516.59  154.99   7    0.63
   4  -3   0  372.31   17.03   7    1.28
   2  -4   0  701.24    52.9   7    0.81
  -4  -4  -4  1090.2   72.45   7    0.71
   2  -3  -1  248.19   14.41   7    1.42
  -5  -3  -3   913.1   75.17   7    0.56
   5  -5  -1 1251.64   68.66   7    0.84
  -3  -3  -3  239.35    24.6   7    0.95
   1  -5  -1 1334.77   93.87   7    0.67
  -4  -4  -3  643.22   71.29   7    0.61
  -3  -4  -2     111   30.15   7     0.6
   0  -5  -1  909.66   96.66   7    0.61
   3  -4   2 1520.49  136.88   7    0.52
  -2  -4  -4  311.69   30.13   7    0.95
   0  -3  -1   87.46   15.03   7    1.14
   3  -4  -1  195.85   28.07   7    1.04
   5  -3   3 1024.05   85.78   7    0.52
   7  -4   3  969.24  113.14   7    0.55
  -1  -5  -3  375.73   61.53   7    0.74
  -3  -4  -3  321.51   47.86   7    0.73
   0  -6  -4  957.92  109.15   7    0.69
   1  -5  -3  382.19   51.52   7    0.86
   3  -5  -1  319.99   64.12   7    0.78
   4  -5   0   87.13   42.99   7    0.71
   1  -5  -2  409.12   65.89   7    0.78
  -7  -4  -5 1709.34  152.05   7    0.47
   0  -7  -3  235.73   80.27   7    0.52
   2   2  -3 3734.02   33.27   7     1.2
   1   1  -1  888.72    7.15   7    1.63
  -1   1  -3  810.91    9.57   7    1.75
   0   2  -4 2165.05   31.77   7    1.01
   3   2  -2 2075.55   32.99   7    1.02
   3   3  -5 4343.49   80.92   7    0.86
   2   2  -5 1145.87   21.67   7    1.51
   2   1  -1  391.49    7.06   7    2.24
   3   2  -3 1078.77   21.37   7    1.33
  -3   2  -6 4219.59   85.78   7    0.67
   4   2  -3  970.64    22.2   7    1.39
   1   3  -7 3001.96   71.95   7    0.86
   5   2  -3   965.9   22.09   7    1.38
   0   1  -3  388.04    8.33   7    2.54
   1   3  -5 4232.93  105.13   7    0.67
   0   2  -6  855.75   21.85   7    1.27
   6   2  -1 1693.32   40.74   7     0.9
   5   3  -2 7610.16  152.91   7    0.53
   8   3  -5 2042.29   64.55   7    0.96
  -1   3  -7 2813.63  110.68   7    0.66
   6   3  -4 2048.74   68.76   7    0.87
   5   3  -5 1562.49   56.21   7    0.95
   2   3  -4 2332.63   96.04   7    0.63
   2   2  -4  413.99   15.79   7    1.41
   7   4  -6 4103.55  160.46   7    0.68
   1   1  -2  206.99    6.53   7    2.82
  -2   2  -6  806.72   34.37   7    0.88
   1   2  -5  358.82   15.08   7    1.38
   5   2  -2   591.4   25.08   7    1.16
   4   2  -1  691.41    36.7   7    0.75
   3   4  -6 4145.73  196.92   7    0.55
   2   3  -8  876.34   47.94   7    0.97
   8   3  -1 2847.87  158.08   7    0.51
   1   2  -6  263.74   15.32   7    1.42
   1   2  -3  317.78   21.39   7    0.98
   3   4 -10  1804.7  116.55   7    0.73
   7   3  -5  1015.8   53.95   7    0.97
  -1   2  -6  363.56   20.58   7    1.08
   6   3  -5  784.86   48.92   7    0.97
  -1   2  -5  432.51   25.38   7    0.96
   1   4  -9 1929.47  152.88   7    0.61
   1   3  -9  459.09    44.7   7    0.92
   3   2  -4   133.2   13.65   7    1.51
   2   3  -6  697.99   53.13   7    0.87
   1   2  -4  184.48   18.22   7    1.24
   5   2  -1  376.96   31.34   7    0.85
   0   4 -12 1533.76  136.77   7    0.64
  -1   3  -9  605.42    71.7   7    0.76
   6   2   0  532.82   60.33   7    0.59
   8   3  -3 1809.37  132.07   7    0.78
  -2   3  -8  728.48    91.4   7    0.62
   7   4  -5 1796.08  164.45   7    0.62
   3   4  -9 1053.01  114.43   7    0.71
   8   5  -9  1722.3  192.52   7    0.58
   3   4 -11  467.62   87.39   7    0.74
   7   3  -1 2668.35  150.21   7    0.47
   3   2  -6 2311.16   34.15   7    1.59
   7   2  -6 2754.22   46.68   7    1.48
   2   1  -4  962.84   21.03   7    3.03
   2   2  -7  945.69   23.55   7    1.51
   2   2  -8  947.93   27.05   7    1.45
   6   2  -7 1505.06   39.23   7    1.52
   4   2 -11 1739.32   50.49   7    1.31
   6   2  -5  862.99   25.72   7    1.53
   3   2  -9 1040.49   34.07   7    1.43
   3   1  -6  789.79   21.91   7    2.49
   8   2  -8 1536.74   46.34   7    1.38
   6   3  -8  1661.3   57.67   7    1.07
   4   3 -10 1707.01   61.47   7    1.04
   3   2 -10  959.38   35.05   7    1.36
   7   2  -9 1215.85   44.59   7    1.39
   5   2  -6  428.84   21.35   7    1.59
   3   1  -5   504.2   19.09   7    2.73
   6   2  -6  716.52   28.79   7    1.54
   6   2 -12 1008.44   49.83   7    1.24
   9   2  -8  933.17   44.71   7    1.32
   4   2  -7  462.85   23.62   7    1.57
  10   2 -13 1523.48   75.14   7    1.11
   9   2 -13 1339.07   70.65   7    1.14
   7   2 -10  959.98   46.21   7    1.34
   6   2 -15 1544.52   78.02   7    1.08
   7   3 -10 1148.64   66.91   7    1.05
   2   1  -3  241.69    9.93   7    3.21
   3   1  -7  302.87   15.23   7    2.25
  10   2 -12 1046.15   61.21   7    1.15
   8   3  -9 1016.02   65.67   7    1.05
   5   3 -12 1226.64   73.23   7    1.01
   8   3  -8  972.39   60.11   7    1.05
   9   2 -12  954.78   61.64   7    1.18
   7   2  -7  408.68   28.03   7    1.47
   3   2 -11  367.73   28.92   7    1.29
   5   1  -6  270.69   15.22   7    2.29
   7   3 -16 1928.71  143.81   7    0.89
   6   2  -8  306.99   27.19   7    1.48
   6   1  -6  247.87   16.73   7    2.14
   3   2  -8  237.24   20.76   7     1.5
   7   3 -17 2232.94  164.97   7    0.86
   6   4 -15 2485.93   176.8   7    0.76
   3   1  -8  225.76   14.73   7    2.05
   5   2 -12  514.68   45.15   7    1.25
   6   2 -10  342.08   39.57   7    1.37
   2   1  -6  152.39   11.03   7    2.48
  13   3 -13 1660.26  139.78   7    0.89
  11   3 -16 1670.01  168.19   7    0.86
   5   2  -8  351.01   25.84   7    1.51
   5   3 -15 1093.52  105.21   7    0.92
   8   2  -9  263.85   32.41   7    1.34
   9   3 -14 1019.83  104.71   7    0.94
   3   3 -10   521.5   49.28   7    1.01
   9   4 -13 1272.73   144.8   7     0.8
   5   3 -16  986.06  112.34   7    0.88
   9   3 -11   679.7   66.82   7       1
   5   2  -7  105.25   16.95   7    1.56
   9   3  -8  612.95   54.17   7    1.02
   4   4 -15  963.41  129.13   7    0.74
  10   3 -14 1038.14  107.18   7    0.93
   8   3  -7  517.38   52.29   7    1.04
   6   4 -12  966.17  111.95   7    0.79
  10   4 -12 1035.21  141.92   7    0.79
   2   1  -5   97.99    9.52   7    2.75
   8   2 -13  585.42   58.83   7    1.16
   9   3  -7  371.36   48.24   7    1.01
  14   3 -14 1591.36  178.28   7    0.85
   7   3 -14  928.83  101.55   7    0.95
   7   3  -9  269.49   47.43   7    1.07
  10   3 -11  415.88   84.06   7    0.98
  10   4 -13  1291.8  167.75   7    0.79
   6   4 -19 1861.64  211.25   7     0.7
  11   3 -10  498.21    68.1   7    0.97
   6   3 -16  860.46  117.73   7    0.89
   9   3 -13  592.28   96.21   7    0.96
   9   3 -15  950.52  113.52   7    0.91
  14   4 -13 1180.99  186.93   7    0.74
  13   4 -12  596.97  123.14   7    0.75
   8   2  -7  154.65    25.1   7    1.41
  13   4 -24 1469.84  336.21   7    0.62
   4   3 -11      97   21.52   7    1.02
   3   1  -4   71.79   10.02   7    2.94
   7   2 -13  197.88   39.55   7    1.17
  12   2 -12   248.8   49.59   7    1.07
   6   2 -14  112.81   28.91   7    1.13
   7   0  -7    1030   27.23   7    2.21
   8   1  -9 1484.55   34.72   7    1.63
   6   0 -11  1645.6   41.26   7    1.72
   7   0 -10  1626.5   40.98   7    1.79
   9   0 -13 2186.75   60.99   7    1.38
   6   0 -12 1402.03   42.01   7     1.6
   4   0  -6  900.76   23.91   7    3.02
   5   1 -12 1141.54   35.25   7    1.47
   9   0 -12 1461.51   52.55   7    1.46
  10   0 -12 1365.59   50.53   7     1.4
   4   0  -7  634.76   21.27   7    2.68
   7   1 -17 1601.39   76.99   7    1.08
   5   0 -12  690.61   30.15   7    1.62
   7   0  -9  661.99   26.74   7    1.92
   8   0  -9  629.44   26.95   7    1.82
   7   1  -9  495.71   23.89   7    1.71
   7   0 -11  818.38   35.48   7    1.67
  10   0 -13  974.32   50.83   7    1.34
   9   1 -14 1235.58   63.15   7    1.22
   6   0  -9  560.24   24.48   7    2.01
  11   1 -12  832.07   47.68   7    1.25
   9   0  -9  453.78   27.26   7    1.72
   6   1 -11  387.08   25.71   7    1.55
  10   1 -11  559.59   35.34   7    1.36
   7  -1 -16  779.67   45.28   7    1.24
   9   0 -14  791.11    53.6   7    1.31
   6   0  -6  264.05   13.82   7    2.57
  13   0 -13 1122.79    66.9   7    1.19
  13  -1 -14     809   64.21   7    1.17
   9   1 -11  524.03    36.7   7    1.41
   6   0  -8  333.99   21.36   7    2.19
   8   1 -11  460.98   33.49   7    1.47
   2   0  -4  233.91   12.81   7    4.77
  10   1 -12   572.5   42.59   7     1.3
   7   1 -10  239.63    22.2   7    1.61
  14   1 -14 1021.49   74.01   7    1.05
   4   0  -4  246.69    13.2   7    3.85
  11  -1 -16 1030.57   75.07   7    1.15
   7   1 -12  347.05   28.57   7    1.43
   7   1 -16  743.02   58.16   7    1.14
  12   0 -12  547.19   41.93   7    1.29
   8   1 -15  668.21   54.43   7    1.18
  13   1 -14  800.26   70.01   7    1.08
  10   1 -10  305.03   27.96   7    1.41
   5   0  -8  253.99   16.65   7     2.3
   9   1 -10  334.57   27.89   7    1.49
   8   0 -18  953.09   80.54   7    1.08
   5   0  -5  165.28   11.45   7    3.09
  11   1 -16  817.67   78.57   7    1.06
   4   0  -9  190.81   14.81   7    2.15
  14   0 -15 1192.26  100.53   7    1.07
   8   0 -10  269.08   24.31   7    1.71
  11  -1 -18  517.55    64.8   7    1.05
  10   0 -14  457.14   56.78   7    1.27
  13   1 -13  545.29   56.16   7    1.12
  10   0 -10   275.2    25.5   7    1.54
  13   0 -14  731.85   62.23   7    1.15
   7   1 -11  268.37   26.86   7    1.52
  11   1 -11  364.77   34.84   7     1.3
   9   1 -15  450.13   50.26   7    1.16
   8   0 -12   264.4   29.32   7    1.51
   5   0  -7  172.34   13.06   7    2.54
  14  -1 -16  883.65   90.63   7    1.05
  11   0 -15  450.32   55.43   7    1.18
  11   0 -11  275.75    31.1   7     1.4
   3   0  -7   60.36    7.99   7    2.77
   7   0  -8  102.87   13.32   7    2.06
   3   0  -5   77.92    8.63   7    3.71
   8   0 -13  409.32   44.39   7    1.42
  14   1 -20 1009.66     189   7    0.86
   9   1  -9  122.46   17.59   7    1.54
  11   1 -18  620.98   87.75   7    0.98
   2   0  -3   86.48    9.07   7    6.03
  10   0 -18  441.51   78.37   7    1.05
  14   1 -16  780.07   90.08   7    0.98
  11   1 -14  574.46   80.71   7    1.15
  10   0 -11  337.42   31.63   7    1.48
  11  -1 -20  564.67    75.2   7    0.96
  10   0 -19  523.26   79.15   7       1
   8   1 -13  226.05   42.54   7    1.32
  10   1 -14  629.15   66.91   7    1.19
  10   0 -16  401.28      66   7    1.15
  10  -1 -23  529.83   97.81   7    0.86
  10   0 -17  290.25   58.42   7    1.09
   7   0 -14  218.05   44.86   7    1.37
   7   0 -15  117.02   25.43   7    1.28
  10   1 -13  177.74   41.23   7    1.24
  16   2 -18  352.57   93.77   7    0.81
  13  -1 -15  406.18   65.21   7    1.13
  13   2 -22  371.58  111.21   7    0.76
  14  -1 -20  696.05  138.31   7    0.91
   9   1 -17  402.13   68.61   7    1.06
   3   0  -3   43.23     5.7   7    5.14
  -1  -3  -5 2271.06   27.58   7    1.53
   0  -2  -4  1069.8   17.62   7     2.5
  -2  -2  -5  1066.2   17.36   7    1.88
   1  -3  -7 1776.12   28.93   7    1.73
  -2  -3 -10 2244.56    42.5   7    1.29
   0  -4  -8 2066.31   41.96   7    1.26
  -2  -2  -7  951.27   19.55   7    1.75
   0  -3  -7 1038.78   24.01   7    1.64
  -2  -2  -6  652.49   15.26   7    1.83
  -4  -3 -10 1793.84   44.76   7    1.09
  -2  -5  -8  2520.5   70.64   7     0.9
  -1  -1  -3  420.57   10.64   7    3.66
   0  -5 -11 2668.94    75.8   7       1
   0  -2  -6  561.08   14.59   7    2.28
  -1  -4  -9 1465.36   40.65   7    1.18
  -2  -3  -6  551.58   16.62   7     1.4
  -3  -4 -10 1560.61   54.96   7    1.02
  -2  -3  -8  651.55   21.74   7    1.37
  -1  -2  -5  340.54   11.45   7    2.18
  -4  -4 -11 1702.78    63.2   7    0.93
  -2  -4  -8  942.25   34.92   7    1.11
  -2  -5 -10 1793.88   71.11   7    0.92
  -1  -5 -10  1237.1    58.6   7    0.97
  -3  -4  -9  816.52   38.76   7    1.02
  -3  -5 -10 1437.08   67.62   7    0.86
  -1  -4  -6  528.02   23.92   7    1.17
   1  -5 -10 1151.23   50.23   7    1.05
   0  -1  -3  234.62    9.86   7    4.55
  -1  -2  -6  233.32   10.73   7    2.08
  -1  -3  -9   418.2   21.35   7    1.43
  -1  -4 -11  823.76   40.08   7    1.13
   0  -3 -10  434.19   24.28   7    1.43
  -2  -3  -9  416.83   22.66   7    1.34
  -3  -3 -10  487.76   27.28   7    1.19
  -1  -2  -8  215.23   11.89   7    1.83
  -2  -3 -12  358.18   28.39   7    1.18
  -1  -2  -4  114.29     6.3   7    2.22
  -4  -4 -15 1145.23   80.68   7    0.86
   0  -6 -12 1384.43   92.74   7    0.84
   1  -5 -11  545.75   49.69   7    1.02
  -5  -4 -12  707.66   70.79   7    0.85
  -4  -5 -11 1175.59   83.26   7    0.81
  -3  -4 -11  572.14   42.46   7       1
   0  -5 -15  611.05   67.68   7    0.92
  -3  -5 -17 1267.11  116.61   7    0.78
  -4  -4 -12  423.25   49.14   7    0.92
  -3  -6 -10  934.01    85.2   7    0.73
  -5  -5 -12  736.82   89.61   7    0.75
  -4  -5 -16 1136.86  109.62   7    0.76
  -3  -5 -13  698.16   67.82   7    0.84
  -1  -4 -12   453.1   37.94   7    1.09
  -4  -4 -14  479.38   60.19   7    0.88
   1  -4  -8  217.54   20.44   7    1.32
  -2  -4  -7  138.98   21.36   7     1.1
   1  -5 -13  511.77   64.92   7    0.99
  -2  -4 -11  319.55   34.42   7    1.07
  -1  -6 -13  618.87   88.79   7     0.8
  -3  -4  -8  265.31      28   7    1.02
  -3  -4 -13   501.3   51.01   7    0.96
  -7  -5 -17 1181.12  145.13   7    0.64
  -1  -5  -8   208.3   31.05   7    0.96
   0  -6 -16  804.06    95.1   7    0.79
  -6  -6 -19 1157.31  177.57   7     0.6
  -1  -6 -11  471.81   62.57   7    0.81
   0  -5 -13  445.23   52.42   7    0.96
   1  -6 -13  659.24    99.9   7    0.87
  -1  -5  -9  169.58   32.89   7    0.97
  -3  -3  -8  137.15   18.23   7    1.24
  -5  -5 -15  255.41   64.93   7    0.73
  -3  -6 -11  648.86   84.18   7    0.74
  -1  -2  -7   64.49    9.06   7    1.95
  -1  -7 -14  570.66  115.07   7     0.7
  -4  -3 -11   63.16   23.09   7    1.06
  -4  -6 -12  184.38    52.1   7     0.7
   0  -4 -10  116.08   27.26   7    1.21
  -3  -6 -13  434.26  105.61   7    0.74
   1  -7 -14  458.24   85.03   7    0.74
  -3  -5 -18  494.75  123.85   7    0.76
   0  -1  -2    3.67    1.12   7    4.59
  -3   0  -6 3431.07   30.03   7    1.75
  -4   0  -8 2502.04   34.96   7    1.32
  -5   0  -6 3212.48   41.52   7    0.97
  -4   0  -6 1705.22   24.18   7    1.33
  -3  -1  -5  862.28    14.9   7     1.9
  -4   0  -4  982.84   16.09   7    1.02
  -6  -1  -5 2685.39   53.07   7    0.69
  -7  -1  -7 4773.56   96.07   7    0.71
  -6   1  -8 5513.53  104.73   7    0.65
  -6  -2  -7 2031.82    47.7   7    0.89
  -4   0  -7  938.79   21.51   7    1.34
  -7  -2  -6 5454.92  111.68   7    0.64
  -6  -1  -7 1095.38   40.34   7    0.92
  -6   0 -11 2436.49   71.69   7    0.89
  -8  -1  -9 3864.57   109.3   7    0.66
  -7  -2  -9 2517.71   87.54   7    0.81
  -8  -2  -8 3298.25  115.75   7    0.63
  -2   0  -4  329.77    8.66   7    2.62
  -7   0 -10 2661.78   89.19   7    0.75
  -6  -2  -5 1138.22   45.86   7    0.72
  -6   0 -12 1736.82   70.67   7    0.88
  -6  -1  -6  736.62   37.25   7    0.83
  -6  -2  -6  941.18   41.69   7    0.83
  -7  -1  -8 1166.88   63.53   7    0.77
  -1   0  -1    52.1    1.81   7    4.04
  -7  -2 -10 1582.41    72.1   7    0.82
  -1   0  -2  207.39    7.96   7    5.24
  -6   0  -9  939.06   47.28   7    0.89
  -7   0  -7 1575.83    76.4   7    0.58
  -2   0  -3  123.35    4.87   7    2.65
  -8  -1  -8 2566.13  118.35   7    0.61
  -9   0 -13 2799.25  165.59   7    0.59
  -7   0 -11 1067.23    79.3   7    0.77
  -3   0  -5  120.44    7.52   7    1.79
  -3  -1  -4  109.13    7.31   7    1.87
  -5   0  -8  344.59   23.31   7    1.07
  -3   0  -3   37.19    4.06   7    1.35
 -10  -2 -12 2103.41  177.69   7    0.56
  -7   0  -9  868.64   62.46   7    0.72
  -5   0  -5  270.81   21.97   7    0.81
  -7  -1  -9  771.62   54.64   7    0.81
 -10   0 -12 1217.19  171.82   7    0.48
  -5   0  -7  243.42   19.89   7    1.05
  -9  -2 -12 1601.14  151.29   7    0.64
  -8  -1 -11   619.2   79.37   7    0.71
 -10  -2 -13  2632.4  183.86   7    0.57
  -9   0 -12  1485.8  134.91   7    0.57
  -6  -2 -10  385.76   37.74   7    0.95
  -6   0  -6  367.59   34.23   7    0.68
  -6   0  -8  537.45   41.44   7    0.85
  -8  -3  -8  819.65   89.76   7    0.61
  -9  -1 -14  1249.8  146.88   7    0.64
  -9   1 -14 1512.14  185.35   7    0.52
  -9  -3 -14 1897.84  187.43   7    0.63
  -8   0  -9 1011.14   97.43   7    0.58
  -8   1 -15  798.14  131.99   7     0.6
 -11  -3 -16 1969.45  233.18   7    0.53
  -3   0  -4   10.12    2.24   7    1.72
  -6  -2  -8  429.87      35   7    0.94
  -8  -1 -10  595.78   80.27   7    0.69
  -8  -3  -7  510.81   66.94   7    0.55
  -6  -1  -9   46.63   12.75   7    0.97
  -8   0 -13  435.29   81.89   7    0.67
  -9   0 -14   725.6  133.44   7    0.59
  -7  -1 -12  403.17   55.37   7    0.82
  -9  -1 -15  569.16  121.14   7    0.63
  -7   1 -11  211.99   58.33   7    0.65
  -9  -1 -10  740.23  134.03   7    0.59
  -7  -1 -11  203.74   39.49   7    0.83
  -4  -1  -5   25.77    4.51   7    1.41
  -7   1  -9  852.16  103.08   7    0.57
  -2   1 -10 2605.86   39.77   7    1.32
  -1   1  -7 1131.63    19.2   7    1.78
   2   1  -8 1628.22   26.49   7    2.03
   0   1  -7 1126.51   20.25   7       2
   1   2  -9 1543.38   29.87   7    1.33
   2   1 -10 1720.52   31.53   7    1.69
  -1   1 -10 1225.51   29.57   7    1.43
   1   1  -7  886.95    23.5   7    2.16
   1   1 -10 1019.22   26.64   7    1.63
   2   2 -11 1248.27   33.67   7    1.26
   0   1  -5  264.16    8.52   7    2.38
   1   1 -14 1552.72   50.68   7    1.21
  -1   1 -14  1737.2    56.1   7    1.11
   0   2 -16 2745.19  103.17   7    0.91
   0   1  -9  496.16    18.1   7    1.67
   0   2 -12 1122.76    43.6   7    1.09
   1   2 -11  768.43   34.16   7    1.21
  -1   1  -8  391.35   16.26   7    1.65
   1   1  -8  338.53   14.56   7    1.95
   0   1 -13  825.14   38.45   7    1.24
  -4   1 -16 1724.18   88.27   7    0.83
  -3   1 -13  726.09   42.15   7    1.02
  -3   1 -17 2086.81  101.32   7    0.85
  -1   1  -9  244.89   15.56   7    1.54
   1   1  -6  183.26     9.1   7    2.38
   0   2 -14   733.6   52.62   7       1
   3   3 -17 1834.85  110.09   7    0.83
   1   3 -14 1174.69   75.42   7    0.85
  -3   2 -17 1817.19  119.64   7    0.76
  -3   1 -14  834.09   61.32   7    0.97
  -1   1 -15  908.29   56.48   7    1.05
   1   1 -15  686.07    44.2   7    1.14
  -1   1 -13  467.81   34.68   7    1.18
   1   1 -13  413.37   30.12   7     1.3
  -1   2 -13  614.93   54.92   7    0.99
   1   3 -15  597.46   74.55   7    0.83
   1   2 -17 1023.61    98.2   7     0.9
  -1   2 -17 1184.62  109.07   7    0.84
   0   3 -19 2433.73   206.1   7    0.71
   1   1  -9  212.96   15.06   7    1.78
   0   1 -15  445.71   41.15   7     1.1
   1   2 -13  485.97   37.98   7     1.1
   1   2 -12  254.93   26.26   7    1.15
   2   1 -16  492.32   49.57   7     1.1
   4   2 -16  439.07   51.04   7    1.01
  -2   1 -11  192.64   21.38   7    1.23
   0   1 -23 1282.25  158.65   7    0.74
   4   2 -18  640.07   74.66   7    0.92
   2   2 -19  665.51   80.02   7    0.85
   0   1 -19  929.71   93.39   7    0.89
   2   1 -11  140.61   16.69   7    1.55
  -1   2 -12  278.48   33.31   7    1.03
   2   2 -13  246.47   36.37   7    1.14
   4   2 -19 1013.15    97.2   7    0.88
   1   2 -21  598.48   122.2   7    0.76
  -4   2 -19 1022.52  147.53   7    0.67
   4   3 -19  663.28  115.77   7    0.78
   2   1  -9   48.68    9.11   7    1.87
  -2   1 -16  571.25   63.86   7    0.95
   3   2 -18  751.91   87.11   7    0.91
   0   3 -15  424.49   66.37   7     0.8
   0   3 -23 1513.34  219.02   7    0.63
   1   1 -18  412.69   67.39   7    0.96
  -2   2 -26  496.42  135.96   7    0.59
  -1   2 -16   91.35   30.38   7    0.89
  -4   1 -15  348.02   56.41   7    0.86
   3   2 -25  669.74   165.6   7    0.68
  -3   2 -18  706.54  127.83   7    0.73
  -1   1 -17  206.39   58.12   7    0.94
   2   2 -17  366.88   65.71   7    0.93
  -2   2 -14   84.48   29.71   7    0.89
   3  -1 -10 1416.94   35.57   7    1.97
   4  -2 -11 1605.87   40.41   7     1.7
   2  -2 -11  1194.9   36.14   7    1.67
   4  -1 -11 1196.01   35.73   7    1.81
   4  -1 -12 1013.85   38.88   7    1.69
   1  -1 -14 1557.62   48.62   7    1.36
   0  -2 -12  935.36   32.92   7    1.46
   3  -2 -10  901.62   27.04   7    1.83
   6  -2 -19 2933.95  110.89   7    1.04
   4  -1 -16 1555.21   62.34   7    1.25
   3  -1 -17  1791.6   70.86   7    1.16
   1  -2 -11  745.81   30.13   7    1.63
   3  -2 -17 1688.06   74.11   7    1.14
   4  -2 -15 1431.47    60.7   7     1.3
   3  -3 -17 1626.67   73.16   7    1.08
   4  -3 -16  1475.3   71.09   7    1.15
   0  -2 -14  786.53   38.05   7    1.28
   4  -2 -14   833.6   43.21   7    1.38
   3  -1 -13  694.76   37.61   7    1.53
   5  -3 -15  879.88   49.57   7    1.22
   5  -1 -15  639.98   41.11   7    1.33
   0  -3 -19 1877.62    98.9   7    0.93
   1  -1  -8  335.61   17.75   7    2.38
   3  -2 -11  367.02   23.35   7    1.69
   5  -3 -16  775.46   56.19   7    1.16
   1  -1 -15  741.02   43.67   7    1.27
   1  -2 -13  488.04   30.59   7    1.41
   1  -2 -17  842.71   60.34   7     1.1
   1  -1  -9  212.01   16.28   7    2.12
   3  -1  -9  301.98    19.1   7    2.19
   3  -2 -18  742.04   75.41   7    1.08
   1  -2 -12  278.25   25.22   7    1.51
   3  -1 -14  491.82   36.17   7    1.42
   2  -1  -9  275.18   18.96   7    2.18
   3  -1 -11  234.31   22.14   7    1.81
   1  -1  -6  190.08   12.68   7    3.09
   2  -1 -16  505.26   42.19   7    1.22
   5  -1 -16   413.9    37.2   7    1.25
   4  -2 -12  274.55   26.15   7    1.58
   4  -2 -16  699.28    53.2   7    1.22
   1  -1 -13  360.45   31.03   7    1.47
   2  -1  -6  144.78   11.15   7    3.15
   2  -2 -19 1035.21   77.83   7    1.01
   4  -2 -19 1132.22   87.82   7    1.03
   5  -1 -14  252.39   31.33   7    1.43
   2  -1 -11  160.85    20.3   7    1.79
   2  -2 -13  173.36   25.35   7    1.44
   2  -2 -17  517.44   70.98   7    1.12
   4  -3 -20 1260.58  141.31   7    0.95
   4  -1 -13  221.97   25.17   7    1.54
   4  -3 -19  504.37   75.47   7       1
   1  -2 -21  776.12  117.25   7    0.89
   1  -2 -20  612.77   98.43   7    0.94
   3  -2 -13  110.19   21.03   7    1.46
   3  -1 -18  370.29   65.86   7    1.09
   1  -3 -18  510.54   70.89   7       1
   3  -2 -21  481.65  101.24   7    0.93
   1  -1 -18  562.73   71.41   7    1.05
   6  -3 -20  875.75  125.25   7    0.96
   4  -3 -15  268.87   48.21   7    1.22
   4  -1 -18  333.56   58.81   7     1.1
   4  -1 -15  338.67   39.85   7    1.33
   3  -2 -12  170.02   18.81   7    1.58
   4  -1 -20   459.4   61.81   7    0.99
   2  -1 -13  154.94   27.85   7     1.5
   5  -1 -17  188.82   42.15   7    1.17
   1  -1 -21  273.34   79.48   7     0.9
   3  -2 -15  377.65   53.59   7    1.28
   2  -1  -7   27.37    6.39   7    2.77
   1  -1 -19  360.25   67.47   7    0.99
   3  -4 -25  575.16  150.02   7    0.74
   4  -3 -18  276.84   64.76   7    1.05
   3  -3 -21  763.16  127.08   7     0.9
   2  -1 -18  225.93   44.18   7    1.07
  -4  -1 -10 2143.54    42.2   7    1.28
  -3   0  -9 1790.38   29.34   7    1.47
  -4   0 -11 2389.78   46.33   7    1.16
  -1  -1 -14  2600.7   55.67   7    1.26
  -3   0 -10 2200.41   49.71   7    1.38
  -2  -2 -11 1297.25   33.67   7    1.39
  -1  -1 -10 1090.81   26.92   7    1.72
  -2   0  -6  458.15   11.73   7     2.2
  -3  -1  -7  446.75   15.32   7    1.75
  -3  -1 -10  775.15   25.04   7    1.44
  -4   0 -12 1242.05   41.55   7     1.1
  -5  -1 -12 1536.92   50.43   7    1.04
  -4  -1  -9  511.38      21   7    1.34
  -4  -1 -11  736.12   31.18   7    1.21
  -3  -1 -17 1989.22   81.93   7    0.95
  -4  -2 -14  983.69    55.6   7    1.02
  -1  -1  -8  315.67    14.4   7    2.08
  -3  -2 -17 2062.86   98.53   7    0.95
  -6  -2 -15 2039.08  104.22   7    0.85
  -4  -3 -16 1806.96  100.81   7     0.9
  -2  -1  -6  196.01    9.48   7    2.24
  -3  -1  -8  337.03   17.27   7    1.64
  -2  -1  -9  315.94   16.64   7    1.72
  -7  -1 -17 2092.19  134.44   7    0.73
  -3  -3 -17 1967.02  101.22   7    0.91
  -1  -1  -6  177.31    8.36   7    2.61
  -4  -2 -15 1565.88   73.64   7    0.98
  -1  -1  -9  295.06   14.68   7    1.91
  -6   0 -19 3249.52  184.96   7    0.71
  -3  -2 -11  333.91   21.94   7    1.28
  -5  -2 -12  729.41   45.89   7    1.02
  -7  -3 -16 1767.96  118.22   7    0.74
  -7  -3 -17 1946.06  149.21   7    0.72
  -3  -1 -13  598.83   38.13   7    1.19
  -8  -2 -18 2519.78   164.6   7    0.67
  -5   0 -14  766.44   57.82   7    0.92
  -3  -1 -14  638.14    48.3   7    1.12
  -5  -3 -15  788.02    67.9   7    0.87
  -1  -1 -13  458.02    31.7   7    1.35
  -2  -1  -5  103.46    7.08   7    2.43
  -2  -2 -17  716.91   64.43   7    0.99
  -2  -1 -11  219.67   19.61   7    1.47
  -5  -3 -16  991.46   85.84   7    0.84
  -4  -2 -19 1378.48  124.17   7    0.83
  -2  -1 -16  588.61   64.68   7    1.06
  -6  -2 -19 1575.63  129.81   7    0.74
  -6  -3 -16  850.35   82.87   7    0.79
  -1   0  -3   60.87     4.7   7    4.39
  -4  -2 -16   664.3   68.37   7    0.94
  -4  -1 -16  604.87   54.48   7    0.94
  -4  -2 -12  360.57   32.63   7    1.12
  -2  -3 -18  626.09   78.61   7    0.91
  -7  -2 -18  817.72  130.58   7    0.72
  -2  -2 -15  185.57    31.5   7     1.1
  -4  -3 -20 1140.73  152.84   7    0.77
  -2  -1  -7   47.37    6.32   7    2.04
  -2  -2 -13  137.01    24.4   7    1.23
  -3  -3 -16  340.55    58.4   7    0.94
  -4  -2 -18  639.82   79.48   7    0.86
  -4  -3 -18  388.64   77.71   7    0.83
  -3  -2 -18  741.47   85.37   7     0.9
  -7  -3 -18  624.52  103.53   7     0.7
  -5  -1 -21  566.47  109.23   7    0.72
  -6  -3 -20 1036.84  221.81   7     0.7
  -4  -1 -12   56.48   15.43   7    1.15
  -1   0  -8   11.99    4.16   7    2.04
   7   0   5  733.75    21.8   8    2.58
  14  -1  10 1310.98    51.9   8    1.25
  13  -1  11  794.71   47.44   8    1.22
  16   1   9  878.66   62.04   8    1.25
  11  -1  11  574.51   43.22   8    1.27
  10   1   7  458.92   28.58   8    1.78
  10   1   8  459.42    27.6   8    1.65
  13   1  10  415.18   45.64   8    1.32
   4   0   4  119.29    8.22   8    3.61
   9   0   9  199.18   22.88   8    1.61
  14   0  13  656.45   76.45   8     1.1
  13   0   9  477.32   37.01   8    1.42
   9   0   7  208.72   18.63   8    1.91
  14  -1  12   343.3   55.36   8    1.12
  13  -1  10  292.51   33.38   8    1.29
  14   0  11  465.69    49.7   8    1.23
  10   0   5   18.55    6.47   8    2.09
  13   1  14  200.86   39.52   8    1.04
  18   0  10   560.1   73.31   8    1.13
   5   0   5   61.34    8.02   8    2.89
  25   0  16  634.33  142.03   8    0.77
  12   1   8   33.56   10.59   8    1.55
  15   0   8  140.52   27.31   8    1.37
   3   0   6 1253.67   24.06   8    2.36
   3   0   9 1103.71   31.38   8    1.42
   4   0   8  968.73   27.26   8    1.77
   4   1   8   631.6   24.12   8    1.69
   4  -1  10  1015.2   36.91   8    1.24
   7   0  10  895.04   37.09   8    1.48
   4   0   6  404.26   16.74   8    2.47
   2   0   6  299.48   13.03   8    2.13
   4   0  10  612.65   34.28   8    1.34
   4   1  11  909.84   47.86   8    1.17
   4   0   7  358.17      18   8    2.08
   4   0  12  849.95   63.55   8    1.07
   9   0  12  807.34   54.39   8    1.24
   7   0  11  460.76   34.91   8    1.34
   5  -1  12  727.19    52.4   8    1.07
   6   0   8  169.44   16.68   8    1.86
   3   0   8  179.03   17.95   8    1.66
   9  -1  14  632.57   70.03   8    1.02
   3  -1   8  170.99   16.72   8    1.47
   5   0   8  109.42   14.58   8    1.84
   6   0   9   269.4   24.16   8    1.64
   7   1   9  239.56   23.99   8     1.6
   4  -1   9  257.58    21.3   8    1.41
   2   0   4  113.09    7.82   8    3.54
  10  -1  12   359.1   37.35   8    1.19
   6  -1  11  336.42   40.46   8    1.23
   5   0  12  382.23   42.76   8    1.14
   7   1  17 1323.03  163.44   8    0.79
   1   0   3   26.27    3.01   8    4.24
   7  -1  14  163.09   34.18   8    0.97
   1   0   2   91.79    8.82   8    7.07
   8  -1  10  126.83    20.5   8     1.4
   5   0   7   49.27    7.83   8    2.12
   7  -1  12   176.8   27.36   8    1.15
   8  -1  11  115.79    22.8   8    1.28
   2   0   3   32.72    4.69   8    4.92
   2  -1  10 1905.05   63.09   8    1.01
   1  -1   5  209.62    9.94   8    1.67
   0   1  11 2435.22  122.02   8     0.7
  -1   0  11  193.41   44.22   8    0.53
  -1   1   5 2225.08   41.87   8    0.74
   1   0   7   81.95   12.11   8    1.46
   0  -2   6  442.11   45.85   8    0.64
   2  -2  11  502.57   71.51   8    0.77
   1  -1   8  107.65   20.17   8    1.08
  -1  -1  10  167.52   47.58   8    0.51
   1   1   9   40.77   11.65   8    1.02
   1  -2  11  177.89   50.92   8    0.66
   2   0  15  269.34   61.94   8    0.67
   5   0  -4  395.58   14.03   8    1.72
   6  -1  -5  703.66   30.13   8    1.16
   4   0  -4  285.23   13.61   8    1.52
   7   1  -7 1165.34   69.26   8    0.85
   8  -1  -6  296.54   34.81   8    1.05
  14  -1 -10 1431.78  153.35   8    0.68
   8   1  -6  219.98   28.63   8    1.14
   5  -1  -4  124.84   13.75   8    1.38
  10  -1  -7  156.36   27.76   8    0.94
  10   1  -8  216.39   66.16   8    0.85
   8   1  -8  683.92   95.11   8    0.76
   5   1  -4   25.58    7.29   8    1.63
   1   0  -1    7.64    1.59   8    6.04
   5   0  -3   668.7   16.77   8    2.38
   8   1  -3 1017.37   31.63   8    1.91
  10   0  -3  950.44   34.22   8    1.78
  10   1  -5 1363.09   47.35   8    1.35
   9   0  -4  843.88   32.35   8    1.66
  11   1  -4  646.73   37.24   8    1.47
  10   0  -4  628.16      35   8    1.59
  15   0  -7 2324.16  126.96   8    0.97
  12   0  -6  820.39   56.48   8    1.15
   9   0  -3  382.35   26.75   8    1.92
   7   0  -3  166.23   14.91   8    2.18
  16   0  -6 1524.93  120.87   8    1.03
  14   1  -6  597.22   69.94   8    1.08
  16  -1  -5  543.52   82.58   8    1.06
   9   1  -3  214.86   22.68   8    1.82
   7   1  -4  208.25   19.22   8    1.67
  13  -1  -5  619.33   63.32   8    1.18
  17   1  -6  197.15   51.78   8    0.99
   2   0  -1   28.83    5.01   8    6.88
  10   0  -1 1039.52   28.86   8    2.14
  10   0   1  952.95   28.45   8    2.32
  11   0   2   583.4   26.46   8    2.12
  18   0   1 1180.85   78.66   8    1.28
  18   0  -1 1079.06    77.7   8    1.22
   8   0  -1  287.17   15.98   8    2.63
  16   1   2  739.38   57.37   8    1.42
   8   0   1  271.17    15.4   8    2.91
  20   1   3 1249.91  105.23   8    1.16
  14   0   0  510.41   43.35   8    1.61
  18   0   3  473.12   55.34   8     1.3
   7   0   1  142.91   11.63   8    3.33
  16   0  -2  420.49   46.55   8    1.32
  11   0  -1   59.11   11.42   8    1.97
  12   0   0  163.51   21.58   8    1.88
  17   0   2  198.45   42.15   8    1.37
   4   0   0   68.69    8.81   8    5.63
   7  -2   6 1018.68   23.73   8    1.68
   3  -1   6  416.29   12.32   8       2
   6  -2   7  821.56   25.52   8    1.54
   8  -2   8  692.52   26.18   8    1.45
   6  -3   8  837.51   38.38   8     1.1
   3  -1   5  246.78    9.22   8    2.35
   7  -2   9  630.65   30.26   8    1.32
   6  -2   5  354.77   15.93   8    1.81
   8  -2   6  290.11    15.8   8    1.66
   7  -2  10  441.02   30.96   8    1.22
   2  -1   3  102.62    5.32   8    3.08
  13  -3  11  909.16   63.14   8    1.01
   5  -2   6  135.45   12.88   8    1.63
   6  -1   7  217.66   12.49   8    1.92
   8  -3   8  357.59   29.18   8    1.17
   5  -1   6   93.62    8.96   8    2.17
   9  -2  13  701.72   62.14   8       1
   4  -1   3   81.95    6.15   8    3.32
   7  -3   7  265.88   27.29   8     1.2
   8  -3   9  488.49   48.54   8     1.1
   8  -3   7     180   21.68   8    1.22
   5  -2   8  111.16   14.94   8    1.36
  11  -3  16  751.39  102.19   8    0.78
   7  -3  10  862.67   40.54   8    1.01
   2  -1   2   36.27    3.08   8    3.65
  14  -4  11  421.36   78.29   8    0.87
  11  -2  15  414.74   76.14   8     0.9
   9  -3  11  294.13   50.82   8       1
   9  -3  14  577.79   94.82   8    0.84
  10  -3  14  527.69   88.32   8    0.85
   8  -4   8  120.76   20.44   8    0.92
  24  -6  20   485.6  174.79   8    0.53
   4  -2   0  1592.6   21.64   8    1.78
   2  -2   3 1171.81   17.26   8    1.44
   5  -3   2  2047.2   38.23   8    1.22
   3  -3   2 1962.81   42.32   8     0.9
   3  -2   2  445.36    11.9   8    1.78
   3  -3   1 1519.06   46.96   8    0.82
   1  -1   1  172.62    4.55   8    2.84
   2  -2   1  167.53    8.99   8     1.3
   2  -3   4 1084.22   45.65   8    0.76
   3  -4   6  1956.7  108.03   8    0.62
   5  -3   3  412.51   22.94   8    1.24
   7  -4   2  908.92   68.73   8    0.92
   4  -4   0 2356.07  129.74   8    0.54
   5  -3   1  262.16   22.84   8    1.17
   3  -2   1   90.49    7.98   8    1.71
   5  -4   3   671.4   63.42   8     0.8
   6  -5   4 1156.21  143.47   8    0.63
  10  -7   3  271.69  105.53   8    0.48
   4  -3   2  153.59   16.48   8    1.09
   2  -3   3   20.72    9.11   8    0.73
   7  -6   6 1123.94  147.18   8    0.52
   7  -4   1  276.87   43.28   8    0.89
   7  -5   7  851.05  103.66   8    0.68
   5  -3  -1  154.54   24.85   8       1
   5  -1  -2  564.44    12.9   8    2.41
  10  -2   0 1077.57    28.7   8    1.67
   8  -1  -3  740.72   20.33   8     1.8
   5  -1  -1  465.28   13.76   8    2.95
  10  -2  -1   854.2   30.79   8    1.59
   7  -2  -1  493.34   20.77   8    1.75
   8  -2  -1  501.46   20.32   8    1.72
   8  -1  -1  467.29   17.76   8     2.3
   9  -2  -2     570    26.2   8    1.53
   9  -1  -2     425    20.3   8    1.93
  13  -3  -3 1430.94   67.95   8    1.03
  10  -2  -4  541.24      34   8    1.21
  12  -2  -2  690.03    40.2   8    1.37
  12  -2  -4  686.57   45.71   8    1.17
  11  -3  -3  780.19   47.98   8    1.04
   7  -1  -1  333.41    14.9   8     2.5
  17  -3  -3 1090.93   99.88   8    0.94
  15  -2  -7 1150.57  101.72   8    0.85
  12  -2  -1  385.03   32.75   8    1.45
  17  -2  -5  602.78   61.05   8    0.95
  11  -2  -3     234   32.88   8    1.31
   6  -1  -1   80.87    8.04   8    2.73
  16  -3  -6  416.34   86.62   8     0.8
  16  -3  -5  525.03   95.93   8    0.86
  10  -1   5  797.76   26.96   8    1.95
   8  -1   3  752.27   25.52   8    2.48
   5  -1   2  401.63    15.4   8    3.41
  11  -1   4  570.04   28.27   8     1.9
  12  -2   2  518.34   29.26   8    1.57
  12  -2   4  813.04   41.73   8    1.55
  15  -2   7 1012.82   57.42   8    1.26
   6  -1   2  351.01   15.89   8     3.1
  10  -2   5   419.6   24.09   8    1.65
   9  -1   2  338.38   18.44   8    2.33
  14  -1   6  434.36   37.59   8    1.49
  18  -2   4     705   60.59   8    1.17
  17  -2   5  1210.7   78.95   8    1.21
  15  -2   3  443.87   40.15   8    1.35
  13  -1   5  388.78   26.46   8    1.63
  11  -2   3  273.69   26.37   8    1.66
  16  -3   6  559.42   55.07   8     1.1
  13  -1   4  350.41   29.07   8    1.67
  13  -2   6  460.62    43.9   8    1.41
   9  -1   3  157.88   14.46   8    2.29
  11  -2   2  153.68   20.15   8    1.65
  10  -1   3  164.07   19.67   8    2.11
  16  -2   6  458.96   57.55   8    1.24
  11  -1   2  101.14   12.65   8    1.96
   6  -1   1  102.83    8.85   8    3.14
  12  -2   3  122.56   21.56   8    1.57
  14  -2   5  163.71   28.68   8    1.39
  16  -3   4  183.16   39.58   8    1.13
  20  -2   4   559.8   72.24   8    1.07
   8  -1   2   55.12    8.82   8    2.56
  20  -3   5 1161.47  134.64   8    0.98
  18  -3   5  275.79   70.58   8    1.05
  12  -1   4   69.77   18.85   8    1.78
  12  -2   6   91.04   19.51   8    1.47
  21  -2   5  646.17  122.74   8    1.02
   8  -1   4    54.8    9.34   8    2.35
  31  -2   7  285.62   93.71   8    0.72
   7  -2   2  963.72   23.91   8    2.01
   7  -2   3  659.11   19.21   8    1.98
   8  -2   1  473.28   18.61   8    1.91
   6  -2   3  450.29   16.89   8    2.02
  10  -3   1  932.18   36.01   8    1.32
   7  -2   1  510.14    19.5   8    1.99
   9  -3   2  575.01   27.68   8    1.37
   5  -2   3  336.98    14.7   8    2.02
  11  -3   3  799.83   34.56   8    1.33
  10  -3   5  755.97   40.15   8    1.32
   6  -2   1  352.82   15.34   8    2.03
   3  -1   1   83.89    6.05   8    4.12
  13  -3   2  267.59   33.79   8    1.25
   5  -2   2  115.17   10.08   8    2.06
  15  -4   7  798.74   71.19   8    0.96
   8  -3   0   75.58   12.98   8    1.28
  19  -5   3  651.44  137.64   8    0.79
  15  -4   3  269.36   51.27   8    0.98
  12  -4   2  367.11   49.33   8    1.02
  10  -4   4  280.06   36.72   8    1.03
   7  -3   4   41.72   10.04   8    1.34
  12  -4   4  419.03   46.56   8    1.04
  13  -4   7  189.59   42.76   8    0.99
   5  -2   1    49.9    7.89   8    2.03
   0  -4   0  5522.3   79.35   9    2.17
   0  -2   0 2300.43   51.38   9    4.33
   0  -6   0 4025.71   98.25   9    1.45
   0  -8   0 8354.71  214.64   9    1.09
   0  -5   1 1543.18   54.95   9     1.7
   1  -5   1 1340.92   53.41   9    1.71
   0  -5  -1 1395.12   49.85   9    1.75
  -1  -5  -1  1404.3   52.79   9    1.72
  -1  -5   1  1347.3   51.32   9    1.67
  -2  -4   0  938.98   36.63   9    2.04
  -1  -4   2  808.25   34.02   9    1.96
   1  -4   2  921.11   37.64   9    2.02
  -4  -8   0 3361.72  174.23   9    1.02
  -2  -5   0 1092.34   52.44   9    1.66
  -5  -7   2 1802.84  109.23   9    1.08
  -2  -7   4 2669.88  135.53   9     1.1
  -1  -7   2 1647.56  109.13   9    1.19
  -1  -7  -2 1377.26   83.22   9    1.24
   2  -5   0  774.46   42.28   9    1.74
   0  -6   4 1159.29   70.96   9    1.28
  -3  -6   2 1185.19   66.31   9     1.3
  -2  -3   1   379.9   20.52   9    2.51
   1  -5   3  533.87   42.73   9    1.57
  -1  -5   3   955.5   52.95   9    1.54
   2  -7   4 1935.17   99.75   9    1.13
   1  -7   2 1243.05   91.28   9    1.21
  -2  -5   1  461.79   40.95   9    1.62
   1  -7   3 1078.07   95.14   9    1.17
  -2  -6   0  478.42   47.88   9    1.39
  -3  -7   2 1280.32   98.11   9    1.14
   2  -5   1     346   32.17   9     1.7
  -1  -7   3  997.56  106.38   9    1.15
  -2  -5  -1  462.12   33.45   9    1.68
   3  -7   2 1366.77   91.53   9     1.2
  -2  -5   3     464   40.33   9     1.5
   0  -4   2   302.7   29.37   9    2.01
  -2  -4   1  167.77   21.07   9    1.98
  -1  -6  -2  395.93   42.27   9    1.42
   0  -8   4 1850.96  177.41   9       1
  -3  -6   1  431.07   48.22   9    1.33
   2  -6   0  533.04   51.41   9    1.45
  -3  -7  -1  634.28   78.26   9    1.19
   0 -10   0 2068.81  224.84   9    0.87
  -3  -5   1  445.01   39.84   9    1.57
   2  -8   3  748.64  108.47   9    1.04
   2  -6   1  327.58   38.79   9    1.43
  -3  -5   2  361.74   36.31   9    1.51
   2  -4   1  203.62   21.48   9     2.1
  -1  -7   1  700.46   84.83   9    1.21
   1  -6   2  607.52   78.62   9    1.39
  -2  -6  -1  238.92   38.19   9    1.41
   3  -7   1  899.56   86.34   9    1.22
  -1  -5   2  370.76   39.05   9    1.61
   0  -3   1  108.19   15.48   9    2.77
  -3  -8   2 1096.18   120.8   9    1.01
   0  -7   3  344.89   68.57   9    1.17
   3  -9   2  928.37  151.24   9    0.95
  -2  -8   3 1400.91  170.94   9    1.01
  -3  -9  -2  628.27  125.28   9    0.94
   0  -7  -1  445.38   69.71   9    1.25
  -3  -9   4  157.45   60.37   9    0.88
   1  -7   1  548.98   79.79   9    1.23
  -2  -7  -2     422    75.7   9    1.22
  -1  -6   2  218.36   33.68   9    1.37
   1  -6   5  393.37    58.5   9    1.21
  -1  -7  -1  310.64   46.21   9    1.23
  -3  -9   1  976.47  190.12   9    0.92
   0 -12   0 1445.79   327.8   9    0.72
  -3  -3   5 4803.13   71.25   9    1.49
  -2  -2   3 3223.77   47.11   9    2.39
  -1  -3   5 3665.16    61.6   9    1.69
  -3  -3   2 3295.51   55.86   9    2.14
  -3  -4   6 6268.29  109.22   9    1.27
  -2  -3   4 2566.13   51.04   9    1.85
  -3  -2   3 1463.66   30.12   9    2.08
  -3  -2   2 1635.25   33.94   9    2.47
  -1  -3   3 1929.25   43.65   9    2.22
  -3  -6   6 6150.76  164.93   9    1.08
  -5  -3   3 1588.95   43.39   9    1.56
  -6  -5   8  7605.5  235.22   9    0.87
  -5  -4   3 1917.21   58.87   9    1.45
  -2  -5   8 4827.59  149.35   9    1.03
  -6  -5   4  3653.6  110.31   9    1.17
   0  -6   8 4553.18  165.45   9    1.01
  -7  -4   5 2774.79  102.64   9    1.04
  -4  -4   4 1679.83    60.8   9    1.45
  -2  -2   4   545.6   20.56   9    1.92
  -7  -6   6 5023.23  208.88   9    0.92
  -4  -4   3 1149.98    47.9   9    1.57
  -4  -5   8 4085.44  177.23   9    0.96
  -2  -3   6 1039.72   42.92   9    1.37
  -2  -4   8 1650.08   90.77   9    1.06
  -1  -4   9 2758.47  113.21   9    0.97
  -2  -2   1  396.61   18.87   9    3.34
  -2  -4   5   864.8   50.02   9    1.48
  -3  -5   6 1851.39   94.19   9    1.19
  -3  -5  10 3485.83  200.37   9    0.83
  -2  -5  10 3895.32   192.1   9    0.86
  -7  -5   7 3159.67  168.56   9    0.89
  -1  -2   2  455.77   21.78   9    3.24
  -5  -4   6 1496.38    81.7   9    1.12
  -1  -1   2  291.41   12.78   9    3.84
  -2  -3   3  458.11   25.18   9     2.1
  -1  -2   3  368.77   19.53   9    2.66
  -1  -5   7 1483.05      93   9    1.16
  -2  -5   5  961.48   66.66   9    1.35
  -8  -5   5  1778.1  129.47   9    0.96
  -3  -6   9 2716.16  224.18   9    0.89
  -1  -6   9 2675.45  171.75   9    0.93
  -5  -5   8 1986.47  164.52   9    0.92
  -3  -4   3  638.91   43.48   9    1.67
  -4  -5  10 2861.31  211.43   9     0.8
  -1  -1   1   434.5   23.09   9    5.78
  -1  -5  10 2230.33  168.33   9    0.88
  -6  -5   5 1341.76   106.2   9    1.09
  -3  -3   3  381.53   26.91   9    1.93
  -3  -3   6  543.51   38.27   9    1.28
  -4  -4   7 1025.95   81.85   9    1.08
  -2  -4   4  544.47   41.08   9    1.63
  -6  -4   4  682.66   58.84   9    1.24
  -1  -2   4  193.34   15.62   9    2.11
   0  -5   7 1249.86   83.15   9    1.18
  -6  -7   4 2241.29  162.14   9    0.98
  -5  -6   6 1109.03   109.3   9    1.01
  -1  -3   4  228.94   23.43   9    1.95
  -1  -5   6  679.87   69.13   9    1.26
  -6  -4   6  657.66   72.39   9    1.04
  -7  -6   7  1358.5  146.75   9    0.87
 -11  -6   7 2544.01  279.18   9    0.69
  -1  -6   6  897.79   85.83   9    1.14
  -7  -6   5 1501.56  149.49   9    0.97
  -1  -7   7 1259.16  132.13   9    0.98
  -6  -5   7 1827.32  167.29   9    0.95
  -1  -4   8   476.6   70.09   9     1.1
  -2  -4   7  314.09    53.8   9    1.19
  -6  -7   5  956.16  188.37   9    0.94
  -8  -5   6  521.36   84.21   9     0.9
  -6  -7   8 2894.82  279.35   9    0.82
  -4  -6   7  977.91  132.72   9    0.99
  -4  -6   8  990.67  152.82   9    0.92
  -5  -5   4  552.83   65.29   9    1.23
  -7  -5   4   442.2      76   9    1.09
  -3  -4   8  425.12   69.65   9    1.02
  -2  -3   5  191.06   23.44   9     1.6
  -4  -6  11  1275.7  158.96   9    0.74
  -8  -7   5 1231.04  161.54   9    0.87
  -8  -5   8 1367.26  173.97   9    0.78
  -6  -6  11 1809.68   239.5   9    0.69
  -6  -6   4  295.77   72.86   9    1.07
  -4  -4   6  280.61   52.57   9     1.2
  -1  -5   8  493.87   77.33   9    1.06
  -5  -4   4  126.23   26.87   9    1.36
  -4  -3   3   88.52   15.88   9    1.76
  -8  -7   8  496.63  170.51   9    0.76
  -6  -9   8 1877.25  309.08   9    0.73
 -11  -8   7  509.66  134.98   9    0.67
  -5  -1   1 3542.05   33.06   9    1.21
  -2  -1   4 5874.27   46.05   9    1.24
  -5  -1   2 5190.57    52.6   9    0.96
  -3  -2   6 6083.64   82.79   9    1.08
  -1  -1   3 1113.25   19.07   9    2.38
  -4  -2   4 2726.98   43.68   9    1.45
  -3  -1   2  931.79    16.5   9    2.04
  -7  -2   3 4169.63   77.71   9    0.98
  -6  -2   3 2605.79   49.76   9    1.19
  -5  -2   3 1798.86   34.38   9    1.46
  -2  -1   3  764.43   16.36   9     1.9
   1  -1   5  994.91   26.64   9    1.14
  -2  -2   6 1502.05   45.45   9     1.2
  -6  -1   0  869.37   28.58   9    0.86
  -2  -2   7 2207.17   74.35   9    0.94
  -2  -3  10 5190.19  196.29   9    0.72
  -7  -3   5  1897.7   80.26   9    0.98
  -6  -2   4 1055.73   46.97   9    1.02
   0  -1   5  807.71   27.75   9    1.07
  -1  -1   5 1117.94   37.73   9    0.95
  -1  -2   6  514.75   31.23   9     1.3
  -6  -1   2 2229.48   72.21   9    0.66
  -7  -2   5 2305.09   116.3   9    0.72
   0  -2   8 2128.98   99.97   9    0.84
  -8  -2   3 1625.11   90.37   9     0.8
  -6  -3   8 3808.49  196.08   9    0.73
  -4  -1   3   518.8   24.43   9    1.02
  -6  -2   5 1904.52   81.45   9    0.86
 -10  -3   5 2990.13  189.67   9    0.67
  -2  -1   2  226.92      10   9     2.9
  -4  -1   2  246.83   13.27   9     1.4
  -2  -2   8 2599.08  131.72   9    0.75
  -2  -3   8 1116.36   73.57   9    0.99
 -11  -3   4  1652.3   180.6   9    0.64
   1  -1   7 2592.27   140.6   9    0.51
  -9  -4   8 2130.63  236.62   9    0.67
  -1  -2   9 3321.53  176.65   9    0.64
  -7  -4   9 1448.54  150.33   9    0.71
 -10  -2   4 2018.07  213.57   9    0.48
  -4  -2   7  1402.1  114.06   9    0.76
  -6  -1   1  401.39   30.78   9    0.83
  -5  -3   7  498.67   67.65   9    0.93
  -3  -4  11  987.17  142.08   9    0.71
   1  -2   9 4543.38  175.41   9    0.68
   2  -1   6  414.99      43   9    0.78
   1  -1   6  389.41   44.64   9    0.75
  -3  -2   9 1760.43  228.53   9    0.54
   0  -3  11    1868  192.21   9    0.65
  -2  -3   9  686.28  103.29   9    0.84
 -13  -4   8  599.04  136.65   9    0.47
  -9  -3   5  544.52    89.9   9    0.76
  -1  -3   9  850.57    80.7   9    0.88
  -8  -2   4  693.66  113.53   9     0.7
  -8  -3   8   427.1    91.2   9     0.6
 -11  -4   7 3058.09  328.17   9    0.61
  -3  -3  10  736.35  147.53   9    0.68
  -1  -1   4    6.28    3.06   9    1.47
  -6  -3   7  837.01   95.53   9    0.84
  -2  -4  11  632.37  117.46   9    0.73
  -7  -3   7 1347.67  140.86   9    0.76
 -11  -4   9 2080.16  286.17   9    0.51
  -1  -2   8  186.35   38.21   9     0.8
 -12  -3   5  416.57   95.07   9    0.52
   3   0  -611916.75  134.46   9    0.76
   2  -1  -8 4313.05   66.18   9    1.24
   6  -1  -8 7450.62  120.61   9    1.03
   3   0  -1 1127.94   12.09   9    1.55
   0   0  -6 7784.45  109.64   9    0.66
   1   0  -2  843.09    9.31   9    2.26
   7  -1  -7 3680.65   93.04   9    1.07
   4  -1  -8 2613.55   64.74   9    1.17
   2  -1 -10 4934.85  121.29   9    0.91
   0   0  -4 1160.92   21.59   9    0.99
   4   0  -3 1790.16   31.03   9    1.08
   7   0  -612566.32  243.47   9    0.58
   2   0  -4  708.16   20.09   9    1.13
   5  -1  -8 1905.16   68.42   9    1.14
   0   0  -811160.27  226.55   9     0.5
   4   0  -6 3008.19   98.04   9    0.74
   2   0  -1  390.94     6.3   9    2.31
   1  -1 -10 1965.81   81.88   9     0.9
   4  -1 -10 4180.15  133.17   9    0.88
   3  -1 -10 3846.36  123.97   9     0.9
   8  -1  -9 4152.47  171.29   9    0.81
   6  -1  -7  862.31   53.35   9    1.17
   1   0  -3   185.6    7.67   9    1.53
   4   0  -8 4936.69  192.58   9    0.57
   4  -1 -11 2374.82  147.69   9    0.78
   8  -1  -6 1026.79   61.66   9    1.06
   2   0  -3  165.69    8.28   9    1.45
   5   0  -8 2605.61  200.97   9    0.48
   7  -1  -8  939.64   82.68   9    0.96
   4  -1  -9  863.89   67.45   9    1.01
   5  -1 -12 3057.63   225.9   9    0.68
   1   0  -4   186.1      13   9    1.13
  14  -1 -10 9204.78  704.11   9     0.5
   8  -1  -8    2329  121.85   9    0.89
   4   0  -7  219.13   33.38   9    0.64
  10  -1  -8  1788.8  163.93   9    0.75
   8  -1  -7  730.95   73.27   9    0.97
  10  -1  -7 1510.97  130.03   9    0.81
   8   0  -3 1413.24  119.13   9    0.58
   2  -1  -9  511.71   50.47   9    1.05
   4  -2 -15 2272.18  209.37   9    0.67
  11  -1  -8 2352.74  221.02   9     0.7
   0  -1 -13  781.65  126.14   9     0.6
   3  -1  -8  552.67   42.85   9    1.22
   6   0  -2  368.41   42.89   9    0.78
  14  -2 -11 4277.24  412.16   9    0.62
   3  -1  -9  469.79   60.57   9    1.03
   7  -1  -9  832.57  100.16   9    0.87
   3  -2 -17 1789.23  256.72   9    0.57
   6  -2 -19 5945.96  682.42   9    0.48
   8  -1 -11  580.08   125.4   9    0.67
   8  -1 -10  395.56   85.58   9    0.74
   9  -1 -15  391.23  176.91   9    0.47
   3  -2  -6 3793.25   70.76   9    2.05
   7  -2  -6  4474.7   85.71   9     1.5
   2  -1  -4 2117.99   43.33   9    2.95
   3  -1  -5 1015.65   28.57   9    2.12
   2  -2  -5 1501.82   42.11   9     2.5
   6  -2  -7 2301.85   65.46   9    1.48
   4  -3  -8 2471.83   76.11   9    1.54
   2  -2  -7 1554.24   45.64   9    1.83
   6  -3  -8 2859.08    92.2   9    1.41
   8  -2  -8  3171.2  103.35   9    1.14
   3  -2  -9 1661.55   61.78   9    1.34
   4  -3 -10  2661.4   99.53   9    1.26
   3  -2 -10  1367.5   61.94   9    1.18
   7  -2  -9  2420.6   92.42   9    1.12
   6  -2  -5 1373.95   50.65   9    1.82
   2  -2  -6  918.47    35.5   9    2.14
   6  -2  -6 1159.24   51.41   9    1.64
   4  -4 -11 2481.14  117.91   9    1.16
   4  -2  -7  889.93   42.62   9    1.68
   5  -2  -6 1041.29   49.21   9    1.78
   7  -4 -10 2476.46  145.19   9    1.15
   7  -3  -7  1064.2   68.93   9    1.44
   8  -3  -8  1445.7   96.66   9    1.25
   1  -1  -3  564.51   26.77   9    4.27
   8  -3  -9 1788.38  117.38   9    1.16
   5  -3 -12  2401.6  137.04   9    1.01
   7  -3 -10 1644.58  106.37   9    1.12
   7  -2  -7  746.86   52.08   9    1.36
   6  -4 -12 1621.87  143.28   9    1.03
  13  -3 -11 4523.51  300.68   9    0.77
   9  -2  -8 1548.97    88.8   9    1.06
   7  -2 -10 1683.79  106.13   9    1.01
   9  -4  -8 1963.45  124.49   9    1.19
  11  -4  -9 2799.16   188.8   9    1.01
   9  -2  -7 1145.67   76.44   9    1.15
   2  -1  -3  438.05   24.54   9    3.85
   6  -4 -15 4321.18  294.17   9    0.82
   2  -1  -5  238.05   15.31   9     2.3
   3  -3 -10  1012.2   76.13   9    1.28
   3  -2  -8  442.38   38.12   9    1.53
   5  -2  -8  509.63   53.11   9    1.41
   6  -3  -7   658.7   54.07   9    1.53
   9  -3  -8  999.93   102.4   9    1.17
   4  -3 -16 2586.87  252.76   9    0.73
   8  -3  -7  593.96   66.19   9    1.34
   6  -2 -10   600.8   69.36   9    1.07
   9  -4 -12 2242.24  208.43   9    0.93
   5  -3  -7   425.8   43.25   9    1.62
   9  -4 -13 2499.05  250.47   9    0.87
   6  -2  -8  478.72   49.27   9    1.32
   5  -3 -15 1429.78  167.16   9    0.78
   6  -6 -15 2232.09  272.73   9    0.83
  10  -4 -13 2135.77  267.83   9    0.84
  10  -4 -12 1617.32  191.47   9    0.89
   7  -3 -14 1200.57  202.78   9    0.81
   3  -1  -4  152.34   14.43   9    2.65
  14  -4 -13  1628.5  253.64   9    0.71
  10  -4  -8  729.12   86.27   9    1.12
   6  -4 -10  177.69    52.9   9    1.19
   4  -4 -12  838.99   92.45   9    1.07
   6  -2  -9  150.49   41.65   9    1.18
  10  -5 -11  1015.8   139.2   9    0.95
  14  -4 -11 1431.55  235.62   9    0.79
  10  -3 -12  527.84  114.44   9    0.84
  14  -4 -15 1890.54  402.32   9    0.65
  13  -3 -13 1099.91  208.46   9    0.69
   8  -4 -13  615.24  131.11   9    0.91
  10  -3 -14  711.54  187.81   9    0.73
  11  -3 -10  842.86  153.08   9    0.91
   5  -5 -15  578.04  120.89   9    0.85
  10  -5 -12  689.08  129.14   9     0.9
   5  -2  -7   86.06   18.38   9    1.59
   3  -4  -6 5136.69   91.18   9    1.74
   3  -3  -2 3416.31   61.44   9    2.65
   3  -3  -5 4458.37   76.65   9    2.15
   7  -4  -6 4400.07   91.87   9    1.48
   2  -2  -3 2847.73   58.86   9    3.37
   2  -3  -4 2650.93   58.84   9    2.44
   6  -5  -8  5605.3   138.5   9    1.28
   1  -3  -3 1893.72   44.38   9    2.69
   3  -6  -6 4719.87  126.76   9    1.34
   5  -3  -5 2046.07   50.49   9    1.93
   7  -6  -6 4939.12  155.83   9    1.23
   6  -5  -4 3069.21   91.81   9    1.51
   3  -2  -2 1359.13   40.18   9    3.42
   3  -2  -3  1188.5   36.61   9     3.1
   4  -4  -4 1480.56   53.95   9    1.89
   5  -4  -3 1446.86    52.6   9    1.88
   7  -5  -7 2655.76  107.14   9     1.3
   4  -4  -3 1260.94   49.45   9    1.97
   4  -5 -10 2575.93     110   9     1.2
   2  -3  -6  857.41   35.93   9    2.01
   4  -5  -8 2066.42   95.54   9    1.34
   4  -6  -5 2279.83    92.7   9    1.37
   3  -5  -6 1776.87   72.87   9    1.52
   5  -4  -6  1193.2   61.55   9    1.63
   2  -2  -4  531.09   23.02   9    2.92
   3  -6  -9 2105.73  116.33   9    1.18
   6  -4  -7  948.56   61.03   9    1.46
   2  -7  -7 1360.57  113.47   9    1.18
   6  -5  -5 1198.21   72.26   9    1.46
   4  -4  -7  958.57   61.32   9    1.58
   2  -3  -3   498.9   28.08   9    2.63
   2  -4  -5  702.79   40.81   9    1.89
   1  -2  -2  386.35   24.17   9    3.99
   7  -6  -7 1507.59  138.91   9    1.19
   6  -4  -4  521.91   40.99   9    1.72
   4  -4  -8  531.28    47.9   9    1.47
   3  -6 -10 1318.99  103.65   9    1.12
   2  -4  -6  655.39   42.28   9    1.77
   2  -4  -4  452.21   32.87   9       2
   1  -2  -3   391.1   21.51   9    3.53
   6  -7  -8 1940.74  166.19   9    1.07
   4  -5  -9  958.92   83.84   9    1.27
   7  -6  -5 1367.18   99.27   9    1.26
   3  -3  -3  386.91   25.93   9    2.52
   2  -6  -8  769.05   69.12   9    1.24
   5  -6  -6 1207.55    88.8   9    1.29
   4  -6  -6  717.71   68.23   9    1.32
   3  -5  -7  639.29   62.21   9    1.45
   6  -4  -6  437.64   43.58   9    1.55
   1  -1  -2  281.69   20.32   9    5.84
   2  -3  -5  281.08   25.29   9    2.22
   8  -5  -6  569.01   76.81   9    1.29
   4  -6 -11 1262.69  131.96   9    1.06
   6  -6 -11    1204  133.34   9    1.03
   1  -3  -4  223.67   18.85   9    2.48
   7  -8  -6 1652.65  165.11   9    1.01
   3  -4  -8  371.85   42.62   9     1.5
   4  -6  -8 1195.12  112.58   9    1.22
   9  -6  -6  861.92  113.52   9    1.14
   8  -5  -8  974.93  105.27   9    1.19
   6  -5  -7  477.33   57.69   9    1.35
   4  -6  -7  918.79  101.96   9    1.27
   6  -6 -12  873.22  133.14   9    0.98
   6  -6  -6  534.07   72.65   9    1.26
   3  -5  -5  357.41    41.2   9    1.59
   5  -5  -6  301.05   52.04   9    1.45
   7  -5  -9  660.03    83.7   9    1.17
   4  -6 -12  617.43   86.41   9    1.01
  11  -6  -9  727.49  114.14   9    0.96
   7  -5  -8  820.47   90.42   9    1.24
   2  -4  -7  285.87   33.94   9    1.64
   6  -4  -5  371.25   46.24   9    1.64
   6  -8  -7  995.04  139.47   9       1
   3  -7 -11   181.6   66.04   9       1
   5  -5  -4  247.01   43.28   9    1.56
   8  -7  -8  489.08    98.5   9    1.03
   5  -4  -4  189.29   32.27   9    1.81
   2  -6  -6  348.44   57.68   9    1.34
   5  -7 -15  273.35   96.13   9    0.82
   4  -8 -11  855.14  126.18   9    0.92
   3  -4  -4  131.17   24.67   9    1.96
   3  -3  -4   64.12    14.1   9    2.39
   5  -8 -12  299.99  101.91   9    0.88
   2  -2  -2    35.8    8.85   9    3.95
  -5  -3   2 6223.76   66.26   9     1.7
  -4  -2   0 4834.87   50.79   9    2.49
  -7  -3   1 3918.02   60.26   9    1.38
  -7  -3  -1 3752.29   58.72   9    1.47
  -8  -3  -1 4090.78   65.86   9    1.27
  -6  -3   0    3147   50.97   9    1.66
  -7  -4  -2 3019.11   64.63   9     1.4
  -7  -4   2 3375.07   70.36   9    1.28
 -10  -4   0 5106.09  115.93   9       1
  -4  -2   1  733.12   19.99   9    2.32
  -5  -3   1  939.04   29.54   9    1.82
  -6  -3   1  922.37   30.53   9    1.59
  -8  -5   3  2797.8   99.43   9    1.07
 -10  -4  -1 2715.19   92.74   9    1.02
  -7  -4   3 1767.36   58.62   9    1.21
  -4  -2  -1  660.43    20.2   9    2.52
  -5  -3  -1  859.32   29.86   9    1.92
  -7  -4  -1 1232.88   45.64   9     1.4
 -10  -4   1 2698.54   91.44   9    0.98
  -6  -3  -1  883.42   30.44   9    1.68
  -6  -4  -1 1042.47   38.35   9    1.54
  -5  -2  -1  533.68   17.95   9    2.05
 -10  -6   0 4522.48   168.6   9    0.95
  -4  -3   1  744.24   25.26   9    2.06
  -6  -4   1 1017.12    42.6   9    1.48
  -8  -4   1 1255.38   59.18   9    1.21
  -7  -6   2 2391.56  102.04   9    1.09
  -8  -4  -1 1234.84   53.67   9    1.26
  -9  -4  -2 1277.64   57.86   9    1.14
  -4  -3   0  570.68   22.17   9    2.15
  -5  -4   1  651.89   33.96   9    1.61
  -9  -4   2 1357.02   68.54   9    1.04
 -11  -5  -3 2003.12  112.96   9    0.93
  -3  -2   1   328.7   15.29   9    2.82
 -11  -5   3 2102.98  127.23   9    0.84
  -2  -1   0  352.53   15.78   9    4.96
  -6  -3   2  499.03   28.07   9    1.49
 -10  -5  -1 1577.72   91.22   9    1.01
 -10  -5  -2 1558.86   90.45   9    1.01
  -3  -2  -1  291.62   14.65   9    3.06
  -6  -5   2 1007.08   57.78   9    1.28
  -8  -5   1  945.47   67.74   9    1.14
 -10  -5   2 1714.31  107.58   9    0.95
 -11  -5  -1 1273.03   95.53   9    0.93
 -10  -6  -1 1953.54  128.89   9    0.96
  -9  -6   2 1475.22  115.49   9    0.97
 -10  -5   1 1804.08  110.76   9    0.98
  -8  -5  -1  763.11   57.79   9    1.18
  -9  -6  -2 1587.71   97.89   9    1.03
 -10  -6   1 1809.26  133.79   9    0.93
 -13  -5  -3 2149.68  138.97   9    0.78
  -8  -4   3  743.32   54.56   9     1.1
 -13  -5  -1 1619.83  137.81   9    0.78
  -8  -4  -2  248.69   30.07   9    1.26
  -6  -4   0  387.38    28.2   9    1.52
 -11  -5   1 1558.12  135.03   9     0.9
 -12  -6  -2 1768.08  148.98   9    0.84
 -12  -6   2 1962.35  185.04   9     0.8
 -13  -7  -3 2622.98  226.21   9    0.77
  -9  -5  -1  632.01    60.7   9    1.09
  -9  -4  -1  497.92   49.21   9    1.13
 -10  -6  -3 1020.55   99.15   9    0.96
  -7  -5   1  609.23    54.7   9    1.24
 -10  -6   4 1148.49  111.26   9    0.85
  -9  -5  -2   630.2   64.26   9     1.1
  -7  -5   2  385.28   49.34   9    1.19
  -9  -7   2 1485.32  149.94   9    0.91
  -8  -6   0  551.67   62.02   9    1.08
  -9  -5   1  233.53   44.27   9    1.06
  -9  -6  -3  678.05   73.94   9    1.02
 -11  -7  -3 1092.78   129.2   9    0.85
 -13  -7   3 1414.17  199.44   9    0.71
  -9  -5   2  627.31   76.13   9    1.03
  -5  -4   2  154.94   21.49   9    1.54
  -8  -7   3  682.81   94.28   9    0.93
 -10  -7   1  1767.1  171.81   9    0.88
 -12  -5   1  495.23   90.95   9    0.82
 -14  -6  -1 1521.77  180.91   9    0.73
 -12  -5  -2   827.2   96.28   9    0.86
 -10  -5  -3  430.74   56.23   9    1.01
  -9  -6   3  467.59   82.39   9    0.94
  -9  -4   1  534.15   55.99   9    1.08
 -12  -5   2  420.73  101.32   9     0.8
 -14  -6  -3 1158.33  157.63   9    0.74
  -8  -5   2  253.22   44.46   9    1.11
 -10  -7  -2  228.15   70.45   9     0.9
 -13  -7  -1   543.4   123.2   9    0.76
  -8  -6   1  419.69   72.41   9    1.06
 -11  -6  -2  384.73    67.6   9     0.9
 -13  -9   3  527.59  158.09   9    0.66
 -11  -6   1  133.51   48.61   9    0.88
 -10  -7   3  149.14   69.59   9    0.84
 -17  -7  -3 1403.08  231.28   9     0.6
  -5  -1  -2 3772.53   37.06   9    1.48
  -5  -1  -1 2808.55   30.44   9    1.49
  -6  -1  -4 6483.94   76.97   9    0.97
  -7  -2  -3 3383.87   56.22   9     1.3
  -7  -2  -6 5961.43    99.3   9    1.07
  -6  -1  -2  2116.2   36.59   9    1.06
  -6  -1  -8 9472.82  190.08   9    0.66
  -6  -1  -5 2776.24   62.61   9    0.89
  -6  -2  -7 2947.99   67.24   9    1.12
  -7  -2  -5 1984.98   53.65   9    1.16
  -9  -2  -2 2674.33   77.44   9     0.9
  -5  -1  -3  668.62   19.49   9    1.38
  -7  -1  -7 4604.22  142.91   9    0.62
  -8  -2  -3  1334.6    45.2   9    1.08
  -8  -2  -8 3844.49  137.37   9     0.8
  -4  -1  -3  499.39   15.93   9    1.85
 -13  -3  -3 5838.72  215.24   9    0.64
 -10  -3  -5 3146.16  109.55   9    0.91
 -10  -2  -4 3039.08  117.95   9    0.74
  -6  -1  -1  477.24   22.55   9    1.04
  -7  -2  -9 2820.92  116.15   9    0.83
  -8  -2  -6 1744.49   79.03   9    0.93
 -10  -2  -5 2541.68  126.36   9    0.72
  -5  -1  -8  2199.2   87.73   9    0.77
  -6  -1  -7 1345.12   83.14   9    0.73
  -7  -1  -4  777.63   55.08   9    0.75
 -11  -3  -4 1797.58  105.91   9    0.82
  -4  -1  -2  220.86   10.28   9    2.08
  -7  -2  -7   942.3   63.86   9    0.98
  -5  -1  -6  687.63   40.73   9    0.98
 -12  -2  -4 3346.82  202.19   9    0.53
  -8  -2  -4  583.11   38.85   9    1.04
  -9  -2  -8 2451.48  158.43   9    0.71
  -7  -2 -10  1814.9  116.98   9    0.75
  -9  -2  -7 1452.72  102.56   9    0.75
 -11  -2  -1 2092.13  155.26   9    0.61
 -14  -3 -10 5870.74  406.35   9    0.49
 -11  -2  -7 2637.35   198.5   9    0.57
  -6  -2  -8  588.01   51.61   9    1.01
 -10  -3  -7  1343.8  101.98   9    0.83
 -11  -2  -3 1071.66  123.31   9    0.63
 -15  -4  -7 3960.96  304.09   9    0.58
 -13  -3 -11 4056.31  346.48   9    0.51
 -14  -3  -6 1987.89  235.42   9    0.55
  -9  -2  -3   541.6   53.82   9     0.9
  -3  -1  -4  130.12   10.91   9    2.02
 -11  -3  -7 1351.57  132.22   9    0.75
 -11  -2  -9 2851.01  243.34   9    0.52
  -8  -2  -2  326.42   32.04   9    1.09
  -9  -2 -12 1261.74  155.75   9    0.54
 -10  -3  -6  570.59   68.56   9    0.88
  -9  -2 -13 1598.02  194.13   9     0.5
  -6  -1  -3  104.95   17.09   9    1.03
 -12  -3  -4  616.87   90.32   9    0.72
 -13  -4 -12 1714.32  254.64   9    0.57
 -12  -3  -5   904.6  130.41   9    0.71
 -11  -3 -10 1869.54   226.8   9    0.65
 -10  -2  -8 1005.82  156.04   9    0.63
 -11  -2  -2  668.97   96.44   9    0.62
  -7  -1  -8   901.5  118.52   9    0.57
  -9  -3 -11 1057.37  149.98   9    0.72
  -4  -1  -1    32.9    4.85   9    2.18
  -7  -2  -8  186.68   47.09   9     0.9
 -10  -3 -10 1313.36  152.71   9    0.71
  -4  -1  -5   16.13     5.4   9    1.45
 -10  -2 -12 1502.83  236.63   9    0.49
  -3  -1  -1    6.93    1.93   9    2.95
  -1  -2  -9 2452.92   57.54   9    1.31
   1  -2  -9 2348.49   55.59   9    1.37
   2  -3 -10 3202.64   77.76   9     1.3
  -2  -2  -7 1478.51    37.5   9    1.67
  -2  -3 -10 3441.12   85.27   9    1.22
  -2  -2  -8 1511.27   42.32   9    1.44
  -2  -2  -6  953.92   28.48   9    1.94
   0  -2  -8 1356.02   40.19   9    1.56
  -4  -3 -10 2722.17   86.83   9    1.11
   0  -2  -6  904.72   29.88   9    2.15
  -3  -4 -10  2026.1   81.46   9    1.18
  -4  -4 -11 2689.48  104.45   9    1.05
  -2  -3  -8    1056   44.29   9    1.51
  -1  -2  -8 1190.74   50.42   9    1.51
  -1  -1  -3  504.67   19.62   9    3.88
   0  -4 -12 2394.82   107.5   9    1.08
  -3  -4  -9 1520.86    66.3   9    1.28
   0  -3 -11 1362.99   70.81   9    1.16
  -1  -2  -5   475.5   21.79   9    2.45
   1  -4 -11 1235.61   74.56   9    1.18
  -1  -3 -14 2483.75  136.44   9    0.84
   0  -1  -3  368.86   18.39   9     4.3
   1  -2  -6  326.31   19.78   9    2.17
  -1  -4 -11 1180.31    75.5   9    1.15
   1  -3  -9  560.17   39.04   9    1.45
  -3  -3 -10  771.36   54.59   9    1.17
  -2  -3  -9  669.55   48.73   9    1.36
   1  -3 -14 2481.61  154.41   9    0.87
   2  -3  -9  472.43   30.49   9    1.44
  -4  -4 -15 2591.12  211.62   9    0.77
  -6  -4 -15 3760.95  258.14   9    0.72
  -1  -3  -9  603.42   40.23   9     1.4
  -1  -2  -6  359.18   21.73   9    2.07
  -1  -4 -13 1598.51  128.96   9    0.97
  -3  -4 -11  693.98   59.55   9    1.09
  -5  -4 -12 1407.78  116.01   9    0.93
  -2  -4 -11  598.59   72.57   9    1.13
   1  -5 -14 1432.45  141.35   9    0.92
   1  -2  -8  270.28   24.01   9    1.58
  -3  -4 -17 2216.42  230.73   9    0.69
  -2  -3 -12   493.4   67.11   9       1
   0  -4 -16 1635.83  185.19   9    0.78
   2  -4 -11   549.8   57.23   9    1.18
  -4  -4 -12  660.29   78.84   9    0.97
   3  -4 -17 1646.26  185.79   9    0.73
  -7  -5 -17    2788  292.29   9    0.65
  -4  -5 -16 1492.76  227.58   9    0.75
  -1  -5 -14 1527.71   146.1   9    0.91
   2  -3 -12  437.27   56.05   9    1.05
   0  -6 -16 1475.47  172.34   9     0.8
   3  -5 -17 1988.98  210.27   9    0.76
   1  -4 -17  929.11  155.12   9    0.73
   1  -4 -12  308.69    50.1   9    1.08
  -3  -3  -9  224.81   28.42   9     1.3
  -1  -4 -12  342.21   55.59   9    1.06
  -4  -4 -14  896.41  124.59   9    0.84
  -1  -5 -13   872.6  113.59   9    0.97
   0  -4 -14  1024.3  140.15   9    0.92
  -4  -6 -15 1228.19  171.23   9     0.8
  -4  -5 -13  740.01   123.8   9    0.92
  -3  -4 -12  241.68   50.37   9    1.01
  -3  -5 -17 2655.24  302.25   9    0.72
  -1  -4 -10  106.99   28.06   9    1.25
   1  -2  -7   84.16   16.19   9    1.85
  -4  -7 -16 1627.09  252.29   9    0.75
  -9  -9 -23  815.99  264.49   9     0.5
  -3  -4  -6 4620.48   88.12   9    1.61
  -1  -3  -2    2582   59.75   9    2.74
  -2  -5  -4 3615.83   93.38   9     1.6
  -3  -6  -6 5425.27  141.69   9    1.27
  -1  -3  -3 1941.14   51.68   9    2.59
  -2  -3  -4 2067.58   52.54   9    2.27
   0  -4  -4 1991.42   58.17   9    2.01
  -2  -4  -3 1622.68   54.29   9    1.98
  -4  -4  -4 1459.57   51.58   9     1.7
   0  -3  -3 1003.06   37.27   9    2.67
   0  -6  -6 2406.56   96.18   9    1.34
  -3  -5  -6 1927.65   78.27   9    1.43
  -4  -4  -3 1104.12   45.11   9    1.76
  -2  -3  -2  796.14   33.06   9    2.58
  -3  -6  -9 2151.29  114.05   9    1.12
  -2  -3  -3  463.13   29.34   9    2.45
  -2  -4  -6  652.12   38.95   9    1.68
  -3  -4  -3  609.47   36.32   9    1.88
  -5  -6  -6 1243.47    88.1   9    1.18
  -1  -6  -6  945.98   77.62   9    1.32
   0  -5  -5  871.71   51.99   9    1.61
  -2  -4  -5  751.43   43.71   9    1.79
  -1  -2  -3  339.73   19.81   9    3.35
  -1  -2  -2  406.22   24.63   9    3.79
   0  -7  -7 1506.69  102.51   9    1.15
  -4  -5  -3  706.28   47.67   9    1.51
  -4  -6  -8 1101.49   99.61   9    1.14
  -4  -6  -6 1016.48   87.48   9    1.23
  -2  -4  -4  483.11   33.29   9     1.9
  -3  -3  -3  346.07   24.34   9    2.27
  -6  -7  -8 2095.01  163.48   9    0.98
  -1  -5  -6   638.2   49.69   9    1.51
  -4  -7  -8 1578.54  135.11   9    1.04
  -2  -5  -3   510.8    46.1   9    1.64
  -3  -8  -6 2158.99  167.66   9    1.01
  -1  -7  -7  1360.5  124.02   9    1.14
  -4  -7 -10 1733.24  176.66   9    0.97
  -3  -7  -5 1332.11   114.8   9    1.15
  -3  -5  -7  683.35   60.76   9    1.36
  -7  -8  -6 1890.92   181.7   9    0.91
  -1  -3  -4  247.49   21.87   9     2.4
  -4  -6  -4  466.21   62.08   9    1.29
  -1  -1  -1   285.5   22.27   9    6.78
  -5  -5  -6  450.15   56.99   9    1.31
  -2  -6  -6  283.74   49.82   9    1.29
  -2  -7  -8  681.99  104.47   9    1.08
  -6  -7  -5  659.22  100.76   9    1.05
  -4  -6  -7  682.51   82.07   9    1.18
   0  -2  -2  150.04    16.6   9       4
  -3  -5  -8  252.92   41.28   9    1.28
  -6  -9  -8 1515.32  243.07   9    0.83
  -3  -7  -6  403.58   89.52   9    1.14
  -2  -8  -5  763.13  132.45   9    1.05
  -3  -5  -5  407.91   50.86   9    1.49
  -3  -4  -4  132.21   24.95   9     1.8
  -7  -8  -9  919.74   168.7   9    0.86
  -3 -10  -6  856.22  162.77   9    0.84
  -6  -6  -6  529.39   71.34   9    1.13
  -2  -5  -6  168.11   33.92   9    1.48
  -7  -4  -6 5487.76  109.59   9    1.23
  -6  -3  -4 2853.45   59.75   9    1.55
  -8  -3  -5 3485.56   75.44   9    1.16
  -6  -5  -8 5970.42  130.73   9    1.13
  -5  -2  -3 1475.27   32.75   9    1.89
  -5  -3  -5 2224.66   55.91   9    1.63
  -3  -2  -2 1400.26    34.3   9    2.92
  -4  -2  -3 1273.82   32.57   9    2.26
  -7  -4  -5 2646.08   76.54   9    1.29
  -5  -3  -3 1450.12   40.09   9    1.84
  -3  -2  -3 1071.47   29.77   9    2.66
  -7  -3  -5 1963.38   61.91   9    1.31
  -4  -2  -4  779.09    24.3   9    2.04
  -6  -3  -5 1292.06    43.3   9    1.46
  -7  -5  -7 2513.58   92.72   9    1.12
 -10  -5  -5 2792.12  116.67   9    0.98
  -5  -4  -6 1124.78   46.73   9    1.43
  -8  -5  -9 3164.19   150.8   9    0.96
  -7  -4  -7 1091.74    65.8   9    1.17
  -8  -5  -5 1334.11   78.25   9    1.13
  -7  -4  -9 1390.16   81.23   9    1.03
  -6  -4  -7  998.52   57.05   9    1.25
  -7  -5  -8  1375.2  107.38   9    1.07
  -7  -4 -10 1801.08   106.6   9    0.97
 -11  -6  -7 3113.35  186.39   9    0.85
  -5  -4  -8     653   50.94   9    1.25
  -6  -4  -6  625.84   44.09   9    1.33
  -6  -4  -4  608.57   39.76   9    1.46
  -2  -1  -1  219.87    13.7   9    4.87
  -5  -3  -7  508.63   36.25   9    1.38
 -10  -5  -7 1510.29  112.58   9    0.92
  -8  -5  -8  1271.9  109.59   9    1.01
 -10  -5  -8 1418.57  118.55   9    0.89
  -8  -3  -4  434.25   34.14   9    1.21
  -7  -3  -4   382.1   28.49   9    1.37
 -10  -4  -5  865.87   73.78   9    0.98
 -13  -5 -11  3070.3  266.02   9    0.65
  -7  -5  -9  910.18   88.91   9    1.02
  -9  -4  -6  778.67   68.29   9    1.04
  -8  -5  -6  731.78   71.13   9    1.09
  -7  -6 -10 1779.12  130.99   9    0.93
 -15  -6  -7 3388.58  311.86   9    0.66
  -9  -6  -6  776.31   98.37   9    0.97
  -9  -4  -8  752.34    76.4   9    0.95
  -3  -2  -4  175.47   15.75   9    2.35
  -8  -4  -6  428.73   56.75   9    1.13
 -10  -4  -8  944.16  101.76   9    0.87
  -9  -4  -7  422.36   61.66   9    0.99
  -6  -4  -5  466.54   42.51   9     1.4
  -9  -5  -5  694.31   78.84   9    1.05
  -8  -5  -7  567.73    75.1   9    1.05
 -11  -5  -8 1207.23  156.45   9    0.83
 -10  -5  -9  847.57   114.4   9    0.85
  -9  -6 -13  2680.1  251.24   9    0.75
  -8  -4  -4  219.78   32.87   9    1.22
 -11  -5  -5  470.63   75.94   9     0.9
  -9  -5  -7  816.63  102.82   9    0.99
  -9  -6  -8     807  128.93   9    0.92
 -14  -7 -10 2181.14  302.34   9    0.66
  -7  -3  -6  160.23   23.63   9    1.23
 -12  -5  -9 1112.54  151.15   9    0.75
  -9  -5 -10  800.73  104.94   9    0.87
  -7  -3  -7  283.39   34.72   9    1.14
 -13  -5 -10 1294.02  192.93   9    0.67
 -13  -6  -8   963.6  168.43   9    0.73
 -11  -6  -9 1363.83  171.19   9     0.8
 -10  -7  -7  244.23   70.59   9    0.86
  -8  -4  -8  286.62   44.63   9    1.02
 -10  -6  -8  285.13   89.61   9    0.87
  -2  -1  -2   61.75    7.73   9    4.08
  -4  -3  -5  112.68   20.11   9    1.79
  -4  -2  -2   64.45    9.13   9    2.43
   0   0   8 1269.92   39.95  10     2.7
  -1   0   9 1000.23   37.77  10    2.33
  -1   0  11 1029.38   45.85  10    1.92
  -3   0  10  837.35   37.28  10     1.9
   0   0  12  975.07   47.03  10     1.8
  -3   0  11  833.93   41.09  10    1.76
  -3   0   9   693.8      32  10    2.06
  -3  -1  10  694.52   32.71  10     1.8
  -1   0   6  500.97   24.57  10    3.41
  -3  -1  17  889.19   85.77  10    1.17
  -2   0   8  461.49    23.3  10    2.45
  -1   0  13   937.5   55.06  10    1.63
  -3   1  17 1451.94   98.11  10    1.18
  -1  -1  14  926.25   61.81  10    1.47
  -4   0  12  592.73   43.08  10    1.55
   0   0  16  778.03   73.83  10    1.35
   0   0  10   493.6   30.22  10    2.16
  -4   0  15  848.38   73.01  10    1.29
  -2   0   6  251.71   16.09  10    3.09
  -2   0  15  807.65   66.68  10    1.39
  -4   1  16  998.22   82.72  10     1.2
  -3   0  17  964.06   102.2  10     1.2
  -3  -1  13  312.84   37.18  10    1.48
  -5  -1  15  366.25   59.78  10    1.21
  -3   0  13  648.57   58.42  10    1.53
  -1   0   8  189.99   19.55  10    2.61
   0  -1  13  398.34   38.82  10    1.61
  -4  -1  16  881.27   76.44  10     1.2
  -1  -1  15  338.61   48.03  10    1.38
  -2   0   9  109.39   19.58  10    2.22
   0   1  23 1382.16  191.15  10    0.93
  -5   0  14  221.98   35.72  10     1.3
  -4   0  19  514.62   86.25  10    1.06
  -1  -1  13  225.26   35.08  10    1.57
  -2   1  16  493.24      78  10    1.28
   0  -1  15  301.78   47.99  10     1.4
   0   0   4  123.01   13.81  10     5.4
  -3   0  15  167.33   39.35  10    1.34
  -3  -1  14  271.86   42.85  10    1.39
  -1   0  10   262.3   28.71  10    2.11
  -1  -1  21   374.9   109.8  10       1
  -5   0  17  571.64  101.15  10    1.12
  -1   0  17  197.86   43.66  10    1.25
  -3  -1  21  259.73   108.6  10    0.97
  -3  -2  22  445.81  123.33  10     0.9
   1  -1  13  116.14   23.78  10    1.62
  -3   1  21  380.35   91.18  10    0.98
  -3   0   6    1122   33.17  10    2.71
  -6  -1   8  1535.8   50.93  10    1.49
  -5   0   6  847.49   31.29  10    1.93
  -8   1   9 1954.64   84.42  10    1.16
  -4   0   6  589.64   27.54  10     2.3
  -7   0   7  734.94   40.41  10    1.37
  -8  -1   9  1105.9   62.71  10    1.16
  -6   0  11 1098.46   59.55  10    1.42
  -4  -1   8  522.69   27.97  10    1.88
  -4   0   7   428.6   27.49  10    2.17
  -4   0   4  249.89   14.62  10     2.4
  -8   0   9  633.76   63.49  10    1.21
  -9   0  13 1807.27  147.23  10    1.04
  -8  -1   8  607.63    48.2  10    1.14
  -6   0   9  481.33    41.7  10    1.54
  -5  -1   8  448.82   31.82  10    1.68
  -7  -1  14  855.56   87.15  10    1.13
  -9   0  12  1541.1  147.61  10    1.06
  -4  -1   9  274.88   31.58  10    1.78
  -7   0   9  457.49   51.22  10    1.37
  -7   1  14 1222.28   96.98  10    1.13
  -6   0   6  149.48   19.28  10    1.59
 -10  -2  13  616.51   91.95  10    0.87
  -5  -1   6   147.3   23.64  10    1.74
 -10   0  12 4042.47   176.6  10    0.97
  -9   1  14 1010.96  129.84  10    0.99
  -2   0   4   84.74    9.49  10    4.05
  -5   0   8  211.16   30.28  10    1.81
  -4   0   5   79.84   10.09  10    2.35
  -9  -2  13   689.2  133.79  10    0.94
  -9   0   9  426.34   59.73  10    1.06
  -3   0   5   80.42     9.9  10    2.95
  -2   0   3   29.05    6.23  10     4.6
  -6   1   4 2041.72   43.85  10     1.2
  -5   0   3 1091.58   23.36  10     1.5
  -6  -1   4 1457.41   37.71  10    1.19
  -7   0   5 1139.91   40.68  10    1.21
  -5  -1   2 1627.89   44.56  10    0.75
  -6   0   3  732.29   32.48  10    1.04
  -3  -1   2  194.45    7.99  10    1.76
  -4   0   3  334.22   13.53  10    2.17
  -6  -1   5  532.36   25.78  10    1.37
  -3   0   2  207.66    9.08  10    2.71
 -11   0   7 2749.75  186.89  10    0.72
  -6   0   4  343.83   22.92  10    1.35
  -5  -2   3  649.81   44.58  10    0.82
  -6  -2   3  820.89   67.35  10    0.64
  -9   0   6  954.55   73.98  10     0.9
  -7  -2   5  544.42   51.06  10    0.88
  -6  -3   4     895   86.11  10    0.61
  -2   0   1   97.89    4.41  10    3.13
  -9   0   4 1244.14   122.8  10     0.6
  -4  -1   3  126.42   10.56  10     1.7
  -5  -1   4  130.84   15.98  10    1.54
  -7  -2   3  1281.4   99.31  10    0.49
  -9   1   7  712.94   85.14  10    0.95
  -8  -1   6  373.49   44.15  10    1.02
  -8  -3   5  941.74  106.59  10    0.57
 -10  -1   5 1293.83   141.6  10    0.59
  -6   2   3 1431.68   107.4  10    0.65
  -6  -2   4  256.06   33.73  10    0.88
  -5  -1   3  173.82   15.82  10    1.24
  -8  -2   6  372.11    61.5  10    0.85
  -5  -3   3  390.91   77.81  10    0.53
 -11  -1   8  492.97   74.96  10    0.75
   5   1   1 1273.95   29.77  10     1.5
   7   0   2 1253.07   32.89  10     1.6
   6   0   1  908.38   26.77  10    1.48
   2   0   0  178.07    4.46  10    2.42
   9  -1   2  976.34   59.82  10    1.02
  11   1   3 1561.62    98.7  10    0.95
   5   0   1  274.67   13.55  10    1.92
   6   1   0   875.1   53.29  10    0.68
  10   0   1 2050.99  129.76  10    0.74
   8   1   1 1162.47   66.93  10     0.9
   7   2   1 1198.46   83.65  10    0.75
   7   1   1  589.31   37.63  10    1.05
   9   0   2  793.96   52.66  10    1.11
   8   0   0 1135.38   90.07  10    0.61
   9   1   2  976.57   60.69  10    1.03
   8   0   1  660.56   48.35  10    0.99
  10   1   1 1431.12  132.08  10    0.69
   4   0   1  125.89    9.65  10    2.64
  13   1   3 2511.12  202.17  10    0.75
   8   0   2  260.85   27.83  10    1.32
   6   1   1  215.74   23.01  10    1.25
   8   3   1 2342.87  189.24  10     0.5
   9   2   2 1523.66  135.41  10    0.83
  10   1   2 1200.55   94.12  10     0.9
  10  -1   1 1317.87  120.96  10    0.68
   4   0   0    13.9    2.87  10    1.23
   8   2   1 1197.52   97.15  10    0.69
   7   0   1  316.72   32.76  10    1.19
   6   0   0  170.07   23.58  10     0.8
   9  -1   1  928.13   92.44  10    0.78
  10   2   1 1852.87  213.39  10    0.57
  12   2   4 1543.79  129.51  10    0.84
  17   0   5 1356.42  225.84  10    0.67
  13   1   4  726.13   120.1  10    0.86
  10  -1   3   196.2   34.73  10    1.07
  11   0   2  948.79  114.18  10    0.84
   9  -1   3  220.55   34.12  10    1.23
  11  -1   1  645.57  105.01  10    0.61
   9   0   1  453.09   63.05  10    0.84
   7   0   6 2112.62   58.83  10    2.05
  10   1   5    1960   70.44  10     1.3
  10  -1   5 1470.67    62.8  10    1.29
  11   0   7 2151.34  100.27  10     1.3
   5   0   3  780.47   29.14  10    2.84
   9   0   4 1134.62   49.38  10    1.47
   7   0   5 1008.02   45.37  10    2.07
  12   0   6 1669.13  106.57  10    1.14
   8   1   5  951.77      46  10    1.67
  15   0   7 3666.96  215.53  10     0.9
   6   0   3  519.04    25.5  10    2.28
  14   1  10 3051.24  182.89  10    1.01
   9   0   6 1091.01   62.56  10    1.61
   7   0   3  331.15   23.77  10    1.87
  14  -1  10 3090.32  203.18  10    1.01
   9   0   8  617.94    50.4  10    1.59
   8   1   6   614.4   43.73  10     1.7
  13   0   8 1038.13  107.08  10     1.1
   5   0   4  476.45   27.33  10     2.9
  11   0   9  752.14   70.31  10    1.32
   4   0   3  341.83   22.82  10    3.61
  10   1   8   673.4    62.3  10    1.39
  10  -1   7  595.81   54.39  10    1.39
  13  -1  11 1479.74  122.66  10    1.08
   9   1   7  584.86   53.71  10    1.53
  15   2   7 1999.37  208.27  10    0.82
  10   1   9  434.47   62.14  10    1.38
  10   1   7  596.31   59.38  10    1.39
  13   1  11  1728.9  150.29  10    1.08
  10  -1   8  605.75   64.17  10    1.39
   3   0   2  243.64   22.25  10     4.8
  12   1   9   849.4   95.49  10    1.17
   8   1   7  329.11   35.72  10     1.7
  10   0   8  275.27   45.59  10    1.45
  14  -1   6  478.22   77.26  10    0.91
  17   1   7 1723.19  300.37  10    0.74
  14   0  11  747.84  131.85  10    1.03
  15   0  11  403.56   70.81  10    0.97
  11  -1  10  140.42    32.8  10    1.26
   2   0   1   53.09     9.9  10    6.81
   3   0   6 1366.79   42.05  10    3.26
   5   0   6 1038.74   37.22  10    2.63
   8   1   9 1229.34   49.52  10    1.62
   4   0   8 1113.89   41.35  10    2.44
   6   0  11 1069.76   52.65  10    1.74
   9   0  13 1692.07   92.49  10    1.35
   4   0  10  686.19   38.61  10    2.05
   4   0   6  581.42   28.35  10    2.96
   6   0  12  875.91   59.26  10    1.63
   4   0   7     459   28.57  10    2.69
  10   0  12  969.56    78.4  10    1.32
   9   0  12 1000.79   74.17  10     1.4
   7  -1  14 1004.57   72.91  10    1.36
   7   1  17 1317.42  108.02  10    1.18
   7   0   9  409.72   36.51  10    1.83
   7   0  11  564.42   49.43  10    1.65
   8   0   9  589.39   42.36  10    1.69
   7   1  14   800.7    75.1  10    1.36
   6   0   9  553.79   43.99  10    1.97
  10  -1  11  480.95   56.42  10    1.32
   9   1  14   879.5   79.15  10    1.26
   5   0  12  376.79   40.32  10     1.7
   9   1  10  202.37   26.49  10    1.46
   6   0   8  281.23   29.82  10     2.1
   7  -1  16   586.7   73.52  10    1.24
   2   0   4  123.16   14.71  10    4.89
   4   0   9  151.34   23.31  10    2.24
  11  -1  16  673.64   93.52  10    1.08
   3   0   5   88.25   11.66  10    3.69
   8   1  11  293.01   42.61  10     1.5
   9   0  14  470.78   76.88  10    1.29
  11   0  12   90.32    33.1  10    1.24
  13  -1  21  444.82  149.49  10    0.86
   3   0   7  142.39   18.11  10    2.88
  -3  -2   6  675.11   24.85  10    1.73
  -2  -1   4  373.68   14.79  10    3.08
  -2  -3  10    1026   55.19  10    1.31
  -2  -2   5  307.66   16.67  10    1.89
  -4  -2  11  744.29   43.18  10     1.4
  -3  -1   6  342.33   17.19  10    2.37
  -4  -3   8  541.11   45.39  10    1.18
  -3  -1   5  181.27   11.57  10    2.48
  -3  -2   9  375.15   30.18  10    1.62
  -4  -3  10  655.87   53.43  10    1.19
  -2  -2   8  293.79   22.73  10     1.8
  -1  -1   3  117.03    9.43  10    3.81
  -2  -2   6  146.09   14.89  10    1.91
  -2  -1   3   53.76    4.78  10    3.07
  -3  -4  10  444.76   50.92  10    0.99
  -5  -3  12  805.41   81.75  10    1.09
  -6  -4  15  907.34  161.61  10    0.85
  -2  -3   9   78.69   18.48  10    1.34
  -7  -3  14   185.8   53.35  10    0.94
  -2  -3  12   81.65   19.87  10    1.24
  -6  -2  10  171.61   30.92  10    1.24
  -5  -3  15  270.87   66.15  10    1.01
  -2  -1   5   41.81    6.85  10    2.91
  -1  -1   1  230.32    5.58  10    2.19
   1  -3   2 2503.92   75.23  10    0.79
   1  -3   3 1218.42   45.69  10    1.06
  -1  -3   3 1331.57   51.61  10    0.93
  -1  -3   5 1072.29   41.11  10    1.28
  -2  -3   4  986.19   42.39  10    1.05
   0  -1   1  207.19    6.93  10    3.02
   0  -3   3  616.57   42.72  10    1.01
  -1  -2   2  224.74   13.17  10    1.34
   1  -2   2  233.95   14.44  10     1.6
   2  -4   3  123.63   33.72  10    0.66
  -1  -2   3    61.6    8.48  10    1.77
   0  -4   6  416.65   62.03  10    0.97
  -2  -2   2   32.77    7.44  10    1.12
   4  -4   3  164.83   39.46  10    0.66
   3  -3   3   76.19   13.44  10    1.07
   0  -2   2   61.51    9.05  10     1.5
   3  -6   6 1797.81  243.53  10    0.53
   3  -4   3  106.15   36.43  10    0.63
   5  -4   3  205.17   42.72  10    0.67
   6  -2   7  982.44   44.69  10    1.69
   6  -1   5  615.34   28.49  10    2.16
   6  -2   6  494.18   35.06  10     1.7
  13  -3  11 2131.74  162.12  10    0.91
   7  -3   7  124.47   26.96  10    1.24
   7  -2   7  380.95   40.56  10    1.57
  14  -2  11  785.04   99.77  10    0.95
  10  -2   8   408.2   58.87  10    1.24
   9  -3  11  240.18   51.14  10    1.13
   8  -2   9   74.76   17.27  10    1.43
  11  -3   8   157.3   47.11  10    0.97
  13  -2  12   836.5  104.49  10    1.01
  13  -2   7  313.06   59.66  10    0.95
  13  -3  13 1071.76  155.15  10    0.92
  17  -3  11  834.38  145.68  10    0.73
  15  -5  14  658.24  164.95  10    0.69
   4  -2  11 1024.85   59.11  10     1.6
   1  -2   9  654.84   34.46  10    1.87
   2  -2  11  796.12   53.65  10    1.65
   3  -2   9  615.86   39.57  10    1.83
   3  -2  17  953.02   96.99  10    1.19
   1  -3  14  946.37   78.56  10    1.22
   3  -2  10  635.29   48.02  10    1.73
   4  -3  16  922.26  101.84  10    1.12
   6  -2  19 1863.58  142.04  10    1.05
   4  -2  15  930.46   79.85  10     1.3
   1  -2  11  393.37   36.39  10    1.65
   4  -2  14  435.93   52.79  10    1.37
   7  -3  17 1430.62  161.08  10    1.03
   1  -1   5  177.72   15.71  10     3.5
   3  -3  17  938.94   97.31  10    1.08
   1  -1   8  168.17   17.32  10    2.49
   1  -2  13  292.66   39.32  10    1.47
   7  -2  18  519.27   96.63  10    1.07
  11  -3  26  423.85  140.41  10    0.73
   3  -1   9  124.25   18.97  10    2.19
   2  -1   9  223.19   25.46  10    2.23
   3  -2  18  421.29   89.23  10    1.13
   3  -2  12    78.1   21.86  10    1.54
   5  -4  17   173.4   59.37  10    0.96
   1  -2  12  108.62   34.74  10    1.56
   0  -1   5      14     4.9  10    3.36
   0  -2   4  492.05   18.49  10    2.13
   1  -3   7  998.06   46.17  10    1.48
   2  -2   5  527.96   23.72  10    2.19
   2  -3  10 1021.85   51.75  10    1.42
   4  -3   8  912.94   52.52  10    1.43
   2  -2   6  390.12   25.97  10    2.16
   0  -2   6  313.34   18.37  10    2.14
   4  -4  11 1189.86  104.13  10    1.09
   0  -3   7  563.79    40.5  10    1.46
   1  -4   9  805.07   75.22  10     1.1
   0  -5  11 1746.75  163.47  10    0.87
   2  -3   8  372.99   39.63  10    1.48
   0  -1   3   110.6   11.46  10    4.27
   3  -4  10 1108.07    98.6  10    1.11
   4  -5  15  280.07   69.42  10    0.87
   1  -2   4   46.55    8.09  10    2.19
   0   0   0       0       0   0       0
;
_shelx_hkl_checksum              62955
_shelx_res_file
;
TITL Ammonium carbonate monohydrate, SXD, 100 K
CELL  0.71073  12.0564  4.4519  11.0155   90.000   90.000   90.000
ZERR     2.00   0.0033   0.0011   0.0028    0.000    0.000    0.000
LATT   1
SYMM  1/2 - X, - Y, 1/2 + Z
SYMM  1/2 + X, 1/2 - Y, 1/2 - Z
SYMM  - X, 1/2 + Y, - Z
NEUT
SFAC  C N O H
UNIT 4 8 16 40
TEMP  -173
FMAP -2
PLAN 5
LIST 3
ACTA
BOND $H
EQIV $1 0.5-x, 1-y, -0.5+z
EQIV $2 -0.5+x, 1.5-y, 0.5-z
EQIV $3 0.5-x, 1-y, 0.5+z
EQIV $4 -x, 0.5+y, 1-z
HTAB N1 O3_$1
HTAB N1 O1_$2
HTAB N1 O2
HTAB N2 O1_$3
HTAB N2 Ow1_$4
HTAB N2 O3
HTAB OW1 O2
MERG   2
L.S.  10
WGHT    0.193300   22.669800
EXTI    0.042696
BASF   0.40705   1.24676   0.45798   1.07436   0.56932   0.61211   0.28013
BASF   1.06344   0.36055
FVAR       0.94776
N1    2    0.096205    0.750000    0.122045    10.50000    0.00891    0.01104 =
         0.00806    0.00000    0.00034    0.00000
N2    2    0.129715    0.750000    0.641887    10.50000    0.00925    0.01046 =
         0.00800    0.00000    0.00103    0.00000
C1    1    0.300128    0.750000    0.381603    10.50000    0.00595    0.00615 =
         0.00459    0.00000   -0.00019    0.00000
O1    3    0.377772    0.750000    0.301499    10.50000    0.00708    0.01429 =
         0.00645    0.00000    0.00059    0.00000
O2    3    0.198157    0.750000    0.348499    10.50000    0.00580    0.01442 =
         0.00884    0.00000   -0.00155    0.00000
O3    3    0.324252    0.750000    0.495488    10.50000    0.00805    0.01261 =
         0.00550    0.00000   -0.00084    0.00000
OW1   3    0.090972    0.250000    0.445704    10.50000    0.00981    0.01186 =
         0.01679    0.00000    0.00148    0.00000
H1    4    0.117676    0.561418    0.071504    11.00000    0.02364    0.02084 =
         0.02122   -0.00378    0.00200    0.00138
H2    4    0.010892    0.750000    0.142670    10.50000    0.01406    0.02681 =
         0.02175    0.00000   -0.00006    0.00000
H3    4    0.141449    0.750000    0.203311    10.50000    0.01991    0.02535 =
         0.01723    0.00000   -0.00293    0.00000
H4    4    0.133309    0.559864    0.696103    11.00000    0.02684    0.02206 =
         0.02079    0.00682    0.00034    0.00128
H5    4    0.053602    0.750000    0.596949    10.50000    0.01894    0.02672 =
         0.02393    0.00000   -0.00445    0.00000
H6    4    0.195149    0.750000    0.580473    10.50000    0.01898    0.02877 =
         0.01988    0.00000    0.00856    0.00000
H7    4    0.128382    0.423995    0.411638    11.00000    0.02247    0.01962 =
         0.02956    0.00187    0.00270   -0.00467
HKLF 2
REM  Ammonium carbonate monohydrate, SXD, 100 K
REM R1 =  0.0939 for    7209 Fo > 4sig(Fo)  and  0.0939 for all    7209 data
REM    104 parameters refined using      0 restraints
END
WGHT      0.1899     22.7262
REM Highest difference peak  2.093,  deepest hole -2.515,  1-sigma level  0.476
Q1    1   0.1300  0.7500  0.6864  10.50000  0.05   -2.51
Q2    1   0.2931  0.7500  0.3374  10.50000  0.05   -2.37
Q3    1   0.0897  0.7500  0.1673  10.50000  0.05   -2.35
Q4    1   0.2726  0.8354  0.3808  11.00000  0.05   -2.30
Q5    1   0.3761  0.7500  0.2556  10.50000  0.05   -2.27
;
_shelx_res_checksum              8758
_shelxl_version_number           2.014
#END Tags that were not found in dictionaries
loop_
_space_group_symop_operation_xyz
'x, y, z'
'-x+1/2, -y, z+1/2'
'x+1/2, -y+1/2, -z+1/2'
'-x, y+1/2, -z'
'-x, -y, -z'
'x-1/2, y, -z-1/2'
'-x-1/2, y-1/2, z-1/2'
'x, -y-1/2, z'
loop_
_atom_site_type_symbol
_atom_site_label
_atom_site_fract_x
_atom_site_fract_y
_atom_site_fract_z
_atom_site_U_iso_or_equiv
_atom_site_adp_type
_atom_site_calc_flag
_atom_site_occupancy
N N1 0.0962(2) 0.7500 0.12204(19) 0.0093(4) Uani d 1
N N2 0.1297(2) 0.7500 0.64189(18) 0.0092(4) Uani d 1
C C1 0.3001(2) 0.7500 0.3816(2) 0.0056(4) Uani d 1
O O1 0.3778(3) 0.7500 0.3015(3) 0.0093(5) Uani d 1
O O2 0.1982(3) 0.7500 0.3485(3) 0.0097(5) Uani d 1
O O3 0.3243(3) 0.7500 0.4955(3) 0.0087(5) Uani d 1
O OW1 0.0910(4) 0.2500 0.4457(4) 0.0128(6) Uani d 1
H H1 0.1177(5) 0.5614(14) 0.0715(5) 0.0219(10) Uani d 1
H H2 0.0109(6) 0.7500 0.1427(7) 0.0209(13) Uani d 1
H H3 0.1414(7) 0.7500 0.2033(7) 0.0208(13) Uani d 1
H H4 0.1333(6) 0.5599(14) 0.6961(5) 0.0232(10) Uani d 1
H H5 0.0536(7) 0.7500 0.5969(8) 0.0232(14) Uani d 1
H H6 0.1951(7) 0.7500 0.5805(7) 0.0225(14) Uani d 1
H H7 0.1284(5) 0.4240(14) 0.4116(6) 0.0239(10) Uani d 1
loop_
_atom_site_aniso_label
_atom_site_aniso_U_11
_atom_site_aniso_U_22
_atom_site_aniso_U_33
_atom_site_aniso_U_12
_atom_site_aniso_U_13
_atom_site_aniso_U_23
N1 0.0089(9) 0.0110(8) 0.0081(6) 0.000 0.0003(6) 0.000
N2 0.0093(8) 0.0105(8) 0.0080(6) 0.000 0.0010(5) 0.000
C1 0.0060(10) 0.0062(9) 0.0046(7) 0.000 -0.0002(6) 0.000
O1 0.0071(12) 0.0143(14) 0.0064(9) 0.000 0.0006(9) 0.000
O2 0.0058(11) 0.0144(14) 0.0088(10) 0.000 -0.0015(9) 0.000
O3 0.0080(13) 0.0126(14) 0.0055(9) 0.000 -0.0008(8) 0.000
OW1 0.0098(15) 0.0119(14) 0.0168(13) 0.000 0.0015(12) 0.000
H1 0.024(3) 0.021(2) 0.021(2) 0.0014(19) 0.0020(16) -0.0038(17)
H2 0.014(3) 0.027(4) 0.022(3) 0.000 0.000(2) 0.000
H3 0.020(3) 0.025(3) 0.017(2) 0.000 -0.003(2) 0.000
H4 0.027(3) 0.022(2) 0.021(2) 0.001(2) 0.0003(18) 0.0068(17)
H5 0.019(3) 0.027(4) 0.024(3) 0.000 -0.004(3) 0.000
H6 0.019(3) 0.029(4) 0.020(3) 0.000 0.009(2) 0.000
H7 0.022(2) 0.020(2) 0.030(2) -0.0047(19) 0.003(2) 0.0019(18)
loop_
_atom_type_symbol
_atom_type_description
_atom_type_scat_dispersion_real
_atom_type_scat_dispersion_imag
_atom_type_scat_source
C C 0.0000 0.0000
'Neutron Data Booklet, ILL Grenoble, France (2003) ISBN 0-9704143-7-4'
N N 0.0000 0.0000
'Neutron Data Booklet, ILL Grenoble, France (2003) ISBN 0-9704143-7-4'
O O 0.0000 0.0000
'Neutron Data Booklet, ILL Grenoble, France (2003) ISBN 0-9704143-7-4'
H H 0.0000 0.0000
'Neutron Data Booklet, ILL Grenoble, France (2003) ISBN 0-9704143-7-4'
loop_
_geom_angle_atom_site_label_1
_geom_angle_atom_site_label_2
_geom_angle_atom_site_label_3
_geom_angle_site_symmetry_1
_geom_angle_site_symmetry_3
_geom_angle
H1 N1 H1 . 8_575 107.6(7)
H1 N1 H3 . . 109.1(4)
H1 N1 H3 8_575 . 109.1(4)
H1 N1 H2 . . 111.0(4)
H1 N1 H2 8_575 . 111.0(4)
H3 N1 H2 . . 108.9(7)
H4 N2 H4 . 8_575 109.4(7)
H4 N2 H6 . . 110.1(5)
H4 N2 H6 8_575 . 110.1(5)
H4 N2 H5 . . 108.1(5)
H4 N2 H5 8_575 . 108.1(5)
H6 N2 H5 . . 111.0(7)
O2 C1 O1 . . 120.2(3)
O2 C1 O3 . . 119.6(3)
O1 C1 O3 . . 120.3(3)
H7 OW1 H7 . 8_565 105.7(9)
loop_
_geom_bond_atom_site_label_1
_geom_bond_atom_site_label_2
_geom_bond_site_symmetry_2
_geom_bond_distance
N1 H1 . 1.040(6)
N1 H1 8_575 1.040(6)
N1 H3 . 1.048(8)
N1 H2 . 1.053(8)
N2 H4 . 1.037(6)
N2 H4 8_575 1.037(6)
N2 H6 . 1.039(8)
N2 H5 . 1.043(8)
C1 O2 . 1.282(5)
C1 O1 . 1.286(4)
C1 O3 . 1.288(4)
OW1 H7 . 0.972(6)
OW1 H7 8_565 0.972(6)
loop_
_geom_hbond_atom_site_label_D
_geom_hbond_atom_site_label_H
_geom_hbond_atom_site_label_A
_geom_hbond_site_symmetry_A
_geom_hbond_distance_DH
_geom_hbond_distance_HA
_geom_hbond_distance_DA
_geom_hbond_angle_DHA
N1 H1 O3 2_564 1.040(6) 1.764(6) 2.796(2) 170.7(6)
N1 H2 O1 3_465 1.053(8) 1.719(9) 2.765(4) 171.5(7)
N1 H3 O2 . 1.048(8) 1.739(8) 2.781(4) 171.8(8)
N2 H4 O1 2_565 1.037(6) 1.808(6) 2.838(2) 171.8(6)
N2 H5 OW1 4_556 1.043(8) 1.805(10) 2.830(5) 166.7(8)
N2 H6 O3 . 1.039(8) 1.816(8) 2.846(4) 170.4(8)
OW1 H7 O2 . 0.972(6) 1.816(6) 2.788(3) 179.8(7)
loop_
_cod_related_entry_id
_cod_related_entry_database
_cod_related_entry_code
1 PubChem 86740279
