#------------------------------------------------------------------------------
#$Date: 2025-08-19 21:17:10 +0300 (Tue, 19 Aug 2025) $
#$Revision: 301807 $
#$URL: file:///home/coder/svn-repositories/cod/cif/2/24/01/2240172.cif $
#------------------------------------------------------------------------------
#
# This file is available in the Crystallography Open Database (COD),
# http://www.crystallography.net/. The original data for this entry
# were provided by IUCr Journals, http://journals.iucr.org/.
#
# The file may be used within the scientific community so long as
# proper attribution is given to the journal article from which the
# data were obtained.
#
data_2240172
loop_
_publ_author_name
'Ezemobi, Fortune'
'North, Henry'
'Scott, Kenneth R.'
'Wutoh, Anthohy K.'
'Butcher, Ray J.'
_publ_section_title
;
 Crystal structures of 2-methoxyisoindoline-1,3-dione,
 1,3-dioxoisoindolin-2-yl methyl carbonate and
 1,3-dioxo-2,3-dihydro-1H-benzo[de]isoquinolin-2-yl methyl carbonate:
 three anticonvulsant compounds
;
_journal_coeditor_code           SU2795
_journal_issue                   12
_journal_name_full
'Acta Crystallographica Section E Structure Reports Online'
_journal_page_first              456
_journal_paper_doi               10.1107/S1600536814023769
_journal_volume                  70
_journal_year                    2014
_chemical_formula_iupac          'C9 H7 N O3'
_chemical_formula_moiety         'C9 H7 N O3'
_chemical_formula_sum            'C9 H7 N O3'
_chemical_formula_weight         177.16
_chemical_name_systematic
;
2-Methoxyisoindoline-1,3-dione
;
_space_group_crystal_system      orthorhombic
_space_group_IT_number           19
_space_group_name_Hall           'P 2ac 2ab'
_space_group_name_H-M_alt        'P 21 21 21'
_symmetry_space_group_name_Hall  'P 2ac 2ab'
_symmetry_space_group_name_H-M   'P 21 21 21'
_atom_sites_solution_hydrogens   geom
_audit_creation_method           SHELXL-2013
_cell_angle_alpha                90
_cell_angle_beta                 90
_cell_angle_gamma                90
_cell_formula_units_Z            4
_cell_length_a                   4.2987(4)
_cell_length_b                   7.0243(10)
_cell_length_c                   27.587(4)
_cell_measurement_reflns_used    1634
_cell_measurement_temperature    123(2)
_cell_measurement_theta_max      31.0583
_cell_measurement_theta_min      3.2479
_cell_volume                     833.00(19)
_computing_cell_refinement
;
CrysAlis PRO (Agilent, 2012)
;
_computing_data_collection
;
CrysAlis PRO (Agilent, 2012)
;
_computing_data_reduction
;
CrysAlis PRO (Agilent, 2012)
;
_computing_molecular_graphics
;
SHELXTL (Sheldrick, 2008)
;
_computing_publication_material
;
SHELXTL (Sheldrick, 2008)
;
_computing_structure_refinement
;
SHELXL2013 (Sheldrick, 2008)
;
_computing_structure_solution
;
SUPERFLIP (Palatinus & Chapuis, 2007)
;
_diffrn_ambient_temperature      123(2)
_diffrn_detector_area_resol_mean 10.5081
_diffrn_measured_fraction_theta_full 0.979
_diffrn_measured_fraction_theta_max 0.885
_diffrn_measurement_device_type  'Agilent Xcalibur (Ruby, Gemini)'
_diffrn_measurement_method       '\w scans'
_diffrn_radiation_type           MoK\a
_diffrn_radiation_wavelength     0.71073
_diffrn_reflns_av_R_equivalents  0.0872
_diffrn_reflns_limit_h_max       5
_diffrn_reflns_limit_h_min       -5
_diffrn_reflns_limit_k_max       9
_diffrn_reflns_limit_k_min       -10
_diffrn_reflns_limit_l_max       38
_diffrn_reflns_limit_l_min       -25
_diffrn_reflns_number            5145
_diffrn_reflns_theta_full        25.500
_diffrn_reflns_theta_max         31.135
_diffrn_reflns_theta_min         3.255
_exptl_absorpt_coefficient_mu    0.108
_exptl_absorpt_correction_T_max  0.996
_exptl_absorpt_correction_T_min  0.946
_exptl_absorpt_correction_type   analytical
_exptl_absorpt_process_details
;
(CrysAlis PRO; Agilent, 2012)
;
_exptl_crystal_colour            colorless
_exptl_crystal_density_diffrn    1.413
_exptl_crystal_description       plate
_exptl_crystal_F_000             368
_exptl_crystal_size_max          0.6575
_exptl_crystal_size_mid          0.2334
_exptl_crystal_size_min          0.0399
_refine_diff_density_max         0.501
_refine_diff_density_min         -0.335
_refine_ls_extinction_method     none
_refine_ls_goodness_of_fit_ref   1.126
_refine_ls_hydrogen_treatment    constr
_refine_ls_matrix_type           full
_refine_ls_number_parameters     119
_refine_ls_number_reflns         2259
_refine_ls_number_restraints     0
_refine_ls_restrained_S_all      1.126
_refine_ls_R_factor_all          0.1098
_refine_ls_R_factor_gt           0.0989
_refine_ls_shift/su_max          0.000
_refine_ls_shift/su_mean         0.000
_refine_ls_structure_factor_coef Fsqd
_refine_ls_weighting_details
'w=1/[\s^2^(Fo^2^)+(0.0842P)^2^+1.0430P] where P=(Fo^2^+2Fc^2^)/3'
_refine_ls_weighting_scheme      calc
_refine_ls_wR_factor_gt          0.2209
_refine_ls_wR_factor_ref         0.2287
_reflns_number_gt                1989
_reflns_number_total             2259
_reflns_threshold_expression     I>2\s(I)
_cod_data_source_file            su2795sup1.cif
_cod_data_source_block           1
_cod_original_cell_volume        832.98(19)
_cod_database_code               2240172
_cod_database_fobs_code          2240172
#BEGIN Tags that were not found in dictionaries:
_shelx_space_group_comment
;
The symmetry employed for this shelxl refinement is uniquely defined
by the following loop, which should always be used as a source of
symmetry information in preference to the above space-group names.
They are only intended as comments.
;
_shelx_hkl_file
;
   0   0   5    0.58    0.46   3
   0   0   6   69.02    3.51   3
   0   0   7    0.04    0.28   3
   0   0  -8 1497.99   20.71   3
   0   0   8 1404.17   18.73   3
   0   0  -9    4.95    1.61   3
   0   0 -10  890.77   17.71   3
   0   0 -11    4.43    1.77   3
   0   0 -12    3.50    1.58   3
   0   0 -13    2.28    1.42   3
   0   0 -14  588.54   16.82   3
   0   0 -15    7.37    2.44   3
   0   0 -16  476.82   16.29   3
   0   0  23    0.96    0.74   4
   0   0  24    1.62    1.21   4
   0   0  25    0.51    0.93   4
   0   0  26   81.55    8.13   4
   0   0  27    4.15    2.03   4
   0   0  28    5.22    2.04   4
   0   0  29    1.20    1.74   4
   0   0  30   18.38    3.83   4
   0   0  31    1.51    1.96   4
   0   0  32    4.57    2.10   4
   0   1   2 5518.32   29.00   3
   0  -1  -2 6086.23   28.75   4
   0  -1   3 2149.78   21.20   4
   0   1   3 1965.02   20.55   3
   0  -1  -3 2462.78   19.53   4
   0  -1  -4   30.94    2.21   1
   0   1   4   22.84    2.38   3
   0   1   4   23.67    1.93   4
   0  -1   4   21.73    2.49   4
   0  -1  -5   44.75    3.03   1
   0   1   5   24.97    2.46   3
   0  -1   5   28.00    2.82   4
   0  -1   6   41.12    3.52   4
   0   1   6   47.63    3.42   1
   0   1   6   39.98    3.29   3
   0   1  -6   28.32    1.59   3
   0   1   7   18.83    2.33   1
   0   1   7   14.89    2.13   3
   0   1  -7   12.92    1.30   3
   0  -1   7   14.08    2.27   4
   0  -1   8 2129.28   26.95   4
   0   1   8 2178.26   26.94   3
   0   1  -8 2146.25   19.73   3
   0   1   9   32.40    3.55   3
   0  -1   9   33.90    3.91   4
   0   1  -9   36.91    3.08   3
   0   1 -10   98.89    5.36   3
   0  -1  10   85.74    5.92   4
   0   1  10   88.68    5.99   3
   0   1 -11  203.27    7.81   3
   0   1  11  202.15    9.46   3
   0  -1  11  187.66    8.93   4
   0   1 -12  133.71    6.67   3
   0  -1  12  120.81    7.42   4
   0   1  12  132.12    8.04   3
   0   1  13  558.10   17.03   3
   0   1 -13  542.44   13.84   3
   0  -1  13  512.04   15.27   4
   0   1 -14  115.89    6.83   3
   0   1  14  117.07    8.31   3
   0  -1 -14  125.54    8.83   3
   0  -1  14  107.00    7.44   4
   0   1 -15  674.52   16.73   3
   0  -1  15  617.42   17.75   4
   0  -1  16   39.95    4.94   4
   0  -1  17  191.86   10.53   4
   0  -1  18   32.64    4.64   4
   0  -1  19    0.58    1.06   4
   0  -1  20    5.40    2.23   4
   0  -1  21   29.86    4.45   4
   0  -1  22   11.57    3.26   4
   0  -1  23  266.87   14.16   4
   0  -1  24  329.03   16.26   4
   0  -1  25   27.50    5.03   4
   0  -1  26    8.01    3.36   4
   0  -1  27    3.31    2.14   4
   0  -1  28   65.11    7.94   4
   0   1  29    4.57    2.20   4
   0  -1  29    6.53    3.05   4
   0   1  30   23.80    4.54   4
   0  -1  30   25.45    5.19   4
   0   1  31  100.53   11.43   1
   0  -1  31  106.97   10.85   4
   0   1  31  109.79   10.11   4
   0   1  32   11.31    4.04   1
   0  -1  32    6.99    3.26   4
   0  -1  33    9.11    3.54   4
   0   1  33    8.73    3.36   1
   0  -1  34    4.16    2.58   4
   0   1  34    4.56    2.17   1
   0   1  35    2.33    1.81   1
   0   1  36    5.26    2.61   1
   0   1  37   11.54    4.70   1
   0   1  38    2.77    2.39   1
   0  -2   0  307.64    8.55   4
   0   2   0  392.07    8.10   3
   0  -2   0  251.79    7.49   1
   0  -2   0  416.86    8.11   2
   0  -2  -1 2883.52   23.48   2
   0  -2  -1 2146.47   21.28   1
   0   2   1 2833.19   24.28   3
   0  -2  -1 2364.25   23.96   4
   0   2  -1 2644.13   18.85   3
   0  -2   1 2883.41   19.86   2
   0  -2   1 2312.69   24.14   4
   0  -2  -2   54.01    3.65   4
   0  -2  -2   60.74    3.70   1
   0   2   2   50.98    3.55   1
   0  -2   2   60.16    2.66   2
   0   2   2   65.03    4.08   3
   0  -2   2   50.33    3.90   4
   0   2   3  165.55    6.88   4
   0   2   3  175.48    7.39   3
   0  -2   3  142.56    3.65   2
   0  -2  -3  169.34    6.25   1
   0  -2   3  153.93    7.30   4
   0  -2  -3  160.76    6.45   4
   0   2   3  160.38    6.77   1
   0  -2   4  771.69   17.38   4
   0   2   4  701.53   14.52   1
   0   2   4  763.13   16.20   3
   0  -2  -4  711.76   14.22   4
   0   2   4  778.03   15.31   4
   0  -2  -4  796.99   13.82   1
   0  -2  -5  141.61    6.07   1
   0  -2   5  116.41    7.13   4
   0   2   5  128.31    6.33   4
   0   2   5  116.01    6.44   3
   0  -2  -5  125.88    6.42   4
   0   2   5  101.85    5.43   1
   0   2   6   46.45    3.87   1
   0  -2  -6   58.78    4.26   1
   0   2   6   45.74    4.15   3
   0  -2   6   51.07    4.97   4
   0   2   6   53.25    4.10   4
   0   2   7   70.49    4.90   4
   0   2   7   71.89    5.16   1
   0  -2   7   70.12    5.94   4
   0  -2  -7   77.57    4.98   1
   0   2   7   60.99    5.01   3
   0   2   8   22.91    3.31   3
   0  -2  -8   32.63    3.55   1
   0   2   8   26.81    3.14   4
   0  -2   8   23.72    3.75   4
   0   2   8   27.62    3.46   1
   0   2  -8   12.68    0.98   3
   0   2  -9 1024.40   11.67   3
   0   2   9 1206.27   23.70   3
   0   2   9 1431.21   25.51   1
   0  -2   9 1376.33   27.45   4
   0  -2  -9 1677.78   26.38   1
   0   2   9 1353.81   22.71   4
   0   2  10    3.88    1.52   4
   0   2  10    7.20    2.32   1
   0   2  10    4.96    1.91   3
   0   2 -10    4.25    1.04   3
   0  -2  10    5.74    2.42   4
   0   2  11 1379.17   27.69   1
   0   2 -11 1039.60   13.95   3
   0  -2  11 1205.32   26.95   4
   0   2  11 1129.98   24.98   3
   0   2 -12  129.30    5.33   3
   0   2  12  138.80    9.13   3
   0   2  12  156.59    9.44   1
   0  -2  12  145.72    9.76   4
   0  -2  13   24.49    4.11   4
   0   2  13   28.47    4.21   3
   0   2  13   27.69    3.93   1
   0   2  14   58.51    6.31   3
   0  -2  14   56.85    6.04   4
   0   2  14   64.84    6.17   1
   0  -2  15   39.73    5.14   4
   0   2  15   40.39    5.37   3
   0   2  15   39.86    4.96   1
   0  -2  16  129.51    9.28   4
   0   2  16  155.77    9.85   1
   0  -2  17   20.49    4.17   4
   0   2  17   24.51    4.35   1
   0  -2  18  198.33   12.06   4
   0   2  18  218.54   12.33   1
   0  -2  19   25.11    4.58   4
   0   2  19   25.83    4.61   1
   0   2  20    2.20    1.91   1
   0  -2  20    2.61    1.81   4
   0  -2  21   15.78    3.62   4
   0   2  21   13.91    3.58   1
   0  -2  22    7.60    2.46   4
   0   2  22    9.42    2.93   1
   0   2 -22    7.26    2.08   2
   0  -2  23   26.34    4.90   4
   0   2  23   24.96    4.90   1
   0   2 -23   23.19    4.05   2
   0  -2  24  293.47   16.42   4
   0   2  24  279.58   15.99   1
   0   2 -24  284.40   14.30   2
   0   2 -25   12.48    3.39   2
   0  -2  25   16.03    4.51   4
   0   2  25   13.92    4.23   1
   0   2  26   90.78    9.75   1
   0  -2  26   94.20    9.83   4
   0  -2  27   20.32    4.90   4
   0   2  27   18.13    4.66   1
   0   2  28  170.59   13.84   1
   0  -2  28  169.68   13.60   4
   0   2  29   50.00    7.65   1
   0  -2  29   48.06    7.39   4
   0  -2  30    2.54    2.49   4
   0   2  30    3.10    1.96   1
   0  -2  31    5.24    3.18   4
   0   2  31    1.84    2.29   1
   0   2  32   25.39    5.89   1
   0  -2  32   38.49    7.06   4
   0  -2  33    7.30    3.43   4
   0   2  33    1.56    1.99   1
   0   2  34    3.18    2.62   1
   0  -2  34    0.88    0.50   4
   0   2  35    1.82    2.11   1
   0  -2  35    4.42    2.49   4
   0   2  36    3.28    1.69   1
   0   2  37    9.64    4.25   1
   0   2  38    5.96    3.03   1
   0  -3   0    1.30    1.06   4
   0  -3   0    1.08    0.65   1
   0   3   0    1.36    1.09   3
   0  -3   0    1.20    0.59   2
   0  -3   1  169.37    5.96   2
   0  -3  -1  124.20    6.36   1
   0  -3  -1  155.19    7.50   4
   0   3   1  188.97    7.92   3
   0   3  -1  202.80    7.40   3
   0  -3  -1  179.79    6.91   2
   0   3   1  197.40    9.59   4
   0  -3   1  140.63    7.37   4
   0  -3   1  119.90    7.22   1
   0   3   2   67.74    5.63   4
   0   3  -2   72.03    4.13   3
   0  -3  -2   54.61    4.27   1
   0   3   2   76.39    5.53   3
   0  -3  -2   55.61    4.58   4
   0  -3   2   50.02    4.58   4
   0  -3  -2   74.38    4.86   2
   0  -3   2   59.79    3.38   2
   0  -3   3 1232.73   14.71   2
   0   3   3 1391.35   23.12   3
   0   3  -3 1397.32   16.11   3
   0   3   3 1427.45   24.99   4
   0  -3  -3 1166.21   19.33   1
   0  -3   3 1164.84   22.82   4
   0  -3  -3 1342.58   21.26   2
   0  -3  -3 1215.87   21.34   4
   0   3   3 1100.25   20.84   1
   0   3  -4   55.05    2.88   3
   0  -3  -4   60.58    4.90   2
   0   3   4   48.67    4.56   1
   0  -3   4   51.09    2.94   2
   0  -3  -4   62.75    5.00   4
   0   3   4   62.24    5.35   4
   0  -3   4   59.77    5.54   4
   0   3   4   61.87    5.19   3
   0  -3  -4   59.75    4.60   1
   0   3   5 2315.47   31.66   3
   0  -3  -5 2592.38   30.49   1
   0   3   5 2535.64   34.19   4
   0   3  -5 2066.10   16.82   3
   0  -3   5 2316.81   36.18   4
   0  -3  -5 2231.61   29.90   2
   0  -3  -5 2510.19   31.64   4
   0   3   5 2228.27   32.01   1
   0  -3  -6    6.29    2.13   2
   0  -3  -6    5.44    1.94   4
   0   3   6    9.57    3.00   4
   0  -3   6    6.03    2.63   4
   0   3   6    5.42    2.51   3
   0  -3  -6    2.38    1.45   1
   0   3   6    2.25    1.32   1
   0   3   7 1898.26   31.23   4
   0  -3   7 1852.06   34.93   4
   0   3   7 1597.15   29.27   3
   0  -3  -7 1958.55   30.00   4
   0   3   7 1745.48   30.40   1
   0   3   8    4.24    1.63   1
   0   3   8    3.39    1.52   3
   0  -3   8    2.58    1.92   4
   0  -3  -8    4.35    1.54   1
   0   3   8    4.99    2.19   4
   0   3   9    2.06    0.90   4
   0   3   9    2.86    1.46   3
   0  -3  -9    1.11    0.76   1
   0  -3   9    1.06    1.21   4
   0   3   9    2.82    1.35   1
   0  -3 -10   49.32    4.88   1
   0   3  10   45.84    5.30   1
   0   3  10   51.25    5.48   4
   0  -3  10   43.54    5.90   4
   0   3  10   38.89    5.17   3
   0   3  11   32.35    4.89   3
   0   3  11   34.82    4.67   4
   0  -3  11   34.75    5.38   4
   0   3 -11   29.47    4.25   4
   0  -3 -11   40.20    4.62   1
   0   3  11   34.35    4.62   1
   0  -3  12    6.77    3.32   4
   0   3 -12    3.49    1.80   4
   0   3  12    3.86    2.42   3
   0   3  12    2.99    1.88   4
   0   3  12    2.61    2.01   1
   0   3  13  897.77   23.60   4
   0   3  13  843.49   25.13   3
   0   3  13  941.58   26.32   1
   0  -3  13  905.45   27.62   4
   0   3  14   88.44    7.76   4
   0   3  14   82.87    8.14   3
   0   3 -14   56.34    2.98   2
   0  -3  14   84.92    9.03   4
   0   3  14  101.27    8.90   1
   0   3 -15    3.16    0.88   2
   0   3  15    4.02    1.38   3
   0  -3  15    3.12    2.11   4
   0   3  15    5.28    1.99   1
   0   3  15    2.29    1.33   4
   0  -3  16   42.85    6.45   4
   0   3  16   37.82    5.98   3
   0   3  16   43.62    6.10   1
   0   3  16   44.55    5.43   4
   0   3 -16   31.82    2.80   2
   0   3  17  268.88   15.11   1
   0   3  17  244.15   12.97   4
   0  -3  17  247.83   15.09   4
   0   3 -17  231.66    8.14   2
   0   3  18    2.16    2.12   4
   0   3  18    2.59    2.07   1
   0   3 -18    1.07    0.77   2
   0  -3  18    5.26    2.83   4
   0   3  19   32.71    4.78   4
   0  -3  19   33.38    5.88   4
   0   3  19   34.79    5.45   1
   0   3 -19   32.33    3.43   2
   0   3  20   43.16    6.37   1
   0   3 -20   46.80    4.42   2
   0  -3  20   46.71    6.90   4
   0   3  20   43.97    5.59   4
   0   3  21   26.54    5.28   1
   0   3  21   20.15    4.01   4
   0  -3  21   22.97    5.06   4
   0   3 -21   24.65    3.38   2
   0  -3  22  188.15   13.96   4
   0   3  22  205.54   14.46   1
   0   3 -22  222.80   10.80   2
   0   3  22  194.54   12.15   4
   0   3  23  175.34   13.65   1
   0   3 -23  184.21   10.33   2
   0   3  23  160.57   11.14   4
   0  -3  23  158.44   13.00   4
   0  -3  24    4.55    2.91   4
   0   3  24    1.46    1.31   1
   0   3  25    8.41    3.18   1
   0  -3  25    3.96    1.66   4
   0  -3  26   35.24    6.53   4
   0   3  26   36.30    6.47   1
   0   3  27   35.36    6.59   1
   0  -3  27   40.60    7.25   4
   0  -3  28   12.89    4.07   4
   0   3  28   11.38    3.95   1
   0   3  29    3.99    1.94   1
   0  -3  29   14.38    4.56   4
   0   3  30    9.21    3.75   1
   0  -3  30    8.69    4.02   4
   0   3  31   13.81    4.66   1
   0  -3  31   14.23    4.98   4
   0  -3  32    4.98    2.72   4
   0   3  32    1.00    1.95   1
   0   3  33    5.84    3.82   1
   0  -3  33    0.44    1.20   4
   0   3  34    3.04    2.42   1
   0  -3  34    8.41    3.99   4
   0  -3  35    9.47    3.79   4
   0   3  35    6.51    3.04   1
   0   3  36   18.42    5.68   1
   0   3  37    6.02    4.45   1
   0   3  38    4.21    3.40   1
   0   4   0   34.69    3.66   3
   0  -4   0   20.31    3.06   1
   0   4   0   35.25    5.23   4
   0  -4   0   24.18    3.71   4
   0  -4   0   29.18    3.03   2
   0  -4   1  345.07   13.69   1
   0   4   1  455.49   13.59   3
   0  -4  -1  415.97   12.02   2
   0  -4  -1  334.94   11.95   1
   0   4   1  511.39   18.62   4
   0   4  -1  456.79   12.57   3
   0   4  -1  486.68   18.03   4
   0  -4   1  361.15   14.06   4
   0  -4  -1  360.05   13.45   4
   0  -4   1  403.47   10.90   2
   0   4  -2   36.35    5.17   4
   0  -4  -2   22.63    3.45   4
   0  -4   2   18.42    3.64   1
   0  -4  -2   16.51    2.50   1
   0   4  -2   22.43    2.77   3
   0  -4  -2   22.76    3.06   2
   0  -4   2   21.19    3.52   4
   0   4   2   33.34    4.87   4
   0   4   2   24.93    3.51   3
   0  -4   2   21.19    2.46   2
   0   4   3    4.58    2.61   4
   0   4  -3    2.69    0.98   3
   0  -4  -3    7.45    2.15   2
   0  -4   3    2.02    0.88   2
   0  -4  -3    2.90    1.38   1
   0  -4  -3    1.92    1.09   4
   0  -4   3    1.81    1.81   4
   0   4   3    2.95    1.66   3
   0   4   4  387.50   13.99   3
   0  -4  -4  367.06   13.97   4
   0  -4  -4  370.66   13.06   2
   0   4  -4  392.58    9.77   3
   0  -4   4  327.14   14.36   4
   0  -4   4  352.37    9.34   2
   0   4   4  461.94   18.00   4
   0  -4  -4  360.31   12.52   1
   0  -4   5  284.71   13.90   4
   0   4   5  317.12   13.09   3
   0  -4   5  303.94    8.78   2
   0   4  -5  299.91    7.92   3
   0  -4  -5  298.29   12.21   2
   0  -4  -5  317.19   13.22   4
   0  -4  -5  335.44   12.73   1
   0   4   5  267.88   12.48   1
   0   4   5  373.08   16.07   4
   0  -4  -6  248.07   12.11   4
   0   4   6  277.44   13.87   4
   0  -4   6  235.65   13.02   4
   0  -4  -6  221.75   10.93   2
   0  -4  -6  272.48   11.73   1
   0   4   6  203.22   10.96   1
   0   4   6  240.29   11.84   3
   0   4   7   13.78    2.82   1
   0   4   7   15.05    3.15   3
   0   4   7   15.71    3.46   4
   0  -4  -7   14.79    3.34   4
   0  -4   7   17.32    4.14   4
   0  -4  -7   18.07    3.33   1
   0  -4  -7   14.68    3.02   2
   0  -4  -8  112.72    8.50   2
   0   4   8  142.54   10.17   4
   0   4   8  120.66    9.29   1
   0  -4  -8  123.86    9.27   4
   0  -4   8  125.04   10.48   4
   0   4   8  122.60    8.96   3
   0  -4  -8  145.10    9.23   1
   0   4   9   92.35    8.23   3
   0   4   9   99.48    8.84   4
   0  -4  -9   86.00    7.78   2
   0  -4   9   97.13    9.45   4
   0  -4  -9  118.33    8.69   1
   0   4   9   99.34    8.57   1
   0   4  10   59.13    6.60   4
   0   4  10   48.00    6.07   3
   0  -4 -10   57.87    5.88   1
   0   4  10   58.23    6.82   1
   0  -4  10   53.96    7.23   4
   0   4  11  156.92   11.72   1
   0  -4  11  157.27   12.60   4
   0   4  11  165.82   11.17   4
   0  -4 -11  144.16    9.09   1
   0   4  11  139.46   10.42   3
   0   4  12   78.35    7.87   4
   0  -4 -12   63.04    6.21   1
   0   4  12   62.18    7.18   3
   0   4  12   70.47    7.76   1
   0  -4  12   63.97    8.34   4
   0  -4  13    4.77    2.51   4
   0   4  13    3.09    2.21   1
   0  -4 -13    1.75    1.61   1
   0   4  13    0.83    1.45   3
   0   4  13    3.80    2.24   4
   0  -4  14  233.14   15.90   4
   0   4  14  261.74   14.62   4
   0   4  14  236.94   14.66   1
   0   4  14  226.17   14.50   3
   0  -4 -14  224.95   12.32   1
   0   4  15   69.41    8.46   3
   0  -4  15   76.27    9.20   4
   0   4  15   77.70    8.13   4
   0   4  15   74.45    8.63   1
   0  -4  16   85.84    9.73   4
   0   4  16   95.90    9.07   4
   0   4  16   88.49    9.31   1
   0   4  17   41.16    7.04   1
   0   4  17   42.97    6.43   4
   0  -4  17   49.85    7.89   4
   0   4  18  555.41   24.19   1
   0  -4  18  497.43   23.79   4
   0   4  18  566.12   22.60   4
   0   4  19   74.98    8.49   4
   0  -4  19   73.12    9.43   4
   0   4  19   75.27    9.36   1
   0   4  20   27.74    5.28   1
   0  -4  20   24.34    5.08   4
   0   4  20   28.64    5.00   4
   0   4  21    4.37    2.61   4
   0  -4  21    8.45    3.73   4
   0   4  21    6.82    2.89   1
   0  -4  22  123.22   12.41   4
   0   4  22  143.31   12.78   1
   0  -4  23   29.00    6.20   4
   0   4  23   34.85    6.50   1
   0  -4  24  111.23   12.04   4
   0   4  24  123.35   12.25   1
   0   4  25   28.03    5.78   1
   0  -4  25   30.92    6.42   4
   0   4  26   19.12    5.07   1
   0  -4  26   17.16    4.64   4
   0  -4  27   15.12    4.33   4
   0   4  27   14.94    4.46   1
   0   4  28   48.91    8.08   1
   0  -4  28   36.60    7.09   4
   0  -4  29    6.42    3.19   4
   0   4  29    4.27    2.94   1
   0  -4  30   43.59    8.48   4
   0   4  30   36.66    7.44   1
   0   4  31   39.40    7.57   1
   0  -4  31   33.36    7.63   4
   0   4  32    3.96    3.07   1
   0  -4  32    3.66    2.54   4
   0   4  33    4.92    3.10   1
   0  -4  33    4.87    2.48   4
   0  -4  34    0.87    1.91   4
   0   4  34    3.64    2.39   1
   0   4  35   13.16    4.32   1
   0  -4  35   18.30    5.53   4
   0   4  36    2.73    2.57   1
   0  -4  36    5.30    3.71   4
   0  -5   0    3.84    1.64   2
   0  -5   0    6.43    2.60   4
   0   5   0    3.52    2.21   3
   0  -5   1  131.29    9.59   4
   0  -5  -1  129.22    9.37   4
   0  -5  -1  143.92    8.07   2
   0   5  -1  170.93    8.94   3
   0   5   1  172.12    9.72   3
   0  -5   1  148.52    7.83   2
   0  -5   2  188.26   11.87   4
   0  -5  -2  201.97   10.01   2
   0  -5   2  201.38    8.73   2
   0   5   2  228.41   11.61   3
   0   5  -2  257.73   10.65   3
   0  -5  -2  187.84   11.25   4
   0  -5   3   12.96    3.34   4
   0  -5  -3   12.94    3.23   4
   0  -5   3   11.41    2.14   2
   0   5   3   11.22    2.91   3
   0  -5  -3   10.97    2.57   2
   0  -5   4    4.92    2.16   4
   0  -5  -4    6.57    2.16   2
   0   5   4    6.11    2.00   3
   0  -5   4    5.11    1.48   2
   0  -5  -4    6.24    1.96   4
   0  -5   5   16.63    2.42   2
   0   5   5   19.40    3.87   3
   0  -5  -5   16.97    3.74   4
   0  -5  -5   17.24    3.40   2
   0  -5   5   25.73    5.44   4
   0   5   6  402.12   16.93   3
   0  -5  -6  384.54   17.27   4
   0  -5   6  343.68   17.49   4
   0   5   7   32.48    5.06   3
   0  -5   7   35.25    5.88   4
   0  -5  -7   35.62    5.52   4
   0   5   8   55.30    6.77   1
   0   5   8   63.11    7.08   3
   0  -5  -8   65.88    7.81   4
   0  -5   8   57.36    7.52   4
   0  -5   9   15.72    4.08   4
   0   5   9   13.02    3.48   1
   0  -5  -9   15.76    4.06   4
   0   5   9    7.97    2.44   3
   0   5  10   10.38    2.79   3
   0   5  10    8.45    3.24   1
   0  -5  10    9.34    3.68   4
   0   5  11  266.48   16.01   1
   0  -5  11  242.47   16.55   4
   0   5  11  258.15   15.25   3
   0   5  12   83.56    8.95   3
   0  -5  12   80.48    9.67   4
   0   5  12   90.61   10.03   1
   0   5  13   28.44    6.08   1
   0  -5  13   26.43    6.00   4
   0  -5  14  101.95   11.59   4
   0   5  14  125.81   12.19   1
   0  -5  15   18.10    5.04   4
   0   5  15   18.34    4.79   1
   0  -5  16    5.16    2.70   4
   0   5  16    3.26    2.94   1
   0  -5  17   43.07    7.81   4
   0   5  17   49.03    8.08   1
   0   5  18   14.23    4.74   1
   0  -5  18   15.25    5.08   4
   0  -5  19   14.26    5.01   4
   0   5  19   12.40    4.48   1
   0   5  20  212.89   16.75   1
   0  -5  20  196.90   17.01   4
   0   5  21   56.06    8.76   1
   0  -5  21   50.40    8.79   4
   0  -5  22   42.81    8.31   4
   0   5  22   37.42    7.12   1
   0   5  23   35.49    7.13   1
   0  -5  23   34.84    7.07   4
   0  -5  24    1.79    2.67   4
   0   5  24    2.96    2.82   1
   0   5  25   27.38    6.53   1
   0  -5  25   26.80    6.39   4
   0  -5  26   20.79    6.08   4
   0   5  26   29.17    6.39   1
   0  -5  27   17.53    5.24   4
   0   5  27    6.81    2.26   1
   0  -5  28   15.74    5.31   4
   0   5  28   10.49    4.08   1
   0  -5  29   10.28    4.58   4
   0   5  29   13.40    3.96   1
   0   5  30    5.77    3.04   1
   0  -5  30    4.37    2.74   4
   0  -5  31    5.36    3.67   4
   0   5  31    0.48    2.47   1
   0   5  32   11.64    4.20   1
   0  -5  32    9.36    3.61   4
   0  -5  33   28.81    7.70   4
   0  -5  34    9.17    4.89   4
   0  -6   0  940.50   28.84   4
   0  -6   0 1077.04   25.20   2
   0  -6   1   46.83    5.61   2
   0  -6  -1   44.84    5.68   2
   0  -6  -2  203.24   11.80   2
   0  -6   2  221.02   14.60   4
   0  -6  -2  199.52   13.04   4
   0  -6   2  199.28   10.40   2
   0  -6   3  356.21   18.42   4
   0  -6  -3  383.80   18.16   4
   0  -6   3  394.95   14.67   2
   0  -6   4   12.10    2.51   2
   0  -6  -4   23.37    5.05   4
   0  -6   4   18.68    4.92   4
   0  -6  -5   24.64    5.33   4
   0  -6   5   12.96    2.44   2
   0  -6  -6  328.19   17.65   4
   0  -6   6  309.95   18.58   4
   0  -6   7   17.67    5.26   4
   0  -6  -7   18.30    4.74   4
   0  -6   8   93.61   10.92   4
   0  -6  -8  112.61   11.32   4
   0  -6   9   54.56    9.26   4
   0  -6  -9   57.41    8.22   4
   0  -6  10  339.47   21.28   4
   0  -6  11    6.56    3.56   4
   0   6  12    6.36    2.89   1
   0  -6  12    9.42    3.93   4
   0  -6  13   16.04    5.33   4
   0   6  13   12.30    4.53   1
   0  -6  14  221.94   17.99   4
   0   6  14  223.81   17.02   1
   0  -6  15   54.95    9.23   4
   0   6  15   61.27    9.66   1
   0  -6  16    1.97    2.50   4
   0   6  16    2.20    2.26   1
   0   6  17   34.14    7.07   1
   0  -6  17   31.29    7.21   4
   0  -6  18   24.75    6.37   4
   0   6  18   24.48    6.69   1
   0   6  19   52.23    9.31   1
   0  -6  19   42.17    8.45   4
   0  -6  20    5.11    3.99   4
   0   6  20    2.20    2.90   1
   0  -6  21    5.98    3.53   4
   0   6  21    4.47    3.22   1
   0   6  22   31.99    7.45   1
   0  -6  22   24.03    5.92   4
   0  -6  23   27.26    7.10   4
   0   6  23   28.16    7.07   1
   0   6  24   13.53    5.22   1
   0  -6  24    6.91    3.62   4
   0   6  25    8.66    3.42   1
   0  -6  25   10.77    4.62   4
   0  -6  26    4.05    2.73   4
   0   6  26    3.08    3.03   1
   0   6  27    0.28    3.24   1
   0  -6  27    4.33    4.08   4
   0  -6  28    4.19    2.31   4
   0   6  28    9.64    3.48   1
   0  -6  29    7.87    4.32   4
   0  -6  30    3.64    3.22   4
   0  -7   0   75.69    9.58   4
   0  -7   1  326.91   18.89   4
   0  -7  -1  327.19   18.74   4
   0  -7   2   87.05   10.18   4
   0  -7  -2  118.71   11.33   4
   0  -7  -3   21.49    5.40   4
   0  -7   3   35.63    7.11   4
   0  -7  -4  185.84   14.30   4
   0  -7   4  210.33   16.26   4
   0  -7  -5  182.35   14.36   4
   0  -7   5  168.69   14.85   4
   0  -7  -6   35.75    7.01   4
   0  -7   6   31.82    7.08   4
   0  -7  -7   59.38    8.87   4
   0  -7   7   51.50    8.60   4
   0  -7   8   33.48    7.44   4
   0  -7  -8   31.40    7.00   4
   0  -7  -9   35.57    7.39   4
   0  -7   9   44.75    8.77   4
   0  -7  10  105.88   13.45   4
   0  -7  11   43.97    8.73   4
   0  -7  12   31.17    7.22   4
   0  -7  13   23.61    6.82   4
   0  -7  14   63.16   11.03   4
   0  -7  15   98.73   13.62   4
   0  -7  16   21.86    6.64   4
   0  -7  17    7.53    4.64   4
   0   7  17    2.18    2.96   1
   0   7  18    4.40    2.32   1
   0  -7  18   10.56    5.22   4
   0  -7  19    5.75    3.45   4
   0   7  19   -3.29    1.84   1
   0  -7  20    5.63    3.80   4
   0   7  20    9.17    4.73   1
   0  -7  21    5.02    3.80   4
   0   7  21   13.02    5.22   1
   0   7  22    2.71    3.35   1
   0  -7  22    6.40    3.90   4
   0  -7  23   78.09   12.38   4
   0   7  23   80.56   12.61   1
   0   7  24   21.93    7.27   1
   0  -7  24   13.77    6.18   4
   0  -7  25    8.06    4.10   4
   0  -8   0   23.55    5.87   4
   0  -8   1   33.25    7.06   4
   0  -8  -1   37.88    7.07   4
   0  -8   2   26.06    6.32   4
   0  -8  -2   21.24    5.26   4
   0  -8  -3   16.35    4.89   4
   0  -8   3   12.95    4.27   4
   0  -8   4    9.08    4.24   4
   0  -8  -4    4.26    2.62   4
   0  -8  -5   -1.29    1.80   4
   0  -8   5    8.45    4.06   4
   0  -8  -6    4.63    1.95   4
   0  -8   6    7.39    3.74   4
   0  -8  -7   12.51    4.62   4
   0  -8   7   20.88    6.13   4
   0  -8  -8   60.78    9.95   4
   0  -8   8   64.49   11.00   4
   0  -8   9   44.86    9.62   4
   0  -8  10   30.98    7.57   4
   0  -8  11    9.88    5.29   4
   0  -8  12   53.87   10.82   4
   0  -8  13    5.34    3.68   4
   0  -8  14    4.49    3.18   4
   0  -8  15    9.84    5.17   4
   0  -8  16    4.72    2.40   4
   0  -8  17   11.77    5.51   4
   0  -8  18    7.54    5.16   4
   0  -8  19   -0.27    1.54   4
   0  -9   0    2.98    2.31   4
   0  -9   1    7.32    3.20   4
   0  -9  -1    3.73    3.39   4
   0  -9   2    8.56    3.15   4
   0  -9  -2    7.59    4.02   4
   0  -9   3    3.98    3.06   4
   0  -9  -3    0.51    1.66   4
   0  -9  -4   19.47    6.29   4
   0  -9   4   22.40    6.88   4
   0  -9  -5    6.15    2.54   4
   0  -9   5   13.32    4.90   4
   0  -9  -6   12.72    4.89   4
   0  -9   6   23.09    6.43   4
   0  -9  -7    2.33    2.24   4
   0  -9   7   11.25    4.82   4
   0  -9   8   11.29    5.70   4
   0  -9   9   29.26    8.70   4
   0  -9  10   33.27    9.28   4
   0  -9  11    8.21    3.86   4
   1   0   0    0.70    0.31   1
  -1   0   0    2.71    1.00   1
   1   0   1  320.43    7.64   1
  -1   0  -1  369.35    8.49   1
   1   0  -1  263.30    6.02   1
  -1   0   1  288.35    6.33   1
  -1   0   2 1217.56   18.49   2
   1   0  -2  757.56    9.72   1
  -1   0   2  956.04   10.99   1
  -1   0  -2 1485.10   18.73   1
  -1   0   3  554.10   12.75   2
  -1   0   3  433.16    8.14   1
  -1   0   4 6367.33   41.88   2
  -1   0  -4 6443.26   33.18   4
  -1   0  -5  987.15   12.26   4
  -1   0   5  981.07   16.80   2
  -1   0   6   86.36    5.29   2
  -1   0  -6   69.84    3.03   4
   1   0  -6  110.71    6.43   2
  -1   0   7 2618.39   29.66   2
  -1   0  -7 2055.87   16.11   4
   1   0  -7 2660.44   29.97   2
   1   0   8  198.24    5.57   4
  -1   0  -8  194.66    5.12   4
  -1   0   8  215.24    9.03   2
   1   0  -8  245.81    9.49   2
  -1   0  -9  174.52    5.05   4
  -1   0   9  223.39    9.34   2
   1   0  -9  226.73    9.51   2
   1   0   9  198.89    5.83   4
   1   0 -10  771.93   17.56   2
   1   0  10  719.23   11.63   4
  -1   0  10  762.01   17.50   2
   1   0  11   75.53    3.89   4
   1   0 -11   90.47    6.32   2
  -1   0  11   88.25    6.21   2
   1   0 -12   21.83    3.27   2
   1   0  12   21.47    2.13   4
   1   0 -13   44.81    4.64   2
   1   0  13   40.51    3.13   4
   1   0 -14  204.76   10.05   2
   1   0  14  204.58    7.68   4
   1   0 -15  174.71    9.50   2
  -1   0  15  157.92    8.44   3
   1   0  15  210.94    8.41   4
  -1   0  16  405.60   14.31   3
   1   0  16  517.16   13.79   4
   1   0 -16  446.30   15.74   2
   1   0 -17   10.73    2.91   2
  -1   0  17   11.76    2.95   3
  -1   0 -17   11.50    2.96   3
   1   0  17   14.70    2.64   4
   1   0 -18  135.99    9.41   2
   1   0  18  147.36    7.91   4
  -1   0  18  142.11    9.72   3
   1   0  19  203.33    9.60   4
  -1   0  19  188.80   11.40   3
   1   0 -19  188.59   11.41   2
   1   0  20    8.93    2.36   4
  -1   0  20    7.04    2.35   3
  -1   0  21   82.64    7.57   3
   1   0  21  101.99    7.21   4
  -1   0  22  104.63    8.66   3
   1   0  22  131.94    8.39   4
  -1   0  23    4.91    1.54   3
   1   0  23    9.55    2.46   4
   1   0  24    7.39    2.15   4
  -1   0  24    3.21    2.14   3
  -1   0  25    0.32    1.14   3
   1   0  25    5.01    1.87   4
   1   0  26    9.61    3.07   4
   1   0  27  323.24   14.47   4
   1   0  28    9.81    2.96   4
  -1   0  33    2.40    2.00   4
   1   0  34    4.68    3.10   1
  -1   0  34    6.02    4.97   4
  -1   0  35   30.67    7.91   4
   1   0  35   21.57    6.19   1
   1   0  36    6.14    3.73   1
   1   0  37   -0.50    1.19   1
  -1   1  38    9.91    3.92   1
  -1   1  37    2.88    2.08   1
  -1   1  36    0.09    2.14   1
  -1   1  35    7.27    3.20   1
   1  -1  30   26.61    4.95   4
   1  -1  29   87.83    8.75   4
   1  -1  28   31.39    5.26   4
   1  -1  27  112.67    9.79   4
  -1   1  27   84.97    9.67   3
  -1   1  26   12.88    3.77   3
   1  -1  26   22.75    4.58   4
   1  -1  25   92.29    8.63   4
  -1   1  25   78.09    8.72   3
   1  -1  24  151.35   10.79   4
  -1   1  24  111.42   10.15   3
   1  -1  23   17.31    3.71   4
  -1   1  23   11.44    3.15   3
  -1   1  22   88.51    8.55   3
   1  -1  22  116.25    9.43   4
   1   1 -22   87.45    7.95   2
  -1   1  21   59.88    7.31   3
   1   1 -21   64.40    6.71   2
   1  -1  21   76.76    7.54   4
   1  -1  20   79.91    7.43   4
  -1   1  20   54.80    6.75   3
   1   1 -20   62.13    6.37   2
   1  -1  19   92.39    7.87   4
   1   1 -19   71.89    6.55   2
  -1   1  19   74.82    7.88   3
   1  -1  18  148.01    9.68   4
   1   1 -18  128.41    8.48   2
  -1   1  18  124.70    9.80   3
  -1   1  17  195.58   11.63   3
   1  -1  17  240.21   11.80   4
   1   1 -17  197.74   10.08   2
   1  -1  16  217.19   10.80   4
   1   1 -16  187.57    9.43   2
  -1   1  16  177.39   10.60   3
  -1  -1 -15   78.71    7.15   3
  -1   1  15   76.55    6.73   3
   1  -1  15   93.45    6.81   4
   1   1 -15   80.47    5.95   2
   1   1 -14  156.66    7.92   2
   1  -1  14  175.70    8.97   4
   1   1 -13   53.45    4.63   2
   1  -1  13   62.22    5.16   4
   1   1 -12  191.63    8.21   2
   1  -1  12  199.60    8.72   4
   1  -1  11   21.01    2.80   4
  -1   1  11   22.99    3.57   2
   1   1 -11   21.67    2.74   2
   1   1 -10  211.94    8.16   2
  -1   1  10  224.36   11.00   2
   1  -1  10  186.66    7.98   4
   1   1  -9    3.78    1.10   2
  -1   1   9    8.72    2.19   2
   1  -1   9    7.69    1.79   4
   1  -1   8  273.15    9.17   4
   1   1  -8  309.66    9.55   2
  -1   1   8  304.03   12.06   2
  -1   1   7 1192.62   23.01   2
  -1  -1  -7 1428.21   25.51   1
   1   1  -7 1126.01   16.99   2
   1  -1   7 1020.00   17.52   4
  -1   1   6 2478.84   31.98   2
   1  -1   6 2200.95   25.30   4
  -1   1   5  531.90   14.41   2
  -1  -1  -5  587.25   14.78   1
   1  -1   5  494.11   12.03   4
  -1  -1  -4 4554.90   38.58   1
  -1   1   4 4352.52   39.62   2
  -1   1   3 3193.02   31.94   2
   1  -1   3 3370.16   32.77   4
  -1  -1  -3 3432.52   32.92   1
  -1  -1  -2 1706.08   22.10   1
  -1   1   2 1765.43   23.24   2
  -1  -1  -1 1935.90   21.88   1
  -1   1   1 2287.10   26.72   2
  -1  -1   0 1283.33   17.97   1
  -1   1   0 1771.34   23.74   2
  -1  -1   1 1904.05   22.30   1
  -1  -1   2 1638.22   21.32   1
  -1   1  -3 3513.31   33.13   4
  -1  -1   3 2776.37   27.66   1
  -1   1  -4 4025.17   34.72   4
  -1   1  -5  536.19   12.64   4
  -1  -1   5  524.10   11.90   2
  -1   1  -6 1826.11   22.09   4
  -1  -1   6 2161.78   23.01   2
  -1   1  -7  915.19   15.92   4
  -1  -1   7 1044.86   16.28   2
  -1   1  -8  238.25    8.23   4
  -1  -1   8  266.19    8.28   2
  -1   1  -9    6.76    1.65   4
  -1  -1   9    3.71    0.85   2
  -1  -1  10  190.83    7.46   2
  -1   1 -10  165.96    7.13   4
  -1   1 -11   17.19    2.47   4
  -1  -1  11   19.49    2.58   2
   1  -1 -12  200.18   10.23   2
  -1   1 -12  157.08    7.36   4
  -1   1 -13   46.93    4.13   4
   1  -1 -13   54.06    5.59   2
  -1  -1  14  139.00    6.77   3
   1  -1 -14  166.36   10.05   2
  -1  -1  15   68.72    5.06   3
   1  -1 -15   86.03    7.54   2
   1   1  15   55.55    2.83   4
   1  -1 -16  182.07   11.12   2
   1   1  16  140.17    5.07   4
  -1  -1  16  171.60    8.58   3
   1   1  16  183.81   11.86   1
   1   1  17  193.69   12.64   1
   1   1  17  148.42    5.68   4
  -1  -1  18  110.30    7.40   3
   1   1  18   96.06    4.92   4
   1   1  18  124.26   10.38   1
  -1  -1  19   57.20    5.45   3
  -1   1 -19   62.50    6.06   3
   1   1  19   58.23    4.03   4
   1   1  19   69.53    7.86   1
  -1  -1  20   51.04    5.29   3
   1   1  20   60.93    7.52   1
   1   1  20   55.21    4.09   4
   1   1  21   58.67    4.37   4
   1   1  21   64.50    7.94   1
  -1  -1  21   55.06    5.85   3
   1   1  22  103.41   10.22   1
  -1  -1  22   91.48    7.93   3
   1   1  22   90.26    5.62   4
   1   1  23   15.44    4.51   1
   1   1  23   14.42    2.41   4
   1   1  24  113.56    6.68   4
   1   1  24  130.34   12.23   1
   1   1  25   76.56    5.72   4
   1   1  25   85.05   10.11   1
   1   1  26   15.75    2.76   4
   1   1  26   23.88    5.63   1
   1   1  27   90.77   10.80   1
   1   1  27   79.04    6.00   4
  -1  -1  28   25.89    6.22   4
   1   1  28   28.02    6.35   1
  -1  -1  29   96.55   12.63   4
   1   1  29   84.31   10.92   1
  -1  -1  30   32.82    7.51   4
   1   1  30   26.82    6.34   1
   1   1  31    7.76    4.20   1
  -1  -1  31   11.13    5.34   4
  -1  -1  32    4.05    3.37   4
   1   1  32    5.38    3.05   1
  -1  -1  33    8.67    4.35   4
   1   1  33   11.28    4.68   1
   1   1  34   19.98    5.98   1
  -1  -1  34   17.16    5.99   4
  -1  -1  35   15.16    5.68   4
   1   1  35    4.82    2.76   1
   1   1  36    4.42    2.97   1
  -1  -1  36    4.49    3.72   4
   1   1  37    6.89    4.27   1
  -1   2  36    3.70    2.26   1
  -1   2  35   13.64    3.90   1
  -1   2  34    6.29    2.53   1
  -1   2  33    3.22    1.34   1
  -1   2  32   12.06    3.43   1
   1  -2  31   12.14    3.67   4
  -1   2  31   15.11    4.13   1
   1  -2  30   12.91    4.03   4
  -1   2  30    9.75    3.27   1
   1  -2  29   13.55    3.74   4
  -1   2  29    7.64    2.98   1
  -1   2  28   27.66    5.03   1
  -1   2  28   21.83    5.28   3
   1  -2  28   27.30    5.19   4
  -1   2  27   43.52    7.26   3
  -1   2  27   49.11    6.69   1
   1  -2  27   52.09    7.20   4
  -1   2  26   22.51    5.20   3
   1  -2  26   34.65    5.70   4
  -1   2  26   34.80    5.63   1
   1  -2  25   57.29    7.33   4
  -1   2  25   46.61    7.10   3
  -1   2  25   48.98    6.38   1
   1  -2  24    6.77    2.83   4
   1   2 -24    7.17    2.38   2
  -1   2  24    8.76    3.05   1
  -1   2  24    6.30    3.11   3
  -1   2  23  171.63   13.23   3
   1   2 -23  173.12   10.79   2
  -1   2  23  156.69   10.82   1
   1  -2  23  188.25   13.03   4
   1  -2  22   15.15    3.87   4
   1   2 -22   11.30    2.97   2
  -1   2  22   10.77    3.88   3
  -1   2  22   10.35    2.87   1
   1   2 -21   51.53    5.35   2
   1  -2  21   62.06    7.33   4
  -1   2  21   49.86    5.81   1
  -1   2  21   56.73    7.61   3
  -1   2  20   35.90    6.37   3
  -1   2  20   39.08    5.05   1
   1   2 -20   38.24    4.39   2
   1  -2  20   49.81    6.59   4
   1   2 -19  157.01    8.39   2
   1  -2  19  182.58   12.04   4
  -1   2  19  145.48    9.29   1
  -1   2  18    3.40    1.71   1
   1   2 -18    2.41    1.12   2
   1  -2  18    2.71    2.33   4
  -1   2  18    0.33    1.40   3
   1   2 -17  159.66    7.80   2
  -1   2  17  152.43    8.81   1
  -1   2  17  165.02   11.88   3
   1  -2  17  188.64   12.03   4
  -1   2  16  158.17   11.15   3
  -1   2  16  138.02    8.10   1
   1   2 -16  137.04    6.85   2
   1  -2  16  171.67   11.05   4
   1   2 -15   52.43    4.20   2
   1  -2  15   61.23    6.61   4
  -1   2  15   53.36    4.91   1
  -1   2  15   54.99    6.41   3
  -1   2  14   21.41    3.95   3
   1  -2  14   18.91    3.66   4
   1   2 -14   16.87    2.21   2
  -1   2  14   21.14    3.03   1
   1   2 -13   35.10    3.27   2
  -1   2  13   34.77    3.75   1
   1  -2  13   37.09    4.79   4
   1  -2  12   47.82    5.51   4
  -1   2  12   42.01    3.97   1
   1   2 -12   41.24    3.41   2
   1  -2  11  709.80   19.49   4
  -1   2  11  819.90   17.65   1
   1  -2  10  186.87    9.65   4
  -1  -2 -10  227.63   11.40   1
  -1   2  10  197.29   11.53   2
  -1   2  10  199.39    7.76   1
  -1   2   9  376.44    9.89   1
  -1   2   9  385.37   16.07   2
   1  -2   9  336.00   12.75   4
  -1  -2  -9  378.32   14.35   1
  -1  -2  -8  155.91    4.66   4
   1  -2   8  198.02    9.77   4
  -1   2   8  208.44   11.30   2
  -1  -2  -8  223.17   10.64   1
  -1   2   8  178.59    5.93   1
  -1   2   7 2995.24   40.81   2
  -1  -2  -7 2862.47   36.30   1
  -1   2   7 2260.70   19.04   1
   1  -2   7 2403.46   33.09   4
  -1  -2  -6   29.95    3.98   1
  -1   2   6   23.31    3.99   2
  -1  -2  -6   29.95    2.56   4
  -1   2   6   17.60    1.50   1
   1  -2   6   22.05    3.21   4
  -1  -2  -5  551.76   15.22   1
   1  -2   5  526.74   14.69   4
  -1   2   5  608.16   17.32   2
  -1  -2  -5  395.49    8.51   4
  -1  -2  -4  129.88    7.43   1
  -1   2   4  115.91    7.32   2
  -1  -2  -4   99.51    4.65   4
   1  -2   4  109.81    6.69   4
  -1   2   3  149.16    8.03   2
   1  -2   3  125.69    7.18   4
  -1  -2  -3  146.00    7.55   1
  -1  -2  -3  165.11    6.31   4
  -1   2   2  288.33   10.94   2
  -1  -2  -2  264.82   10.16   1
   1  -2   2  260.95   10.57   4
  -1   2   1 1852.88   25.95   2
   1  -2   1 1816.51   28.27   4
  -1  -2  -1 1839.87   24.99   4
  -1  -2  -1 1568.63   23.63   1
  -1  -2   0  324.73   12.02   4
  -1   2   0  111.87    6.85   2
   1  -2   0  103.14    7.41   4
  -1  -2   0   78.62    5.63   1
   1  -2   0  320.49   12.42   2
   1  -2  -1 1894.02   28.08   2
  -1  -2   1 1925.95   28.12   4
  -1  -2   1 1407.61   23.15   1
  -1  -2   2  277.47   11.00   4
  -1  -2   2  206.79    9.16   1
  -1   2  -3  167.15    7.60   2
  -1  -2   3  123.32    7.36   1
  -1  -2   3  149.24    8.18   4
   1  -2  -3  102.94    3.64   1
  -1  -2   4  118.91    7.63   4
  -1  -2   4  100.12    7.19   1
  -1   2  -4  123.19    6.36   2
   1  -2  -4   85.97    3.00   1
  -1   2  -5  531.41   14.82   4
   1  -2  -5  557.71    7.85   1
  -1  -2   5  564.39   16.78   4
  -1  -2   6   20.95    2.28   2
  -1   2  -6   28.53    3.97   4
  -1  -2   6   40.83    5.63   4
  -1  -2   7 2311.44   21.20   2
  -1   2  -7 2397.04   32.53   4
  -1  -2   8  166.15    5.59   2
  -1   2  -8  192.79    9.68   4
  -1   2  -9  294.95   11.46   4
  -1  -2   9  273.77    6.97   2
  -1  -2  10  142.32    5.15   2
  -1   2 -10  174.38    9.06   4
  -1   2 -11  644.42   17.68   4
  -1   2 -12   38.04    4.56   4
   1   2  12   49.30    6.41   1
   1   2  13   39.04    5.58   1
  -1  -2  13   28.53    2.57   3
  -1   2 -13   33.45    4.26   4
  -1   2 -14   16.75    2.99   4
   1   2  14   22.86    4.31   1
  -1  -2  14   18.97    2.43   3
  -1  -2  15   43.93    3.66   3
   1   2  15   54.11    6.71   1
  -1   2 -15   44.30    5.05   4
  -1  -2  16  127.21    6.48   3
   1   2  16  147.40   11.15   1
  -1   2 -16  134.88    8.52   4
  -1  -2  16  146.84   11.32   4
  -1  -2  17  165.00   12.21   4
   1   2  17  164.70   11.83   1
  -1  -2  17  141.32    7.17   3
  -1  -2  18    1.47    1.74   4
   1   2  18    2.61    2.64   1
  -1  -2  18    0.74    1.01   3
   1   2  18    0.75    0.40   4
   1   2  18    1.47    0.62   4
   1   2  19  153.99   11.88   1
   1   2  19   82.09    3.71   4
  -1  -2  19  159.52   12.66   4
   1   2  19   79.76    3.26   4
  -1   2 -20   32.40    4.21   3
   1   2  20   39.34    6.16   1
   1   2  20   20.75    1.77   4
   1   2  20   23.22    2.13   4
  -1  -2  20   42.23    6.92   4
   1   2  21   30.05    2.23   4
   1   2  21   48.92    6.91   1
  -1   2 -21   40.41    4.71   3
  -1  -2  21   55.70    7.87   4
   1   2  21   31.36    2.60   4
   1   2  22    6.58    1.18   4
  -1  -2  22   12.87    4.36   4
   1   2  22    7.30    1.36   4
   1   2  22   14.33    4.12   1
   1   2  23  104.55    5.29   4
   1   2  23  102.41    4.61   4
   1   2  23  158.64   13.16   1
  -1  -2  23  195.68   15.98   4
   1   2  24    4.31    1.14   4
   1   2  24    7.84    3.22   1
  -1  -2  24    9.44    3.94   4
   1   2  25   34.22    2.84   4
   1   2  25   50.82    7.80   1
  -1  -2  25   67.40   10.22   4
  -1  -2  26   33.07    7.12   4
   1   2  26   27.54    6.01   1
  -1  -2  27   52.61    9.56   4
   1   2  27   41.49    7.35   1
   1   2  28   25.16    5.69   1
  -1  -2  28   31.51    7.48   4
   1   2  29   14.98    4.45   1
  -1  -2  29   15.56    5.35   4
  -1  -2  30   19.46    6.89   4
   1   2  30   14.96    4.72   1
   1   2  31   17.61    5.22   1
  -1  -2  31   24.94    7.12   4
   1   2  32   12.04    4.50   1
  -1  -2  32   19.68    7.22   4
  -1  -2  33   13.01    5.70   4
   1   2  33   10.99    4.70   1
  -1  -2  34   19.35    6.48   4
   1   2  34    9.52    4.20   1
  -1  -2  35   13.11    5.16   4
   1   2  35   12.87    4.71   1
  -1  -2  36   14.11    6.30   4
   1   2  36    9.48    4.15   1
  -1  -2  37    7.80    4.07   4
  -1   3  33   11.38    4.10   1
   1  -3  32   25.84    5.86   4
  -1   3  32   23.56    5.56   1
  -1   3  31   58.78    8.43   1
   1  -3  31   54.43    8.08   4
  -1   3  30    8.45    3.56   1
   1  -3  30    6.51    2.37   4
  -1   3  29    5.83    2.76   1
   1  -3  29   10.61    3.42   4
  -1   3  28   -0.83    0.42   3
   1  -3  28    3.34    2.13   4
  -1   3  28    3.02    2.00   1
   1  -3  27    6.67    2.94   4
  -1   3  27    4.94    2.36   1
  -1   3  27    2.04    2.16   3
   1  -3  26   21.71    4.80   4
  -1   3  26   23.74    5.06   1
  -1   3  26   22.40    5.43   3
  -1   3  25   38.81    7.26   3
  -1   3  25   47.35    6.82   1
   1  -3  25   42.05    6.86   4
  -1   3  24   92.47   11.22   3
   1  -3  24   94.05   10.10   4
  -1   3  24  104.18    9.73   1
  -1   3  23   41.77    6.05   1
  -1   3  23   39.51    7.08   3
   1  -3  23   45.40    7.30   4
  -1   3  22  171.07   14.40   3
   1  -3  22  183.44   13.99   4
   1   3 -22  181.53    9.09   2
  -1   3  22  181.29   12.29   1
   1  -3  21   42.23    6.89   4
  -1   3  21   29.72    5.98   3
  -1   3  21   39.14    5.81   1
   1   3 -21   30.67    3.56   2
   1   3 -20  246.66    9.52   2
  -1   3  20  264.93   18.09   3
  -1   3  20  248.72   13.39   1
   1  -3  20  260.20   16.15   4
   1  -3  19   62.64    7.96   4
  -1   3  19   59.75    8.84   3
  -1   3  19   54.01    6.29   1
   1  -3  18   83.88    8.89   4
  -1   3  18   95.93   10.89   3
  -1   3  18   94.61    8.07   1
  -1   3  17   46.99    7.25   3
  -1   3  17   44.82    5.54   1
   1  -3  17   43.16    6.54   4
  -1   3  16   46.10    6.83   3
   1  -3  16   57.25    7.24   4
  -1   3  16   57.43    6.15   1
  -1   3  15  289.48   13.07   1
   1  -3  15  296.77   15.91   4
  -1   3  15  283.75   16.22   3
  -1   3  14  381.84   18.25   3
  -1   3  14  371.89   17.93   4
   1  -3  14  396.27   18.33   4
  -1   3  14  374.62   13.76   1
  -1   3  13   13.87    3.70   3
   1  -3  13   13.31    3.25   4
  -1   3  13   23.32    4.77   4
  -1   3  13   13.39    2.76   1
  -1   3  12   81.32    8.21   4
   1  -3  12   77.23    7.65   4
  -1   3  12   79.19    5.91   1
   1  -3  11   10.23    3.17   4
  -1  -3 -11    9.90    2.81   1
  -1   3  11   11.61    2.14   1
  -1   3  11    9.91    3.18   4
  -1   3  10  303.29   10.93   1
  -1  -3 -10  289.70   13.90   3
  -1  -3 -10  294.32   13.34   1
  -1   3  10  323.07   16.25   4
   1  -3  10  295.88   14.72   4
  -1  -3  -9   37.47    4.91   1
  -1   3   9   44.02    6.23   4
   1  -3   9   39.10    5.32   4
  -1  -3  -9   36.64    3.45   4
  -1  -3  -9   39.00    4.99   3
  -1   3   9   33.60    3.46   1
   1  -3   8  212.41   11.45   4
  -1   3   8  191.66    7.69   1
  -1  -3  -8  256.43   12.64   1
  -1   3   8  236.10   13.50   4
  -1  -3  -8  220.02   11.46   3
  -1   3   8  223.53   12.58   2
  -1  -3  -8  206.34    8.13   4
  -1   3   7  229.95   12.98   4
   1  -3   7  200.15   11.03   4
  -1   3   7  226.73   12.45   2
  -1  -3  -7  236.86   11.79   1
  -1  -3  -7  196.98    7.99   4
  -1  -3  -7  220.57   11.18   3
  -1  -3  -6  391.81   11.09   4
   1  -3   6  448.74   16.17   4
  -1  -3  -6  525.61   17.24   1
  -1   3   6  549.55   20.08   4
  -1   3   6  506.56   18.02   2
  -1  -3  -6  490.88   16.04   3
  -1  -3  -5  122.14    7.71   3
  -1  -3  -5  120.64    8.09   1
  -1   3   5  123.31    8.72   2
  -1  -3  -5   90.47    5.28   4
   1  -3   5  102.17    7.66   4
  -1  -3  -4   60.05    5.42   3
  -1  -3  -4   49.45    4.90   1
   1  -3   4   43.18    4.90   4
  -1  -3  -4   43.80    3.86   4
  -1   3   4   56.07    5.70   2
   1  -3   3   53.23    5.42   4
  -1   3   3   67.79    6.20   2
  -1  -3  -3   64.17    5.62   1
  -1  -3  -3   67.77    5.02   4
   1  -3   2   71.94    6.35   4
  -1   3   2   82.21    6.48   2
  -1  -3  -2   82.61    6.58   1
  -1  -3  -1  303.32   11.58   4
   1  -3   1  299.94   12.70   4
  -1   3   1  354.03   12.88   2
   1  -3   1  294.92   11.84   2
  -1  -3  -1  275.01   11.10   1
  -1   3   0   95.82    6.78   2
   1  -3   0  132.69    8.80   2
  -1  -3   0   67.88    6.26   1
   1  -3   0   78.00    6.70   4
  -1  -3   0  139.76    8.87   4
  -1  -3   1  283.96   12.41   1
  -1  -3   1  311.60   13.20   4
   1  -3  -1  333.00   13.94   4
   1   3   1  356.04   12.89   4
  -1   3  -1  372.38   12.56   2
   1  -3  -1  309.91   12.00   2
   1  -3  -2   81.09    6.19   2
  -1  -3   2   69.38    6.48   1
   1  -3  -2   44.80    3.07   1
   1  -3  -2   76.72    7.04   4
   1   3   2  113.15    7.47   4
  -1  -3   2   70.07    6.74   4
  -1   3  -3   76.38    5.53   2
  -1  -3   3   50.47    5.67   1
   1  -3  -3   47.60    3.41   1
   1  -3  -3   64.33    5.56   2
   1   3   3   72.37    5.79   4
  -1  -3   3   59.09    6.31   4
   1  -3  -4   43.98    3.23   1
   1  -3  -4   46.65    4.99   2
  -1  -3   4   47.12    5.95   1
  -1   3  -4   59.95    4.78   2
  -1  -3   4   48.08    5.60   4
   1   3   4   54.62    4.92   4
  -1  -3   5  104.51    9.47   1
   1  -3  -5  106.96    7.65   2
   1  -3  -5  101.96    4.87   1
  -1  -3   5  117.28    9.15   4
   1   3   5  129.02    7.16   4
  -1   3  -5  118.56    6.46   2
   1   3   6  510.35   13.80   4
   1  -3  -6  484.75   10.64   1
   1  -3  -6  448.41   15.97   2
  -1  -3   6  493.61   19.30   4
  -1   3  -6  511.20   13.50   2
  -1   3  -7  219.26   12.20   4
   1  -3  -7  225.05    7.42   1
  -1  -3   7  232.94   13.69   4
   1  -3  -7  203.83   11.17   2
  -1   3  -7  230.58    9.27   2
   1   3   7  235.20    9.28   4
   1  -3  -8  219.49    7.56   1
  -1   3  -8  228.26    9.14   2
  -1   3  -8  230.92   12.22   4
   1   3   8  247.24    9.34   4
  -1  -3   8  237.13   14.18   4
   1   3   8  208.16   12.32   1
  -1   3  -9   37.22    5.12   4
   1   3   9   34.76    5.22   1
   1   3   9   36.13    3.43   4
  -1  -3   9   38.29    5.89   4
  -1   3 -10  270.79   13.50   4
   1   3  10  305.08    9.67   4
  -1  -3  10  304.93   16.46   4
   1   3  10  306.55   15.74   1
  -1   3 -11   12.18    3.29   4
  -1  -3  11   16.63    3.86   4
   1   3  11   12.65    3.59   1
   1   3  11   11.91    2.03   4
   1   3  12   79.08    8.16   1
   1   3  12   71.55    4.42   4
  -1  -3  12   67.24    8.03   4
  -1   3 -12   59.44    6.37   4
  -1   3 -13    9.48    2.75   4
  -1  -3  13   23.19    5.09   4
   1   3  13   14.88    4.08   1
   1   3  13   13.23    2.11   4
   1   3  14  405.09   19.90   1
  -1  -3  14  376.41   19.24   4
   1   3  14  331.62    9.14   4
   1   3  15  276.86   16.81   1
   1   3  15  214.79    7.16   4
  -1  -3  15  253.44   16.05   4
   1   3  16   38.23    3.00   4
  -1  -3  16   55.24    7.72   4
   1   3  16   61.70    8.12   1
   1   3  17   40.04    6.49   1
   1   3  17   25.22    2.32   4
  -1  -3  17   40.88    6.63   4
   1   3  18   84.84    9.42   1
   1   3  18   53.05    3.26   4
  -1  -3  18   81.04    9.62   4
   1   3  19   59.91    8.27   1
  -1  -3  19   58.64    8.60   4
   1   3  19   32.26    2.53   4
  -1   3 -20  175.51    9.29   3
   1   3  20  228.63   15.77   1
  -1  -3  20  232.85   17.29   4
  -1   3 -21   25.49    3.65   3
   1   3  21   18.20    1.76   4
   1   3  21   37.88    6.61   1
  -1  -3  21   42.53    7.54   4
  -1  -3  22  188.98   16.20   4
   1   3  22  165.71   13.71   1
  -1   3 -22  121.43    8.17   3
  -1   3 -23   30.81    4.53   3
  -1  -3  23   51.47    8.98   4
   1   3  23   45.33    7.54   1
   1   3  24   92.24   10.71   1
  -1  -3  24   99.61   12.51   4
   1   3  25   45.15    7.77   1
  -1  -3  25   49.36    9.26   4
  -1  -3  26   29.84    7.00   4
   1   3  26   25.12    5.88   1
  -1  -3  27    5.71    3.19   4
   1   3  27    7.18    3.14   1
  -1  -3  28    0.99    2.90   4
   1   3  28    0.79    2.12   1
  -1  -3  29   10.60    4.52   4
   1   3  29   10.79    4.22   1
  -1  -3  30    4.22    3.11   4
   1   3  30    8.57    3.60   1
  -1  -3  31   72.22   12.33   4
   1   3  31   54.71    9.47   1
   1   3  32   27.28    7.12   1
  -1  -3  32   26.45    7.85   4
  -1  -3  33   10.58    5.71   4
   1   3  33   10.64    4.50   1
  -1  -3  34   17.94    6.41   4
   1   3  34   15.08    5.68   1
  -1  -3  35   33.53    9.96   4
   1   3  35   26.83    7.30   1
   1   3  36    6.92    4.25   1
  -1  -3  36    4.74    2.45   4
  -1  -3  37    7.35    5.98   4
   1  -4  33   12.89    4.53   4
   1  -4  32    7.98    3.48   4
   1  -4  31    6.25    2.76   4
   1  -4  30    8.32    3.49   4
   1  -4  29   -1.08    0.34   4
  -1   4  29    4.83    2.23   1
   1  -4  28    0.10    1.63   4
  -1   4  28    6.64    4.15   3
  -1   4  28    5.32    2.52   1
   1  -4  27   -0.30    0.95   4
  -1   4  27    2.07    2.43   1
  -1   4  27   -1.05    1.55   3
  -1   4  26    9.11    3.30   1
  -1   4  26    3.20    1.12   3
   1  -4  26    6.56    3.41   4
   1  -4  25    7.43    3.03   4
  -1   4  25    9.02    3.24   1
  -1   4  25    7.79    4.37   3
  -1   4  24    5.61    2.97   3
  -1   4  24    3.31    2.35   1
   1  -4  24    2.29    1.32   4
   1  -4  23   22.25    5.10   4
  -1   4  23   20.38    5.56   3
  -1   4  23   22.86    4.45   1
   1  -4  22   37.68    6.77   4
  -1   4  22   33.20    6.83   3
  -1   4  22   42.13    6.44   1
  -1   4  21  177.60   12.72   1
  -1   4  21  180.54   15.93   3
   1  -4  21  175.75   14.56   4
  -1   4  20   13.36    3.73   1
   1  -4  20   11.73    3.84   4
  -1   4  20   12.90    4.91   3
  -1   4  19   38.57    7.29   3
   1  -4  19   35.38    6.60   4
  -1   4  19   38.31    5.51   1
   1  -4  18   83.25   10.01   4
  -1   4  18   86.49   11.00   3
  -1   4  18   82.48    8.45   1
   1  -4  17  268.66   17.51   4
  -1   4  17  296.54   19.83   3
  -1   4  17  267.68   14.04   1
  -1   4  16  230.36   17.62   3
   1  -4  16  190.06   14.55   4
  -1   4  16  205.29   12.17   1
   1  -4  15    5.28    2.51   4
  -1   4  15    8.23    3.01   1
  -1   4  15    3.02    2.41   3
  -1   4  14   10.09    2.89   1
  -1   4  14    6.64    2.70   3
   1  -4  14    6.45    2.40   4
  -1   4  13   38.15    6.17   3
  -1   4  13   47.26    5.66   1
   1  -4  13   38.68    6.18   4
   1  -4  12    6.53    2.48   4
  -1   4  12    3.60    1.68   1
  -1   4  12    4.39    2.00   3
  -1   4  11   71.82    6.27   1
  -1   4  11   79.56    8.29   3
   1  -4  11   93.84    9.61   4
   1  -4  10    7.90    3.09   4
  -1   4  10    1.55    1.38   1
  -1   4  10    3.35    2.23   3
  -1  -4 -10    6.40    2.27   4
   1  -4   9  418.67   18.82   4
  -1  -4  -9  415.65   14.60   4
  -1  -4  -8  337.78   13.27   4
   1  -4   8  319.28   16.18   4
  -1  -4  -7  195.62   10.02   4
  -1  -4  -7  218.85   12.26   3
   1  -4   7  219.49   13.22   4
  -1  -4  -6   16.56    3.15   4
  -1  -4  -6   15.61    3.63   3
   1  -4   6    7.86    2.59   4
  -1  -4  -5  131.54    8.23   4
   1  -4   5   90.45    8.09   4
  -1  -4  -5  148.66   10.18   3
  -1   4   5   95.31    8.12   2
  -1   4   4  409.80   19.28   4
   1  -4   4  313.39   14.69   4
  -1   4   4  362.76   15.49   2
  -1  -4  -4  312.30   12.22   4
  -1   4   3  241.31   15.30   4
   1  -4   3  160.72   10.30   4
  -1   4   3  192.72   10.95   2
  -1  -4  -3  164.03    8.79   4
  -1   4   2  145.32   11.77   4
  -1  -4  -2  127.34    8.38   1
   1  -4   2  119.32    8.97   4
  -1   4   2  124.57    8.55   2
   1   4  -2  147.65   10.18   4
   1  -4   2  179.86   10.63   2
   1  -4   1  566.92   17.58   2
   1   4  -1  677.55   20.79   4
  -1  -4  -1  472.55   15.61   1
  -1  -4  -1  563.62   15.45   3
  -1   4   1  637.63   18.62   2
   1  -4   1  531.08   18.54   4
  -1  -4  -1  509.69   16.73   4
  -1  -4   0  156.80   10.31   1
  -1  -4   0  274.91   10.45   3
   1  -4   0  174.64    8.75   1
  -1   4   0  212.50   10.85   2
   1  -4   0  161.31   10.45   4
  -1  -4   0  287.97   13.79   4
   1  -4   0  267.34   12.10   2
   1   4   0  311.34   14.43   4
   1  -4  -1  524.48   16.50   2
   1  -4  -1  394.88   11.54   1
  -1   4  -1  654.99   17.91   2
  -1  -4   1  492.86   12.97   3
  -1  -4   1  543.36   19.01   4
   1  -4  -1  542.84   18.67   4
   1  -4  -2   98.88    5.80   1
  -1  -4   2  117.62    6.12   3
   1  -4  -2  117.22    9.13   4
   1  -4  -2  128.34    8.18   2
  -1  -4   2  143.73   10.57   4
   1  -4  -3  175.02    8.06   1
   1  -4  -3  191.07   11.78   4
  -1   4  -3  205.17    9.69   2
  -1  -4   3  160.97    6.81   3
   1   4   3  148.11   10.61   1
   1  -4  -3  191.73   10.26   2
  -1  -4   3  207.70   13.22   4
   1   4   3  248.28   12.42   4
   1   4   4  427.60   15.78   4
   1  -4  -4  324.47   15.09   4
  -1  -4   4  329.29   16.62   4
  -1  -4   4  245.71    7.36   3
   1   4   4  310.81   15.33   1
   1  -4  -4  296.90   12.79   2
  -1   4  -4  371.62   12.76   2
   1  -4  -4  327.89   11.01   1
   1  -4  -5   84.07    7.14   2
   1   4   5   88.08    8.86   1
  -1  -4   5   59.62    3.30   3
  -1  -4   5   89.97    9.01   4
  -1   4  -5  108.72    7.35   2
   1   4   5  130.76    8.78   4
   1  -4  -5   94.91    6.04   1
  -1  -4   6   11.13    4.11   4
  -1   4  -6    7.70    2.13   2
   1  -4  -6    6.34    2.47   2
   1   4   6    7.48    2.99   1
   1  -4  -6    7.51    2.15   1
   1   4   6   10.40    2.60   4
   1   4   7  176.98   12.75   1
   1  -4  -7  215.82    9.27   1
  -1  -4   7  202.46   14.32   4
   1   4   7  239.85   11.76   4
  -1   4  -7  198.07    8.83   2
   1   4   8  326.02   17.77   1
  -1  -4   8  339.10   18.90   4
   1  -4  -8  348.31   11.83   1
  -1   4  -8  322.27   11.19   2
   1   4   8  371.04   13.93   4
  -1   4  -9  382.86   11.90   2
   1   4   9  423.16   20.88   1
   1  -4  -9  376.12   11.81   1
   1   4   9  415.64   14.33   4
  -1  -4   9  398.00   20.49   4
  -1  -4  10    6.63    3.60   4
   1   4  10    4.80    3.20   1
   1  -4 -10   -1.47    1.13   1
   1   4  10    3.76    1.71   4
  -1   4 -10    2.60    1.57   2
   1  -4 -11   65.75    5.12   1
   1   4  11   81.06    9.11   1
  -1   4 -11   75.61    5.36   2
   1   4  11   86.83    6.49   4
  -1  -4  11   71.78    9.37   4
   1   4  12    4.48    1.56   4
  -1  -4  12    3.90    2.46   4
  -1   4 -12    4.79    1.53   2
   1   4  12    6.69    3.08   1
   1   4  13   40.42    4.25   4
  -1   4 -13   39.90    4.11   2
  -1  -4  13   41.77    7.23   4
   1   4  13   41.54    6.73   1
  -1  -4  14    9.73    3.59   4
  -1   4 -14    8.39    1.91   2
   1   4  14    9.92    2.08   4
   1   4  14   12.04    3.90   1
   1   4  15    3.96    1.83   4
  -1   4 -15    3.79    1.76   2
  -1  -4  15    5.70    3.19   4
   1   4  15    1.21    1.75   1
   1   4  16  182.91    8.72   4
  -1  -4  16  195.54   16.04   4
   1   4  16  191.49   15.10   1
  -1  -4  17  261.74   18.76   4
   1   4  17  277.61   18.52   1
   1   4  17  238.75    9.75   4
  -1  -4  18   74.65   10.36   4
   1   4  18   64.05    5.02   4
   1   4  18   81.13   10.15   1
   1   4  19   30.58    6.04   1
   1   4  19   29.74    3.27   4
  -1  -4  19   39.06    7.64   4
  -1  -4  20   11.83    4.65   4
   1   4  20   13.62    4.41   1
   1   4  21  168.36   14.56   1
  -1  -4  21  189.34   17.04   4
  -1  -4  22   34.84    7.49   4
   1   4  22   43.21    7.57   1
  -1  -4  23   25.38    6.45   4
   1   4  23   24.78    6.14   1
   1   4  24    4.20    2.62   1
  -1  -4  24    7.71    4.60   4
   1   4  25   12.97    4.74   1
  -1  -4  25   11.75    4.84   4
  -1  -4  26    4.44    3.13   4
   1   4  26    5.11    2.64   1
  -1  -4  27    4.22    3.85   4
   1   4  27    0.59    2.30   1
  -1  -4  28    6.58    3.98   4
   1   4  28    4.62    2.92   1
  -1  -4  29    1.61    2.07   4
   1   4  29   -3.36    2.36   1
  -1  -4  30   13.54    5.13   4
   1   4  30    8.47    3.71   1
   1   4  31   15.69    5.49   1
  -1  -4  31   11.37    4.75   4
   1   4  32   12.22    5.27   1
  -1  -4  32   19.15    7.03   4
   1   4  33   13.88    5.44   1
  -1  -4  33   25.95    8.49   4
  -1  -4  34    8.19    5.71   4
   1   4  34    3.17    3.39   1
  -1  -4  35   19.67    7.87   4
   1   4  35    4.73    3.00   1
   1  -5  33    0.94    1.95   4
   1  -5  32   13.62    4.83   4
   1  -5  31   10.94    4.81   4
   1  -5  30   22.39    6.20   4
   1  -5  29    5.19    4.17   4
   1  -5  28   18.32    5.62   4
   1  -5  27    5.61    2.95   4
  -1   5  26   17.64    7.84   3
   1  -5  26   30.08    6.86   4
  -1   5  25   19.07    5.34   1
   1  -5  25   13.20    4.28   4
  -1   5  25   13.23    5.51   3
   1  -5  24  107.78   12.68   4
  -1   5  24  108.30   14.30   3
  -1   5  24  115.45   11.75   1
   1  -5  23    7.55    4.05   4
  -1   5  23   10.63    4.27   1
  -1   5  23    6.77    4.20   3
   1  -5  22   44.00    8.11   4
  -1   5  22   48.67    8.99   3
  -1   5  22   52.95    7.84   1
   1  -5  21    5.92    3.16   4
  -1   5  21    3.86    2.87   3
  -1   5  21   10.99    3.97   1
   1  -5  20    2.50    1.87   4
  -1   5  20    4.75    3.48   1
  -1   5  20    3.48    2.86   3
   1  -5  19   28.96    6.68   4
  -1   5  19   34.81    6.21   1
  -1   5  19   19.61    5.14   3
  -1   5  18   62.26    8.24   1
  -1   5  18   53.58    8.96   3
   1  -5  18   51.80    8.46   4
   1  -5  17    8.24    4.17   4
  -1   5  17    6.12    3.30   1
  -1   5  17    7.67    3.90   3
   1  -5  16  297.87   20.28   4
  -1   5  16  284.57   16.11   1
  -1   5  16  290.24   19.76   3
  -1   5  15  255.21   14.73   1
  -1   5  15  275.68   19.42   3
   1  -5  15  271.92   19.47   4
   1  -5  14   45.89    8.32   4
  -1   5  14   31.30    5.05   1
  -1   5  14   32.65    6.72   3
  -1   5  13   80.13    9.73   3
   1  -5  13   80.76   10.24   4
  -1   5  12   34.55    6.29   3
   1  -5  12   35.48    6.89   4
  -1   5  11   97.18    9.88   3
  -1  -5 -11  105.91    9.38   4
   1  -5  11  106.48   11.24   4
   1  -5  10  115.73   11.47   4
  -1   5  10  106.93    9.99   3
  -1  -5 -10  122.88   10.02   4
  -1  -5  -9   48.34    6.45   4
  -1   5   9   41.31    6.00   3
   1  -5   9   45.85    7.26   4
   1  -5   8   37.18    6.50   4
  -1   5   8   31.00    5.03   3
  -1  -5  -8   39.97    5.92   4
  -1  -5  -7  266.66   14.06   4
   1  -5   7  278.23   16.61   4
  -1   5   7  242.75   13.70   3
  -1  -5  -6   57.92    6.65   4
   1  -5   6   63.50    7.86   4
  -1  -5  -5   54.82    6.20   3
  -1  -5  -5   54.86    6.41   4
   1  -5   4  238.75   14.39   4
  -1  -5  -4  252.36   11.46   3
  -1  -5  -4  256.67   13.23   4
  -1  -5  -3  147.23    9.84   4
  -1  -5  -3  141.77    8.29   3
   1  -5   3  135.86   10.49   4
   1  -5   2   86.65    7.35   2
   1  -5   2   92.97    8.80   4
  -1  -5  -2   79.87    7.19   4
   1  -5   1   62.35    7.01   1
   1  -5   1   94.88    8.06   2
   1  -5   1   44.41    6.18   4
  -1  -5  -1   96.30    8.22   4
   1  -5   0  254.54   13.90   4
  -1  -5   0  235.73   12.84   4
   1  -5   0  254.32   11.74   1
   1  -5   0  283.11   13.42   2
   1  -5  -1   28.19    3.80   1
  -1   5  -1   52.01    5.65   2
   1  -5  -1   25.20    4.71   4
  -1  -5   1   39.11    5.79   4
   1  -5  -1   35.78    4.85   2
   1  -5  -2  102.66    7.01   1
   1  -5  -2  100.54    8.96   4
  -1   5  -2  102.78    7.39   2
   1  -5  -2  108.16    8.13   2
  -1  -5   2  115.74    9.96   4
  -1  -5   3  175.51   12.92   4
  -1   5  -3  155.15    9.08   2
   1  -5  -3  141.51   11.14   4
   1  -5  -3  164.73    9.15   1
   1  -5  -4  233.37   10.55   1
  -1  -5   4  231.64   15.22   4
   1  -5  -4  232.45   13.58   4
  -1  -5   4  209.83    8.04   2
  -1   5  -4  267.20   11.62   2
   1   5   4  335.78   16.31   4
   1   5   5   25.77    7.31   1
  -1  -5   5   12.18    1.89   2
  -1   5  -5   22.08    5.07   2
  -1  -5   5   21.53    5.62   4
   1  -5  -5   19.48    3.45   1
   1   5   5   40.36    6.12   4
  -1   5  -6   62.87    5.57   2
  -1  -5   6   44.80    3.02   2
   1   5   6   80.75    8.21   4
   1  -5  -6   88.00    7.46   1
  -1  -5   6   81.95    9.99   4
   1   5   6   50.45    7.40   1
   1   5   7  226.42   15.26   1
  -1  -5   7  255.90   17.39   4
  -1   5  -7  244.28   10.41   2
   1   5   7  340.74   16.24   4
   1  -5  -7  305.60   13.69   1
  -1  -5   8   30.74    6.55   4
   1  -5  -8   33.78    4.54   1
  -1   5  -8   31.45    3.93   2
   1   5   8   39.43    5.68   4
   1   5   8   35.23    6.75   1
   1   5   9   46.01    7.42   1
   1  -5  -9   46.60    5.33   1
  -1   5  -9   42.65    4.20   2
   1   5   9   42.07    5.57   4
  -1  -5   9   48.49    8.21   4
   1  -5 -10   93.45    7.16   1
   1   5  10  120.33   12.41   1
  -1   5 -10   99.16    6.15   2
   1   5  10  122.73    9.21   4
  -1  -5  10  116.41   12.73   4
   1   5  11  109.52   12.30   1
   1   5  11   90.47    7.84   4
   1  -5 -11   86.62    6.85   1
  -1   5 -11   86.62    5.64   2
  -1  -5  11  106.47   12.40   4
   1   5  12   44.15    8.05   1
  -1   5 -12   27.24    3.11   2
   1  -5 -12   22.60    3.64   1
  -1  -5  12   48.31    8.47   4
   1   5  12   29.84    4.58   4
   1   5  13   76.91   10.57   1
  -1   5 -13   60.36    4.57   2
  -1  -5  13   75.18   10.69   4
   1   5  13   67.53    6.76   4
   1   5  14   34.78    7.74   1
  -1   5 -14   27.21    3.27   2
  -1  -5  14   40.12    8.06   4
   1   5  14   33.27    4.65   4
   1   5  15  260.18   20.13   1
  -1   5 -15  193.08    8.25   2
  -1  -5  15  233.53   19.32   4
   1   5  15  232.33   12.08   4
  -1   5 -16  206.08    8.36   2
  -1  -5  16  273.56   20.99   4
   1   5  16  294.92   21.41   1
  -1  -5  17   12.59    5.28   4
  -1   5 -17    4.27    1.46   2
   1   5  17    9.89    4.90   1
  -1   5 -18   39.44    3.60   2
   1   5  18   62.90    9.80   1
  -1  -5  18   57.08    9.66   4
  -1  -5  19   31.97    7.19   4
   1   5  19   29.08    6.61   1
  -1  -5  20    1.57    2.28   4
   1   5  20    4.94    3.55   1
  -1  -5  21    3.80    3.34   4
   1   5  21    7.54    3.34   1
   1   5  22   52.07    9.14   1
  -1  -5  22   59.73   10.49   4
  -1  -5  23   20.05    6.65   4
   1   5  23    9.64    4.68   1
  -1  -5  24  132.52   16.25   4
   1   5  24  108.93   13.24   1
  -1  -5  25   17.12    6.90   4
   1   5  25   14.23    5.11   1
   1   5  26   25.41    6.80   1
  -1  -5  26   34.07    8.34   4
  -1  -5  27   14.90    6.29   4
   1   5  27    8.30    4.08   1
   1   5  28   14.24    5.01   1
  -1  -5  28   24.28    7.15   4
  -1  -5  29    5.07    3.19   4
   1   5  29    3.46    3.15   1
   1   5  30   28.66    7.43   1
  -1  -5  30   38.76    9.72   4
  -1  -5  31    3.82    3.40   4
   1   5  31    6.77    3.78   1
  -1  -5  32   37.30   10.45   4
   1   5  32   19.48    6.49   1
   1   5  33    2.16    2.59   1
   1  -6  30   24.86    7.27   4
   1  -6  29    2.08    2.08   4
   1  -6  28   23.51    7.16   4
   1  -6  27   30.37    7.77   4
   1  -6  26   13.13    5.25   4
  -1   6  25    8.56    5.31   3
   1  -6  25    6.42    3.69   4
   1  -6  24   35.41    8.41   4
  -1   6  24   31.22    9.35   3
   1  -6  23    6.91    4.52   4
  -1   6  23    3.67    2.96   3
   1  -6  22    8.22    3.74   4
  -1   6  22    6.19    3.09   3
  -1   6  21    3.68    3.23   3
  -1   6  21    5.82    3.35   1
   1  -6  21    5.69    3.76   4
   1  -6  20    5.03    2.81   4
  -1   6  20   -0.76    2.80   3
  -1   6  20    0.27    1.42   1
  -1   6  19    3.90    3.42   3
  -1   6  19   14.71    4.41   1
   1  -6  19   15.02    5.35   4
   1  -6  18   17.87    6.09   4
  -1   6  18   14.64    4.23   1
  -1   6  18   15.45    5.25   3
  -1   6  17    4.47    3.16   3
   1  -6  17    3.62    2.04   4
  -1   6  16    6.36    3.49   3
   1  -6  16    8.85    3.97   4
   1  -6  15    3.36    2.36   4
  -1   6  15    3.95    1.86   3
  -1   6  14    2.67    2.16   3
   1  -6  14    6.60    3.22   4
  -1   6  13   34.67    6.71   3
   1  -6  13   43.23    8.39   4
  -1   6  12  106.96   12.18   3
   1  -6  12  115.16   13.01   4
  -1   6  11   53.59    8.36   3
  -1  -6 -11   63.06    8.63   4
   1  -6  11   53.74    9.06   4
  -1   6  10   38.44    7.19   3
   1  -6  10   41.95    7.90   4
  -1  -6 -10   45.78    7.50   4
   1  -6   9  127.01   12.86   4
  -1   6   9  135.55   12.56   3
  -1  -6  -9  153.96   12.99   4
  -1   6   8  294.84   17.25   3
  -1  -6  -8  371.05   19.87   4
   1  -6   8  288.45   19.06   4
  -1   6   7  374.14   18.99   3
   1  -6   7  372.00   21.14   4
  -1  -6  -7  406.08   20.22   4
  -1   6   6   18.84    4.75   3
  -1  -6  -6   21.05    4.80   4
   1  -6   6   13.86    4.92   4
   1  -6   5   78.60    9.35   4
  -1   6   5   75.89    7.88   3
  -1  -6  -5   83.33    8.79   4
  -1  -6  -4   62.18    7.40   4
   1  -6   4   43.39    6.86   4
  -1   6   4   45.65    6.10   3
  -1   6   3   80.76    7.75   3
   1  -6   3   79.13    9.04   4
  -1  -6  -3   79.53    8.26   4
   1  -6   2  102.67    9.60   2
  -1   6   2   49.90    6.19   3
   1  -6   2   65.72    7.92   4
  -1  -6  -2   88.85    7.71   2
  -1   6   1  327.36   14.94   3
  -1  -6  -1  269.96   15.19   4
  -1  -6  -1  288.66   13.35   2
   1  -6   1  277.14   15.91   4
   1  -6   1  315.80   16.08   2
  -1  -6   0   94.88    7.78   2
   1  -6   0   75.50    8.99   4
  -1  -6   1  268.40   15.68   4
   1  -6  -1  290.81   16.27   4
  -1  -6   1  309.91   13.14   2
  -1  -6   2   54.22    7.48   4
   1  -6  -2   47.72    7.15   4
  -1  -6   2   45.25    5.30   2
   1  -6  -3   67.83    8.03   4
  -1  -6   3   82.12    6.40   2
  -1  -6   3   67.90    8.40   4
   1  -6  -4   47.66    7.25   4
  -1  -6   4   45.95    4.50   2
  -1  -6   4   51.87    7.88   4
  -1  -6   5   65.32    4.75   2
   1  -6  -5   62.39    7.89   4
  -1  -6   5   61.14    8.52   4
  -1  -6   6   10.15    2.00   2
  -1  -6   6   55.80    9.70   4
  -1  -6   7  363.61   22.12   4
   1  -6  -8  357.38   17.32   1
   1   6   8  266.12   18.82   1
  -1  -6   8  279.31   20.12   4
   1   6   9  121.13   13.09   1
  -1  -6   9  118.29   13.52   4
  -1  -6  10   37.29    8.04   4
   1   6  10   25.00    6.72   1
   1   6  11   46.33    8.48   1
  -1  -6  11   45.81    8.94   4
   1   6  12  107.80   12.84   1
  -1  -6  12   99.60   13.05   4
   1   6  13   44.47    8.52   1
  -1  -6  13   44.70    8.89   4
  -1  -6  14    8.18    4.46   4
   1   6  14   10.56    4.48   1
  -1  -6  15    3.75    3.39   4
   1   6  15    4.42    2.85   1
   1   6  16    4.96    3.68   1
  -1  -6  16    7.07    4.12   4
  -1  -6  17    7.20    4.81   4
   1   6  17    2.69    2.13   1
  -1  -6  18   16.41    5.97   4
   1   6  18   21.96    6.68   1
   1   6  19   11.53    4.42   1
  -1  -6  19   17.97    6.00   4
  -1  -6  20    5.89    4.19   4
   1   6  20   -6.84    2.72   1
  -1  -6  21    1.88    2.44   4
   1   6  21    2.59    3.58   1
  -1  -6  22    9.81    4.60   4
   1   6  22    6.57    4.41   1
  -1  -6  23    7.17    4.02   4
   1   6  23    6.44    4.40   1
  -1  -6  24   33.30    8.73   4
   1   6  24   27.01    7.57   1
  -1  -6  25    6.51    4.05   4
   1   6  25    1.74    2.02   1
  -1  -6  26   11.18    4.56   4
   1   6  26   10.19    5.11   1
   1   6  27   17.08    6.20   1
  -1  -6  27   29.91    8.16   4
   1   6  28   22.74    6.71   1
  -1  -6  28   45.47   10.99   4
   1   6  29    5.50    4.24   1
   1   6  30   23.97    6.87   1
   1   6  31    2.34    3.18   1
   1  -7  25    9.77    5.27   4
   1  -7  24   15.14    5.58   4
   1  -7  23    9.71    4.32   4
   1  -7  22   10.13    4.74   4
  -1   7  21    2.61    2.37   3
   1  -7  21    4.79    4.05   4
  -1   7  20    5.13    3.96   3
   1  -7  20   12.36    5.15   4
  -1   7  19   10.04    4.18   3
   1  -7  19   24.14    6.93   4
  -1   7  18    9.15    4.66   3
   1  -7  18   12.58    5.91   4
  -1   7  17   13.47    4.93   3
   1  -7  17    8.40    4.31   4
  -1   7  16    4.08    2.01   3
   1  -7  16    7.54    3.82   4
  -1   7  15    9.85    3.92   3
   1  -7  15   14.61    5.68   4
  -1   7  14   48.77    8.26   3
   1  -7  14   60.20   10.82   4
  -1   7  13   34.52    6.90   3
   1  -7  13   40.52    8.94   4
  -1   7  12    0.77    1.83   3
   1  -7  12    7.73    4.51   4
   1  -7  11    8.92    4.51   4
  -1   7  11    6.14    2.69   3
  -1  -7 -11    9.62    3.79   4
  -1  -7 -10    7.21    3.69   4
  -1   7  10    8.46    3.25   3
   1  -7  10    9.86    4.50   4
   1  -7   9   98.19   12.18   4
  -1  -7  -9  132.61   13.79   4
  -1   7   9   90.50   10.30   3
   1  -7   8   91.69   11.76   4
  -1   7   8   82.90    9.94   3
  -1  -7  -8  101.26   11.64   4
  -1   7   7   75.75    9.55   3
   1  -7   7   88.20   11.22   4
  -1  -7  -7   99.72   11.55   4
  -1   7   6   95.95   10.83   3
  -1  -7  -6  100.29   10.86   4
   1  -7   6   95.55   11.36   4
  -1  -7  -5   53.06    8.04   4
  -1   7   5   36.91    7.01   3
   1  -7   5   36.03    7.31   4
  -1   7   4  207.92   15.39   3
  -1  -7  -4  178.44   14.04   4
   1  -7   4  183.21   15.28   4
   1  -7   3   40.70    7.07   4
  -1  -7  -3   54.62    8.00   4
  -1   7   3   69.52    9.51   3
  -1   7   2  140.77   12.28   3
   1  -7   2  100.40   10.51   4
  -1  -7  -2  115.89   11.17   4
  -1   7   1  112.77   10.95   3
   1  -7   1  103.32   10.92   4
  -1  -7  -1  132.05   12.02   4
   1  -7   0  240.82   16.27   4
  -1   7   0  329.55   18.35   3
  -1  -7   0  234.06   16.05   4
   1  -7  -1   83.10   10.06   4
  -1  -7   1   93.97   10.81   4
   1  -7  -2  104.04   10.69   4
  -1  -7   2  103.68   11.19   4
  -1   7  -3   92.81    9.71   3
   1  -7  -3   52.14    8.31   4
  -1  -7   3   65.41    9.92   4
  -1   7  -4  238.63   14.86   3
   1  -7  -4  161.01   13.46   4
  -1  -7   5   32.67    7.32   4
  -1   7  -5   79.10    9.87   3
  -1   7  -6  118.03    9.96   3
  -1  -7   6   87.95   11.49   4
  -1  -7   7   72.43   10.76   4
  -1   7  -7  110.21   10.08   3
  -1  -7   8   87.88   12.15   4
  -1  -7   9   91.81   12.51   4
  -1  -7  10   11.82    5.24   4
  -1  -7  11    8.21    4.28   4
  -1  -7  12    7.66    4.52   4
  -1  -7  13   41.30    9.03   4
   1   7  13   36.94    8.62   1
  -1  -7  14   52.63   10.52   4
   1   7  14   56.06   10.59   1
  -1  -7  15    3.27    3.98   4
   1   7  15    9.64    5.18   1
  -1  -7  16    2.79    4.20   4
   1   7  16    2.02    1.83   1
   1   7  17   15.13    6.07   1
  -1  -7  17   16.00    6.58   4
  -1  -7  18    7.56    4.16   4
   1   7  18   11.88    6.14   1
  -1  -7  19    9.78    4.58   4
   1   7  19   16.82    6.03   1
  -1  -7  20    8.95    5.83   4
   1   7  20    9.53    5.80   1
  -1  -7  21    5.59    4.55   4
   1   7  21    5.95    4.10   1
   1   7  22    3.67    3.08   1
  -1  -7  22    9.44    4.71   4
  -1  -7  23   23.31    7.91   4
   1   7  23    8.83    4.86   1
  -1  -7  24    9.85    5.71   4
   1   7  24    6.28    4.17   1
   1   7  25   13.68    4.92   1
   1   7  26   19.34    7.33   1
   1   7  27   32.18    9.17   1
   1   7  28   14.56    6.96   1
   1  -8  18   20.57    6.94   4
   1  -8  17   58.39   11.44   4
  -1   8  16    9.50    3.89   3
   1  -8  16   27.94    8.26   4
  -1   8  15    3.33    3.01   3
   1  -8  15    6.69    3.42   4
  -1   8  14   -1.19    1.57   3
   1  -8  14    2.05    3.53   4
   1  -8  13   19.78    6.73   4
  -1   8  13   10.12    3.64   3
   1  -8  12   49.97    9.87   4
  -1   8  12   34.21    7.10   3
  -1   8  11    4.60    2.69   3
   1  -8  11   13.07    5.63   4
  -1  -8 -10   18.48    4.95   4
  -1   8  10    8.96    4.09   3
   1  -8  10    6.93    3.64   4
   1  -8   9   13.49    5.25   4
  -1   8   9   13.97    4.29   3
  -1  -8  -9   21.80    6.23   4
  -1  -8  -8   17.03    5.46   4
  -1   8   8   12.09    3.74   3
   1  -8   8   16.27    5.59   4
  -1   8   7   14.09    4.59   3
  -1  -8  -7   22.91    6.13   4
   1  -8   7   22.27    6.39   4
   1  -8   6   15.51    4.76   4
  -1   8   6    9.56    3.40   3
  -1  -8  -6   14.58    4.69   4
   1  -8   5   10.46    3.91   4
  -1   8   5    7.69    3.33   3
  -1  -8  -5   14.42    5.13   4
   1  -8   4   17.60    4.85   4
  -1   8   4   14.33    4.67   3
  -1  -8  -4   15.70    4.88   4
  -1   8   3   19.33    4.75   3
   1  -8   3   22.75    5.27   4
  -1  -8  -3   28.27    6.01   4
  -1   8   2   62.40    8.68   3
  -1  -8  -2   59.41    8.96   4
   1  -8   2   52.82    8.55   4
  -1   8   1   68.12    9.10   3
   1  -8   1   59.92    9.13   4
  -1  -8  -1   67.17    9.79   4
  -1  -8   0   80.60   10.52   4
  -1   8   0  103.55   10.93   3
   1  -8   0   81.62   10.46   4
  -1  -8   1   56.09    8.86   4
   1  -8  -1   50.27    8.49   4
   1  -8  -2   50.32    8.27   4
  -1  -8   2   39.37    7.20   4
  -1  -8   3   20.02    5.66   4
   1  -8  -3   22.02    5.57   4
  -1  -8   4   23.41    6.49   4
   1  -8  -4   15.92    4.64   4
  -1  -8   5   11.66    4.59   4
  -1  -8   6   19.06    6.05   4
  -1  -8   7   21.19    6.45   4
  -1  -8   8   21.25    6.66   4
  -1  -8   9   14.84    5.52   4
  -1  -8  10    7.59    4.98   4
  -1  -8  11   13.75    6.34   4
  -1  -8  12   33.96    9.12   4
  -1  -8  13   18.54    7.02   4
  -1  -8  14    1.75    2.65   4
  -1  -8  15    4.94    4.81   4
  -1  -8  16   26.62    8.34   4
  -1  -8  17   63.43   12.69   4
  -1  -8  18   10.03    5.70   4
   1   8  19   24.49    8.29   1
   1   8  20    8.81    4.26   1
   1   8  21   11.01    4.97   1
   1   8  22   11.33    5.84   1
   1   8  23   23.48    7.48   1
  -1  -9  -9    4.64    3.05   4
  -1  -9  -8    8.34    5.21   4
   1  -9   8   14.41    5.98   4
   1  -9   7   10.37    4.99   4
  -1  -9  -7   11.96    5.17   4
  -1  -9  -6   55.89    9.99   4
   1  -9   6   46.27    9.46   4
   1  -9   5   41.78    8.62   4
  -1  -9  -5   36.12    7.94   4
   1  -9   4   21.54    5.96   4
  -1  -9  -4   16.85    5.91   4
   1  -9   3   11.31    4.88   4
  -1  -9  -3   12.27    4.74   4
   1  -9   2   29.32    7.11   4
  -1  -9  -2   27.73    6.49   4
   1  -9   1   20.57    6.18   4
  -1  -9  -1   30.50    6.96   4
  -1  -9   0   62.90   10.07   4
   1  -9   0   64.66   10.07   4
   1  -9  -1   14.25    4.79   4
  -1  -9   1   22.67    6.24   4
   1  -9  -2   25.20    6.36   4
  -1  -9   2   26.58    6.88   4
  -1  -9   3   15.43    5.22   4
  -1  -9   4   21.60    6.87   4
  -1  -9   5   36.56    8.68   4
  -1  -9   6   44.69    9.54   4
  -1  -9   7   10.30    6.02   4
  -1  -9   8   16.70    7.27   4
  -1  -9   9   15.10    7.14   4
  -1  -9  10   10.05    6.40   4
  -1 -10  -4   13.89    4.89   4
  -1 -10  -3   -0.25    2.41   4
  -2   0   0  731.10   16.72   1
   2   0   0  590.16   13.81   1
  -2   0  -1  992.53   20.48   1
  -2   0   1  806.76   16.93   1
   2   0   1  721.37   15.84   1
   2   0  -1  656.22   14.60   1
   2   0  -2   67.02    4.95   1
  -2   0   2   50.12    4.45   1
  -2   0   3   27.97    4.26   2
  -2   0   3   30.41    2.99   1
   2   0   3   28.81    3.52   1
   2   0   4   83.51    6.35   1
  -2   0   4   74.83    4.44   1
  -2   0   4   76.54    7.36   2
  -2   0   5    1.95    0.85   1
  -2   0   5    3.77    1.70   2
   2   0   5    2.94    1.57   1
  -2   0   6   71.62    6.90   2
   2   0   6   80.14    6.55   1
  -2   0  -6   61.09    4.53   4
  -2   0   6   73.87    4.65   1
  -2   0   7    5.57    2.22   2
  -2   0   7    5.75    1.37   1
  -2   0  -7   11.07    2.18   4
   2   0   7    7.51    2.20   1
  -2   0  -8   69.21    4.65   4
  -2   0   8   81.34    5.51   1
   2   0   8   75.79    6.73   1
  -2   0   8   77.03    6.83   2
  -2   0  -9   75.48    4.87   4
  -2   0   9   71.62    5.27   1
   2   0   9   75.68    6.97   1
  -2   0   9   81.32    7.30   2
   2   0  10   76.23    7.18   1
  -2   0  10   77.37    7.33   2
  -2   0 -10   58.56    4.16   4
   2   0 -10   86.80    7.58   2
  -2   0 -11    2.59    0.85   4
  -2   0  11    4.42    2.22   2
   2   0 -11    4.99    2.05   2
   2   0  11    3.47    1.77   1
   2   0  12  216.06   13.31   1
  -2   0 -12  213.67    7.98   4
  -2   0  12  213.22   12.23   2
  -2   0  13    1.79    1.72   2
  -2   0 -13    4.05    1.34   4
   2   0 -13    0.95    1.43   2
   2   0  13    5.54    2.48   1
   2   0  14   42.30    6.35   1
  -2   0  14   44.23    5.83   2
  -2   0 -14   30.59    2.73   4
   2   0 -14   43.63    5.90   2
   2   0  15   55.09    7.43   1
  -2   0 -15   40.02    3.05   4
  -2   0  15   52.88    6.51   2
   2   0  16  172.33   13.37   1
  -2   0  16  164.59   11.36   2
   2   0  17  211.92   14.99   1
  -2   0  17  201.56   12.75   2
   2   0  18   50.24    7.49   1
  -2   0  18   42.57    6.05   2
   2   0  19   74.90    9.35   1
   2   0  20  264.70   17.81   1
   2   0  21   93.40   10.85   1
   2   0  22   10.12    4.19   1
  -2   0  22   15.78    4.21   3
  -2   0  23  280.58   15.90   3
   2   0  23  265.98   18.76   1
  -2   0  24    0.73    1.64   3
   2   0  24    7.75    3.79   1
  -2   0  25   -0.83    0.32   3
   2   0  25    4.24    2.89   1
  -2   0  26   49.94    7.75   3
   2   0  26   47.75    8.31   1
  -2   0  27    2.20    1.70   3
   2   0  27    5.82    3.51   1
  -2   0  28    2.51    2.21   3
   2   0  28    5.62    3.80   1
  -2   0  29    8.35    3.68   3
   2   0  29   12.16    4.65   1
  -2   0  30   25.32    6.25   3
   2   0  30   22.88    6.60   1
  -2   0  31  150.26   14.98   3
   2   0  31  141.98   15.74   1
  -2   0  32   20.16    5.92   3
   2   0  32   15.83    5.65   1
   2   0  33   22.42    6.53   1
   2   0  34   18.82    6.07   1
   2  -1  34    8.94    4.26   1
  -2   1  33   64.31   10.24   3
   2  -1  33   63.64   10.91   1
  -2   1  32   26.26    6.82   3
  -2   1  31   11.21    4.46   3
  -2   1  30   23.00    5.99   3
  -2   1  29   32.90    6.88   3
  -2   1  28   14.33    4.40   3
  -2   1  27    5.19    3.02   3
   2  -1  26    5.98    1.94   4
  -2   1  26    9.63    3.14   3
  -2   1  25   40.26    6.77   3
   2  -1  25   44.04    5.38   4
  -2   1  24    5.60    2.29   3
   2  -1  24    3.81    1.65   4
  -2   1  23    8.05    2.65   3
   2  -1  23    6.72    2.27   4
   2  -1  22   55.10    5.88   4
  -2   1  22   53.55    7.20   3
   2  -1  21   70.27    6.59   4
   2  -1  20   53.64    5.73   4
   2  -1  19   32.63    4.37   4
   2   1 -18   28.42    4.67   2
   2  -1  18   32.92    4.65   4
  -2   1  17  192.16   13.48   2
   2  -1  17  221.05   11.67   4
   2   1 -17  208.58   12.29   2
  -2   1  16   98.11    9.73   2
   2  -1  16  120.84    8.43   4
   2   1 -16  103.84    8.56   2
   2  -1  15   57.84    5.92   4
  -2   1  15   53.62    6.91   2
   2   1 -15   51.36    5.79   2
   2  -1  14  122.66    8.87   4
  -2   1  14  108.58    9.85   2
   2   1 -14  105.69    8.14   2
   2  -1  13  245.10   12.47   4
  -2   1  13  248.91   14.35   2
  -2   1  12   14.80    3.50   2
  -2   1  11  574.60   20.64   2
  -2   1  10    6.22    1.45   1
  -2   1  10   13.91    3.85   2
  -2  -1 -10    7.24    1.08   4
  -2   1   9  176.83    6.05   1
  -2   1   9  202.62   12.00   2
  -2  -1  -9  157.85    5.45   4
  -2   1   8  620.91    8.89   1
  -2   1   8  986.95   26.24   2
  -2  -1  -7 1615.87   31.89   1
  -2   1   7 1457.74   30.82   2
  -2   1   6  161.17   10.53   2
  -2  -1  -6  163.84   10.09   1
   2  -1   5   36.26    4.29   1
  -2   1   5   29.23    4.43   2
   2  -1   4  297.32   11.31   1
  -2   1   4  282.47   13.53   2
   2   1  -3  755.03   17.72   1
   2  -1   3  849.74   17.85   1
  -2  -1  -3  921.80   21.50   1
  -2   1   3  894.89   24.04   2
   2  -1   2  150.26    7.18   1
  -2   1   2  178.28   11.48   2
  -2  -1  -1  361.28   12.68   1
   2   1  -1  319.57   12.55   1
   2  -1   1  326.42   10.23   1
  -2   1   1  286.97   13.56   2
   2   1   0  301.40   12.27   1
   2  -1   0  284.03    8.66   1
  -2  -1   0  292.94   11.47   1
  -2   1   0  268.87   13.05   2
   2  -1  -1  256.92    7.11   1
  -2  -1   1  295.25   11.26   1
  -2  -1   2  181.97    8.89   1
   2   1   2  155.76    8.94   1
   2  -1  -3  740.36   11.43   1
  -2   1  -3  993.48   23.84   4
   2   1   3  818.03   20.34   1
  -2  -1   3  800.68   18.18   1
  -2  -1   4  270.32   10.83   1
   2   1   4  280.95   12.48   1
  -2  -1   5   28.62    3.73   1
   2   1   5   35.35    4.86   1
  -2  -1   5   28.28    4.17   2
  -2  -1   6  185.89   10.09   1
   2   1   6  136.71    9.60   1
  -2   1  -6  137.79    8.30   4
  -2  -1   6  174.40   11.27   2
   2   1   7 1505.73   32.24   1
  -2   1  -7 1373.68   25.82   4
  -2  -1   7 1568.71   31.75   2
  -2   1  -8  988.89   21.60   4
   2   1   8  965.55   26.14   1
  -2  -1   8  985.71   23.56   1
  -2  -1   8  974.21   24.24   2
   2   1   9  208.82   12.61   1
  -2  -1   9  183.94   10.14   1
  -2   1  -9  245.46   10.89   4
  -2  -1   9  211.04   11.16   2
   2  -1  -9  227.44   13.51   2
  -2   1 -10   10.46    2.35   4
  -2  -1  10    9.36    3.07   2
   2   1  10    9.59    3.43   1
   2  -1 -10   18.37    4.54   2
   2   1  11  577.12   21.91   1
  -2  -1  11  604.48   19.59   2
  -2   1 -11  522.28   15.58   4
  -2  -1  12   11.37    3.03   2
   2   1  12   21.72    4.85   1
  -2   1 -12   22.90    3.82   4
   2   1  13  222.99   14.10   1
  -2  -1  13  227.90   12.04   2
  -2   1 -13  254.79   11.45   4
  -2   1 -14  115.62    7.88   4
   2   1  14  105.15    9.81   1
  -2  -1  14  105.73    8.36   2
   2   1  15   45.12    6.58   1
  -2  -1  15   49.00    5.88   2
  -2   1 -15   47.12    4.87   4
   2   1  16   98.39    9.89   1
  -2  -1  16  106.63    8.56   2
  -2   1 -16   98.20    7.21   4
   2   1  17  182.79   13.68   1
  -2  -1  17  190.56   11.56   2
  -2   1 -17  200.01   10.29   4
  -2   1 -18   29.98    3.87   4
   2   1  18   36.30    6.21   1
   2   1  19   35.18    6.33   1
   2   1  20   43.46    7.17   1
  -2  -1  21   71.27    7.26   3
   2   1  21   67.54    9.05   1
  -2  -1  22   58.94    6.88   3
   2   1  22   58.09    8.43   1
  -2  -1  23    9.15    3.09   3
   2   1  23    8.83    3.15   1
   2   1  24    4.81    2.24   1
  -2  -1  24    9.23    2.86   3
  -2  -1  25   49.15    7.26   3
   2   1  25   41.22    7.70   1
   2   1  26    8.82    3.76   1
  -2  -1  26    5.75    2.56   3
   2   1  27   11.45    4.41   1
  -2  -1  27    9.82    3.55   3
   2   1  28   17.70    5.45   1
  -2  -1  28   17.03    4.63   3
  -2  -1  29   32.12    6.74   3
   2   1  29   28.47    7.02   1
  -2  -1  30   22.78    5.85   3
   2   1  30   20.50    5.73   1
   2   1  31   11.67    4.25   1
   2   1  32   20.94    6.00   1
   2   1  33   71.78   11.39   1
  -2  -1  34   10.20    4.82   4
   2   1  34    8.83    4.84   1
  -2  -1  35    7.19    4.65   4
  -2  -1  36    3.21    1.45   4
  -2  -1  37   13.67    6.97   4
  -2   2  34    1.69    3.07   3
  -2   2  33    5.17    3.87   3
  -2   2  32    5.00    2.81   3
  -2   2  31   15.11    4.86   3
  -2   2  30   37.84    8.00   3
  -2   2  29    7.18    3.80   3
  -2   2  28    2.19    2.55   3
  -2   2  28    5.43    2.09   1
  -2   2  27   13.30    5.24   3
  -2   2  27   13.10    3.23   1
   2  -2  27   10.17    3.25   4
  -2   2  26   47.28    8.25   3
  -2   2  26   38.16    5.13   1
   2  -2  26   45.36    6.65   4
  -2   2  25   32.41    4.71   1
  -2   2  25   32.22    6.67   3
   2  -2  25   32.18    5.57   4
  -2   2  24    3.55    2.54   3
  -2   2  24    5.74    2.17   1
   2  -2  24    7.76    2.67   4
   2  -2  23   45.27    6.38   4
  -2   2  23   43.47    7.17   3
  -2   2  23   40.35    4.91   1
  -2   2  22   31.56    5.98   3
  -2   2  22   32.04    4.23   1
   2  -2  22   34.24    5.34   4
  -2   2  21    0.79    2.09   3
  -2   2  21    3.36    1.60   1
   2  -2  21    2.65    1.96   4
  -2   2  20  177.70    9.02   1
   2  -2  20  212.58   13.44   4
  -2   2  19   38.62    4.08   1
   2  -2  19   44.51    6.21   4
  -2   2  18    6.75    1.88   1
   2  -2  18    4.23    2.12   4
   2  -2  17   63.30    7.11   4
  -2   2  17   55.18    4.47   1
  -2   2  17   60.61    8.22   2
   2  -2  16  183.46   11.84   4
  -2   2  16  153.23    6.93   1
  -2   2  16  177.00   13.75   2
  -2   2  15   51.83    3.81   1
  -2   2  15   63.63    8.32   2
   2  -2  15   65.16    7.01   4
   2  -2  14   46.38    5.79   4
  -2   2  14   41.65    3.23   1
  -2   2  14   48.95    7.03   2
   2  -2  13   64.37    6.75   4
  -2   2  13   43.44    2.77   1
  -2   2  13   53.37    7.26   2
  -2   2  12  159.23   12.07   2
   2  -2  12  178.69   11.17   4
  -2   2  11  131.70   10.67   2
   2  -2  11  148.79   10.44   4
   2  -2  10  351.40   15.78   4
  -2   2  10  276.36   15.08   2
   2  -2   9 1694.24   34.04   4
  -2   2   9 1570.61   35.00   2
   2  -2   8  838.55   23.73   4
  -2   2   8  799.15   24.64   2
  -2  -2  -7  415.29   16.24   1
  -2   2   7  418.49   17.63   2
  -2  -2  -7  348.86    9.52   4
  -2  -2  -6  445.04   17.34   1
  -2   2   6  227.94   12.91   2
  -2  -2  -5 1138.83   26.89   1
  -2   2   5  950.75   25.12   2
  -2  -2  -4  337.56   14.43   1
  -2   2   4  294.08   14.04   2
  -2   2   3   79.14    7.38   2
  -2  -2  -3  200.47   11.08   1
   2   2  -2  260.16   12.14   1
  -2   2   2  274.35   12.99   2
  -2  -2  -2  314.68   13.40   1
  -2  -2  -1   96.67    7.37   1
  -2   2   1  122.27    9.27   2
  -2   2   0   32.04    6.18   4
   2   2   0   27.82    5.03   1
  -2  -2   0   18.85    4.03   1
  -2   2   0   20.31    4.16   2
   2   2   1   83.43    7.48   1
   2  -2  -1  139.29    5.09   1
  -2   2  -1   98.11    8.85   4
  -2  -2   1  123.78    8.78   1
  -2   2  -1   81.02    7.22   2
   2   2   2  280.49   13.62   1
  -2   2  -2  358.55   16.01   4
  -2  -2   2  271.44   12.21   1
  -2   2  -2  312.94   13.95   2
   2   2   3  107.66    9.28   1
  -2   2  -3  203.59   11.12   2
  -2   2  -3  263.06   13.82   4
  -2  -2   3   92.91    7.56   1
  -2  -2   4  307.86   14.35   1
   2   2   4  254.66   12.89   1
  -2  -2   5 1154.18   28.23   1
  -2   2  -5 1203.90   28.75   4
  -2  -2   6  271.20   14.50   1
  -2   2  -6  631.23   20.91   4
  -2  -2   7  450.68   18.42   1
  -2  -2   7  447.96   16.95   2
  -2  -2   8  874.03   25.71   1
  -2   2  -8  775.62   21.98   4
  -2  -2   8  857.38   23.02   2
  -2  -2   9 1650.86   35.42   1
  -2   2  -9 1513.08   30.14   4
   2   2   9 1543.89   36.67   1
  -2  -2  10  310.92   15.89   1
   2   2  10  331.73   17.80   1
  -2  -2  10  285.80   12.63   2
   2   2  11  137.91   11.63   1
  -2  -2  11  127.84    8.65   2
  -2   2 -11  138.76    9.83   4
  -2  -2  12  153.15    9.31   2
   2   2  12  157.83   12.44   1
  -2   2 -12  160.21   10.66   4
  -2  -2  13   47.83    5.10   2
   2   2  13   58.89    7.70   1
  -2   2 -13   59.95    6.74   4
   2   2  14   45.05    6.76   1
  -2  -2  14   39.42    4.61   2
  -2   2 -14   50.47    6.34   4
  -2  -2  15   55.80    5.68   2
   2   2  15   56.61    7.71   1
  -2   2 -15   56.50    6.55   4
  -2  -2  16  167.54    9.86   2
   2   2  16  174.46   13.85   1
  -2   2 -16  166.55   11.62   4
  -2  -2  17   58.08    6.08   2
   2   2  17   63.11    8.41   1
  -2   2 -17   59.97    7.17   4
  -2   2 -18    6.67    2.48   4
   2   2  18   10.48    3.90   1
   2   2  19   50.22    8.17   1
  -2   2 -19   43.92    6.15   4
   2   2  20  209.49   16.58   1
  -2   2 -20  214.16   12.87   4
  -2  -2  21    3.03    2.13   3
   2   2  21    5.07    3.38   1
  -2  -2  22   36.21    5.43   3
   2   2  22   32.48    6.91   1
  -2  -2  23   60.51    7.74   3
   2   2  23   51.39    8.61   1
  -2  -2  24    8.20    2.95   3
   2   2  24    8.00    3.69   1
  -2  -2  25   33.01    5.77   3
   2   2  25   38.46    7.84   1
  -2  -2  26   55.41    7.77   3
   2   2  26   49.47    8.99   1
  -2  -2  27   14.40    4.16   3
   2   2  27   15.04    5.40   1
  -2  -2  28    3.53    2.36   4
   2   2  28   -0.16    1.59   1
  -2  -2  29   18.30    6.38   4
   2   2  29   12.87    5.05   1
  -2  -2  30   39.29    8.86   4
   2   2  30   47.25    9.52   1
  -2  -2  31   20.86    6.75   4
   2   2  31   14.66    5.25   1
  -2  -2  32    8.91    3.85   4
   2   2  32    8.54    4.17   1
  -2  -2  33   -3.29    4.37   4
   2   2  33    3.33    3.07   1
  -2  -2  34   13.51    6.25   4
   2   2  34    7.93    4.44   1
  -2  -2  35   13.19    6.32   4
  -2  -2  36   12.15    6.10   4
  -2   3  33    1.39    4.01   3
  -2   3  32    2.99    2.85   3
  -2   3  31    6.11    4.01   3
  -2   3  30   15.31    5.74   3
  -2   3  29   21.42    7.37   3
  -2   3  28   10.76    5.81   3
   2  -3  28   14.79    4.14   4
  -2   3  27   11.45    5.29   3
   2  -3  27   13.67    4.29   4
  -2   3  26    8.92    5.41   3
   2  -3  26   11.11    3.55   4
  -2   3  25   10.50    5.55   3
   2  -3  25    9.12    3.85   4
  -2   3  24   41.64    8.47   3
  -2   3  24   37.63    5.15   1
   2  -3  24   37.81    6.78   4
  -2   3  23   82.43   10.93   3
  -2   3  23   67.93    6.49   1
   2  -3  23   76.30    9.37   4
   2  -3  22   23.90    5.26   4
  -2   3  22   21.71    5.46   3
  -2   3  22   25.74    3.91   1
  -2   3  21   11.79    2.64   1
  -2   3  21   10.36    3.58   3
   2  -3  21    6.06    2.60   4
  -2   3  20   48.70    7.77   3
   2  -3  20   49.56    7.60   4
  -2   3  20   50.98    4.92   1
  -2   3  19    9.67    2.21   1
   2  -3  19    9.92    3.64   4
   2  -3  18  113.26   10.87   4
  -2   3  18   98.52    6.22   1
   2  -3  17   16.08    4.21   4
  -2   3  17   13.97    2.31   1
   2  -3  16   88.43    9.32   4
  -2   3  16   68.34    4.51   1
  -2   3  15  342.77   19.80   2
   2  -3  15  371.92   18.76   4
   2  -3  14    5.90    3.10   4
  -2   3  14    7.90    3.55   2
   2  -3  13  175.78   12.61   4
  -2   3  13  156.53   13.07   2
   2  -3  12   60.22    7.24   4
  -2   3  12   58.64    7.88   2
  -2   3  11   53.11    7.51   2
  -2  -3 -11   24.39    2.14   4
   2  -3  11   49.16    6.48   4
  -2   3  10   50.41    6.93   2
   2  -3  10   52.44    6.58   4
  -2  -3 -10   35.48    3.07   4
   2  -3   9   11.94    3.78   4
  -2   3   9   12.28    3.61   2
  -2  -3  -9   27.40    3.39   4
  -2   3   8  254.86   14.79   2
   2  -3   8  262.16   14.83   4
  -2   3   7    8.49    3.03   2
   2  -3   7    7.79    2.97   4
   2  -3   6   88.53    8.44   4
  -2   3   6   85.37    8.27   2
  -2  -3  -6   74.20    5.22   4
  -2   3   5    6.33    2.62   2
   2  -3   5    8.49    3.54   4
  -2   3   4  130.80    9.92   2
  -2  -3  -4  124.21    7.49   4
  -2  -3  -3  152.47    9.13   4
  -2   3   3   23.44    4.42   2
  -2   3   2  175.94   11.00   2
  -2  -3  -2  439.28   15.63   4
   2   3  -1  505.40   19.16   1
  -2   3   1  525.39   18.59   2
   2   3   0  244.19   14.03   1
  -2  -3   0  287.97   14.48   4
   2   3   1  455.87   18.42   1
  -2   3  -1  494.79   17.64   2
  -2  -3   1  581.03   20.64   4
   2   3   2  293.52   15.79   1
  -2   3  -2  405.89   16.23   2
   2  -3  -3   32.47    2.18   1
   2   3   3   38.75    7.42   1
  -2  -3   3   31.85    5.53   4
   2   3   4  124.36   10.38   1
  -2  -3   4  126.24   10.25   4
  -2   3  -4  144.57    9.91   2
  -2  -3   5   14.62    3.84   4
   2   3   5   10.50    4.23   1
   2   3   6   80.72    8.61   1
  -2   3  -6   84.02    7.59   2
  -2  -3   6   79.80    8.80   4
   2   3   7    7.53    3.19   1
  -2  -3   7   13.44    4.53   4
  -2  -3   8  251.14   12.04   2
   2   3   8  229.94   14.70   1
  -2  -3   9    7.50    2.03   2
   2   3   9   13.42    4.39   1
  -2  -3  10   46.84    4.85   2
   2   3  10   51.87    7.40   1
  -2  -3  11   51.04    5.02   2
   2   3  11   50.86    7.38   1
  -2  -3  12   52.34    5.05   2
   2   3  12   63.85    8.57   1
   2   3  13  153.10   13.19   1
  -2  -3  13  139.48    7.87   2
  -2  -3  14    4.42    1.85   2
   2   3  14    8.81    3.61   1
  -2  -3  15  300.67   11.67   2
   2   3  15  313.42   19.03   1
  -2  -3  15  311.61   20.00   4
   2   3  16   89.36   10.91   1
  -2  -3  16   76.70   10.15   4
  -2  -3  17   17.68    5.19   4
   2   3  17   16.59    4.96   1
   2   3  18  110.84   12.10   1
  -2  -3  18  105.58   12.16   4
  -2  -3  19   13.27    4.55   4
   2   3  19   13.23    4.80   1
  -2  -3  19   11.58    2.75   3
  -2  -3  20   72.25    6.79   3
   2   3  20   58.35    8.97   1
  -2  -3  20   57.14    9.33   4
   2   3  21   13.28    4.64   1
  -2  -3  21   10.14    3.97   4
  -2  -3  21   14.83    3.55   3
   2   3  22   22.69    5.85   1
  -2  -3  22   18.98    5.53   4
  -2  -3  22   27.78    4.36   3
  -2  -3  23   82.19   11.90   4
  -2  -3  23   91.38    8.27   3
   2   3  23   79.75   11.10   1
   2   3  24   36.86    7.45   1
  -2  -3  24   42.13    8.71   4
   2   3  25   10.37    4.25   1
  -2  -3  25   15.39    5.54   4
   2   3  26   12.93    4.54   1
  -2  -3  26   14.83    5.64   4
   2   3  27   25.26    6.93   1
  -2  -3  27   20.68    6.46   4
   2   3  28   18.08    6.30   1
  -2  -3  28   13.43    5.85   4
   2   3  29   30.44    7.81   1
  -2  -3  29   40.90    9.77   4
   2   3  30   14.24    5.72   1
  -2  -3  30   18.00    6.47   4
   2   3  31   19.86    6.56   1
  -2  -3  31   22.42    8.21   4
   2   3  32    2.97    3.55   1
  -2  -3  32   10.44    6.92   4
   2   3  33    6.29    4.85   1
  -2  -3  33   11.73    6.90   4
  -2  -3  34   14.90    6.77   4
  -2   4  31    1.57    3.88   3
  -2   4  30   12.01    5.89   3
  -2   4  29    7.18    4.53   3
   2  -4  29   10.42    4.41   4
  -2   4  28   -0.63    3.01   3
   2  -4  28    0.26    1.60   4
  -2   4  27    3.64    3.82   3
   2  -4  27    0.02    0.25   4
  -2   4  26  173.82   18.08   3
   2  -4  26    4.23    3.24   4
  -2   4  25    8.56    5.10   3
   2  -4  25    2.36    1.97   4
  -2   4  24    8.31    4.47   3
   2  -4  24    4.90    3.24   4
  -2   4  23   19.67    6.43   3
   2  -4  23   27.82    6.46   4
  -2   4  22   10.95    4.47   3
   2  -4  22    9.64    3.87   4
  -2   4  21   45.83    8.62   3
   2  -4  21   48.91    8.28   4
  -2   4  20  101.75   12.16   3
   2  -4  20  113.10   12.38   4
  -2   4  19   98.42    6.94   1
   2  -4  19  122.60   12.94   4
  -2   4  19  123.42   13.23   3
  -2   4  18   40.32    3.96   1
  -2   4  18   45.75    8.07   3
   2  -4  18   46.78    7.74   4
   2  -4  17   55.67    8.34   4
   2  -4  16   80.10   10.03   4
   2  -4  15  109.48   11.55   4
   2  -4  14  150.61   13.13   4
  -2   4  13   84.14   10.23   2
   2  -4  13   95.01   10.18   4
  -2  -4 -12    6.38    1.83   4
   2  -4  12    9.15    3.68   4
  -2   4  12    3.32    2.57   2
  -2   4  11  152.53   13.27   2
   2  -4  11  145.28   12.12   4
  -2  -4 -11  133.73    7.62   4
  -2  -4 -10   62.78    5.75   4
  -2   4  10   52.54    7.80   2
   2  -4  10   52.70    7.40   4
  -2  -4  -9  125.08    8.36   4
  -2   4   9   91.78    9.84   2
   2  -4   9   92.10    9.54   4
  -2   4   8  194.15   14.15   2
   2  -4   8  179.66   13.21   4
  -2  -4  -8  155.06    8.77   4
  -2   4   7    6.96    3.27   2
   2  -4   7    5.21    2.75   4
  -2   4   6   65.56    7.75   2
   2  -4   6   81.92    9.11   4
   2  -4   5  211.38   14.16   4
  -2   4   5  239.80   14.37   2
  -2  -4  -5  178.07    9.79   4
   2  -4   4    8.34    3.06   4
  -2   4   4   18.41    4.79   2
  -2  -4  -4   16.51    3.29   4
  -2   4   3   10.45    2.91   2
   2  -4   3   19.35    4.49   4
  -2  -4  -2  118.62    9.09   4
  -2   4   2   48.36    6.20   2
  -2   4   1   97.00    8.84   2
  -2  -4  -1  394.46   16.96   4
  -2   4   0  651.21   22.22   2
  -2  -4   0  574.05   21.31   4
   2   4   1  329.46   17.39   1
  -2   4  -1  351.04   16.24   2
   2  -4  -2   34.70    3.06   1
  -2  -4   2   47.64    6.52   4
  -2  -4   3   17.65    4.36   4
   2   4   3   19.45    4.93   1
   2  -4  -3   10.43    1.80   1
   2   4   4    5.68    4.36   1
  -2   4  -4   19.70    3.97   2
  -2  -4   4   49.98    8.07   4
   2  -4  -4   68.01    4.40   1
   2   4   5  220.33   15.50   1
   2  -4  -5  207.46    6.37   1
  -2   4  -5  217.75   12.09   2
  -2  -4   5  244.43   16.80   4
   2  -4  -6   46.62    2.55   1
  -2  -4   6   66.79    9.27   4
  -2  -4   7   12.96    4.99   4
   2   4   7    4.77    3.19   1
   2   4   8  171.66   14.53   1
  -2   4  -8  174.70   10.97   2
  -2  -4   8  196.19   16.29   4
  -2  -4   8  162.90    9.07   2
   2   4   9  100.58   11.68   1
  -2  -4   9   85.14    6.50   2
  -2  -4   9  102.39   11.63   4
   2   4  10   58.76    8.96   1
  -2  -4  10   42.73    4.19   2
  -2   4 -10   61.90    6.87   2
  -2  -4  10   59.09    9.18   4
  -2  -4  11  118.37    6.74   2
  -2  -4  11  150.13   14.78   4
   2   4  11  149.29   14.01   1
   2   4  12    7.16    3.54   1
  -2  -4  12    2.18    1.19   2
  -2  -4  12   10.81    4.86   4
  -2   4 -12    4.89    2.38   2
  -2  -4  13   64.21    4.58   2
  -2  -4  13   90.33   11.73   4
   2   4  13   87.52   10.76   1
  -2   4 -13   83.56    7.82   2
   2   4  14  134.01   13.82   1
  -2  -4  14   92.70    5.46   2
  -2  -4  14  136.74   14.45   4
  -2   4 -14  123.61    9.42   2
   2   4  15  110.47   12.58   1
  -2  -4  15  113.93   13.44   4
  -2  -4  16   47.21    3.97   3
   2   4  16   68.53    9.96   1
  -2  -4  16   71.65   10.78   4
  -2  -4  17   30.12    3.23   3
   2   4  17   45.98    8.25   1
  -2  -4  17   56.95    9.71   4
  -2  -4  18   29.65    3.18   3
   2   4  18   55.85    9.35   1
  -2  -4  18   49.84    9.57   4
   2   4  19  120.87   13.61   1
  -2  -4  19  112.65   14.31   4
   2   4  20   92.25   11.96   1
  -2  -4  20  109.19   14.05   4
   2   4  21   46.27    8.35   1
  -2  -4  21   46.50    9.54   4
  -2  -4  22   17.06    6.06   4
   2   4  22   10.20    4.65   1
  -2  -4  23   24.87    6.95   4
   2   4  23   25.62    6.73   1
  -2  -4  24   14.83    6.22   4
   2   4  24    7.06    3.55   1
  -2  -4  25   10.25    5.11   4
   2   4  25    5.68    2.95   1
  -2  -4  26   15.66    6.54   4
   2   4  26    4.63    3.01   1
  -2  -4  27    4.85    3.94   4
   2   4  27    3.08    2.47   1
  -2  -4  28    5.97    5.08   4
   2   4  28    2.53    3.06   1
  -2  -4  29    8.65    5.12   4
   2   4  29   14.91    6.14   1
  -2  -4  30   18.08    7.33   4
   2   4  30    7.76    4.46   1
  -2  -4  31   11.88    6.42   4
   2   4  31   12.45    5.49   1
   2  -5  29    1.44    2.90   4
  -2   5  28    4.11    2.28   3
   2  -5  28    0.56    1.99   4
  -2   5  27    4.92    3.90   3
   2  -5  27    7.03    4.69   4
  -2   5  26   10.40    4.93   3
   2  -5  26    1.59    3.15   4
  -2   5  25   14.92    7.39   3
   2  -5  25   20.14    5.85   4
  -2   5  24    1.02    2.23   3
   2  -5  24    3.86    3.31   4
  -2   5  23    4.36    3.65   3
   2  -5  23   -0.98    1.27   4
  -2   5  22   11.72    5.71   3
   2  -5  22    2.82    3.06   4
  -2   5  21    2.47    2.77   3
   2  -5  21    2.62    1.82   4
  -2   5  20    1.99    2.42   3
   2  -5  20    7.34    3.49   4
  -2   5  19   11.06    4.44   3
   2  -5  19   19.38    5.63   4
  -2   5  18   41.80    8.04   3
   2  -5  18   37.54    7.46   4
  -2   5  17   15.60    5.78   3
   2  -5  17   22.48    6.06   4
   2  -5  16   21.20    5.87   4
  -2   5  16   20.64    5.43   3
   2  -5  15   96.28   12.23   4
   2  -5  14  151.81   14.66   4
   2  -5  13   72.73   10.06   4
  -2  -5 -12   76.64    7.39   4
   2  -5  12   60.73    9.04   4
   2  -5  11  202.45   15.71   4
  -2  -5 -11  230.88   13.20   4
  -2   5  10  117.67   11.91   2
   2  -5  10  108.52   11.21   4
  -2  -5 -10  125.92    9.74   4
  -2   5   9   23.24    5.65   2
   2  -5   9   30.79    6.21   4
  -2  -5  -8  206.58   12.56   4
  -2   5   8  183.96   14.61   2
   2  -5   8  176.30   14.07   4
  -2   5   7   91.44   10.13   2
   2  -5   7   96.93   10.33   4
  -2  -5  -6  174.13   10.90   4
  -2   5   6  224.78   15.25   2
   2  -5   6  208.62   15.06   4
  -2   5   5   23.25    5.37   2
   2  -5   5   14.07    4.31   4
  -2   5   4   68.10    8.47   2
   2  -5   4  166.10   13.42   4
  -2   5   3  531.34   22.20   2
   2  -5   3  465.53   21.37   4
  -2  -5  -3  416.49   17.55   4
   2  -5   2   69.07    8.46   4
  -2  -5  -2   96.32    8.91   4
  -2  -5  -1   52.86    6.25   3
  -2   5   1   65.35    7.78   2
  -2  -5  -1   50.04    6.43   4
  -2   5   0   20.45    4.32   2
  -2  -5   0   30.64    4.81   3
   2  -5   0   15.39    2.77   1
  -2  -5   0   32.86    5.86   4
   2  -5  -1   64.87    5.47   1
  -2  -5   1   94.72    8.32   3
  -2   5  -1   53.62    6.68   2
  -2  -5   1   92.46   10.04   4
   2  -5  -2  251.72   11.17   1
  -2  -5   2  245.54   12.45   3
  -2  -5   2  277.00   17.53   4
   2   5   3  443.79   21.93   1
  -2   5  -3  508.58   19.84   2
  -2  -5   3  477.04   23.41   4
   2  -5  -3  564.16   16.75   1
   2   5   4  207.23   16.72   1
  -2   5  -4  295.53   15.41   2
  -2  -5   4   74.59   10.17   4
  -2   5  -5   68.74    8.13   2
   2  -5  -5   68.72    5.38   1
  -2  -5   5   57.33    9.63   4
   2   5   6  203.21   15.77   1
   2  -5  -6  237.88    9.01   1
  -2   5  -6  218.42   12.93   2
  -2  -5   6  215.40   17.21   4
   2   5   7  108.76   12.53   1
   2  -5  -7   96.44    5.52   1
  -2  -5   7   99.15   12.30   4
  -2  -5   8  179.34   16.72   4
  -2  -5   8  121.29    6.47   3
   2   5   8  175.44   15.78   1
   2  -5  -8  140.60    6.00   1
  -2   5  -8  186.54   11.64   2
  -2   5  -9   51.64    6.68   2
   2   5   9   41.49    8.81   1
  -2  -5   9   20.81    2.57   3
  -2  -5   9   18.88    2.80   2
  -2  -5   9   40.12    8.60   4
   2   5  10  133.91   14.80   1
  -2  -5  10   70.58    4.13   3
  -2  -5  10   68.62    4.57   2
  -2   5 -10  113.66    9.04   2
  -2  -5  10  134.28   15.48   4
  -2  -5  11   97.32    4.21   3
  -2  -5  11   93.57    4.37   2
  -2   5 -11  194.27   11.75   2
   2   5  11  205.10   18.55   1
  -2  -5  11  231.82   19.98   4
   2   5  12   74.34   11.39   1
  -2  -5  12   68.57   11.52   4
  -2   5 -12   67.68    7.02   2
   2   5  13   71.92   11.65   1
  -2   5 -13   65.69    6.90   2
  -2  -5  13   84.16   12.65   4
   2   5  14  150.52   16.68   1
  -2   5 -14  122.44    9.37   2
  -2  -5  14  134.70   15.69   4
   2   5  15   90.55   12.87   1
  -2   5 -15   83.93    7.93   2
  -2  -5  15   91.68   13.05   4
   2   5  16   21.46    6.26   1
  -2   5 -16   23.13    4.20   2
  -2  -5  16   24.49    6.75   4
  -2  -5  17   25.81    7.30   4
   2   5  17   20.96    6.22   1
  -2   5 -17   16.93    3.60   2
   2   5  18   32.33    7.33   1
  -2  -5  18   46.64    9.56   4
  -2   5 -18   38.15    5.58   2
   2   5  19   13.08    4.75   1
  -2  -5  19   20.48    6.63   4
  -2   5 -19   12.42    3.16   2
   2   5  20    3.96    2.48   1
  -2  -5  20    7.36    4.05   4
  -2  -5  21    7.86    5.09   4
   2   5  21   12.24    4.65   1
  -2  -5  22    8.09    4.09   4
   2   5  22    8.88    4.03   1
  -2  -5  23    2.35    2.79   4
   2   5  23    5.28    2.84   1
  -2  -5  24    4.59    4.78   4
   2   5  24    4.21    3.23   1
  -2  -5  25   26.74    8.31   4
   2   5  25   24.57    7.35   1
  -2  -5  26    5.43    4.29   4
   2   5  26    3.33    2.44   1
  -2  -5  27   15.45    6.25   4
   2   5  27   14.08    5.36   1
  -2  -5  28    0.47    1.80   4
   2   5  28   10.99    4.65   1
  -2  -5  29    4.22    4.91   4
   2   5  29   16.99    6.64   1
   2  -6  29   30.54    8.27   4
   2  -6  28   30.42    8.56   4
   2  -6  27   -2.11    2.02   4
   2  -6  26   17.03    6.43   4
  -2   6  25   10.66    6.36   3
   2  -6  25    8.91    4.45   4
  -2   6  24    9.11    6.39   3
   2  -6  24   16.64    5.74   4
  -2   6  23    5.92    4.12   3
   2  -6  23    8.24    4.26   4
  -2   6  22    7.38    3.99   3
   2  -6  22    5.89    3.76   4
  -2   6  21   14.87    6.70   3
   2  -6  21   16.60    5.46   4
  -2   6  20   35.87    9.00   3
   2  -6  20   40.14    8.98   4
  -2   6  19    7.27    4.82   3
   2  -6  19    7.11    4.69   4
  -2   6  18   11.47    5.37   3
   2  -6  18   13.55    5.18   4
  -2   6  17   18.88    5.91   3
   2  -6  17   21.46    6.60   4
  -2   6  16    7.07    3.79   3
   2  -6  16    7.57    4.22   4
  -2   6  15   31.33    7.04   3
   2  -6  15   29.42    7.25   4
  -2   6  14   13.45    4.82   3
   2  -6  14    9.71    4.44   4
  -2  -6 -13   60.85    7.31   4
  -2   6  13   57.39    9.11   3
   2  -6  13   57.29   10.12   4
  -2  -6 -12   39.83    6.36   4
   2  -6  12   36.88    7.91   4
  -2  -6 -11   26.77    5.24   4
   2  -6  11   20.04    5.65   4
  -2  -6 -10   30.28    6.08   4
   2  -6  10   16.53    5.07   4
   2  -6   9   47.70    8.29   4
  -2  -6  -9   61.16    8.25   4
   2  -6   8   40.96    7.62   4
  -2  -6  -8   50.66    7.48   4
   2  -6   7   64.58    9.40   4
  -2  -6  -7   81.02    8.95   4
  -2  -6  -6   68.38    8.02   4
   2  -6   6   65.27    9.09   4
  -2   6   5   25.56    6.04   2
  -2  -6  -5   26.86    4.98   4
   2  -6   5   24.21    5.54   4
   2  -6   4   19.63    4.97   4
  -2   6   4   12.31    4.00   2
  -2  -6  -3   63.06    7.42   4
  -2   6   3   56.78    7.72   2
   2  -6   3   54.36    7.81   4
  -2   6   2   46.55    7.21   2
   2  -6   2   42.99    6.91   4
  -2  -6  -2   53.00    6.94   4
  -2   6   1   49.07    7.01   2
  -2  -6  -1   37.25    5.96   4
  -2   6   0   22.76    5.11   2
  -2  -6   0   28.43    5.62   4
  -2   6  -1   44.79    6.67   2
  -2  -6   1   49.21    7.50   4
  -2  -6   2   49.52    5.79   3
  -2   6  -2   57.15    7.29   2
  -2  -6   2   56.29    8.54   4
  -2   6  -3   78.01    8.27   2
  -2  -6   3   57.47    8.91   4
  -2  -6   4   17.48    5.39   4
  -2   6  -4   37.50    5.82   2
  -2   6  -5   27.11    5.04   2
  -2  -6   5   35.00    7.80   4
  -2   6  -6   74.81    7.91   2
   2   6   6   62.04    9.67   1
  -2  -6   6   69.79   10.37   4
  -2   6  -7   77.87    8.07   2
   2   6   7   58.74    9.77   1
  -2  -6   7   54.70    9.82   4
  -2  -6   8   39.28    8.54   4
   2   6   8   30.98    7.55   1
  -2   6  -8   41.69    6.03   2
   2   6   9   40.45    8.11   1
  -2   6  -9   54.28    6.65   2
  -2  -6   9   52.57    9.76   4
   2   6  10   22.62    6.94   1
  -2  -6  10   25.97    7.79   4
  -2   6 -10   21.10    4.24   2
  -2  -6  11   34.41    8.70   4
  -2   6 -11   21.92    4.28   2
   2   6  11   23.70    6.68   1
  -2  -6  12   43.55   10.03   4
   2   6  12   39.82    8.88   1
  -2   6 -12   40.20    5.52   2
   2   6  13   63.07   11.57   1
  -2   6 -13   51.55    6.19   2
  -2  -6  13   64.10   12.10   4
  -2   6 -14    9.60    2.55   2
  -2  -6  14    9.26    4.55   4
   2   6  14   13.21    6.00   1
   2   6  15   37.43    9.20   1
  -2  -6  15   30.75    8.51   4
  -2  -6  16    6.30    5.47   4
   2   6  16    5.43    4.44   1
  -2  -6  17   12.35    4.61   4
   2   6  17   18.41    6.28   1
  -2  -6  18    8.79    5.33   4
   2   6  18    9.27    5.02   1
  -2  -6  19   10.72    5.56   4
   2   6  19    9.39    5.58   1
  -2  -6  20   47.24   11.17   4
   2   6  20   37.89    9.60   1
  -2  -6  21   22.94    8.33   4
   2   6  21    9.73    4.97   1
  -2  -6  22    9.50    5.82   4
   2   6  22   11.19    5.52   1
  -2  -6  23   19.06    8.08   4
   2   6  23   13.28    5.33   1
  -2  -6  24   32.50   10.02   4
   2   6  24   17.55    7.18   1
  -2  -6  25   26.62    9.42   4
   2   6  25   24.43    8.30   1
   2   6  26   26.92    8.48   1
   2   6  27    9.35    4.45   1
   2  -7  23   17.76    6.75   4
   2  -7  22   -0.55    2.81   4
  -2   7  21    1.46    2.45   3
   2  -7  21    7.41    5.28   4
  -2   7  20   16.65    5.94   3
   2  -7  20   11.64    4.98   4
  -2   7  19    4.81    3.78   3
   2  -7  19   11.21    5.76   4
  -2   7  18   14.47    5.84   3
   2  -7  18   19.96    6.91   4
  -2   7  17    5.82    4.24   3
   2  -7  17    6.82    4.68   4
  -2   7  16   50.98   10.08   3
   2  -7  16   38.63    9.30   4
  -2   7  15   11.64    5.53   3
   2  -7  15    3.85    2.98   4
  -2   7  14   14.41    5.30   3
   2  -7  14   15.42    5.89   4
  -2   7  13   13.69    4.73   3
   2  -7  13    8.66    4.02   4
  -2   7  12   12.07    5.01   3
   2  -7  12   10.67    4.47   4
  -2   7  11   13.50    4.34   3
   2  -7  11    8.95    3.60   4
  -2   7  10    5.91    2.89   3
   2  -7  10    6.89    3.57   4
  -2  -7 -10    8.73    3.06   4
  -2   7   9    7.00    3.22   3
   2  -7   9    3.23    2.08   4
  -2  -7  -9   18.64    5.33   4
  -2   7   8   30.82    6.34   3
  -2  -7  -8   50.60    8.31   4
   2  -7   8   33.66    7.36   4
   2  -7   7   59.79    9.64   4
  -2  -7  -7   68.46    9.39   4
  -2  -7  -6   39.57    7.33   4
   2  -7   6   23.78    6.38   4
   2  -7   5   43.80    7.92   4
  -2  -7  -5   55.95    8.11   4
   2  -7   4   42.34    7.89   4
  -2  -7  -4   57.71    8.17   4
   2  -7   3   64.41    9.17   4
  -2  -7  -3   70.37    8.96   4
  -2  -7  -2   22.11    5.20   4
   2  -7   2   21.61    5.33   4
  -2  -7  -1   25.93    5.35   4
  -2  -7   0   27.25    5.50   4
  -2  -7   1   21.67    5.38   4
  -2   7  -2   24.70    5.04   2
  -2  -7   2   42.12    7.74   4
  -2   7  -3   71.06    8.30   2
  -2  -7   3   57.30    9.12   4
  -2  -7   4   28.89    6.85   4
  -2   7  -4   46.83    6.78   2
  -2   7  -5   53.12    7.34   2
  -2  -7   5   45.18    8.57   4
  -2  -7   6   38.22    8.64   4
  -2   7  -6   31.75    5.99   2
  -2   7  -7   63.17    7.82   2
  -2  -7   7   54.26   10.44   4
  -2  -7   8   31.74    7.98   4
  -2   7  -8   39.34    6.22   2
  -2  -7   9    9.10    4.80   4
  -2  -7  10   13.02    5.49   4
   2   7  10    6.20    4.29   1
  -2  -7  11   13.11    6.48   4
   2   7  11   10.93    5.71   1
  -2  -7  12   22.89    7.50   4
   2   7  12    8.85    4.16   1
  -2  -7  13   12.77    6.71   4
   2   7  13    8.37    4.86   1
  -2  -7  14   14.24    6.74   4
   2   7  14    6.44    4.59   1
  -2  -7  15   13.91    6.38   4
   2   7  15   12.09    5.79   1
  -2  -7  16   43.99   10.75   4
   2   7  16   32.36    9.14   1
  -2  -7  17   17.16    8.21   4
   2   7  17   11.98    6.60   1
  -2  -7  18   16.85    7.41   4
   2   7  18   24.09    7.79   1
  -2  -7  19    6.82    5.77   4
   2   7  19    5.28    4.38   1
  -2  -7  20   22.79    8.65   4
   2   7  20   16.09    7.81   1
  -2  -7  21    8.99    6.58   4
   2   7  21    0.20    2.56   1
   2   7  22    0.30    0.43   1
   2   7  23   15.56    7.33   1
  -2   8  17   17.90    6.06   3
  -2   8  16   12.06    4.07   3
  -2   8  15   19.18    6.27   3
   2  -8  15   13.15    6.22   4
  -2   8  14    7.04    3.49   3
   2  -8  14    7.74    4.64   4
  -2   8  13   25.24    7.18   3
   2  -8  13   34.85    9.04   4
  -2   8  12   14.96    5.63   3
   2  -8  12   15.03    5.72   4
  -2   8  11   18.23    5.70   3
   2  -8  11   15.46    5.55   4
  -2   8  10   21.30    6.17   3
   2  -8  10   21.48    6.83   4
  -2   8   9   30.29    7.13   3
   2  -8   9   42.61    9.37   4
  -2   8   8   60.46    9.87   3
   2  -8   8   71.79   11.68   4
  -2   8   7   88.94   11.60   3
   2  -8   7   69.31   11.43   4
  -2  -8  -7   93.18   11.89   4
  -2   8   6   37.49    7.99   3
  -2  -8  -6   51.30    9.02   4
   2  -8   6   30.64    7.82   4
  -2   8   5   85.67   10.71   3
   2  -8   5   95.99   12.76   4
  -2  -8  -5  109.42   12.74   4
   2  -8   4   91.08   12.06   4
  -2   8   4  100.62   11.52   3
  -2  -8  -4   95.85   11.71   4
   2  -8   3   70.66   10.61   4
  -2   8   3   73.18    9.62   3
  -2  -8  -3   90.82   11.51   4
  -2   8   2  119.20   12.06   3
  -2  -8  -2   94.22   11.30   4
  -2   8   1   82.29   10.07   3
  -2  -8  -1   41.58    7.66   4
  -2  -8   0   29.22    6.56   4
  -2   8   0   38.79    7.16   3
  -2   8  -1   48.93    7.70   3
  -2  -8   1   80.54   11.04   4
  -2  -8   2   84.99   11.52   4
  -2  -8   3   68.50   10.60   4
  -2  -8   4   94.43   12.36   4
  -2  -8   5   57.04    9.57   4
  -2  -8   6   40.60    9.05   4
  -2  -8   7   74.08   11.87   4
  -2  -8   8   61.66   11.39   4
  -2  -8   9   40.68    9.61   4
  -2  -8  10   15.10    6.52   4
  -2  -8  11   16.95    7.22   4
  -2  -8  12   20.85    7.97   4
  -2  -8  13   27.94    9.43   4
  -2  -8  14   11.87    6.37   4
  -2  -8  15   24.30    8.81   4
   2   8  16   17.18    7.97   1
   2   8  17   25.60    8.70   1
  -2   9  12   32.77    7.96   3
  -2   9  11   16.08    5.79   3
  -2   9  10   42.21    8.91   3
  -2   9   9   18.07    5.67   3
  -2   9   8    7.09    3.70   3
  -2   9   7   10.78    4.36   3
  -2  -9  -3    6.27    2.62   4
  -2  -9  -2   21.98    6.09   4
  -2  -9  -1   24.40    6.54   4
  -2  -9   0   21.74    5.81   4
  -2  -9   1   22.02    6.04   4
  -2  -9   2   11.69    5.19   4
  -2  -9   3    7.79    4.17   4
  -2  -9   4   15.90    6.20   4
  -2  -9   5   20.50    7.15   4
  -2  -9   6   14.29    5.11   4
  -2  -9   7    7.28    5.49   4
  -2  -9   8    4.23    2.68   4
   3   0   0  322.72   13.54   1
  -3   0   0  435.12   17.14   1
   3   0  -1  518.97   16.77   1
  -3   0   1  678.86   20.21   1
   3   0   1  478.79   15.90   1
   3   0  -2  174.76    9.87   1
  -3   0   2  135.24    9.25   1
   3   0   2  202.34   11.14   1
  -3   0   2   48.64    7.68   2
  -3   0   3  299.32   12.51   1
   3   0   3  184.87   10.63   1
  -3   0   3  220.70   14.03   2
  -3   0   4  285.14   12.23   1
   3   0   4  219.40   11.71   1
  -3   0   4  216.81   14.37   2
  -3   0   5   62.64    5.80   1
   3   0   5   71.98    7.29   1
  -3   0   5   45.62    6.79   2
   3   0   6    4.64    2.21   1
  -3   0   6    2.31    2.51   2
  -3   0   6    4.40    1.93   1
  -3   0  -7   23.81    3.58   4
  -3   0   7   39.78    4.46   1
   3   0   7   30.57    4.92   1
  -3   0   7   35.27    6.10   2
  -3   0  -8   57.63    5.51   4
   3   0   8   64.86    7.19   1
  -3   0   8   86.61    6.58   1
  -3   0   8   76.64    8.81   2
   3   0   9  113.33    9.84   1
  -3   0  -9  106.23    7.48   4
  -3   0   9  127.60    8.01   1
  -3   0   9  119.45   11.07   2
  -3   0  10   28.60    5.59   2
   3   0  10   28.39    5.17   1
  -3   0 -10   41.81    4.78   4
  -3   0  10   23.53    3.29   1
   3   0  11   23.32    5.21   1
  -3   0 -11   27.80    3.92   4
  -3   0  11   31.54    6.09   2
  -3   0  11   29.88    3.96   1
   3   0  12  144.76   12.36   1
  -3   0  12  175.01   14.09   2
  -3   0 -12  144.33    8.61   4
  -3   0  12  188.84   10.41   1
  -3   0 -13   86.03    6.58   4
   3   0  13   93.20   10.17   1
  -3   0  13   95.19   10.28   2
  -3   0  13  112.27    8.39   1
  -3   0 -14    8.23    2.40   4
  -3   0  14    6.10    2.90   2
  -3   0  14    6.29    2.06   1
   3   0  14    5.32    2.61   1
  -3   0 -15    8.48    2.54   4
  -3   0  15    9.59    3.41   2
  -3   0  15    8.99    2.89   1
   3   0  15    3.16    2.35   1
   3   0  16  415.79   22.92   1
  -3   0  16  463.20   23.41   2
  -3   0 -16  450.37   15.08   4
  -3   0  17   15.23    2.87   1
  -3   0  17   25.06    5.99   2
   3   0  17   26.52    6.26   1
  -3   0 -17   20.17    2.93   4
  -3   0  18    6.57    3.36   2
  -3   0 -18    5.69    1.52   4
   3   0  18    5.33    3.22   1
  -3   0  18    3.22    1.65   1
  -3   0  19   17.57    5.01   2
   3   0  19   13.16    3.95   1
  -3   0  20   21.35    5.38   2
   3   0  20   21.56    5.48   1
   3   0  21    1.40    1.67   1
  -3   0  21    4.30    3.37   2
  -3   0  22   21.45    6.11   2
   3   0  22   23.05    6.28   1
   3   0  23    5.17    3.02   1
   3   0  24   11.82    4.64   1
   3   0  25   16.01    5.57   1
  -3   0  26    7.38    3.93   3
   3   0  26   -2.15    1.15   1
  -3   0  27   23.57    5.82   3
   3   0  27   15.05    5.33   1
  -3   0  28    4.53    2.53   3
   3   0  28    0.03    1.56   1
  -3   0  29   11.51    5.32   3
   3   0  29    7.91    3.87   1
  -3   0  30   68.32   11.91   3
   3   0  30   53.62   10.27   1
  -3   0  31   16.47    6.32   3
   3   0  31   14.63    5.97   1
  -3   0  32   92.87   13.57   3
  -3   0  33   10.46    5.52   3
  -3   1  35   -1.12    3.52   3
  -3   1  34   61.18   11.54   3
  -3   1  33    5.08    4.61   3
  -3   1  32    8.17    4.44   3
   3  -1  31   12.46    5.16   1
  -3   1  31   22.74    7.69   3
  -3   1  30   22.39    7.05   3
   3  -1  30   15.59    5.56   1
  -3   1  29    7.00    3.46   3
   3  -1  29    7.89    4.23   1
  -3   1  28    1.89    2.35   3
   3  -1  28    4.70    3.47   1
  -3   1  27   37.42    8.03   3
   3  -1  27   31.86    7.88   1
  -3   1  26    6.08    3.82   3
   3  -1  26    9.22    4.38   1
   3  -1  25   11.32    5.20   1
   3  -1  24   10.50    4.42   1
   3  -1  23   41.50    8.22   1
  -3   1  22    0.94    0.26   2
   3  -1  22    9.01    4.18   1
   3  -1  21   19.86    5.74   1
  -3   1  21   19.81    5.68   2
   3  -1  20   57.96    9.60   1
  -3   1  20   50.13    8.67   2
   3  -1  19   66.27   10.10   1
  -3   1  19   75.00   10.42   2
   3  -1  18   54.35    9.22   1
  -3   1  18   59.94    9.23   2
  -3   1  17    7.50    3.81   2
   3  -1  17    4.42    3.29   1
  -3   1  17    2.71    1.60   1
   3  -1  16   38.20    7.22   1
  -3   1  16   31.18    6.43   2
  -3   1  16   33.60    4.13   1
   3  -1  15  268.61   18.20   1
  -3   1  15  299.31   18.99   2
  -3   1  15  319.13   11.24   1
   3  -1  14  153.98   13.62   1
  -3   1  14  178.22   14.64   2
  -3   1  14  172.68    7.69   1
   3  -1  13   44.37    6.88   1
  -3   1  13   46.73    7.45   2
  -3   1  13   40.39    3.36   1
  -3  -1 -13   30.51    3.05   4
  -3   1  12   18.36    4.83   2
  -3   1  12   16.03    2.14   1
   3  -1  12   15.09    3.86   1
  -3  -1 -12   12.32    2.21   4
  -3   1  11    8.40    3.05   2
  -3   1  11   10.60    1.66   1
   3  -1  11   10.66    3.26   1
  -3  -1 -11    7.79    1.63   4
  -3   1  10   34.52    2.80   1
   3  -1  10   35.76    5.44   1
  -3  -1 -10   25.04    2.91   4
  -3   1  10   35.19    6.35   2
  -3   1   9    2.76    2.77   2
  -3   1   9   -0.48    0.47   1
   3  -1   9    1.62    1.54   1
  -3   1   8   36.11    3.18   1
   3  -1   8   39.31    5.46   1
  -3   1   8   39.89    6.39   2
   3  -1   7  199.75   12.13   1
  -3   1   7  213.45   14.75   2
   3  -1   6  255.00   13.50   1
  -3   1   6  262.92   16.16   2
   3  -1   5  207.43   11.61   1
  -3   1   5  250.73   16.13   2
   3  -1   4   52.20    5.61   1
  -3   1   4   59.67    8.43   2
   3   1  -3  142.66    9.91   1
  -3  -1  -3  212.32   13.53   1
   3  -1   3  149.46    9.09   1
  -3   1   3  129.30   11.67   2
  -3  -1  -2  182.33   11.89   1
   3  -1   2  144.84    8.37   1
  -3   1   2  181.19   13.54   2
  -3  -1  -1   47.66    6.25   1
   3  -1   1   30.57    3.69   1
   3   1   0   50.33    6.10   1
  -3  -1   0   44.46    5.64   1
   3  -1   0   36.23    3.86   1
  -3   1   0   31.09    5.47   2
  -3  -1   1  113.81    9.10   1
   3  -1  -1   98.79    6.19   1
   3   1   2  157.03   10.67   1
   3  -1  -2  208.81    9.23   1
  -3  -1   2  224.18   12.07   1
   3  -1  -3  146.26    7.41   1
  -3  -1   3  145.69    9.75   1
   3   1   3  149.28   10.29   1
  -3  -1   4   91.75    8.03   1
   3   1   4   65.21    7.33   1
  -3  -1   4   54.41    7.52   2
  -3   1  -5  249.85   13.53   4
  -3  -1   5  295.22   14.10   1
   3   1   5  217.67   13.26   1
  -3  -1   5  221.19   14.17   2
  -3  -1   6  286.17   13.44   1
   3   1   6  263.24   15.03   1
  -3  -1   6  253.52   15.69   2
   3   1   7  214.59   13.83   1
  -3  -1   7  225.26   12.56   1
  -3  -1   7  211.59   14.77   2
   3   1   8   40.25    6.34   1
  -3  -1   8   33.60    5.78   2
  -3  -1   8   32.01    4.81   1
  -3  -1   9    2.10    2.40   2
   3   1   9    2.84    1.99   1
  -3  -1   9    1.00    0.68   1
  -3   1 -10   34.04    4.66   4
   3   1  10   41.20    6.69   1
  -3  -1  10   42.54    6.64   2
  -3  -1  10   39.88    5.60   1
  -3   1 -11   13.95    3.37   4
   3   1  11   12.76    3.74   1
  -3  -1  11   13.58    3.82   2
  -3  -1  11   13.02    3.44   1
  -3   1 -12   15.73    3.15   4
   3   1  12   14.43    3.86   1
  -3  -1  12   11.86    3.65   2
  -3  -1  12   14.71    3.44   1
  -3  -1  13   43.26    6.13   1
   3   1  13   40.80    6.64   1
  -3  -1  13   51.59    7.48   2
  -3   1 -13   35.81    4.93   4
  -3  -1  14  167.74   11.38   1
   3   1  14  144.72   12.94   1
  -3  -1  14  177.13   13.98   2
  -3   1 -14  166.15   11.12   4
  -3  -1  15  244.28   13.39   1
   3   1  15  254.91   17.43   1
  -3  -1  15  285.08   17.63   2
  -3   1 -15  324.63   16.17   4
   3   1  16   36.59    7.23   1
  -3  -1  16   32.72    6.35   2
  -3   1 -16   46.28    6.37   4
  -3  -1  17    2.58    3.00   2
  -3   1 -17    2.92    2.30   4
   3   1  17    2.58    2.71   1
   3   1  18   49.57    8.64   1
  -3  -1  18   57.25    8.31   2
  -3   1 -18   55.11    6.48   4
  -3  -1  19   77.35    9.83   2
   3   1  19   78.24   11.16   1
  -3  -1  20   57.78    8.80   2
   3   1  20   49.48    9.17   1
   3   1  21   16.25    5.55   1
  -3  -1  21   15.94    4.47   2
  -3  -1  22    7.92    3.63   2
   3   1  22    3.58    2.79   1
   3   1  23   41.59    8.59   1
   3   1  24   12.68    4.75   1
   3   1  25   14.97    6.10   1
  -3  -1  26   11.18    4.80   3
   3   1  26    7.41    3.90   1
  -3  -1  27   36.50    7.36   3
   3   1  27   33.03    8.13   1
  -3  -1  28    3.21    2.25   3
   3   1  28    0.79    1.24   1
  -3  -1  29   10.16    5.30   3
   3   1  29    4.29    3.60   1
  -3  -1  30   15.49    5.63   3
   3   1  30   17.21    5.89   1
   3   1  31   21.17    6.46   1
  -3   2  32    6.68    3.75   3
  -3   2  31    8.89    5.72   3
  -3   2  30   30.65    9.35   3
   3  -2  30   28.79    7.37   1
   3  -2  29   11.87    4.91   1
  -3   2  29   16.74    5.59   3
   3  -2  28   27.40    6.89   1
  -3   2  28   22.51    7.53   3
   3  -2  27   17.66    5.78   1
  -3   2  27   21.80    6.45   3
   3  -2  26   31.11    7.24   1
  -3   2  26   28.91    7.24   3
  -3   2  21   12.59    4.55   2
  -3   2  20    5.24    3.59   2
  -3   2  19    9.37    3.93   2
  -3   2  18   48.40    8.65   2
  -3   2  17   11.45    4.30   2
  -3   2  16  121.80   13.06   2
  -3   2  15   16.06    4.95   2
  -3   2  14   59.64    8.81   2
  -3   2  13  195.81   15.35   2
  -3  -2 -12  265.13    7.11   4
  -3  -2 -12  287.90    6.87   4
   3  -2  11  140.16   11.86   1
  -3  -2 -11   89.44    4.83   4
  -3  -2 -11   92.47    4.79   4
   3  -2  10  111.96   10.15   1
  -3   2  10  125.30   12.21   2
  -3   2   9   14.64    4.57   2
   3  -2   9   13.60    3.98   1
   3  -2   8  167.63   11.75   1
  -3   2   8  179.81   13.91   2
   3  -2   7   53.22    6.33   1
  -3   2   7   72.52    8.74   2
   3  -2   6   42.92    5.37   1
  -3   2   6   50.81    7.40   2
   3  -2   5   28.62    4.03   1
  -3   2   5   38.24    6.27   2
  -3   2   4    8.75    3.40   2
   3  -2   4   23.96    3.73   1
   3  -2   3  152.83    8.65   1
  -3   2   3  143.24   11.71   2
   3  -2   2  150.75    8.19   1
  -3   2   2  183.87   13.47   2
   3  -2   1   74.96    5.35   1
  -3   2   1  109.91   10.66   2
   3   2   0  145.20   11.00   1
   3  -2   0  108.31    5.91   1
  -3   2   0  132.56   11.49   2
   3  -2  -1   89.85    4.95   1
   3   2   1  123.30   10.59   1
  -3   2  -1  107.53   10.19   2
   3   2   2  179.95   12.90   1
  -3   2  -2  187.97   13.18   2
   3  -2  -2  164.34    6.65   1
   3   2   3  195.81   13.48   1
  -3   2  -3  198.60   13.08   2
   3   2   4   37.77    6.60   1
  -3   2  -4  103.98    9.43   2
   3   2   5   33.96    5.77   1
   3   2   6   53.44    7.19   1
  -3  -2   6   47.89    6.76   2
   3   2   7   71.99    8.71   1
  -3  -2   7   66.54    8.21   2
   3   2   8  170.80   13.45   1
  -3  -2   8  189.75   13.85   2
  -3  -2   9    9.85    3.35   2
   3   2   9   14.29    4.41   1
  -3  -2  10  116.14   10.51   2
   3   2  10  104.93   10.92   1
  -3  -2  11  147.60   12.21   2
   3   2  11  129.38   12.28   1
  -3  -2  12  639.59   24.90   2
   3   2  12  545.51   24.91   1
  -3  -2  13  204.71   14.29   2
   3   2  13  191.19   15.58   1
  -3  -2  14   66.89    8.36   2
   3   2  14   60.61    8.97   1
  -3  -2  15   16.73    3.99   2
   3   2  15   13.59    4.98   1
  -3  -2  16  113.22   10.62   2
   3   2  16  103.75   12.12   1
  -3  -2  17   13.64    4.19   2
   3   2  17   12.59    4.35   1
  -3  -2  18   44.29    7.09   2
   3   2  18   50.84    8.74   1
  -3  -2  19   10.85    4.21   2
   3   2  19   10.69    4.07   1
   3   2  20    9.70    3.81   1
  -3  -2  20   12.35    4.46   2
   3   2  21   14.95    5.17   1
  -3  -2  21   16.87    5.10   2
   3   2  22   14.28    4.92   1
   3   2  23   21.46    6.37   1
   3   2  24    3.82    1.82   1
   3   2  25    6.32    4.04   1
  -3  -2  25    3.31    2.14   3
   3   2  26   35.59    8.69   1
  -3  -2  26   36.67    6.77   3
   3   2  27   27.63    7.55   1
   3   2  28   22.39    6.93   1
   3   2  29   14.02    5.56   1
   3   2  30   34.44    8.73   1
  -3   3  30   20.51    7.96   3
  -3   3  29    5.15    5.23   3
  -3   3  28    6.34    5.88   3
  -3   3  27    7.07    4.33   3
  -3   3  26   12.35    6.84   3
  -3   3  25   32.71    8.57   3
  -3   3  20   27.95    6.88   2
  -3   3  19    9.82    4.53   2
  -3   3  18    4.41    3.22   2
  -3   3  17   19.51    6.02   2
  -3   3  16   36.41    7.57   2
  -3   3  15   96.58   11.64   2
  -3   3  14  152.00   14.34   2
  -3   3  13   50.07    8.12   2
  -3   3  12  236.56   17.09   2
  -3  -3 -12  111.20    4.39   4
  -3   3  11  165.85   14.28   2
  -3  -3 -11  139.75    6.88   4
  -3   3  10  206.13   15.49   2
  -3  -3 -10  234.97    9.34   4
  -3   3   9  402.63   21.39   2
  -3  -3  -9  287.41   10.61   4
  -3   3   8   45.87    7.58   2
  -3  -3  -8   36.32    4.15   4
  -3   3   7   14.58    4.70   2
  -3  -3  -7   51.08    5.10   4
  -3   3   6   83.54    9.36   2
  -3  -3  -6  129.34    8.42   4
  -3   3   5   67.83    8.65   2
  -3  -3  -5  170.25   10.02   4
  -3  -3  -4  208.15   11.37   4
  -3   3   4  222.96   15.12   2
   3  -3   3   28.99    4.00   1
  -3   3   3   70.49    8.77   2
   3  -3   2   60.55    5.03   1
  -3   3   2   64.07    8.02   2
   3   3  -1   86.52    9.15   1
  -3   3   1   76.00    8.54   2
   3  -3   0   28.16    2.91   1
  -3   3   0   40.56    6.45   2
   3   3   1   63.96    8.16   1
   3  -3  -1   52.93    3.40   1
  -3   3  -1   72.39    8.34   2
   3   3   2   75.65    9.16   1
  -3   3  -2   89.55    9.14   2
   3   3   3   52.39    8.39   1
  -3   3  -3   68.33    8.17   2
   3   3   4  233.94   16.54   1
  -3   3  -4  241.16   15.40   2
   3   3   5  118.51   12.50   1
  -3   3  -5  174.75   13.10   2
   3   3   6   93.72   11.00   1
  -3   3  -6  131.18   11.49   2
  -3  -3   7   13.15    3.94   2
   3   3   7   24.98    6.30   1
   3   3   8   34.61    7.35   1
  -3  -3   8   41.37    7.48   2
  -3   3  -8   40.70    6.28   2
  -3  -3   9  445.06   20.94   2
   3   3   9  411.89   23.04   1
  -3  -3  10  203.95   14.05   2
   3   3  10  209.43   16.49   1
  -3  -3  11  174.28   12.51   2
   3   3  11  174.48   15.38   1
  -3  -3  12  230.79   14.35   2
   3   3  12  222.93   17.71   1
  -3  -3  13   50.42    7.20   2
   3   3  13   46.30    8.42   1
  -3  -3  14  168.21   12.61   2
   3   3  14  145.98   14.45   1
  -3  -3  15   97.16    9.39   2
   3   3  15  102.30   12.44   1
  -3  -3  16   41.84    6.22   2
   3   3  16   45.09    8.42   1
  -3  -3  17   18.74    4.12   2
   3   3  17   22.83    5.74   1
  -3  -3  18    2.58    2.22   2
   3   3  18    1.30    2.16   1
   3   3  19    9.09    3.86   1
  -3  -3  19   11.38    3.64   2
   3   3  20   24.20    6.45   1
  -3  -3  20   33.38    6.09   2
   3   3  21    6.31    2.93   1
   3   3  22   11.45    5.01   1
   3   3  23   39.62    8.57   1
   3   3  24   19.49    6.10   1
  -3  -3  25   36.91    8.60   4
   3   3  25   32.49    8.51   1
  -3  -3  26   16.64    5.79   4
   3   3  26   19.70    6.65   1
  -3  -3  27   26.54    7.79   4
   3   3  27   11.86    5.12   1
  -3  -3  28   12.94    5.01   4
   3   3  28   11.56    5.80   1
  -3  -3  29    8.96    4.83   4
   3   3  29    4.15    4.39   1
  -3   4  28    2.76    0.92   3
  -3   4  27   47.22   11.65   3
  -3   4  26   16.44    7.81   3
  -3   4  25   13.81    6.36   3
  -3   4  24    5.68    5.05   3
   3  -4  24    6.10    3.07   4
  -3   4  23    6.94    5.21   3
   3  -4  23    8.67    3.26   4
   3  -4  22    5.18    3.07   4
   3  -4  21    7.31    3.08   4
   3  -4  20   12.07    4.29   4
   3  -4  19   60.20    9.44   4
  -3   4  18   27.72    6.80   2
   3  -4  18   28.53    6.53   4
  -3   4  17   25.72    6.88   2
  -3   4  16   11.64    4.76   2
  -3   4  15   59.09    9.63   2
  -3   4  14  160.38   15.28   2
  -3   4  13  142.39   14.45   2
  -3   4  12   61.77    9.48   2
  -3  -4 -12   35.37    3.47   4
  -3   4  11   42.42    7.61   2
  -3  -4 -11   43.97    4.50   4
  -3   4  10   55.28    8.45   2
  -3  -4 -10   47.05    4.71   4
  -3   4   9   48.55    7.77   2
  -3  -4  -9   48.70    5.23   4
  -3   4   8   41.95    7.21   2
  -3  -4  -8   76.03    6.77   4
  -3   4   7   90.52   10.30   2
  -3  -4  -7  104.83    7.93   4
  -3   4   6   80.58    9.54   2
  -3  -4  -6   68.92    6.70   4
  -3   4   5   17.12    5.08   2
  -3  -4  -5   55.67    6.17   4
  -3   4   4   69.43    8.67   2
  -3  -4  -4  128.48    9.67   4
  -3   4   3   57.13    8.23   2
  -3  -4  -3  174.01   11.66   4
  -3   4   2  235.05   15.84   2
  -3  -4  -2  273.19   15.56   4
  -3   4   1  191.37   14.19   2
  -3  -4  -1  173.36   12.77   4
   3  -4   0  113.71    5.97   1
  -3  -4   0  163.85   12.81   4
   3   4   1  173.38   14.50   1
  -3   4  -1  154.23   12.41   2
  -3  -4   1  196.26   14.37   4
   3  -4  -2  121.20    4.80   1
   3   4   2  252.97   17.16   1
   3  -4  -2  110.66    3.78   1
  -3   4  -2  267.31   16.07   2
  -3  -4   2  224.48   15.89   4
   3   4   3  134.52   13.48   1
  -3   4  -3  174.25   13.10   2
   3   4   4   76.42   10.10   1
  -3  -4   4   64.85    9.03   4
  -3  -4   5   21.74    5.61   4
   3   4   5   26.50    7.25   1
   3   4   6   87.11   11.48   1
  -3   4  -6   92.22    9.73   2
  -3  -4   6   92.45   11.75   4
   3   4   7  103.90   13.03   1
  -3   4  -7  109.70   10.54   2
   3   4   8   54.67    9.62   1
  -3  -4   8   38.54    8.25   4
  -3  -4   8   43.77    6.87   2
   3   4   9   51.45    9.47   1
  -3  -4   9   40.23    7.97   4
  -3  -4   9   42.84    6.42   2
   3   4  10   59.38   10.32   1
  -3  -4  10   52.32    6.92   2
  -3   4 -10   54.29    7.49   2
  -3  -4  10   57.27   10.16   4
   3   4  11   52.58    9.84   1
  -3  -4  11   40.45    6.06   2
  -3   4 -11   48.53    7.28   2
  -3  -4  11   43.78    9.13   4
   3   4  12   74.85   11.66   1
  -3  -4  12   61.91    7.32   2
  -3   4 -12   60.21    8.17   2
  -3  -4  12   69.11   11.69   4
  -3  -4  13  153.58   11.29   2
  -3  -4  13  155.10   17.25   4
  -3   4 -13  147.66   12.57   2
   3   4  13  155.33   16.34   1
  -3  -4  14  169.21   11.67   2
  -3  -4  14  166.51   18.24   4
  -3   4 -14  160.93   12.97   2
   3   4  14  175.19   17.05   1
  -3  -4  15   52.06    6.39   2
  -3  -4  15   66.15   11.65   4
   3   4  15   63.67   10.46   1
  -3   4 -15   57.44    8.00   2
  -3  -4  16   12.83    3.04   2
  -3  -4  16   26.83    8.07   4
   3   4  16   19.93    6.17   1
  -3  -4  17   38.29    8.96   4
   3   4  17   32.19    7.90   1
  -3  -4  18   44.74   10.29   4
   3   4  18   29.75    7.01   1
   3   4  19   60.13   10.51   1
  -3  -4  19   59.57   12.01   4
  -3  -4  20   15.70    6.02   4
   3   4  20   14.64    5.75   1
  -3  -4  21    7.75    4.59   4
   3   4  21    7.59    3.52   1
  -3  -4  22    5.01    4.51   4
   3   4  22    3.34    2.16   1
  -3  -4  23    7.27    4.98   4
   3   4  23   10.22    3.91   1
  -3  -4  24   -0.51    2.79   4
   3   4  24    6.97    4.35   1
  -3  -4  25   16.07    6.16   4
   3   4  25   12.74    5.40   1
  -3  -4  26   28.36    8.07   4
   3   4  26   18.29    6.95   1
   3   4  27   53.24   11.00   1
  -3  -4  27   70.14   13.82   4
   3  -5  25   10.09    4.75   4
  -3   5  24    7.20    5.84   3
   3  -5  24   12.02    4.16   4
  -3   5  23    6.47    5.73   3
   3  -5  23    5.30    3.27   4
  -3   5  22    3.58    3.24   3
   3  -5  22   11.74    4.47   4
  -3   5  21    1.55    2.89   3
   3  -5  21    4.84    2.14   4
   3  -5  20   -2.35    2.81   4
   3  -5  19    4.81    3.64   4
   3  -5  18    2.28    2.22   4
   3  -5  17    3.77    3.08   4
   3  -5  16   26.01    6.71   4
   3  -5  15   18.89    5.81   4
  -3   5  15   15.81    5.17   2
  -3   5  14   13.74    5.26   2
  -3   5  13   46.96    8.73   2
  -3   5  12   55.90    9.82   2
  -3   5  11   26.00    6.52   2
  -3   5  10   58.11    9.13   2
  -3  -5 -10   63.83    6.93   4
  -3   5   9   35.95    7.59   2
  -3  -5  -9   44.71    5.80   4
  -3   5   8   49.67    8.22   2
  -3  -5  -8   39.57    5.39   4
  -3   5   7   12.34    4.42   2
  -3  -5  -7   16.40    3.48   4
  -3   5   6    4.49    2.93   2
  -3  -5  -6   29.81    4.84   4
  -3   5   5   42.58    7.19   2
  -3  -5  -5   66.28    7.26   4
  -3   5   4   40.74    7.09   2
  -3  -5  -4   71.85    7.90   4
  -3   5   3   81.12    9.82   2
  -3  -5  -3   97.20    9.38   4
  -3   5   2   43.46    7.36   2
  -3  -5  -2   95.17    9.74   4
  -3   5   1  143.83   12.78   2
  -3  -5  -1  156.13   12.85   4
  -3   5   0   77.33    9.66   2
  -3  -5   0   94.30   10.42   4
  -3   5  -1  162.48   13.71   2
  -3  -5   1  135.48   12.87   4
  -3   5  -2   94.80   10.46   2
  -3  -5   2   61.02    9.37   4
   3   5   3   83.16   11.31   1
  -3   5  -3  115.04   11.17   2
   3   5   4   56.75    9.37   1
  -3   5  -4   80.65    9.29   2
   3   5   5   44.25    8.22   1
  -3  -5   5   48.94    8.84   4
  -3  -5   6    1.70    2.72   4
   3   5   6   11.31    4.89   1
  -3  -5   7   13.43    5.82   4
  -3   5  -7   12.84    3.91   2
   3   5   7    9.06    4.81   1
   3   5   8   45.23    9.08   1
  -3   5  -8   45.00    6.88   2
  -3  -5   8   45.47    9.64   4
  -3  -5   8   46.61    6.98   2
  -3  -5   9   32.14    7.91   4
  -3  -5   9   25.96    5.42   2
   3   5   9   31.76    7.90   1
  -3   5  -9   35.20    6.05   2
   3   5  10   69.71   11.78   1
  -3   5 -10   55.85    7.55   2
  -3  -5  10   62.43    7.47   2
  -3  -5  10   67.45   12.19   4
   3   5  11   43.02    9.63   1
  -3  -5  11   33.84    8.91   4
  -3  -5  11   29.09    4.99   2
  -3   5 -11   36.03    6.42   2
   3   5  12   58.26   11.23   1
  -3   5 -12   52.19    7.67   2
  -3  -5  12   70.57   12.96   4
   3   5  13   59.71   11.53   1
  -3   5 -13   48.69    7.32   2
  -3  -5  13   55.47   11.80   4
  -3  -5  14   15.11    6.88   4
  -3   5 -14   10.81    3.80   2
   3   5  14   15.79    6.06   1
  -3  -5  15   26.05    8.14   4
  -3   5 -15   16.57    4.67   2
   3   5  15   19.72    6.92   1
  -3  -5  16   26.69    7.97   4
  -3   5 -16   22.81    5.01   2
   3   5  16   22.59    7.53   1
  -3   5 -17    1.67    0.45   2
   3   5  17    0.57    1.27   1
  -3  -5  18    7.20    5.08   4
  -3   5 -18    4.25    2.15   2
   3   5  18   -1.05    2.26   1
  -3  -5  19   12.34    6.59   4
   3   5  19    4.58    3.21   1
  -3   5 -19    2.02    1.98   2
  -3  -5  20   11.40    6.00   4
   3   5  20    3.98    4.38   1
  -3   5 -20    8.59    3.51   2
   3   5  21    6.65    3.24   1
  -3  -5  21   15.77    7.69   4
   3   5  22   12.33    5.42   1
  -3  -5  22   12.44    6.56   4
   3   5  23    7.66    4.26   1
  -3  -5  23    7.58    5.37   4
   3   5  24   14.14    5.66   1
  -3  -5  24   19.36    8.22   4
   3   5  25   15.97    5.96   1
   3  -6  25   -2.79    3.53   4
   3  -6  24    9.59    4.48   4
   3  -6  23    4.78    3.44   4
   3  -6  22   20.66    6.73   4
  -3   6  21    9.94    7.10   3
   3  -6  21   16.21    6.03   4
  -3   6  20    9.52    6.01   3
   3  -6  20    4.80    3.08   4
  -3   6  19   24.72    7.56   3
   3  -6  19   28.09    7.61   4
  -3   6  18   10.06    5.35   3
   3  -6  18   21.18    6.93   4
   3  -6  17    8.15    3.74   4
   3  -6  16   34.68    8.14   4
   3  -6  15   21.67    6.36   4
   3  -6  14   18.80    6.31   4
  -3   6  12   11.26    4.67   2
  -3   6  11   21.76    6.41   2
  -3   6  10   18.18    5.63   2
  -3   6   9   51.89    8.94   2
  -3   6   8   10.94    4.97   2
  -3   6   7   18.04    5.50   2
  -3  -6  -7   22.51    4.97   4
  -3   6   6    8.90    3.77   2
  -3  -6  -6   24.15    5.03   4
  -3   6   5   12.07    4.56   2
  -3  -6  -5   34.64    5.83   4
  -3   6   4   23.42    5.90   2
  -3  -6  -4   37.20    6.08   4
  -3   6   3   37.87    7.07   2
  -3  -6  -3   41.24    6.77   4
  -3   6   2   22.65    5.71   2
  -3  -6  -2   21.34    4.97   4
  -3   6   1   25.25    5.67   2
  -3  -6  -1   23.89    5.16   4
  -3   6   0   11.13    4.15   2
  -3  -6   0   15.19    4.41   4
  -3   6  -1   24.31    5.46   2
  -3  -6   1   20.82    5.37   4
  -3   6  -2   19.05    4.80   2
  -3  -6   2   21.14    5.68   4
  -3  -6   3   36.05    7.75   4
  -3   6  -3   38.29    6.67   2
  -3  -6   4   22.08    6.59   4
  -3   6  -4   34.27    6.30   2
  -3   6  -5   26.59    5.74   2
  -3  -6   5   14.20    5.75   4
  -3   6  -6   14.28    4.43   2
  -3  -6   6    6.87    2.85   4
   3   6   6   11.03    4.87   1
  -3   6  -7   19.04    4.41   2
  -3  -6   7   21.80    6.11   4
   3   6   7   20.80    6.43   1
  -3  -6   8   19.72    7.25   4
  -3   6  -8   13.94    4.77   2
   3   6   8    7.34    5.03   1
  -3  -6   9   49.64   10.10   4
   3   6   9   41.38    9.09   1
  -3   6  -9   57.36    8.09   2
  -3  -6  10   23.76    7.93   4
   3   6  10   30.72    8.29   1
  -3   6 -10   31.75    6.25   2
  -3  -6  11   22.93    7.25   4
  -3   6 -11   15.43    4.31   2
   3   6  11   20.01    7.09   1
  -3  -6  12   12.78    5.84   4
  -3   6 -12    9.02    3.65   2
   3   6  12   11.17    6.47   1
  -3  -6  13   24.22    8.32   4
  -3   6 -13   18.41    4.57   2
   3   6  13   28.95    8.70   1
  -3  -6  14   33.09    9.75   4
  -3   6 -14   22.78    5.46   2
   3   6  14   20.76    7.38   1
  -3  -6  15   33.40    9.50   4
   3   6  15   28.00    8.87   1
   3   6  16   37.18   10.52   1
  -3  -6  16   46.27   11.32   4
  -3  -6  17   13.67    7.31   4
   3   6  17    7.64    5.25   1
  -3  -6  18   28.88   10.49   4
   3   6  18   15.55    7.01   1
  -3  -6  19   29.47    9.05   4
   3   6  19   32.99    9.62   1
  -3  -6  20   14.67    8.03   4
   3   6  20   17.67    6.43   1
  -3  -6  21   32.21   10.57   4
   3   6  21    7.97    5.48   1
   3  -7  19   -1.94    3.31   4
   3  -7  18    6.84    3.49   4
  -3   7  17   39.29    8.75   3
   3  -7  17   31.68    8.66   4
  -3   7  16   17.14    6.42   3
   3  -7  16    5.75    4.37   4
  -3   7  15   31.01    7.98   3
   3  -7  15   38.86    9.39   4
  -3   7   7   47.74    9.13   2
  -3   7   6   22.44    6.90   2
  -3  -7  -5   31.58    6.36   4
  -3   7   5   14.25    5.21   2
  -3   7   4   41.23    7.99   2
  -3  -7  -4   46.14    7.57   4
  -3  -7  -3   19.82    5.16   4
  -3   7   3   25.43    6.81   2
  -3   7   2   17.06    5.57   2
  -3  -7  -2   30.80    6.29   4
  -3   7   1   21.09    6.09   2
  -3  -7  -1   34.55    6.69   4
  -3   7   0   55.37    8.87   2
  -3  -7   0   43.08    7.64   4
  -3  -7   1   21.02    5.80   4
  -3   7  -1   35.34    7.15   2
  -3  -7   2   22.04    5.96   4
  -3   7  -2   40.47    7.68   2
  -3   7  -3   25.02    6.09   2
  -3  -7   3   33.35    7.98   4
  -3  -7   4   36.60    7.57   4
  -3   7  -4   50.13    8.28   2
  -3   7  -5   29.87    6.49   2
  -3  -7   5   16.98    5.24   4
  -3   7  -6   27.40    6.30   2
  -3  -7   6   29.70    7.61   4
  -3  -7   7   45.92    9.32   4
  -3   7  -7   52.71    8.17   2
  -3  -7   8   37.92    8.48   4
  -3   7  -8   48.78    7.87   2
  -3  -7   9   28.09    7.86   4
  -3  -7  10   10.76    4.91   4
   3   7  10   19.76    7.21   1
  -3  -7  11   22.79    7.96   4
   3   7  11   15.44    6.48   1
  -3  -7  12   23.10    8.21   4
   3   7  12   23.79    8.10   1
   3   7  13   14.87    6.43   1
  -3  -7  13   13.77    6.30   4
  -3  -7  14   19.91    8.96   4
   3   7  14   21.98    7.77   1
  -3  -7  15   23.26    8.08   4
   3   7  15   38.83   10.57   1
   3   7  16   17.28    7.95   1
  -3  -7  16   12.41    6.76   4
  -3   8  11   35.83    8.27   3
  -3   8  10   27.63    7.39   3
  -3   8   9   77.12   11.96   3
  -3  -8  -1   17.53    5.19   4
  -3  -8   0   21.43    5.99   4
  -3  -8   1   28.92    7.04   4
  -3   8  -1   20.96    5.87   2
  -3  -8   2   40.88    8.08   4
  -3  -8   3   12.84    5.09   4
  -3  -8   4   11.25    5.61   4
  -3  -8   5   28.39    7.51   4
  -3  -8   6    5.19    3.75   4
  -3  -8   7   14.49    6.46   4
  -3  -8   8   55.21   11.22   4
  -3  -8   9   80.27   14.46   4
  -3  -8  10   41.67   11.13   4
  -3  -8  11   37.80   10.73   4
   4   0   0   67.82    7.59   1
  -4   0   0   42.77    6.50   2
   4   0   1   67.34    7.41   1
  -4   0   1   55.76    7.68   2
   4   0  -2  141.38   10.58   1
  -4   0   2   86.78   10.29   2
  -4   0   3  201.79   15.17   2
   4   0   3  199.75   12.77   1
  -4   0   4   87.36    9.91   1
  -4   0   4   68.48    9.30   2
  -4   0   5   32.12    6.12   2
  -4   0   5   40.85    6.43   1
   4   0   5   44.52    6.33   1
  -4   0   6   18.62    4.86   2
  -4   0   6   26.30    4.68   1
   4   0   6   27.81    5.13   1
  -4   0   7    4.09    3.26   2
   4   0   7    1.74    0.62   1
  -4   0   8    2.13    2.45   2
   4   0   8    0.72    1.46   1
  -4   0   9   15.86    5.80   2
   4   0   9    5.38    2.69   1
   4   0  10  100.19   10.59   1
  -4   0  10  137.07   14.08   2
   4   0  11  193.88   15.37   1
  -4   0  11  206.92   17.69   2
   4   0  12   42.64    7.77   1
  -4   0  12   38.88    7.72   2
  -4   0  13    0.96    1.84   2
   4   0  13    6.46    4.04   1
  -4   0  14    6.42    3.36   2
   4   0  14    4.62    2.15   1
   4   0  15    4.27    2.72   1
  -4   0  15    3.68    1.77   2
   4   0  16    2.53    1.99   1
  -4   0  16    3.34    2.76   2
   4   0  17    0.52    2.15   1
  -4   0  17   -0.06    2.25   2
   4   0  18    2.29    1.47   1
  -4   0  18    0.24    1.96   2
   4   0  19   24.15    6.31   1
  -4   0  19   29.57    7.48   2
   4   0  20   18.37    6.22   1
  -4   0  20   12.32    5.80   2
  -4   0  21   86.51   13.14   2
   4   0  21   89.21   14.21   1
  -4   0  22   34.41    8.51   2
   4   0  22   36.25    9.46   1
   4   0  23   33.38    9.07   1
  -4   0  23   28.22    7.59   2
  -4   0  24    6.85    4.40   2
   4   0  24   12.81    6.10   1
   4   0  25    5.16    3.94   1
   4   0  26    6.75    4.29   1
   4   0  27    8.83    5.04   1
  -4   0  29   36.37    9.13   3
  -4   0  30   -0.08    2.35   3
  -4   1  30   16.10    6.46   3
  -4   1  29   22.38    8.37   3
   4  -1  27   11.29    5.36   1
   4  -1  26   15.04    6.22   1
   4  -1  25    9.57    4.36   1
  -4   1  24   16.73    6.43   2
   4  -1  24   17.94    6.54   1
   4  -1  23    9.31    4.22   1
  -4   1  23    7.60    4.64   2
   4  -1  22   17.58    5.81   1
  -4   1  22   20.69    6.66   2
  -4   1  21   10.97    6.04   2
   4  -1  21    6.06    4.05   1
  -4   1  20   40.03    9.40   2
   4  -1  20   33.11    8.42   1
  -4   1  19   12.62    5.40   2
   4  -1  19    6.88    3.92   1
  -4   1  18   12.77    5.66   2
   4  -1  18   17.83    6.41   1
  -4   1  17   20.95    6.57   2
   4  -1  17   13.27    4.98   1
  -4   1  16    5.19    3.49   2
   4  -1  16    4.09    3.11   1
  -4   1  15   21.67    6.18   2
   4  -1  15   15.28    4.92   1
  -4   1  14   12.99    5.19   2
   4  -1  14   11.33    4.53   1
   4  -1  13   44.80    7.98   1
  -4   1  13   48.08    8.93   2
   4  -1  12   83.03   10.10   1
  -4   1  12  111.07   13.47   2
   4  -1  11   62.27    8.38   1
  -4   1  11   80.89   11.52   2
   4  -1  10   87.86    9.75   1
  -4   1  10  101.50   12.44   2
   4  -1   9   82.81    9.28   1
  -4   1   9  107.56   12.70   2
   4  -1   8   79.58    8.77   1
  -4   1   8  103.50   12.15   2
   4  -1   7   27.17    5.30   1
  -4   1   7   32.20    7.26   2
   4  -1   6   47.32    6.29   1
  -4   1   6   36.67    7.07   2
   4  -1   5  104.35    8.98   1
  -4   1   5  112.75   12.00   2
   4  -1   4   38.17    5.30   1
  -4   1   4   53.07    8.68   2
  -4   1   3   36.82    7.07   2
   4  -1   3   43.98    5.56   1
   4   1  -2   74.63    8.44   1
  -4   1   2   60.03    8.65   2
   4  -1   2   66.68    6.55   1
   4   1  -1   63.14    7.64   1
  -4   1   1   41.31    7.25   2
   4  -1   1   75.57    7.13   1
   4  -1   0  139.73    9.46   1
   4   1   0  128.32   10.79   1
  -4   1   0  110.92   11.05   2
   4  -1  -1   59.22    6.26   1
   4   1   1   92.68    9.57   1
  -4   1  -1   66.92    8.37   2
   4   1   2   87.32    9.45   1
   4  -1  -2   76.25    6.92   1
  -4   1  -2   77.08    8.66   2
   4   1   3   51.73    7.51   1
  -4  -1   3   30.64    5.78   2
   4   1   4   45.15    7.50   1
  -4  -1   4   48.48    7.79   2
  -4  -1   5  112.36   11.54   2
   4   1   5  121.50   11.46   1
  -4  -1   6   34.78    7.17   2
   4   1   6   55.68    7.99   1
  -4  -1   7   37.18    7.11   2
   4   1   7   29.25    6.02   1
  -4  -1   8   93.08   11.16   2
   4   1   8   78.73    9.40   1
  -4  -1   9   99.97   11.59   2
   4   1   9   83.39   10.10   1
  -4  -1  10   98.36   11.76   2
   4   1  10   96.48   10.99   1
  -4  -1  11   75.31   10.47   2
   4   1  11   62.54    9.17   1
  -4  -1  12   91.62   11.59   2
   4   1  12   85.97   10.75   1
  -4  -1  13   36.81    7.39   2
   4   1  13   38.54    7.43   1
  -4  -1  14    8.05    3.78   2
   4   1  14    6.36    2.85   1
  -4  -1  15   16.59    5.05   2
   4   1  15   11.94    4.55   1
  -4  -1  16    2.21    3.03   2
   4   1  16    1.61    2.19   1
  -4  -1  17   12.48    5.13   2
   4   1  17   21.47    5.76   1
  -4  -1  18   14.36    4.75   2
   4   1  18   15.34    5.40   1
  -4  -1  19    9.18    4.30   2
   4   1  19    7.67    3.83   1
   4   1  20   31.25    7.66   1
  -4  -1  20   41.57    8.98   2
  -4  -1  21   13.42    5.78   2
   4   1  21    6.76    4.31   1
  -4  -1  22   23.34    7.34   2
   4   1  22   21.61    6.92   1
   4   1  23    5.40    4.72   1
  -4  -1  23    9.09    5.08   2
   4   1  24   19.32    6.62   1
  -4  -1  24   13.18    5.56   2
   4   1  25   15.54    6.52   1
   4   1  26   14.95    6.50   1
   4  -2  27   16.30    5.17   1
   4  -2  26   11.64    4.91   1
   4  -2  25    9.93    3.77   1
   4  -2  24    3.05    3.31   1
  -4   2  23    5.28    4.56   2
   4  -2  23    0.22    1.47   1
   4  -2  22   18.96    5.91   1
  -4   2  22   28.93    8.51   2
  -4   2  21    6.34    5.01   2
   4  -2  21    4.90    3.26   1
  -4   2  20    9.07    4.94   2
   4  -2  20    4.88    2.83   1
  -4   2  19   18.82    6.99   2
   4  -2  19   14.69    5.20   1
  -4   2  18   23.27    6.98   2
   4  -2  18   16.64    4.92   1
  -4   2  17    6.66    4.27   2
   4  -2  17    3.32    2.08   1
  -4   2  16    8.36    4.79   2
   4  -2  16    6.27    3.05   1
   4  -2  15   87.82   11.37   1
  -4   2  15  101.77   13.59   2
  -4   2  14   11.34    5.54   2
   4  -2  14   11.70    4.39   1
  -4   2  13   18.05    6.15   2
   4  -2  13   14.22    4.16   1
   4  -2  12   44.15    7.35   1
  -4   2  12   56.35    9.66   2
  -4   2  11   15.91    5.43   2
   4  -2  11   12.17    4.11   1
  -4   2  10   28.86    6.95   2
   4  -2  10   31.98    6.29   1
   4  -2   9   66.72    8.17   1
  -4   2   9   80.91   11.16   2
   4  -2   8   65.60    7.79   1
  -4   2   8   72.65   10.24   2
   4  -2   7   94.84    8.61   1
  -4   2   7  119.76   13.04   2
   4  -2   6   49.18    6.16   1
  -4   2   6   60.99    9.68   2
   4  -2   5   67.36    6.85   1
  -4   2   5   86.19   10.87   2
   4  -2   4   44.75    5.19   1
  -4   2   4   63.01    9.17   2
   4  -2   3   38.94    4.72   1
  -4   2   3   51.79    8.31   2
   4  -2   2   21.35    3.43   1
  -4   2   2   33.46    6.94   2
   4   2  -1   40.62    6.85   1
  -4   2   1   27.41    6.37   2
   4  -2   1   40.74    4.40   1
   4   2   0   66.89    8.38   1
  -4   2   0   72.55    9.40   2
   4  -2   0   60.69    5.50   1
   4   2   1   52.65    7.63   1
  -4   2  -1   51.78    8.13   2
   4   2   2   35.19    6.73   1
   4  -2  -2   36.07    4.02   1
  -4   2  -2   35.14    6.56   2
   4   2   3   56.95    8.42   1
  -4   2  -3   46.73    7.31   2
   4   2   4   63.76    9.12   1
  -4   2  -4   60.26    8.06   2
  -4  -2   4   51.70    7.74   2
   4   2   5   93.08   11.07   1
  -4  -2   5   69.27    9.06   2
  -4   2  -5   78.14    9.01   2
   4   2   6   64.68    9.77   1
  -4  -2   6   57.14    9.15   2
  -4   2  -6   69.54    8.54   2
   4   2   7  126.11   13.24   1
  -4  -2   7  125.46   12.80   2
  -4  -2   8   63.09    9.19   2
   4   2   8   76.77   10.46   1
  -4  -2   9   71.52    9.52   2
   4   2   9   73.59   10.18   1
  -4  -2  10   27.81    5.94   2
   4   2  10   30.12    6.51   1
  -4  -2  11   12.48    4.62   2
   4   2  11   15.61    5.12   1
  -4  -2  12   54.58    8.40   2
   4   2  12   48.02    8.53   1
  -4  -2  13   10.42    3.74   2
   4   2  13   14.42    5.18   1
  -4  -2  14   13.27    4.51   2
   4   2  14   15.70    5.24   1
  -4  -2  15   93.71   11.67   2
   4   2  15   89.35   11.95   1
  -4  -2  16    8.03    3.70   2
   4   2  16    7.39    4.59   1
  -4  -2  17    4.16    2.58   2
   4   2  17   12.37    4.67   1
  -4  -2  18   18.45    5.46   2
   4   2  18   23.87    6.38   1
  -4  -2  19   20.23    5.90   2
   4   2  19    9.80    4.09   1
  -4  -2  20    8.49    4.48   2
   4   2  20    2.83    1.37   1
  -4  -2  21   13.68    6.04   2
   4   2  21    2.90    2.59   1
  -4  -2  22   28.70    7.91   2
   4   2  22   30.33    8.08   1
   4   2  23   -1.24    1.85   1
  -4  -2  23   13.41    5.97   2
   4   2  24    9.87    4.92   1
   4   2  25   14.61    6.16   1
   4  -3  26    9.88    4.50   1
   4  -3  25    8.14    3.23   1
   4  -3  24   11.84    4.63   1
   4  -3  23   23.56    6.62   1
  -4   3  22    6.33    4.51   2
   4  -3  22   11.29    4.65   1
   4  -3  21   10.34    4.51   1
  -4   3  21    7.61    5.76   2
   4  -3  20   22.43    6.42   1
  -4   3  20   31.61    9.41   2
   4  -3  19   65.61   10.62   1
  -4   3  19   70.44   13.52   2
  -4   3  18   37.05    9.33   2
   4  -3  18   35.35    8.33   1
   4  -3  17   39.96    8.27   1
  -4   3  17  101.81   23.13   2
   4  -3  16  188.42   16.83   1
  -4   3  16  199.78   20.04   2
   4  -3  15   41.46    7.92   1
  -4   3  15   50.16   10.30   2
  -4   3  14   26.81    7.75   2
   4  -3  14   26.52    6.38   1
   4  -3  13  159.56   14.28   1
  -4   3  13  170.52   17.68   2
  -4   3  12   33.63    8.27   2
   4  -3  12   17.53    4.72   1
  -4   3  11   27.40    6.82   2
   4  -3  11   19.13    4.56   1
  -4   3  10   12.44    4.77   2
   4  -3  10   13.47    3.97   1
   4  -3   9   36.56    5.88   1
  -4   3   9   40.45    7.95   2
  -4  -3  -9   58.25    5.92   4
   4  -3   8   72.99    8.00   1
  -4   3   8   84.59   11.53   2
  -4  -3  -8   83.63    7.35   4
  -4   3   7   27.74    7.06   2
   4  -3   7   30.80    5.17   1
   4  -3   6   84.14    7.86   1
  -4   3   6  111.40   12.62   2
   4  -3   5   23.14    3.75   1
  -4   3   5   49.71    8.40   2
   4  -3   4   15.13    3.03   1
  -4   3   4   18.34    5.43   2
  -4   3   3   22.73    5.97   2
   4  -3   3   56.96    5.37   1
   4  -3   2  123.31    7.13   1
  -4   3   2  171.34   14.74   2
  -4   3   1  151.64   13.98   2
   4   3   0  121.66   12.56   1
  -4   3   0   82.77   10.54   2
   4   3   1  135.73   13.06   1
  -4   3  -1  118.07   12.29   2
   4   3   2  196.09   15.54   1
  -4   3  -2  190.62   15.29   2
   4   3   3  112.52   12.55   1
  -4   3  -3  119.80   12.13   2
   4   3   4   36.29    7.82   1
  -4   3  -4   81.20   10.19   2
   4   3   5   45.22    8.84   1
  -4  -3   5   49.73    8.61   2
   4   3   6  127.55   14.36   1
  -4   3  -6  108.28   11.60   2
  -4  -3   6  106.50   11.99   2
   4   3   7   58.60   10.21   1
  -4   3  -7   63.05    8.89   2
   4   3   8   81.42   11.98   1
  -4  -3   8  104.89   12.58   2
  -4   3  -8   83.24   10.09   2
   4   3   9   55.95    9.98   1
  -4  -3   9   48.03    8.50   2
  -4   3  -9   54.00    8.05   2
  -4  -3  10   13.23    4.82   2
  -4   3 -10   16.55    4.64   2
   4   3  10   14.55    5.59   1
  -4  -3  11   23.59    5.80   2
   4   3  11   23.19    6.22   1
  -4   3 -11   18.26    4.50   2
   4   3  12   25.85    7.10   1
  -4  -3  12   24.12    6.44   2
  -4  -3  13  178.94   15.57   2
   4   3  13  172.31   17.22   1
  -4  -3  14   22.99    6.15   2
   4   3  14   36.19    8.89   1
  -4  -3  15   51.79    8.81   2
   4   3  15   53.55   10.29   1
  -4  -3  16  203.37   17.10   2
   4   3  16  187.32   18.72   1
  -4  -3  17   42.36    7.88   2
   4   3  17   46.97    9.70   1
  -4  -3  18   37.62    7.20   2
   4   3  18   40.30    9.03   1
   4   3  19   79.76   12.83   1
   4   3  20   22.52    7.28   1
   4   3  21    9.16    5.03   1
   4   3  22   15.50    6.16   1
   4   3  23   28.31    8.02   1
   4   3  24   18.56    6.73   1
   4  -4  25    6.96    4.32   1
   4  -4  24    0.92    2.26   1
   4  -4  23    4.42    2.87   1
   4  -4  22   16.23    5.33   1
   4  -4  21    9.65    4.34   1
  -4   4  21    8.58    7.24   2
   4  -4  20   10.42    4.47   1
  -4   4  20   12.14    6.12   2
   4  -4  19    7.74    3.92   1
  -4   4  19   10.05    6.57   2
   4  -4  18   20.77    5.72   1
  -4   4  18   30.59    8.71   2
  -4   4  17   34.25    9.05   2
   4  -4  17   39.19    7.94   1
  -4   4  16   26.32    7.96   2
   4  -4  16   21.40    6.03   1
   4  -4  15   52.33    8.61   1
  -4   4  15   63.19   11.24   2
  -4   4  14   28.37    7.60   2
   4  -4  14   19.68    5.47   1
  -4   4  13   23.51    6.87   2
   4  -4  13   22.57    5.76   1
  -4   4  12   29.94    7.64   2
   4  -4  12   29.88    6.42   1
   4  -4  11   42.35    7.13   1
  -4   4  11   54.40    9.54   2
   4  -4  10   28.40    5.47   1
  -4   4  10   39.72    8.02   2
  -4   4   9   13.34    5.31   2
   4  -4   9    9.69    3.13   1
  -4   4   8   17.91    4.99   2
   4  -4   8   14.22    3.36   1
  -4   4   7   18.34    5.57   2
   4  -4   7   13.43    3.22   1
  -4  -4  -7   30.16    5.06   4
  -4   4   6   10.96    4.07   2
  -4  -4  -6   36.45    5.43   4
  -4   4   5   46.51    8.42   2
  -4  -4  -5   54.18    7.07   4
  -4   4   4   20.01    5.66   2
  -4  -4  -4   28.49    5.50   4
  -4   4   3   24.13    5.94   2
  -4  -4  -3   33.58    5.77   4
  -4   4   2   22.58    5.55   2
  -4  -4  -2   44.55    6.81   4
  -4   4   1   47.76    8.29   2
  -4  -4  -1   54.24    7.45   4
  -4   4   0   45.79    8.01   2
  -4  -4   0   43.31    7.01   4
  -4   4  -1   65.43    9.42   2
  -4  -4   1   37.71    6.51   4
   4   4   2   45.86    8.13   1
  -4   4  -2   49.43    7.98   2
   4   4   3   30.73    7.12   1
  -4   4  -3   41.03    7.28   2
  -4  -4   4   16.32    4.51   4
   4   4   4   22.98    6.40   1
  -4   4  -4   31.69    6.57   2
  -4  -4   5   29.55    6.43   4
   4   4   5   52.86    9.16   1
  -4   4  -5   49.95    8.03   2
  -4  -4   6   14.46    4.68   4
  -4  -4   6   16.86    6.01   2
   4   4   6   29.97    7.78   1
  -4   4  -6   36.71    7.15   2
  -4  -4   7   16.27    5.38   4
  -4   4  -7   24.03    5.90   2
  -4  -4   7   20.90    6.32   2
   4   4   7   20.77    6.28   1
  -4  -4   8   16.78    5.32   4
   4   4   8   28.16    7.77   1
  -4   4  -8   22.72    5.45   2
  -4  -4   8   23.88    6.44   2
   4   4   9   17.84    6.94   1
  -4  -4   9   18.53    5.74   4
  -4  -4   9   22.91    6.82   2
  -4   4  -9   17.96    5.07   2
  -4  -4  10   31.98    7.92   4
  -4  -4  10   46.80    8.76   2
  -4   4 -10   37.96    7.50   2
   4   4  10   37.24    8.51   1
   4   4  11   55.55   10.93   1
  -4  -4  11   48.73    9.82   4
  -4  -4  11   60.31    9.56   2
  -4   4 -11   49.26    8.38   2
  -4  -4  12   32.82    7.15   2
  -4  -4  12   40.69    9.50   4
   4   4  12   34.16    9.07   1
  -4   4 -12   36.49    7.32   2
  -4  -4  13   32.18    6.90   2
  -4  -4  13   36.39    9.01   4
  -4   4 -13   26.08    5.75   2
   4   4  13   31.38    8.58   1
  -4  -4  14   44.39   10.48   4
  -4   4 -14   26.16    5.94   2
   4   4  14   26.53    8.09   1
   4   4  15   63.55   11.98   1
  -4  -4  15   73.49   13.84   4
  -4   4 -15   51.41    8.61   2
  -4  -4  16   30.66    9.51   4
   4   4  16   36.05    9.51   1
  -4   4 -16   22.89    6.22   2
  -4  -4  17   62.11   12.84   4
   4   4  17   47.82   10.39   1
  -4   4 -17   39.63    7.62   2
   4   4  18   36.83    9.11   1
  -4  -4  18   48.34   12.04   4
  -4   4 -18   25.57    6.35   2
   4   4  19   12.81    5.99   1
  -4  -4  19   20.63    8.71   4
  -4   4 -19    8.35    3.61   2
   4   4  20   12.90    5.60   1
  -4  -4  20   22.86    8.05   4
  -4   4 -20    9.12    4.16   2
   4   4  21   15.05    5.80   1
  -4  -4  21   21.32    8.40   4
  -4   5  17   12.56    5.52   2
  -4   5  16   14.05    6.12   2
  -4   5  15    6.76    4.59   2
  -4   5  14    5.85    4.65   2
  -4   5  13   20.24    6.66   2
  -4   5  12   11.49    5.43   2
  -4   5  11   12.45    5.07   2
  -4   5  10   13.63    5.56   2
  -4   5   9   20.56    6.40   2
  -4   5   8   99.05   12.81   2
  -4   5   7   55.14    9.83   2
  -4   5   6   34.41    7.48   2
  -4   5   5   17.23    5.46   2
  -4   5   4   33.81    7.27   2
  -4  -5  -4   31.89    5.51   4
  -4   5   3   24.02    6.47   2
  -4  -5  -3   20.54    4.82   4
  -4   5   2   23.45    6.17   2
  -4  -5  -2   19.73    4.92   4
  -4   5   1   23.35    6.10   2
  -4  -5  -1   21.89    5.16   4
  -4   5   0   24.42    6.23   2
  -4  -5   0   14.17    3.94   4
  -4   5  -1   25.18    6.06   2
  -4  -5   1   18.42    5.02   4
  -4  -5   2   19.88    5.40   4
  -4   5  -2   25.07    6.25   2
  -4  -5   3   24.52    6.37   4
  -4   5  -3   27.67    6.38   2
  -4  -5   4   29.55    7.13   4
  -4   5  -4   42.45    7.72   2
   4   5   4   28.10    7.16   1
   4   5   5   25.75    7.47   1
  -4  -5   5   19.04    5.80   4
  -4   5  -5   23.21    5.57   2
  -4  -5   6   33.47    7.84   4
   4   5   6   31.73    8.35   1
  -4   5  -6   31.44    6.51   2
  -4  -5   6   38.41    9.44   2
   4   5   7   55.26   11.01   1
  -4   5  -7   55.88    8.98   2
  -4  -5   7   44.40    9.04   4
  -4  -5   7   59.43   11.77   2
   4   5   8  113.23   15.25   1
  -4   5  -8   95.70   11.51   2
  -4  -5   8  136.92   16.94   2
  -4  -5   8   90.78   13.18   4
  -4  -5   9   20.02    7.21   4
   4   5   9   43.33   10.99   1
  -4   5  -9   34.22    7.08   2
  -4  -5  10   11.29    5.18   4
  -4   5 -10   12.11    4.06   2
   4   5  10   21.92    7.66   1
  -4  -5  11   14.45    5.87   4
  -4   5 -11   12.74    4.25   2
   4   5  11   15.17    6.66   1
  -4  -5  12   10.16    4.74   4
  -4   5 -12   14.21    4.92   2
   4   5  12   13.36    6.50   1
   4   5  13    9.52    5.90   1
  -4  -5  13   20.52    7.22   4
  -4   5 -13   12.59    4.13   2
  -4  -5  14    3.84    3.65   4
  -4   5 -14    6.06    3.20   2
   4   5  14    2.37    2.25   1
  -4  -5  15    7.26    5.26   4
  -4   5 -15    7.07    3.65   2
   4   5  15    4.97    3.64   1
  -4  -5  16   16.24    7.89   4
  -4   5 -16   10.75    4.00   2
   4   5  16    8.76    3.21   1
  -4  -5  17   13.81    5.96   4
  -4   5 -17    8.87    4.19   2
   4   5  17   13.89    6.66   1
  -4  -5  18    6.93    6.14   4
  -4   5 -18    6.34    3.17   2
   4   5  18    6.55    4.51   1
  -4  -5  19   10.09    6.37   4
  -4   5 -19   15.51    5.39   2
  -4   6  13    9.91    5.20   2
  -4   6  12    8.19    5.28   2
  -4   6  11   50.73   10.03   2
  -4   6  10   53.68   10.22   2
  -4   6   9   14.76    6.48   2
  -4   6   8   30.11    7.81   2
  -4   6   7   31.91    7.87   2
  -4   6   6   48.53    9.08   2
  -4   6   5   19.84    6.59   2
  -4   6   4   35.69    7.86   2
  -4   6   3   27.20    7.03   2
  -4   6   2   15.49    5.54   2
  -4   6   1   12.37    4.86   2
  -4  -6  -1    7.78    3.02   4
  -4   6   0   18.93    5.41   2
  -4  -6   0   20.70    4.95   4
  -4   6  -1   13.59    4.58   2
  -4  -6   1    6.38    4.00   4
  -4   6  -2   13.42    5.16   2
  -4  -6   2   21.04    5.88   4
  -4   6  -3   27.05    6.75   2
  -4  -6   3   32.61    7.86   4
  -4   6  -4   38.60    7.55   2
  -4  -6   4   32.86    8.05   4
  -4  -6   5   28.89    7.97   4
  -4   6  -5   35.04    7.42   2
  -4  -6   6   43.17    9.01   4
  -4   6  -6   49.92    8.95   2
  -4  -6   7   28.16    7.73   4
   4   6   7   48.90   10.82   1
  -4   6  -7   38.68    8.07   2
  -4  -6   8   23.10    7.14   4
  -4   6  -8   32.91    7.17   2
   4   6   8   34.31    9.33   1
  -4  -6   9   17.23    6.51   4
  -4   6  -9   18.01    5.74   2
   4   6   9   15.56    6.75   1
  -4  -6  10   51.98   10.85   4
  -4   6 -10   46.34    8.15   2
   4   6  10   41.54    9.97   1
  -4  -6  11   47.18   10.53   4
   4   6  11   60.11   12.54   1
  -4   6 -11   53.46    9.16   2
  -4  -6  12    6.57    4.13   4
  -4   6 -12   14.47    5.51   2
  -4  -6  13    7.87    6.52   4
  -4   6 -13    4.18    2.99   2
  -4  -6  14    2.33    2.97   4
  -4  -6  15   21.58    7.99   4
  -4   7   7   24.72    7.10   2
  -4   7   6   37.61    8.67   2
  -4   7   5   77.74   11.89   2
  -4   7   4   40.38    9.36   2
  -4   7   3   42.90    9.37   2
  -4   7   2   25.19    7.15   2
  -4   7   1   21.57    6.27   2
  -4   7   0   10.72    4.04   2
  -4   7  -1   13.71    5.23   2
  -4   7  -2   25.13    6.33   2
  -4  -7   2   23.86    6.72   4
  -4   7  -3   26.55    6.36   2
  -4  -7   3   24.57    7.18   4
  -4   7  -4   32.79    7.68   2
  -4  -7   4   29.21    7.75   4
  -4   7  -5   61.32   10.03   2
  -4  -7   5   66.29   11.68   4
  -4  -7   6   35.20    8.28   4
  -4   7  -6   42.46    8.58   2
  -4   7  -7   27.03    6.69   2
  -4  -7   7   27.00    7.98   4
  -4  -7   8   17.12    6.61   4
  -4  -7   9   25.72    8.17   4
  -4  -7  10   25.78    9.12   4
  -5   0   0   18.48    5.69   2
   5   0   1   37.96    5.93   1
  -5   0  -1   24.57    5.99   2
  -5   0   1   34.92    7.32   2
   5   0   2   40.11    6.53   1
  -5   0   2   46.08    8.31   2
  -5   0  -2   25.65    6.21   2
   5   0   3   64.51    8.48   1
  -5   0   3   61.89    9.76   2
  -5   0  -3   48.74    8.17   2
   5   0   4  118.64   11.57   1
  -5   0   4   93.90   11.33   2
   5   0   5   58.27    8.23   1
  -5   0   5   33.86    7.64   2
   5   0   6   62.28    8.65   1
  -5   0   6   51.53    8.75   2
  -5   0   7   56.88    9.14   2
   5   0   7   80.46    9.92   1
   5   0   8   25.82    5.66   1
  -5   0   8    8.54    3.84   2
  -5   0   9    9.53    4.05   2
   5   0   9   12.39    4.27   1
  -5   0  10   27.60    6.99   2
   5   0  10   21.25    5.26   1
  -5   0  11   25.52    6.73   2
   5   0  11   20.16    5.07   1
  -5   0  12   11.18    5.39   2
   5   0  12   10.87    4.48   1
  -5   0  13   19.34    6.40   2
   5   0  13   10.32    4.28   1
  -5   0  14   15.18    5.32   2
   5   0  14   13.89    4.61   1
  -5   0  15   13.47    5.26   2
   5   0  15    6.87    3.68   1
  -5   0  16   -0.60    1.54   2
   5   0  16    0.35    1.57   1
  -5   0  17   58.55   11.13   2
   5   0  17   47.02    9.10   1
  -5   0  18   23.40    7.90   2
   5   0  18   23.56    6.67   1
  -5   0  19   26.30    8.28   2
   5   0  19   22.94    7.08   1
  -5   0  20    7.27    3.97   2
   5   0  20    8.71    4.51   1
  -5   0  21   14.36    5.98   2
   5   0  21   12.04    6.08   1
  -5   0  22    9.16    4.54   2
  -5   0  23   19.42    8.27   2
   5  -1  22    2.81    3.62   1
   5  -1  21    6.68    4.53   1
  -5   1  20    6.70    4.88   2
   5  -1  20    2.57    1.80   1
  -5   1  19   18.53    7.86   2
   5  -1  19    9.48    3.80   1
  -5   1  18    4.11    3.55   2
   5  -1  18    1.46    0.81   1
  -5   1  17   12.67    5.94   2
   5  -1  17   13.47    4.55   1
  -5   1  16    8.25    5.39   2
   5  -1  16    4.93    3.57   1
  -5   1  15   18.45    6.10   2
   5  -1  15   14.13    4.64   1
  -5   1  14   21.27    6.87   2
   5  -1  14   18.35    5.38   1
  -5   1  13    8.59    4.77   2
   5  -1  13    4.21    2.51   1
  -5   1  12   25.25    7.21   2
   5  -1  12   20.20    5.22   1
  -5   1  11   34.05    8.30   2
   5  -1  11   20.70    5.15   1
  -5   1  10   15.21    5.98   2
   5  -1  10   10.42    4.17   1
  -5   1   9   11.73    5.09   2
   5  -1   9   11.22    3.74   1
  -5   1   8   20.88    6.57   2
   5  -1   8   27.49    5.47   1
  -5   1   7   29.65    7.26   2
   5  -1   7   32.79    5.76   1
  -5   1   6   32.66    7.80   2
   5  -1   6   47.44    6.90   1
  -5   1   5   58.64    9.57   2
  -5   1   4   46.44    8.48   2
  -5   1   3   27.32    6.68   2
  -5   1   2   18.47    5.59   2
  -5   1   1   56.69    9.04   2
  -5  -1  -1   73.97    9.93   2
   5   1   0   64.39    8.36   1
  -5   1   0   46.36    8.59   2
  -5  -1   0   50.32    8.33   2
   5   1   1   85.87    9.78   1
  -5   1  -1   74.55    9.92   2
  -5  -1   1   54.51    8.75   2
   5   1   2   58.53    8.28   1
  -5   1  -2   53.56    8.56   2
   5   1   3   34.23    6.68   1
  -5  -1   3   31.39    7.27   2
  -5   1  -3   41.87    7.83   2
   5   1   4   48.48    8.21   1
  -5  -1   4   55.03    9.33   2
  -5   1  -4   42.96    7.42   2
   5   1   5   91.31   11.50   1
  -5  -1   5   70.90   10.55   2
  -5   1  -5   71.31    9.72   2
   5   1   6   57.49    9.20   1
  -5  -1   6   31.39    6.88   2
  -5   1  -6   53.46    8.37   2
   5   1   7   38.04    7.73   1
  -5  -1   7   27.77    6.56   2
  -5  -1   8   27.38    6.25   2
   5   1   8   30.80    6.88   1
  -5  -1   9    7.88    4.11   2
   5   1   9    9.86    3.96   1
   5   1  10   10.97    4.65   1
  -5  -1  10    7.92    4.29   2
   5   1  11   25.66    6.61   1
  -5  -1  11   30.19    7.10   2
  -5  -1  12   19.16    6.39   2
   5   1  12   21.82    6.08   1
  -5  -1  13    7.75    3.91   2
   5   1  13   10.12    4.65   1
  -5  -1  14   17.81    6.06   2
   5   1  14   18.57    5.87   1
  -5  -1  15   11.54    4.12   2
   5   1  15   14.92    5.58   1
  -5  -1  16    2.80    3.82   2
   5   1  16   -0.28    2.05   1
  -5  -1  17   10.95    5.48   2
   5   1  17    5.22    3.50   1
  -5  -1  18    4.03    4.26   2
   5   1  18    5.36    3.83   1
  -5  -1  19   11.35    5.46   2
   5   1  19   10.32    4.04   1
  -5  -1  20   -4.91    1.68   2
   5   1  20    0.37    1.13   1
  -5  -1  21    8.89    5.33   2
  -5  -1  22    5.07    3.75   2
  -5  -1  23   19.81    7.62   2
   5  -2  22   37.25    8.72   1
   5  -2  21   -0.51    2.76   1
   5  -2  20   28.18    7.62   1
   5  -2  19   11.76    4.86   1
  -5   2  18   42.95   10.74   2
   5  -2  18   35.01    8.34   1
  -5   2  17   10.74    6.17   2
   5  -2  17   15.04    5.20   1
  -5   2  16    6.90    4.25   2
   5  -2  16    5.52    4.10   1
  -5   2  15   13.54    6.36   2
   5  -2  15   17.83    5.50   1
  -5   2  14   13.25    5.92   2
   5  -2  14   15.09    5.04   1
  -5   2  13    8.65    5.29   2
   5  -2  13   13.38    4.51   1
  -5   2  12   28.17    8.37   2
  -5   2  11   56.36   10.95   2
  -5   2  10   19.08    7.90   2
  -5   2   9   10.26    5.19   2
  -5   2   8   59.46   10.38   2
  -5   2   7   31.38    8.13   2
  -5   2   6   36.47    8.20   2
  -5   2   5   30.01    7.58   2
  -5   2   4   32.15    7.26   2
  -5   2   3   20.48    5.84   2
  -5   2   2   33.95    6.79   2
  -5   2   1   21.59    5.73   2
  -5   2   0   19.19    5.27   2
  -5   2  -1   18.17    5.53   2
  -5  -2   1   24.82    6.20   2
   5   2   1   26.33    6.06   1
  -5  -2   2   30.74    6.74   2
  -5   2  -2   35.95    7.13   2
   5   2   2   31.72    6.49   1
   5   2   3   28.55    6.41   1
  -5   2  -3   29.10    6.70   2
  -5  -2   3   22.69    6.01   2
   5   2   4   38.49    7.51   1
  -5  -2   4   38.43    7.81   2
  -5   2  -4   32.17    6.87   2
   5   2   5   33.32    7.22   1
  -5  -2   5   39.24    8.67   2
  -5   2  -5   39.15    7.87   2
   5   2   6   55.47    9.64   1
  -5  -2   6   50.38    9.27   2
  -5   2  -6   55.34    8.70   2
   5   2   7   44.35    9.01   1
  -5  -2   7   39.30    8.54   2
  -5   2  -7   43.02    7.81   2
   5   2   8   62.24   10.52   1
  -5  -2   8   55.84    9.64   2
  -5   2  -8   55.38    8.71   2
  -5  -2   9   15.47    5.03   2
  -5   2  -9   22.74    5.97   2
   5   2   9   21.09    6.48   1
  -5  -2  10   19.27    6.74   2
  -5   2 -10   15.06    4.82   2
   5   2  10   17.52    5.57   1
   5   2  11   46.43    9.31   1
  -5  -2  11   56.73   10.38   2
  -5   2 -11   38.81    7.68   2
  -5  -2  12   25.25    6.84   2
   5   2  12   29.83    7.19   1
  -5  -2  13    4.40    2.88   2
   5   2  13    7.99    4.65   1
   5   2  14   16.56    5.77   1
  -5  -2  14    7.57    2.03   2
   5   2  15   14.63    5.83   1
  -5  -2  15   12.49    4.88   2
  -5  -2  16    9.45    3.58   2
   5   2  16   11.03    4.69   1
  -5  -2  17   12.73    5.45   2
   5   2  17    9.75    5.26   1
  -5  -2  18   43.03   10.44   2
   5   2  18   46.03   10.42   1
  -5  -2  19   17.31    6.84   2
   5   2  19   14.44    5.85   1
  -5   3  14    0.48    0.43   2
  -5   3  13    7.75    6.25   2
  -5   3  12    4.07    3.71   2
  -5   3  11   25.23    7.15   2
  -5   3  10    7.03    5.23   2
  -5   3   9    7.65    4.38   2
  -5   3   8   11.65    5.44   2
  -5   3   7   29.59    7.65   2
  -5   3   6   55.80    9.90   2
  -5   3   5   23.36    6.76   2
  -5   3   4   14.44    5.34   2
  -5   3   3   45.02    8.42   2
  -5   3   2   28.46    7.05   2
  -5   3   1   34.20    7.67   2
  -5   3   0   21.78    5.70   2
  -5   3  -1   25.64    6.29   2
  -5   3  -2   21.49    5.89   2
  -5  -3   2   21.00    5.93   2
   5   3   3   47.44    8.66   1
  -5   3  -3   50.21    8.57   2
  -5  -3   3   46.89    8.87   2
  -5   3  -4   30.26    6.72   2
  -5  -3   4   12.28    5.13   2
   5   3   4   26.94    6.83   1
   5   3   5   25.61    6.62   1
  -5   3  -5   27.18    6.51   2
  -5  -3   5   26.06    7.28   2
   5   3   6   51.72    9.50   1
  -5   3  -6   46.90    8.34   2
  -5  -3   6   63.40   11.52   2
  -5  -3   7   28.03    7.70   2
   5   3   7   38.14    8.52   1
  -5   3  -7   40.05    7.96   2
  -5  -3   8   11.94    6.00   2
   5   3   8   17.48    5.90   1
   5   3   9   15.37    6.76   1
  -5  -3   9   12.59    4.55   2
  -5   3  -9   19.28    5.41   2
  -5  -3  10    3.80    2.90   2
   5   3  10   11.67    6.04   1
  -5  -3  11   27.05    7.45   2
  -5   3 -11   29.75    7.09   2
   5   3  11   35.13    8.39   1
  -5  -3  12    8.87    4.71   2
   5   3  12    4.81    4.33   1
  -5  -3  13   10.82    2.58   2
  -5   3 -13    8.74    3.58   2
   5   3  13   14.08    6.19   1
  -5  -3  14    1.22    2.11   2
  -5   3 -14    5.39    2.64   2
   5   3  14    2.53    2.96   1
  -5   3 -15    9.98    4.12   2
   5   3  15    9.09    6.09   1
  -5   3 -16   21.02    6.09   2
   5   3  16   20.54    6.51   1
  -5   3 -17   11.00    4.43   2
  -5   4   9   13.13    5.39   2
  -5   4   8   15.12    5.56   2
  -5   4   7   16.60    5.35   2
  -5   4   6   32.38    7.91   2
  -5   4   5   42.96    8.93   2
  -5   4   4   31.85    7.84   2
  -5   4   3   24.01    6.65   2
  -5   4   2   18.07    6.08   2
  -5   4   1   19.66    5.85   2
  -5   4   0   33.50    7.37   2
  -5  -4   0   18.15    4.22   4
  -5   4  -1   30.01    7.07   2
  -5  -4   1   12.40    3.51   4
  -5   4  -2   20.94    6.10   2
  -5  -4   2    9.81    3.00   4
  -5   4  -3   25.40    6.69   2
  -5  -4   3   11.35    3.30   4
  -5  -4   3   32.64    8.43   2
  -5  -4   4    8.46    2.34   4
  -5   4  -4   29.45    6.97   2
  -5  -4   4   40.03   10.26   2
   5   4   4   29.96    7.82   1
  -5  -4   5   14.85    3.64   4
   5   4   5   43.95    9.25   1
  -5   4  -5   45.02    8.29   2
  -5  -4   5   56.53   12.70   2
   5   4   6   39.08    9.33   1
  -5  -4   6   40.62   10.82   2
  -5   4  -6   34.63    7.45   2
  -5  -4   7    3.81    1.02   4
  -5   4  -7   19.28    5.56   2
  -5  -4   7   17.75    7.84   2
   5   4   7   18.82    6.96   1
   5   4   8   20.30    6.91   1
  -5  -4   8    3.49    0.68   4
  -5   4  -8   19.72    5.55   2
  -5  -4   8   16.86    7.40   2
  -5  -4   9    6.93    2.36   4
  -5  -4   9   13.74    4.89   2
  -5   4  -9    8.08    3.73   2
   5   4   9   15.00    5.60   1
  -5  -4  10    5.12    2.51   4
  -5   4 -10    3.57    2.79   2
   5   4  10    9.06    5.18   1
  -5  -4  11    6.24    3.62   4
   5   4  11    0.89    1.22   1
   5   4  12   26.02    8.47   1
  -5  -4  12   15.99    5.94   4
  -5   4 -12   14.13    5.16   2
   5   4  13   16.11    5.96   1
  -5  -4  13   18.30    7.01   4
  -5   4 -13   13.44    4.89   2
  -5  -4  14   12.23    5.52   4
  -5   4 -14    5.07    3.52   2
  -5   4 -15    9.25    4.42   2
  -5   5   1    6.66    4.22   2
  -5   5   0   14.57    5.58   2
  -5   5  -1   12.51    5.20   2
  -5   5  -2    7.63    4.28   2
  -5   5  -3    8.68    4.41   2
  -5  -5   4   14.42    4.25   4
  -5   5  -4   24.15    6.80   2
  -5  -5   5   18.32    4.68   4
  -5   5  -5   42.78    8.61   2
  -5  -5   6    9.47    3.10   4
  -5   5  -6   32.45    7.25   2
  -5  -5   7   10.80    3.82   4
  -5   5  -7   41.55    8.59   2
  -5  -5   8   -0.75    2.16   4
  -5   5  -8   17.79    5.81   2
  -5  -5   9   -1.74    1.30   4
  -5   5  -9   12.27    4.87   2
  -5  -5  10    5.10    4.66   4
  -5  -5  11   -0.81    2.39   4
   0   0   0    0.00    0.00   0
;
_shelx_hkl_checksum              28356
_shelx_res_file
;
TITL    hn-e88 in P2(1)2(1)2(1)
CELL 0.71073   4.298660   7.024289  27.586675  90.0000  90.0000  90.0000
ZERR    4.00   0.000428   0.001044   0.003912   0.0000   0.0000   0.0000
LATT -1
SYMM  0.50000-X,-Y, 0.50000+Z
SYMM  0.50000+X, 0.50000-Y,-Z
SYMM -X, 0.50000+Y, 0.50000-Z
SFAC    C   H   N   O
UNIT    36 28 4 12
temp -150
l.s. 8
acta 51
conf
bond $h
htab
EQIV $1 -x+2, y-1/2, -z+1/2
HTAB C9 O1_$1
EQIV $2 -x+1, y-1/2, -z+1/2
HTAB C9 O1_$2
omit     2   4   1
omit     2   3   0
omit     2   5   2
omit     4   3   3
omit     3   5   0
omit     2   5   5
omit     3   1   1
omit    -3   2  12
omit     3   4   3
omit     4   3   7
omit     3   0   2
omit     4   3   0
omit     2   8   0
omit    -1   7   5
omit     5   1   2
omit     1   6   0
omit     3   3   3
omit     4   1   1
omit    -2   8   6
omit     2   2   0
omit    -1   5   1
omit     2   3   3
omit     4   2   2
omit     3   5   2
omit    -4   1   1
omit     2   5   0
omit    -1   5   5
omit    -1   9   1
omit     1   4   0
omit     4   0   2
WGHT    0.084200    1.043000
FVAR       0.95385
O1    4    0.664635    0.603444    0.305673    11.00000    0.03871    0.04861 =
         0.03785    0.01072    0.00005   -0.01006
O2    4    0.685888    0.097849    0.411160    11.00000    0.03251    0.01550 =
         0.05932    0.00102   -0.00257    0.00850
O3    4    0.941948    0.242959    0.323410    11.00000    0.02833    0.05069 =
         0.04485   -0.01358    0.00819    0.00480
N1    3    0.717661    0.327320    0.351013    11.00000    0.02204    0.02985 =
         0.03601   -0.00277    0.00132    0.00385
C1    1    0.603125    0.510451    0.340554    11.00000    0.01859    0.03395 =
         0.03265    0.00481   -0.00365   -0.00686
C2    1    0.394607    0.553089    0.382476    11.00000    0.01630    0.01709 =
         0.03543    0.00324   -0.00685   -0.00295
C3    1    0.219743    0.715604    0.392952    11.00000    0.03103    0.01153 =
         0.04914    0.00412   -0.01419   -0.00076
AFIX  43
H3A   2    0.211015    0.819937    0.371081    11.00000   -1.20000
AFIX   0
C4    1    0.060119    0.718449    0.436378    11.00000    0.02829    0.01349 =
         0.05374   -0.00851   -0.01139    0.00400
AFIX  43
H4A   2   -0.059078    0.827788    0.444491    11.00000   -1.20000
AFIX   0
C5    1    0.068350    0.565508    0.468790    11.00000    0.02099    0.01862 =
         0.04296   -0.00549   -0.00238   -0.00009
AFIX  43
H5A   2   -0.043566    0.572174    0.498436    11.00000   -1.20000
AFIX   0
C6    1    0.240998    0.402992    0.457599    11.00000    0.01866    0.01828 =
         0.03815   -0.00066   -0.00311   -0.00478
AFIX  43
H6A   2    0.246518    0.297652    0.479179    11.00000   -1.20000
AFIX   0
C7    1    0.402626    0.398936    0.414681    11.00000    0.02149    0.01221 =
         0.03497   -0.00090   -0.00750    0.00245
C8    1    0.613002    0.251345    0.394468    11.00000    0.01829    0.01912 =
         0.03673   -0.00352   -0.00441   -0.00232
C9    1    0.805109    0.121353    0.287010    11.00000    0.05038    0.06221 =
         0.04694   -0.02507    0.00979   -0.01138
AFIX 137
H9A   2    0.969298    0.070061    0.266109    11.00000   -1.50000
H9B   2    0.658323    0.195216    0.267386    11.00000   -1.50000
H9C   2    0.694812    0.016228    0.302824    11.00000   -1.50000
AFIX   0
HKLF 4
REM     hn-e88 in P2(1)2(1)2(1)
REM R1 =  0.0989 for    1989 Fo > 4sig(Fo)  and  0.1098 for all    2259 data
REM    119 parameters refined using      0 restraints
END
WGHT      0.0840      1.0478
REM Instructions for potential hydrogen bonds
HTAB C9 O1_$1
HTAB C9 O1_$2
REM Highest difference peak  0.501,  deepest hole -0.335,  1-sigma level  0.086
Q1    1   0.4070  0.5526  0.3521  11.00000  0.05    0.50
Q2    1   0.6756  0.6029  0.2724  11.00000  0.05    0.37
Q3    1   0.6275  0.2583  0.3640  11.00000  0.05    0.35
Q4    1   0.4610  0.4034  0.4449  11.00000  0.05    0.34
Q5    1   0.0947  0.5649  0.5030  11.00000  0.05    0.33
Q6    1   0.7732  0.3371  0.3810  11.00000  0.05    0.33
Q7    1   0.6412  0.6252  0.3371  11.00000  0.05    0.32
Q8    1   0.1880  0.2964  0.3770  11.00000  0.05    0.31
Q9    1   0.2071  0.7062  0.4214  11.00000  0.05    0.31
Q10   1   0.0422  0.5668  0.4368  11.00000  0.05    0.30
Q11   1   1.3205  0.2651  0.3233  11.00000  0.05    0.27
Q12   1   0.2598  0.4110  0.4281  11.00000  0.05    0.27
Q13   1   0.0307  0.7268  0.4056  11.00000  0.05    0.27
Q14   1   0.0876  0.7011  0.4698  11.00000  0.05    0.26
Q15   1   1.1027  0.1104  0.2733  11.00000  0.05    0.26
Q16   1   0.6161  0.5251  0.3690  11.00000  0.05    0.26
Q17   1   0.8491  0.5798  0.3652  11.00000  0.05    0.26
Q18   1   1.0671  0.5014  0.3297  11.00000  0.05    0.25
Q19   1  -0.1225  0.5744  0.5259  11.00000  0.05    0.25
Q20   1   0.7988  0.0732  0.2199  11.00000  0.05    0.24
;
_shelx_res_checksum              5576
_shelxl_version_number           .2013
#END Tags that were not found in dictionaries
loop_
_space_group_symop_operation_xyz
'x, y, z'
'-x+1/2, -y, z+1/2'
'x+1/2, -y+1/2, -z'
'-x, y+1/2, -z+1/2'
loop_
_atom_site_type_symbol
_atom_site_label
_atom_site_fract_x
_atom_site_fract_y
_atom_site_fract_z
_atom_site_U_iso_or_equiv
_atom_site_adp_type
_atom_site_calc_flag
_atom_site_occupancy
O O1 0.6646(10) 0.6034(6) 0.30567(13) 0.0417(10) Uani d 1
O O2 0.6859(9) 0.0978(4) 0.41116(14) 0.0358(9) Uani d 1
O O3 0.9419(9) 0.2430(6) 0.32341(14) 0.0413(10) Uani d 1
N N1 0.7177(10) 0.3273(6) 0.35101(15) 0.0293(9) Uani d 1
C C1 0.6031(12) 0.5105(7) 0.34055(17) 0.0284(10) Uani d 1
C C2 0.3946(11) 0.5531(6) 0.38248(16) 0.0229(9) Uani d 1
C C3 0.2197(12) 0.7156(6) 0.39295(18) 0.0306(11) Uani d 1
H H3A 0.2110 0.8199 0.3711 0.037 Uiso calc 1
C C4 0.0601(13) 0.7184(6) 0.4364(2) 0.0318(11) Uani d 1
H H4A -0.0591 0.8278 0.4445 0.038 Uiso calc 1
C C5 0.0684(12) 0.5655(6) 0.46879(18) 0.0275(10) Uani d 1
H H5A -0.0436 0.5722 0.4984 0.033 Uiso calc 1
C C6 0.2410(10) 0.4030(6) 0.45760(16) 0.0250(9) Uani d 1
H H6A 0.2465 0.2977 0.4792 0.030 Uiso calc 1
C C7 0.4026(11) 0.3989(6) 0.41468(16) 0.0229(9) Uani d 1
C C8 0.6130(11) 0.2513(6) 0.39447(17) 0.0247(9) Uani d 1
C C9 0.8051(17) 0.1214(10) 0.2870(2) 0.0532(18) Uani d 1
H H9A 0.9693 0.0701 0.2661 0.080 Uiso calc 1
H H9B 0.6583 0.1952 0.2674 0.080 Uiso calc 1
H H9C 0.6948 0.0162 0.3028 0.080 Uiso calc 1
loop_
_atom_site_aniso_label
_atom_site_aniso_U_11
_atom_site_aniso_U_22
_atom_site_aniso_U_33
_atom_site_aniso_U_12
_atom_site_aniso_U_13
_atom_site_aniso_U_23
O1 0.039(2) 0.049(2) 0.0379(19) -0.010(2) 0.0000(17) 0.0107(16)
O2 0.0325(19) 0.0155(14) 0.059(2) 0.0085(16) -0.0026(17) 0.0010(15)
O3 0.028(2) 0.051(2) 0.045(2) 0.005(2) 0.0082(16) -0.0136(17)
N1 0.022(2) 0.030(2) 0.036(2) 0.0038(17) 0.0013(16) -0.0028(16)
C1 0.0186(19) 0.034(2) 0.033(2) -0.007(2) -0.0037(18) 0.0048(18)
C2 0.0163(18) 0.0171(19) 0.035(2) -0.0029(16) -0.0069(17) 0.0032(16)
C3 0.031(3) 0.0115(18) 0.049(3) -0.0008(18) -0.014(2) 0.0041(17)
C4 0.028(3) 0.013(2) 0.054(3) 0.0040(19) -0.011(2) -0.0085(19)
C5 0.021(2) 0.019(2) 0.043(3) -0.0001(17) -0.0024(19) -0.0055(18)
C6 0.019(2) 0.0183(19) 0.038(2) -0.0048(18) -0.0031(18) -0.0007(16)
C7 0.021(2) 0.0122(17) 0.035(2) 0.0024(19) -0.0075(17) -0.0009(16)
C8 0.0183(19) 0.019(2) 0.037(2) -0.0023(17) -0.0044(18) -0.0035(17)
C9 0.050(4) 0.062(4) 0.047(3) -0.011(4) 0.010(3) -0.025(3)
loop_
_atom_type_symbol
_atom_type_description
_atom_type_scat_dispersion_real
_atom_type_scat_dispersion_imag
_atom_type_scat_source
C C 0.0033 0.0016 'International Tables Vol C Tables 4.2.6.8 and 6.1.1.4'
H H 0.0000 0.0000 'International Tables Vol C Tables 4.2.6.8 and 6.1.1.4'
N N 0.0061 0.0033 'International Tables Vol C Tables 4.2.6.8 and 6.1.1.4'
O O 0.0106 0.0060 'International Tables Vol C Tables 4.2.6.8 and 6.1.1.4'
loop_
_geom_angle_atom_site_label_1
_geom_angle_atom_site_label_2
_geom_angle_atom_site_label_3
_geom_angle
N1 O3 C9 110.9(4)
O3 N1 C8 123.0(4)
O3 N1 C1 122.0(4)
C8 N1 C1 114.5(4)
O1 C1 N1 126.0(5)
O1 C1 C2 130.4(5)
N1 C1 C2 103.6(4)
C3 C2 C7 120.9(4)
C3 C2 C1 130.3(4)
C7 C2 C1 108.7(4)
C4 C3 C2 117.3(4)
C4 C3 H3A 121.3
C2 C3 H3A 121.3
C3 C4 C5 122.1(4)
C3 C4 H4A 119.0
C5 C4 H4A 119.0
C6 C5 C4 120.0(5)
C6 C5 H5A 120.0
C4 C5 H5A 120.0
C7 C6 C5 118.5(4)
C7 C6 H6A 120.8
C5 C6 H6A 120.8
C6 C7 C2 121.2(4)
C6 C7 C8 130.3(4)
C2 C7 C8 108.5(4)
O2 C8 N1 125.9(4)
O2 C8 C7 129.4(5)
N1 C8 C7 104.7(4)
O3 C9 H9A 109.5
O3 C9 H9B 109.5
H9A C9 H9B 109.5
O3 C9 H9C 109.5
H9A C9 H9C 109.5
H9B C9 H9C 109.5
loop_
_geom_bond_atom_site_label_1
_geom_bond_atom_site_label_2
_geom_bond_distance
O1 C1 1.193(6)
O2 C8 1.214(5)
O3 N1 1.364(5)
O3 C9 1.444(7)
N1 C8 1.387(6)
N1 C1 1.407(6)
C1 C2 1.494(7)
C2 C3 1.397(6)
C2 C7 1.401(6)
C3 C4 1.381(8)
C3 H3A 0.9500
C4 C5 1.398(7)
C4 H4A 0.9500
C5 C6 1.396(6)
C5 H5A 0.9500
C6 C7 1.373(6)
C6 H6A 0.9500
C7 C8 1.484(6)
C9 H9A 0.9800
C9 H9B 0.9800
C9 H9C 0.9800
loop_
_geom_hbond_atom_site_label_D
_geom_hbond_atom_site_label_H
_geom_hbond_atom_site_label_A
_geom_hbond_site_symmetry_A
_geom_hbond_distance_DH
_geom_hbond_distance_HA
_geom_hbond_distance_DA
_geom_hbond_angle_DHA
C4 H4A O2 1_465 0.95 2.38 3.190(4) 143
C9 H9A O1 4_745 0.98 2.54 3.428(7) 151
C9 H9B O1 4_645 0.98 2.53 3.260(8) 131
loop_
_geom_torsion_atom_site_label_1
_geom_torsion_atom_site_label_2
_geom_torsion_atom_site_label_3
_geom_torsion_atom_site_label_4
_geom_torsion
C9 O3 N1 C8 93.4(6)
C9 O3 N1 C1 -94.8(6)
O3 N1 C1 O1 6.7(8)
C8 N1 C1 O1 179.1(5)
O3 N1 C1 C2 -173.7(4)
C8 N1 C1 C2 -1.2(5)
O1 C1 C2 C3 -1.7(9)
N1 C1 C2 C3 178.6(5)
O1 C1 C2 C7 -179.2(5)
N1 C1 C2 C7 1.1(5)
C7 C2 C3 C4 0.9(7)
C1 C2 C3 C4 -176.4(5)
C2 C3 C4 C5 -0.5(7)
C3 C4 C5 C6 -0.2(7)
C4 C5 C6 C7 0.7(7)
C5 C6 C7 C2 -0.4(7)
C5 C6 C7 C8 177.1(4)
C3 C2 C7 C6 -0.4(7)
C1 C2 C7 C6 177.4(4)
C3 C2 C7 C8 -178.4(4)
C1 C2 C7 C8 -0.6(5)
O3 N1 C8 O2 -6.2(7)
C1 N1 C8 O2 -178.5(4)
O3 N1 C8 C7 173.2(4)
C1 N1 C8 C7 0.9(5)
C6 C7 C8 O2 1.5(8)
C2 C7 C8 O2 179.2(5)
C6 C7 C8 N1 -177.9(5)
C2 C7 C8 N1 -0.1(5)
loop_
_cod_related_entry_id
_cod_related_entry_database
_cod_related_entry_code
1 PubChem 278066
