#------------------------------------------------------------------------------
#$Date: 2025-08-20 12:41:31 +0300 (Wed, 20 Aug 2025) $
#$Revision: 301828 $
#$URL: file:///home/coder/svn-repositories/cod/cif/4/03/50/4035070.cif $
#------------------------------------------------------------------------------
#
# This file is available in the Crystallography Open Database (COD),
# http://www.crystallography.net/
#
# All data on this site have been placed in the public domain by the
# contributors.
#
data_4035070
loop_
_publ_author_name
'Chen, Yu'
'Cui, Bao-Dong'
'Wang, Yi'
'Han, Wen-Yong'
'Wan, Nan-Wei'
'Bai, Mei'
'Yuan, Wei-Cheng'
'Chen, Yong-Zheng'
_publ_section_title
;
 Asymmetric [3 + 2] Cycloaddition Reaction of Isatin-Derived MBH
 Carbonates with 3-Methyleneoxindoles: Enantioselective Synthesis of
 3,3'-Cyclopentenyldispirooxindoles Incorporating Two Adjacent Quaternary
 Spirostereocenters.
;
_journal_issue                   17
_journal_name_full               'The Journal of organic chemistry'
_journal_page_first              10465
_journal_page_last               10475
_journal_paper_doi               10.1021/acs.joc.8b01506
_journal_volume                  83
_journal_year                    2018
_chemical_absolute_configuration ad
_chemical_formula_moiety         'C30 H24 N2 O5'
_chemical_formula_sum            'C30 H24 N2 O5'
_chemical_formula_weight         492.51
_space_group_crystal_system      monoclinic
_space_group_IT_number           4
_space_group_name_Hall           'P 2yb'
_space_group_name_H-M_alt        'P 1 21 1'
_atom_sites_solution_hydrogens   geom
_audit_creation_date             2017-10-18
_audit_creation_method
;
Olex2 1.2
(compiled 2017.08.10 svn.r3458 for OlexSys, GUI svn.r5381)
;
_cell_angle_alpha                90
_cell_angle_beta                 94.9113(8)
_cell_angle_gamma                90
_cell_formula_units_Z            2
_cell_length_a                   8.98962(8)
_cell_length_b                   9.43940(12)
_cell_length_c                   14.40897(12)
_cell_measurement_reflns_used    15912
_cell_measurement_temperature    100.00(10)
_cell_measurement_theta_max      73.3360
_cell_measurement_theta_min      4.9030
_cell_volume                     1218.21(2)
_computing_cell_refinement       'CrysAlisPro 1.171.38.43f (Rigaku OD, 2015)'
_computing_data_collection       'CrysAlisPro 1.171.38.43f (Rigaku OD, 2015)'
_computing_data_reduction        'CrysAlisPro 1.171.38.43f (Rigaku OD, 2015)'
_computing_molecular_graphics    'Olex2 (Dolomanov et al., 2009)'
_computing_publication_material  'Olex2 (Dolomanov et al., 2009)'
_computing_structure_refinement  'ShelXL (Sheldrick, 2015)'
_computing_structure_solution    'SHELXT 2014/5 (Sheldrick, 2014)'
_diffrn_ambient_environment      N~2~
_diffrn_ambient_temperature      100.00(10)
_diffrn_detector                 'CCD plate'
_diffrn_detector_area_resol_mean 5.2684
_diffrn_detector_type            AtlasS2
_diffrn_measured_fraction_theta_full 1.000
_diffrn_measured_fraction_theta_max 0.993
_diffrn_measurement_details
;
List of Runs (angles in degrees, time in seconds):

  # Type    Start    End  Width  t~exp~   \w     \q     \k     \f   Frames
--------------------------------------------------------------------------
  1  \w   -113.00 -13.00   1.00    1.00    --  -41.11 -57.00  90.00  100
  2  \w   -113.00 -13.00   1.00    1.00    --  -41.11 -57.00 150.00  100
  3  \w   -117.00  -9.00   1.00    1.00    --  -41.11 -77.00  90.00  108
  4  \w    -65.00  33.00   1.00    1.00    --  -41.11  37.00 120.00   98
  5  \w    -65.00  33.00   1.00    1.00    --  -41.11  37.00  30.00   98
  6  \w   -116.00 -17.00   1.00    1.00    --  -41.11 -37.00  90.00   99
  7  \w     23.00  97.00   1.00    1.00    --   41.11-125.00-180.00   74
  8  \w     17.00 116.00   1.00    1.00    --   41.11  37.00-180.00   99
  9  \w     17.00 116.00   1.00    1.00    --   41.11  37.00 120.00   99
 10  \w     74.00 178.00   1.00    1.73    --  106.95  77.00-180.00  104
 11  \w     81.00 178.00   1.00    1.73    --  106.95  45.00-180.00   97
 12  \w     78.00 178.00   1.00    1.73    --  106.95  61.00 120.00  100
 13  \w     81.00 178.00   1.00    1.73    --  106.95  45.00-150.00   97
 14  \w     78.00 178.00   1.00    1.73    --  106.95  61.00 150.00  100
 15  \w     74.00 178.00   1.00    1.73    --  106.95  77.00-150.00  104
 16  \w     24.00 109.00   1.00    1.73    --  106.95 -94.00-150.00   85
 17  \w     78.00 178.00   1.00    1.73    --  106.95  61.00-150.00  100
 18  \w     74.00 178.00   1.00    1.73    --  106.95  77.00  90.00  104
 19  \w     78.00 178.00   1.00    1.73    --  106.95  61.00-180.00  100
 20  \w     81.00 178.00   1.00    1.73    --  106.95  45.00  90.00   97
 21  \w     74.00 178.00   1.00    1.73    --  106.95  77.00 150.00  104
 22  \w     24.00 109.00   1.00    1.73    --  106.95 -94.00 -60.00   85
 23  \w     34.00 121.00   1.00    1.73    --  106.95-125.00-120.00   87
 24  \w     74.00 178.00   1.00    1.73    --  106.95  77.00 120.00  104
 25  \w     81.00 178.00   1.00    1.73    --  106.95  45.00 150.00   97
 26  \w     81.00 178.00   1.00    1.73    --  106.95  45.00-120.00   97
 27  \w     74.00 178.00   1.00    1.73    --  106.95  77.00  60.00  104
 28  \w     81.00 178.00   1.00    1.73    --  106.95  45.00 120.00   97
 29  \w     78.00 178.00   1.00    1.73    --  106.95  61.00  90.00  100
 30  \w     94.00 178.00   1.00    1.73    --  106.95 125.00  90.00   84
 31  \w     84.00 110.00   1.00    1.73    --  106.95  30.00 150.00   26
;
_diffrn_measurement_device       'four-circle diffractometer'
_diffrn_measurement_device_type  'SuperNova, Dual, Cu at zero, AtlasS2'
_diffrn_measurement_method       '\w scans'
_diffrn_orient_matrix_type
'CrysAlisPro convention (1999,Acta A55,543-557)'
_diffrn_orient_matrix_UB_11      0.0937510000
_diffrn_orient_matrix_UB_12      0.0347895000
_diffrn_orient_matrix_UB_13      -0.0817428000
_diffrn_orient_matrix_UB_21      0.1441360000
_diffrn_orient_matrix_UB_22      -0.0185685000
_diffrn_orient_matrix_UB_23      0.0646726000
_diffrn_orient_matrix_UB_31      0.0036198000
_diffrn_orient_matrix_UB_32      -0.1584200000
_diffrn_orient_matrix_UB_33      -0.0254113000
_diffrn_radiation_monochromator  mirror
_diffrn_radiation_probe          x-ray
_diffrn_radiation_type           CuK\a
_diffrn_radiation_wavelength     1.54184
_diffrn_reflns_av_R_equivalents  0.0455
_diffrn_reflns_av_unetI/netI     0.0311
_diffrn_reflns_Laue_measured_fraction_full 1.000
_diffrn_reflns_Laue_measured_fraction_max 0.993
_diffrn_reflns_limit_h_max       11
_diffrn_reflns_limit_h_min       -10
_diffrn_reflns_limit_k_max       10
_diffrn_reflns_limit_k_min       -11
_diffrn_reflns_limit_l_max       14
_diffrn_reflns_limit_l_min       -17
_diffrn_reflns_number            21830
_diffrn_reflns_point_group_measured_fraction_full 0.956
_diffrn_reflns_point_group_measured_fraction_max 0.939
_diffrn_reflns_theta_full        67.684
_diffrn_reflns_theta_max         73.663
_diffrn_reflns_theta_min         4.938
_diffrn_source                   'micro-focus sealed X-ray tube'
_diffrn_source_type              'SuperNova (Cu) X-ray Source'
_exptl_absorpt_coefficient_mu    0.752
_exptl_absorpt_correction_T_max  1.00000
_exptl_absorpt_correction_T_min  0.56378
_exptl_absorpt_correction_type   multi-scan
_exptl_absorpt_process_details
;
CrysAlisPro 1.171.38.43f (Rigaku Oxford Diffraction, 2015)
Empirical absorption correction using spherical harmonics,
 implemented in SCALE3 ABSPACK scaling algorithm.
;
_exptl_crystal_colour            colourless
_exptl_crystal_colour_primary    colourless
_exptl_crystal_density_diffrn    1.343
_exptl_crystal_description       block
_exptl_crystal_F_000             516
_exptl_crystal_size_max          0.13
_exptl_crystal_size_mid          0.11
_exptl_crystal_size_min          0.08
_refine_diff_density_max         0.288
_refine_diff_density_min         -0.236
_refine_diff_density_rms         0.056
_refine_ls_abs_structure_details
;
 Flack x determined using 1943 quotients [(I+)-(I-)]/[(I+)+(I-)]
 (Parsons, Flack and Wagner, Acta Cryst. B69 (2013) 249-259).
;
_refine_ls_abs_structure_Flack   -0.07(11)
_refine_ls_extinction_method     none
_refine_ls_goodness_of_fit_ref   1.077
_refine_ls_hydrogen_treatment    constr
_refine_ls_matrix_type           full
_refine_ls_number_parameters     337
_refine_ls_number_reflns         4617
_refine_ls_number_restraints     1
_refine_ls_restrained_S_all      1.077
_refine_ls_R_factor_all          0.0438
_refine_ls_R_factor_gt           0.0429
_refine_ls_shift/su_max          0.000
_refine_ls_shift/su_mean         0.000
_refine_ls_structure_factor_coef Fsqd
_refine_ls_weighting_details
'w=1/[\s^2^(Fo^2^)+(0.0845P)^2^+0.1566P] where P=(Fo^2^+2Fc^2^)/3'
_refine_ls_weighting_scheme      calc
_refine_ls_wR_factor_gt          0.1152
_refine_ls_wR_factor_ref         0.1161
_reflns_Friedel_coverage         0.778
_reflns_Friedel_fraction_full    0.906
_reflns_Friedel_fraction_max     0.877
_reflns_number_gt                4541
_reflns_number_total             4617
_reflns_threshold_expression     'I > 2\s(I)'
_iucr_refine_instructions_details
;
TITL exp_872_a.res in P2(1)
    exp_872.res
    created by SHELXL-2017/1 at 09:40:08 on 18-Oct-2017
REM Old TITL exp_872 in P21 #4
REM SHELXT solution in P2(1)
REM R1 0.085, Rweak 0.036, Alpha 0.001, Orientation as input
REM Flack x = 0.040 ( 0.107 ) from Parsons' quotients
REM Formula found by SHELXT: C30 N2 O5
CELL 1.54184 8.989621 9.439404 14.408968 90 94.9113 90
ZERR 2 0.000075 0.000115 0.000118 0 0.0008 0
LATT -1
SYMM -X,0.5+Y,-Z
SFAC C H N O
UNIT 60 48 4 10

L.S. 20
PLAN  20
BOND $H
LIST 6
MORE -1
CONF
fmap 2 53
ACTA
REM <olex2.extras>
REM <HklSrc "%.\\exp_872.hkl">
REM </olex2.extras>

WGHT    0.084500    0.156600
FVAR       1.01444
O4    4    0.206219    0.770820    0.455196    11.00000    0.02819    0.02031 =
         0.01905   -0.00399    0.00454   -0.00529
O1    4    0.251068    0.329332    0.084578    11.00000    0.02393    0.02548 =
         0.02059   -0.00342    0.00423   -0.00118
O3    4    0.407026    0.474013    0.418495    11.00000    0.02733    0.02058 =
         0.02042    0.00440    0.00000   -0.00364
O2    4    0.163337    0.687380    0.099699    11.00000    0.02044    0.03260 =
         0.02116    0.00048   -0.00226    0.00609
N2    3    0.537700    0.681336    0.406297    11.00000    0.01892    0.01841 =
         0.01903   -0.00082    0.00072   -0.00175
O5    4    0.035864    0.598077    0.456893    11.00000    0.03852    0.04156 =
         0.03297   -0.01204    0.01738   -0.02038
N1    3    0.413525    0.667209    0.077133    11.00000    0.02123    0.02476 =
         0.01911    0.00529    0.00344    0.00457
C8    1    0.493206    0.512595    0.193118    11.00000    0.01561    0.01756 =
         0.01642   -0.00093    0.00048   -0.00143
C2    1    0.215583    0.444985    0.223454    11.00000    0.01605    0.02068 =
         0.01634   -0.00016   -0.00126    0.00002
C30   1    0.426875    0.587312    0.381350    11.00000    0.01864    0.01916 =
         0.01658   -0.00284    0.00337   -0.00080
C19   1    0.193056    0.324623    0.158561    11.00000    0.01535    0.02164 =
         0.01827   -0.00064   -0.00118    0.00312
C7    1    0.536574    0.591679    0.118646    11.00000    0.02022    0.01989 =
         0.01807   -0.00052    0.00043    0.00213
C20   1    0.096715    0.202449    0.180760    11.00000    0.01408    0.01907 =
         0.02433   -0.00411    0.00155    0.00321
C14   1    0.523016    0.805350    0.352863    11.00000    0.01742    0.01985 =
         0.01937   -0.00322    0.00404    0.00140
C21   1    0.085219    0.155803    0.272074    11.00000    0.01899    0.02160 =
         0.02385   -0.00190    0.00154    0.00212
AFIX  43
H21   2    0.135025    0.204119    0.321697    11.00000   -1.20000
AFIX   0
C1    1    0.335422    0.553667    0.210083    11.00000    0.01627    0.01966 =
         0.01611   -0.00063    0.00157   -0.00076
C9    1    0.592684    0.420119    0.239412    11.00000    0.01977    0.01790 =
         0.01832   -0.00001    0.00028   -0.00058
AFIX  43
H9    2    0.564096    0.364506    0.288112    11.00000   -1.20000
AFIX   0
C29   1    0.125968    0.663428    0.417456    11.00000    0.01932    0.01841 =
         0.02161   -0.00476    0.00399   -0.00061
C15   1    0.615048    0.922484    0.358430    11.00000    0.01768    0.02097 =
         0.03096   -0.00285    0.00278   -0.00100
AFIX  43
H15   2    0.698720    0.926899    0.401009    11.00000   -1.20000
AFIX   0
C6    1    0.288916    0.643068    0.122240    11.00000    0.02108    0.02094 =
         0.01887   -0.00235    0.00223    0.00043
C5    1    0.327352    0.651761    0.298565    11.00000    0.01677    0.01837 =
         0.01618   -0.00076    0.00150    0.00010
C18   1    0.357872    0.909891    0.231367    11.00000    0.02124    0.01941 =
         0.02388    0.00104    0.00534    0.00182
AFIX  43
H18   2    0.272223    0.906861    0.190358    11.00000   -1.20000
AFIX   0
C3    1    0.118887    0.493777    0.281782    11.00000    0.01540    0.02317 =
         0.01952   -0.00249    0.00155   -0.00205
AFIX  43
H3    2    0.035904    0.443633    0.297989    11.00000   -1.20000
AFIX   0
C13   1    0.395991    0.796458    0.289593    11.00000    0.01607    0.01750 =
         0.01953   -0.00257    0.00514    0.00068
C4    1    0.160412    0.638555    0.317703    11.00000    0.01587    0.01901 =
         0.02093   -0.00071    0.00239   -0.00078
AFIX  13
H4    2    0.103618    0.707842    0.278348    11.00000   -1.20000
AFIX   0
C16   1    0.577220    1.034045    0.297442    11.00000    0.02339    0.01861 =
         0.03846   -0.00043    0.00718   -0.00240
AFIX  43
H16   2    0.638333    1.113618    0.298403    11.00000   -1.20000
AFIX   0
C24   1   -0.066968    0.013031    0.123884    11.00000    0.02485    0.02758 =
         0.03691   -0.01030    0.00195   -0.00432
AFIX  43
H24   2   -0.118633   -0.034615    0.074647    11.00000   -1.20000
AFIX   0
C11   1    0.781717    0.498343    0.140515    11.00000    0.01646    0.02902 =
         0.02477   -0.00384    0.00298   -0.00073
AFIX  43
H11   2    0.880136    0.495227    0.125304    11.00000   -1.20000
AFIX   0
C12   1    0.680973    0.589869    0.091664    11.00000    0.02392    0.02434 =
         0.02151    0.00265    0.00684   -0.00134
AFIX  43
H12   2    0.709341    0.646696    0.043490    11.00000   -1.20000
AFIX   0
C23   1   -0.076264   -0.033108    0.214718    11.00000    0.02229    0.02122 =
         0.04435   -0.00363    0.00839   -0.00228
AFIX  43
H23   2   -0.133854   -0.112075    0.226070    11.00000   -1.20000
AFIX   0
C22   1   -0.000215    0.037793    0.288681    11.00000    0.02572    0.02435 =
         0.02996    0.00157    0.00882    0.00481
AFIX  43
H22   2   -0.006600    0.006117    0.349327    11.00000   -1.20000
AFIX   0
C17   1    0.450599    1.029025    0.235419    11.00000    0.02668    0.01914 =
         0.03256    0.00561    0.00781    0.00338
AFIX  43
H17   2    0.427161    1.105527    0.196195    11.00000   -1.20000
AFIX   0
C27   1    0.648424    0.660061    0.484729    11.00000    0.02338    0.02271 =
         0.02523   -0.00408   -0.00511    0.00209
AFIX 137
H27A  2    0.626493    0.574240    0.516605    11.00000   -1.50000
H27B  2    0.646016    0.738684    0.526835    11.00000   -1.50000
H27C  2    0.745843    0.653218    0.462512    11.00000   -1.50000
AFIX   0
C10   1    0.738026    0.412055    0.211204    11.00000    0.01759    0.02223 =
         0.02429   -0.00193   -0.00181    0.00191
AFIX  43
H10   2    0.805744    0.348203    0.240202    11.00000   -1.20000
AFIX   0
C25   1    0.019567    0.130386    0.106713    11.00000    0.02304    0.02622 =
         0.02345   -0.00565    0.00153   -0.00024
AFIX  43
H25   2    0.026248    0.161127    0.045890    11.00000   -1.20000
AFIX   0
C28   1    0.181064    0.806358    0.549619    11.00000    0.03757    0.02274 =
         0.01980   -0.00419    0.00313    0.00017
AFIX 137
H28A  2    0.090804    0.860596    0.550140    11.00000   -1.50000
H28B  2    0.263568    0.861177    0.576810    11.00000   -1.50000
H28C  2    0.172026    0.721029    0.584949    11.00000   -1.50000
AFIX   0
C26   1    0.414675    0.750275   -0.006801    11.00000    0.03663    0.05431 =
         0.03413    0.02580    0.01169    0.01552
AFIX 137
H26A  2    0.493631    0.818892    0.000494    11.00000   -1.50000
H26B  2    0.320688    0.798094   -0.018485    11.00000   -1.50000
H26C  2    0.430470    0.689133   -0.058285    11.00000   -1.50000
AFIX   0
HKLF 4




REM  exp_872_a.res in P2(1)
REM R1 =  0.0429 for    4541 Fo > 4sig(Fo)  and  0.0438 for all    4617 data
REM    337 parameters refined using      1 restraints

END  
     
WGHT      0.0844      0.1564 

REM Highest difference peak  0.288,  deepest hole -0.236,  1-sigma level  0.056
Q1    1   0.3360  0.6129  0.2517  11.00000  0.05    0.29
Q2    1   0.4220  0.4930  0.3591  11.00000  0.05    0.28
Q3    1   0.0838  0.1943  0.2306  11.00000  0.05    0.25
Q4    1   0.5260  0.5836  0.1733  11.00000  0.05    0.23
Q5    1   0.1942  0.8322  0.4952  11.00000  0.05    0.22
Q6    1   0.2231  0.4013  0.1351  11.00000  0.05    0.22
Q7    1   0.2006  0.3818  0.1994  11.00000  0.05    0.22
Q8    1   0.4045  0.8226  0.2296  11.00000  0.05    0.22
Q9    1   0.5141  0.7718  0.4159  11.00000  0.05    0.21
Q10   1   0.2497  0.2996  0.0187  11.00000  0.05    0.21
Q11   1   0.0275  0.6217  0.5247  11.00000  0.05    0.21
Q12   1   0.2729  0.3925  0.0385  11.00000  0.05    0.21
Q13   1   0.4148  0.6840  0.0217  11.00000  0.05    0.21
Q14   1   0.0544  0.1824  0.0393  11.00000  0.05    0.20
Q15   1   0.1979  0.7208  0.5114  11.00000  0.05    0.20
Q16   1   0.4205  0.7374  0.0406  11.00000  0.05    0.20
Q17   1   0.1450  0.6641  0.3641  11.00000  0.05    0.20
Q18   1   0.5028  0.4982  0.1398  11.00000  0.05    0.20
Q19   1   0.5803  1.0230  0.3599  11.00000  0.05    0.20
Q20   1   0.1139  0.1370  0.1442  11.00000  0.05    0.20

  REM The information below was added by Olex2.
  REM
  REM R1 = 0.0429 for 4541 Fo > 4sig(Fo) and 0.0438 for all 21848 data
  REM n/a parameters refined using n/a restraints
  REM Highest difference peak 0.29, deepest hole -0.24
  REM Mean Shift 0, Max Shift 0.000.

  REM +++ Tabular Listing of Refinement Information +++
  REM R1_all = 0.0438
  REM R1_gt = 0.0429
  REM wR_ref = 0.1161
  REM GOOF = 1.077
  REM Shift_max = 0.000
  REM Shift_mean = 0
  REM Reflections_all = 21848
  REM Reflections_gt = 4541
  REM Parameters = n/a
  REM Hole = -0.24
  REM Peak = 0.29
  REM Flack = -0.07(12)

  
;
_cod_data_source_file            jo8b01506_si_001.cif
_cod_data_source_block           exp_872
_cod_database_code               4035070
_shelx_shelxl_version_number     2017/1
_shelx_space_group_comment
;
The symmetry employed for this shelxl refinement is uniquely defined
by the following loop, which should always be used as a source of
symmetry information in preference to the above space-group names.
They are only intended as comments.
;
_reflns_odcompleteness_completeness 99.96
_reflns_odcompleteness_iscentric 1
_reflns_odcompleteness_theta     66.97
_olex2_refinement_description
;
1. Fixed Uiso
 At 1.2 times of:
  All C(H) groups
 At 1.5 times of:
  All C(H,H,H) groups
2.a Ternary CH refined with riding coordinates:
 C4(H4)
2.b Aromatic/amide H refined with riding coordinates:
 C21(H21), C9(H9), C15(H15), C18(H18), C3(H3), C16(H16), C24(H24), C11(H11),
 C12(H12), C23(H23), C22(H22), C17(H17), C10(H10), C25(H25)
2.c Idealised Me refined as rotating group:
 C27(H27A,H27B,H27C), C28(H28A,H28B,H28C), C26(H26A,H26B,H26C)
;
_olex2_submission_special_instructions 'No special instructions were received'
_oxdiff_exptl_absorpt_empirical_details
;
Empirical correction (ABSPACK) includes:
- Absorption correction using spherical harmonics
- Frame scaling
- Detector area scaling
;
_oxdiff_exptl_absorpt_empirical_full_max 1.541
_oxdiff_exptl_absorpt_empirical_full_min 0.628
loop_
_space_group_symop_operation_xyz
'x, y, z'
'-x, y+1/2, -z'
loop_
_atom_site_label
_atom_site_type_symbol
_atom_site_fract_x
_atom_site_fract_y
_atom_site_fract_z
_atom_site_U_iso_or_equiv
_atom_site_adp_type
_atom_site_occupancy
_atom_site_site_symmetry_order
_atom_site_calc_flag
_atom_site_refinement_flags_posn
O4 O 0.2062(2) 0.7708(2) 0.45520(11) 0.0224(4) Uani 1 1 d .
O1 O 0.25107(19) 0.3293(2) 0.08458(12) 0.0232(4) Uani 1 1 d .
O3 O 0.4070(2) 0.4740(2) 0.41849(12) 0.0229(4) Uani 1 1 d .
O2 O 0.16334(19) 0.6874(2) 0.09970(12) 0.0250(4) Uani 1 1 d .
N2 N 0.5377(2) 0.6813(3) 0.40630(13) 0.0188(4) Uani 1 1 d .
O5 O 0.0359(2) 0.5981(3) 0.45689(14) 0.0369(5) Uani 1 1 d .
N1 N 0.4135(2) 0.6672(3) 0.07713(13) 0.0216(5) Uani 1 1 d .
C8 C 0.4932(2) 0.5126(3) 0.19312(15) 0.0166(5) Uani 1 1 d .
C2 C 0.2156(2) 0.4450(3) 0.22345(15) 0.0178(5) Uani 1 1 d .
C30 C 0.4269(2) 0.5873(3) 0.38135(15) 0.0180(5) Uani 1 1 d .
C19 C 0.1931(2) 0.3246(3) 0.15856(15) 0.0186(5) Uani 1 1 d .
C7 C 0.5366(3) 0.5917(3) 0.11865(16) 0.0195(5) Uani 1 1 d .
C20 C 0.0967(2) 0.2024(3) 0.18076(16) 0.0192(5) Uani 1 1 d .
C14 C 0.5230(3) 0.8053(3) 0.35286(16) 0.0187(5) Uani 1 1 d .
C21 C 0.0852(3) 0.1558(3) 0.27207(17) 0.0215(5) Uani 1 1 d .
H21 H 0.135025 0.204119 0.321697 0.026 Uiso 1 1 calc R
C1 C 0.3354(2) 0.5537(3) 0.21008(15) 0.0173(5) Uani 1 1 d .
C9 C 0.5927(3) 0.4201(3) 0.23941(16) 0.0187(5) Uani 1 1 d .
H9 H 0.564096 0.364506 0.288112 0.022 Uiso 1 1 calc R
C29 C 0.1260(3) 0.6634(3) 0.41746(16) 0.0197(5) Uani 1 1 d .
C15 C 0.6150(3) 0.9225(3) 0.35843(18) 0.0232(5) Uani 1 1 d .
H15 H 0.698720 0.926899 0.401009 0.028 Uiso 1 1 calc R
C6 C 0.2889(3) 0.6431(3) 0.12224(16) 0.0203(5) Uani 1 1 d .
C5 C 0.3274(2) 0.6518(3) 0.29857(15) 0.0171(5) Uani 1 1 d .
C18 C 0.3579(3) 0.9099(3) 0.23137(17) 0.0213(5) Uani 1 1 d .
H18 H 0.272223 0.906861 0.190358 0.026 Uiso 1 1 calc R
C3 C 0.1189(3) 0.4938(3) 0.28178(16) 0.0194(5) Uani 1 1 d .
H3 H 0.035904 0.443633 0.297989 0.023 Uiso 1 1 calc R
C13 C 0.3960(3) 0.7965(3) 0.28959(15) 0.0175(5) Uani 1 1 d .
C4 C 0.1604(2) 0.6386(3) 0.31770(16) 0.0186(5) Uani 1 1 d .
H4 H 0.103618 0.707842 0.278348 0.022 Uiso 1 1 calc R
C16 C 0.5772(3) 1.0340(3) 0.29744(19) 0.0266(6) Uani 1 1 d .
H16 H 0.638333 1.113618 0.298403 0.032 Uiso 1 1 calc R
C24 C -0.0670(3) 0.0130(3) 0.1239(2) 0.0298(6) Uani 1 1 d .
H24 H -0.118633 -0.034615 0.074647 0.036 Uiso 1 1 calc R
C11 C 0.7817(3) 0.4983(3) 0.14051(17) 0.0233(6) Uani 1 1 d .
H11 H 0.880136 0.495227 0.125304 0.028 Uiso 1 1 calc R
C12 C 0.6810(3) 0.5899(3) 0.09166(16) 0.0230(5) Uani 1 1 d .
H12 H 0.709341 0.646696 0.043490 0.028 Uiso 1 1 calc R
C23 C -0.0763(3) -0.0331(3) 0.2147(2) 0.0290(6) Uani 1 1 d .
H23 H -0.133854 -0.112075 0.226070 0.035 Uiso 1 1 calc R
C22 C -0.0002(3) 0.0378(3) 0.28868(18) 0.0263(6) Uani 1 1 d .
H22 H -0.006600 0.006117 0.349327 0.032 Uiso 1 1 calc R
C17 C 0.4506(3) 1.0290(3) 0.23542(19) 0.0258(5) Uani 1 1 d .
H17 H 0.427161 1.105527 0.196195 0.031 Uiso 1 1 calc R
C27 C 0.6484(3) 0.6601(3) 0.48473(18) 0.0242(5) Uani 1 1 d .
H27A H 0.626493 0.574240 0.516605 0.036 Uiso 1 1 calc GR
H27B H 0.646016 0.738684 0.526835 0.036 Uiso 1 1 calc GR
H27C H 0.745843 0.653218 0.462512 0.036 Uiso 1 1 calc GR
C10 C 0.7380(3) 0.4121(3) 0.21120(17) 0.0216(5) Uani 1 1 d .
H10 H 0.805744 0.348203 0.240202 0.026 Uiso 1 1 calc R
C25 C 0.0196(3) 0.1304(3) 0.10671(18) 0.0243(6) Uani 1 1 d .
H25 H 0.026248 0.161127 0.045890 0.029 Uiso 1 1 calc R
C28 C 0.1811(3) 0.8064(3) 0.54962(16) 0.0267(6) Uani 1 1 d .
H28A H 0.090804 0.860596 0.550140 0.040 Uiso 1 1 calc GR
H28B H 0.263568 0.861177 0.576810 0.040 Uiso 1 1 calc GR
H28C H 0.172026 0.721029 0.584949 0.040 Uiso 1 1 calc GR
C26 C 0.4147(4) 0.7503(4) -0.0068(2) 0.0412(8) Uani 1 1 d .
H26A H 0.493631 0.818892 0.000494 0.062 Uiso 1 1 calc GR
H26B H 0.320688 0.798094 -0.018485 0.062 Uiso 1 1 calc GR
H26C H 0.430470 0.689133 -0.058285 0.062 Uiso 1 1 calc GR
loop_
_atom_site_aniso_label
_atom_site_aniso_U_11
_atom_site_aniso_U_22
_atom_site_aniso_U_33
_atom_site_aniso_U_23
_atom_site_aniso_U_13
_atom_site_aniso_U_12
O4 0.0282(9) 0.0203(10) 0.0190(8) -0.0040(7) 0.0045(6) -0.0053(8)
O1 0.0239(8) 0.0255(11) 0.0206(8) -0.0034(7) 0.0042(6) -0.0012(8)
O3 0.0273(8) 0.0206(11) 0.0204(8) 0.0044(7) 0.0000(6) -0.0036(8)
O2 0.0204(8) 0.0326(12) 0.0212(8) 0.0005(8) -0.0023(6) 0.0061(8)
N2 0.0189(9) 0.0184(12) 0.0190(8) -0.0008(8) 0.0007(7) -0.0018(8)
O5 0.0385(10) 0.0416(14) 0.0330(10) -0.0120(9) 0.0174(8) -0.0204(10)
N1 0.0212(9) 0.0248(13) 0.0191(9) 0.0053(8) 0.0034(7) 0.0046(9)
C8 0.0156(10) 0.0176(13) 0.0164(9) -0.0009(9) 0.0005(8) -0.0014(9)
C2 0.0161(10) 0.0207(14) 0.0163(9) -0.0002(9) -0.0013(8) 0.0000(9)
C30 0.0186(10) 0.0192(13) 0.0166(9) -0.0028(9) 0.0034(8) -0.0008(10)
C19 0.0153(10) 0.0216(14) 0.0183(10) -0.0006(9) -0.0012(8) 0.0031(9)
C7 0.0202(10) 0.0199(14) 0.0181(10) -0.0005(9) 0.0004(8) 0.0021(10)
C20 0.0141(10) 0.0191(14) 0.0243(11) -0.0041(9) 0.0015(8) 0.0032(9)
C14 0.0174(10) 0.0198(14) 0.0194(10) -0.0032(9) 0.0040(8) 0.0014(9)
C21 0.0190(10) 0.0216(15) 0.0239(11) -0.0019(10) 0.0015(8) 0.0021(10)
C1 0.0163(10) 0.0197(14) 0.0161(10) -0.0006(9) 0.0016(8) -0.0008(9)
C9 0.0198(11) 0.0179(14) 0.0183(10) 0.0000(9) 0.0003(8) -0.0006(9)
C29 0.0193(10) 0.0184(14) 0.0216(11) -0.0048(9) 0.0040(8) -0.0006(10)
C15 0.0177(10) 0.0210(15) 0.0310(12) -0.0028(10) 0.0028(9) -0.0010(10)
C6 0.0211(10) 0.0209(14) 0.0189(10) -0.0023(9) 0.0022(8) 0.0004(9)
C5 0.0168(9) 0.0184(14) 0.0162(10) -0.0008(9) 0.0015(8) 0.0001(9)
C18 0.0212(11) 0.0194(14) 0.0239(11) 0.0010(10) 0.0053(8) 0.0018(10)
C3 0.0154(10) 0.0232(15) 0.0195(10) -0.0025(9) 0.0016(8) -0.0021(9)
C13 0.0161(10) 0.0175(14) 0.0195(10) -0.0026(9) 0.0051(8) 0.0007(9)
C4 0.0159(10) 0.0190(14) 0.0209(11) -0.0007(9) 0.0024(8) -0.0008(9)
C16 0.0234(12) 0.0186(15) 0.0385(13) -0.0004(11) 0.0072(10) -0.0024(10)
C24 0.0248(12) 0.0276(17) 0.0369(13) -0.0103(12) 0.0019(10) -0.0043(12)
C11 0.0165(10) 0.0290(16) 0.0248(11) -0.0038(10) 0.0030(8) -0.0007(11)
C12 0.0239(11) 0.0243(15) 0.0215(10) 0.0027(10) 0.0068(9) -0.0013(11)
C23 0.0223(11) 0.0212(16) 0.0444(15) -0.0036(12) 0.0084(10) -0.0023(11)
C22 0.0257(12) 0.0243(15) 0.0300(12) 0.0016(11) 0.0088(9) 0.0048(11)
C17 0.0267(12) 0.0191(15) 0.0326(12) 0.0056(11) 0.0078(10) 0.0034(11)
C27 0.0234(11) 0.0227(15) 0.0252(11) -0.0041(10) -0.0051(9) 0.0021(10)
C10 0.0176(11) 0.0222(15) 0.0243(11) -0.0019(10) -0.0018(8) 0.0019(10)
C25 0.0230(11) 0.0262(16) 0.0234(11) -0.0056(10) 0.0015(9) -0.0002(11)
C28 0.0376(14) 0.0227(15) 0.0198(11) -0.0042(10) 0.0031(9) 0.0002(12)
C26 0.0366(15) 0.054(2) 0.0341(14) 0.0258(15) 0.0117(12) 0.0155(15)
loop_
_atom_type_symbol
_atom_type_description
_atom_type_scat_dispersion_real
_atom_type_scat_dispersion_imag
_atom_type_scat_source
C C 0.0181 0.0091 'International Tables Vol C Tables 4.2.6.8 and 6.1.1.4'
H H 0.0000 0.0000 'International Tables Vol C Tables 4.2.6.8 and 6.1.1.4'
N N 0.0311 0.0180 'International Tables Vol C Tables 4.2.6.8 and 6.1.1.4'
O O 0.0492 0.0322 'International Tables Vol C Tables 4.2.6.8 and 6.1.1.4'
loop_
_geom_angle_atom_site_label_1
_geom_angle_atom_site_label_2
_geom_angle_atom_site_label_3
_geom_angle
C29 O4 C28 116.1(2)
C30 N2 C14 111.6(2)
C30 N2 C27 123.5(2)
C14 N2 C27 124.6(2)
C7 N1 C26 124.8(2)
C6 N1 C7 111.2(2)
C6 N1 C26 123.8(2)
C7 C8 C1 108.4(2)
C9 C8 C7 120.0(2)
C9 C8 C1 131.5(2)
C19 C2 C1 120.2(2)
C3 C2 C19 126.9(2)
C3 C2 C1 110.7(2)
O3 C30 N2 126.1(2)
O3 C30 C5 125.9(2)
N2 C30 C5 108.0(2)
O1 C19 C2 118.5(2)
O1 C19 C20 120.8(2)
C2 C19 C20 120.7(2)
C8 C7 N1 109.8(2)
C12 C7 N1 127.5(2)
C12 C7 C8 122.7(2)
C21 C20 C19 122.4(2)
C25 C20 C19 118.1(2)
C25 C20 C21 119.5(2)
N2 C14 C13 109.9(2)
C15 C14 N2 127.6(2)
C15 C14 C13 122.5(2)
C20 C21 H21 119.9
C22 C21 C20 120.1(2)
C22 C21 H21 119.9
C8 C1 C2 122.4(2)
C8 C1 C6 101.49(18)
C8 C1 C5 112.90(18)
C2 C1 C6 109.18(18)
C2 C1 C5 102.24(18)
C6 C1 C5 108.2(2)
C8 C9 H9 120.8
C8 C9 C10 118.4(2)
C10 C9 H9 120.8
O4 C29 C4 111.0(2)
O5 C29 O4 124.2(2)
O5 C29 C4 124.8(2)
C14 C15 H15 121.4
C14 C15 C16 117.1(2)
C16 C15 H15 121.4
O2 C6 N1 126.5(2)
O2 C6 C1 125.6(2)
N1 C6 C1 107.8(2)
C30 C5 C1 109.06(19)
C30 C5 C4 109.51(18)
C13 C5 C30 101.98(18)
C13 C5 C1 114.42(18)
C13 C5 C4 119.7(2)
C4 C5 C1 101.98(18)
C13 C18 H18 120.6
C13 C18 C17 118.7(2)
C17 C18 H18 120.6
C2 C3 H3 124.0
C2 C3 C4 112.0(2)
C4 C3 H3 124.0
C14 C13 C5 108.4(2)
C18 C13 C14 119.6(2)
C18 C13 C5 132.1(2)
C29 C4 C5 115.79(18)
C29 C4 H4 107.9
C5 C4 H4 107.9
C3 C4 C29 113.9(2)
C3 C4 C5 103.17(19)
C3 C4 H4 107.9
C15 C16 H16 119.2
C17 C16 C15 121.5(3)
C17 C16 H16 119.2
C23 C24 H24 120.1
C25 C24 H24 120.1
C25 C24 C23 119.9(3)
C12 C11 H11 119.3
C10 C11 H11 119.3
C10 C11 C12 121.4(2)
C7 C12 C11 116.6(2)
C7 C12 H12 121.7
C11 C12 H12 121.7
C24 C23 H23 119.8
C22 C23 C24 120.5(3)
C22 C23 H23 119.8
C21 C22 C23 119.9(3)
C21 C22 H22 120.0
C23 C22 H22 120.0
C18 C17 H17 119.7
C16 C17 C18 120.5(3)
C16 C17 H17 119.7
N2 C27 H27A 109.5
N2 C27 H27B 109.5
N2 C27 H27C 109.5
H27A C27 H27B 109.5
H27A C27 H27C 109.5
H27B C27 H27C 109.5
C9 C10 H10 119.7
C11 C10 C9 120.7(2)
C11 C10 H10 119.7
C20 C25 H25 120.0
C24 C25 C20 120.1(3)
C24 C25 H25 120.0
O4 C28 H28A 109.5
O4 C28 H28B 109.5
O4 C28 H28C 109.5
H28A C28 H28B 109.5
H28A C28 H28C 109.5
H28B C28 H28C 109.5
N1 C26 H26A 109.5
N1 C26 H26B 109.5
N1 C26 H26C 109.5
H26A C26 H26B 109.5
H26A C26 H26C 109.5
H26B C26 H26C 109.5
loop_
_geom_bond_atom_site_label_1
_geom_bond_atom_site_label_2
_geom_bond_distance
O4 C29 1.333(3)
O4 C28 1.438(3)
O1 C19 1.227(3)
O3 C30 1.216(3)
O2 C6 1.222(3)
N2 C30 1.359(3)
N2 C14 1.401(3)
N2 C27 1.455(3)
O5 C29 1.199(3)
N1 C7 1.406(3)
N1 C6 1.362(3)
N1 C26 1.442(3)
C8 C7 1.390(3)
C8 C1 1.510(3)
C8 C9 1.380(3)
C2 C19 1.474(4)
C2 C1 1.512(3)
C2 C3 1.341(3)
C30 C5 1.553(3)
C19 C20 1.493(4)
C7 C12 1.387(3)
C20 C21 1.400(3)
C20 C25 1.398(3)
C14 C15 1.379(4)
C14 C13 1.401(3)
C21 H21 0.9300
C21 C22 1.385(4)
C1 C6 1.549(3)
C1 C5 1.582(3)
C9 H9 0.9300
C9 C10 1.403(3)
C29 C4 1.514(3)
C15 H15 0.9300
C15 C16 1.395(4)
C5 C13 1.509(4)
C5 C4 1.554(3)
C18 H18 0.9300
C18 C13 1.385(4)
C18 C17 1.398(4)
C3 H3 0.9300
C3 C4 1.497(4)
C4 H4 0.9800
C16 H16 0.9300
C16 C17 1.387(4)
C24 H24 0.9300
C24 C23 1.389(4)
C24 C25 1.388(4)
C11 H11 0.9300
C11 C12 1.397(4)
C11 C10 1.387(4)
C12 H12 0.9300
C23 H23 0.9300
C23 C22 1.388(4)
C22 H22 0.9300
C17 H17 0.9300
C27 H27A 0.9600
C27 H27B 0.9600
C27 H27C 0.9600
C10 H10 0.9300
C25 H25 0.9300
C28 H28A 0.9600
C28 H28B 0.9600
C28 H28C 0.9600
C26 H26A 0.9600
C26 H26B 0.9600
C26 H26C 0.9600
loop_
_geom_torsion_atom_site_label_1
_geom_torsion_atom_site_label_2
_geom_torsion_atom_site_label_3
_geom_torsion_atom_site_label_4
_geom_torsion
O4 C29 C4 C5 40.3(3)
O4 C29 C4 C3 159.7(2)
O1 C19 C20 C21 149.5(2)
O1 C19 C20 C25 -28.5(3)
O3 C30 C5 C1 -64.2(3)
O3 C30 C5 C13 174.4(2)
O3 C30 C5 C4 46.6(3)
N2 C30 C5 C1 117.2(2)
N2 C30 C5 C13 -4.1(2)
N2 C30 C5 C4 -132.0(2)
N2 C14 C15 C16 -179.9(2)
N2 C14 C13 C5 -3.5(2)
N2 C14 C13 C18 178.2(2)
O5 C29 C4 C5 -141.5(3)
O5 C29 C4 C3 -22.2(4)
N1 C7 C12 C11 -175.7(3)
C8 C7 C12 C11 3.0(4)
C8 C1 C6 O2 171.7(3)
C8 C1 C6 N1 -10.4(3)
C8 C1 C5 C30 -47.3(3)
C8 C1 C5 C13 66.2(3)
C8 C1 C5 C4 -163.0(2)
C8 C9 C10 C11 2.0(4)
C2 C19 C20 C21 -33.0(3)
C2 C19 C20 C25 149.1(2)
C2 C1 C6 O2 41.2(3)
C2 C1 C6 N1 -140.9(2)
C2 C1 C5 C30 86.1(2)
C2 C1 C5 C13 -160.46(19)
C2 C1 C5 C4 -29.7(2)
C2 C3 C4 C29 -144.8(2)
C2 C3 C4 C5 -18.5(3)
C30 N2 C14 C15 -179.6(2)
C30 N2 C14 C13 0.7(3)
C30 C5 C13 C14 4.6(2)
C30 C5 C13 C18 -177.5(2)
C30 C5 C4 C29 38.7(3)
C30 C5 C4 C3 -86.4(2)
C19 C2 C1 C8 -47.8(3)
C19 C2 C1 C6 70.2(3)
C19 C2 C1 C5 -175.4(2)
C19 C2 C3 C4 -164.5(2)
C19 C20 C21 C22 -177.0(2)
C19 C20 C25 C24 177.7(2)
C7 N1 C6 O2 -175.8(3)
C7 N1 C6 C1 6.4(3)
C7 C8 C1 C2 132.7(2)
C7 C8 C1 C6 11.0(3)
C7 C8 C1 C5 -104.6(2)
C7 C8 C9 C10 2.0(4)
C20 C21 C22 C23 -0.9(4)
C14 N2 C30 O3 -176.2(2)
C14 N2 C30 C5 2.3(2)
C14 C15 C16 C17 1.5(4)
C21 C20 C25 C24 -0.4(4)
C1 C8 C7 N1 -8.0(3)
C1 C8 C7 C12 173.1(2)
C1 C8 C9 C10 -175.1(3)
C1 C2 C19 O1 -14.3(3)
C1 C2 C19 C20 168.1(2)
C1 C2 C3 C4 -1.4(3)
C1 C5 C13 C14 -113.0(2)
C1 C5 C13 C18 64.9(3)
C1 C5 C4 C29 154.1(2)
C1 C5 C4 C3 29.0(2)
C9 C8 C7 N1 174.3(2)
C9 C8 C7 C12 -4.6(4)
C9 C8 C1 C2 -50.0(4)
C9 C8 C1 C6 -171.7(3)
C9 C8 C1 C5 72.7(3)
C15 C14 C13 C5 176.7(2)
C15 C14 C13 C18 -1.5(3)
C15 C16 C17 C18 -1.0(4)
C6 N1 C7 C8 0.9(3)
C6 N1 C7 C12 179.8(3)
C6 C1 C5 C30 -158.76(18)
C6 C1 C5 C13 -45.3(2)
C6 C1 C5 C4 85.5(2)
C5 C1 C6 O2 -69.3(3)
C5 C1 C6 N1 108.5(2)
C3 C2 C19 O1 147.4(3)
C3 C2 C19 C20 -30.2(4)
C3 C2 C1 C8 147.7(2)
C3 C2 C1 C6 -94.2(2)
C3 C2 C1 C5 20.2(3)
C13 C14 C15 C16 -0.3(4)
C13 C5 C4 C29 -78.5(3)
C13 C5 C4 C3 156.5(2)
C13 C18 C17 C16 -0.8(4)
C4 C5 C13 C14 125.5(2)
C4 C5 C13 C18 -56.5(3)
C24 C23 C22 C21 0.3(4)
C12 C11 C10 C9 -3.7(4)
C23 C24 C25 C20 -0.3(4)
C17 C18 C13 C14 2.0(3)
C17 C18 C13 C5 -175.7(2)
C27 N2 C30 O3 -1.8(4)
C27 N2 C30 C5 176.8(2)
C27 N2 C14 C15 6.0(4)
C27 N2 C14 C13 -173.7(2)
C10 C11 C12 C7 1.1(4)
C25 C20 C21 C22 1.0(4)
C25 C24 C23 C22 0.4(4)
C28 O4 C29 O5 0.7(4)
C28 O4 C29 C4 178.9(2)
C26 N1 C7 C8 -174.3(3)
C26 N1 C7 C12 4.6(5)
C26 N1 C6 O2 -0.5(5)
C26 N1 C6 C1 -178.4(3)
loop_
_refln_index_h
_refln_index_k
_refln_index_l
_refln_F_squared_meas
_refln_F_squared_sigma
0 -11 0 1.42 0.74
0 -11 1 129.65 7.35
0 -11 -1 131.49 7.56
0 -11 -2 71.49 5.21
0 -11 2 38.84 3.66
0 -11 -3 222 10.43
0 -11 -4 107.2 6.72
0 -10 0 33.19 4.29
0 -10 -1 107.19 7.98
0 -10 1 109.42 8.06
0 -10 -2 310.09 14.66
0 -10 2 279.34 14.14
0 -10 -3 45.38 4.62
0 -10 3 40.12 4.5
0 -10 -3 50.28 5.05
0 -10 -4 163.76 9.57
0 -10 -4 134.05 8.59
0 -10 -5 22.91 3.41
0 -10 -5 36.9 4.71
0 -10 -6 83.24 7.12
0 -10 -6 74.48 6.09
0 -10 -7 41.49 4.61
0 -10 -8 32.31 3.72
0 -10 -9 32.81 3.29
0 -9 0 0.86 1.18
0 -9 -1 145 10.25
0 -9 1 152.91 10.87
0 -9 -1 175.46 11.44
0 -9 -2 125.05 9.6
0 -9 2 117.26 9.37
0 -9 -2 135.5 9.72
0 -9 -3 255.03 14.43
0 -9 -3 318.85 16.74
0 -9 3 256.2 14.61
0 -9 -3 296.95 15.35
0 -9 -4 207.22 12.36
0 -9 -4 246.56 14.72
0 -9 -4 242.65 14.48
0 -9 4 181.79 11.71
0 -9 -4 217.14 12.64
0 -9 -5 48.41 5.5
0 -9 -5 58.53 7.05
0 -9 -5 52 5.61
0 -9 -5 50.4 6.35
0 -9 -6 32.64 5.18
0 -9 -6 31.83 4.33
0 -9 -6 47.96 5.26
0 -9 -6 34.38 4.91
0 -9 -7 521.29 20.73
0 -9 -7 463.27 21.25
0 -9 -7 466.89 22.07
0 -9 -7 443.69 19.75
0 -9 -8 77.73 7.13
0 -9 -8 95.25 7.33
0 -9 -8 81.25 7.68
0 -9 -9 46.99 4.99
0 -9 -9 45.01 5.25
0 -9 -10 17.15 2.76
0 -9 -10 19.56 3.1
0 -9 -11 20.32 2.57
0 -9 -11 16.6 2.48
0 -8 0 608.46 26.22
0 -8 0 594.84 32.98
0 -8 1 80.93 7.86
0 -8 -1 78.93 7.69
0 -8 -1 75.74 7.46
0 -8 1 73.62 10.57
0 -8 -1 69.6 9.87
0 -8 -2 288.33 15.76
0 -8 -2 269.74 15.62
0 -8 -2 275.33 15.38
0 -8 2 247.87 14.99
0 -8 -2 298.01 16.64
0 -8 3 43.11 5.74
0 -8 -3 45.47 5.65
0 -8 -3 48.26 6.3
0 -8 -3 51.3 5.98
0 -8 -3 48.78 6.06
0 -8 -4 324.39 16.68
0 -8 4 259.47 15.31
0 -8 -4 324.65 17.48
0 -8 -4 317.98 17.78
0 -8 -4 305.13 16.1
0 -8 -5 139.45 11.39
0 -8 -5 140.6 10.3
0 -8 -5 142.5 11.15
0 -8 -5 146.1 10.19
0 -8 -6 106.98 8.53
0 -8 -6 96.93 8.39
0 -8 -6 113.94 9.69
0 -8 -6 115.98 10.39
0 -8 -7 290.32 15.48
0 -8 -7 305.25 15.54
0 -8 -7 317.15 18.18
0 -8 -7 291.22 16.61
0 -8 -8 12.6 3.06
0 -8 -8 15.72 3.86
0 -8 -9 15.76 3.14
0 -8 -9 14.44 3.08
0 -8 -9 16.33 3.73
0 -8 -10 7.27 2.1
0 -8 -10 5.71 2.07
0 -8 -11 31.7 4.02
0 -8 -11 33.52 4.34
0 -8 -12 93.84 6.52
0 -8 -12 92.33 6.75
0 -8 -13 28.71 3
0 -7 0 0.1 1.4
0 -7 0 -0.12 1.13
0 -7 0 0.02 1.06
0 -7 -1 184.2 12.17
0 -7 -1 229.63 13.81
0 -7 1 200.84 12.77
0 -7 -1 259.39 17.84
0 -7 1 226.1 18.03
0 -7 -1 232.49 13.35
0 -7 -2 208.25 12.9
0 -7 2 220.3 18.1
0 -7 -2 173.1 11.59
0 -7 2 155.43 11.04
0 -7 -2 187.18 11.86
0 -7 -2 181.33 14.71
0 -7 -2 157.93 11.1
0 -7 -3 23.74 4.32
0 -7 3 40.93 7.83
0 -7 -3 22.44 5.36
0 -7 -3 26.68 4.33
0 -7 -3 21.88 3.92
0 -7 -3 26.34 4.23
0 -7 3 25.11 4.2
0 -7 -4 24.84 3.9
0 -7 -4 26.35 4.21
0 -7 -4 18.68 3.72
0 -7 -4 28.47 4.68
0 -7 -4 16.5 4.85
0 -7 4 14.56 3.16
0 -7 4 28.7 7.3
0 -7 5 99.04 13.8
0 -7 -5 93.36 8.5
0 -7 -5 86.4 7.8
0 -7 -5 80.38 7.51
0 -7 -5 93.57 9
0 -7 6 445.17 31.27
0 -7 -6 409.09 18.94
0 -7 -6 411.07 21.27
0 -7 -6 390.4 20
0 -7 -6 393.38 19.04
0 -7 -7 377.74 19.44
0 -7 -7 374.32 20.39
0 -7 -7 369.86 17.74
0 -7 -7 365.8 17.96
0 -7 -8 164.6 11.1
0 -7 -8 182.99 11.48
0 -7 -8 141.92 11.08
0 -7 -8 151.37 12.2
0 -7 -9 133.9 10.01
0 -7 -9 113.64 9.76
0 -7 -9 123 10.77
0 -7 -10 66.41 6.89
0 -7 -10 56.34 6.75
0 -7 -11 49.34 5.93
0 -7 -11 45.1 5.47
0 -7 -12 2.09 0.87
0 -7 -12 -0.22 0.82
0 -7 -13 34.26 4.4
0 -7 -13 29.01 3.57
0 -7 -14 150.88 8
0 -7 -14 144.97 7.55
0 -6 0 1715.92 60.56
0 -6 -1 317.75 19.22
0 -6 1 330.54 20.25
0 -6 -2 182.08 13.6
0 -6 2 210.09 16.01
0 -6 -3 4.89 2.64
0 -6 3 7.9 2.89
0 -6 -4 363.13 20.94
0 -6 4 404.03 25.33
0 -6 -5 560.47 24.58
0 -6 -5 545.54 23.8
0 -6 -5 528.86 22.78
0 -6 -5 561.84 23.48
0 -6 -6 54.06 5.76
0 -6 -6 51.69 6.66
0 -6 6 66.47 10.55
0 -6 -6 61.29 6.65
0 -6 -6 58.11 6.73
0 -6 -6 59.49 6.32
0 -6 -7 409.91 19.15
0 -6 -7 413.58 18.82
0 -6 -7 397.82 19.86
0 -6 -7 401.13 21.27
0 -6 -7 422.65 20.72
0 -6 -7 422.24 21.34
0 -6 7 454.17 30.09
0 -6 -8 164.96 11.83
0 -6 -8 186.28 11.77
0 -6 -8 174.84 13.12
0 -6 -8 191.93 11.82
0 -6 8 158.57 17.62
0 -6 -8 176.3 12.91
0 -6 -9 549.08 22.6
0 -6 -9 464.33 23.72
0 -6 -9 482.93 23.95
0 -6 -9 434.73 21.98
0 -6 -9 523.53 22.39
0 -6 -10 204.21 13.92
0 -6 -10 237.39 13.76
0 -6 -10 196.99 13.29
0 -6 -10 230.26 14.94
0 -6 -11 6.83 2.58
0 -6 -11 11.52 3.1
0 -6 -11 7.11 2.34
0 -6 -12 144.42 10.48
0 -6 -12 150.42 10.46
0 -6 -12 161.49 11.24
0 -6 -13 135.96 9.25
0 -6 -13 127.49 9.23
0 -6 -13 132.34 9.25
0 -6 -14 82.75 6.53
0 -6 -14 83.28 6.23
0 -6 -15 10.5 1.93
0 -5 0 -3.24 1.76
0 -5 -1 389.27 19.78
0 -5 1 403.22 20.5
0 -5 -2 468.1 21.27
0 -5 2 421.84 21.92
0 -5 -3 440.68 20.73
0 -5 3 479.18 24.11
0 -5 4 168.42 13.86
0 -5 -4 146.97 11.33
0 -5 -5 35.47 5.45
0 -5 5 40.41 7.09
0 -5 6 100.39 9.57
0 -5 -6 91.65 9.58
0 -5 -7 117.22 8.63
0 -5 -7 126.22 9.81
0 -5 -7 118.76 9.33
0 -5 -7 136.55 9.53
0 -5 -7 120.41 12.08
0 -5 7 134.25 12
0 -5 -7 123.4 10.06
0 -5 -7 122.57 9.94
0 -5 -8 306.96 17.55
0 -5 -8 292.36 15.03
0 -5 -8 330.41 17.8
0 -5 -8 265.42 15.76
0 -5 -8 284.24 16.01
0 -5 -8 264.73 20.18
0 -5 -8 310.71 16.85
0 -5 8 378.92 25.55
0 -5 -8 345.23 16.54
0 -5 -9 281.89 14.92
0 -5 -9 202.81 18.67
0 -5 -9 261.2 15.84
0 -5 9 249.4 21.57
0 -5 -9 242.68 14.94
0 -5 -9 259.13 16.01
0 -5 -9 268.28 15.61
0 -5 -9 307.13 15.51
0 -5 -9 246.41 14.97
0 -5 -10 277.96 15.97
0 -5 -10 272.3 16.23
0 -5 -10 321 16.51
0 -5 -10 260.82 15.68
0 -5 -10 252.11 16.06
0 -5 -10 264.39 15.84
0 -5 -11 102.35 9.18
0 -5 -11 110.67 9.82
0 -5 -11 102.87 9.18
0 -5 -11 106.16 9.29
0 -5 -11 109.06 9.43
0 -5 -12 150.54 11.1
0 -5 -12 162.11 11.97
0 -5 -12 160.11 11.27
0 -5 -12 158.41 11.25
0 -5 -13 89.78 7.85
0 -5 -13 92.22 8.22
0 -5 -13 86.42 7.57
0 -5 -13 89.21 7.93
0 -5 -14 20.38 3.27
0 -5 -14 22.93 3.58
0 -5 -14 21.55 3.34
0 -5 -15 134.16 8.26
0 -5 -15 148.72 8.8
0 -5 -16 175.78 8.35
0 -4 0 328.37 12.19
0 -4 0 420.13 17.85
0 -4 1 8.93 1.6
0 -4 -1 6.98 1.16
0 -4 -1 10 2.48
0 -4 1 9.47 2.3
0 -4 -2 255.22 13.01
0 -4 2 281.81 14.66
0 -4 2 267.12 11.52
0 -4 -3 14.93 2.7
0 -4 3 11.67 3.05
0 -4 -3 13.07 2.63
0 -4 3 15.22 2.7
0 -4 -4 287.73 15.33
0 -4 4 316.86 15.05
0 -4 -4 263.13 15.11
0 -4 5 1296.57 45.37
0 -4 -5 1023.96 40.04
0 -4 -6 560.25 26.47
0 -4 -7 486.01 25.79
0 -4 -8 41.48 5.13
0 -4 -8 42.47 7.33
0 -4 -8 40.6 5.66
0 -4 -8 49.09 5.42
0 -4 -9 6.69 2.38
0 -4 -9 10 2.96
0 -4 -9 15.78 3.57
0 -4 -9 10.49 2.63
0 -4 -9 8.31 3.51
0 -4 -9 9.6 2.73
0 -4 -9 10.4 3.05
0 -4 -9 11.29 3.11
0 -4 -10 129.89 10.29
0 -4 -10 133.82 10.34
0 -4 -10 131.44 10.24
0 -4 -10 128.38 14.72
0 -4 -10 147.21 11.57
0 -4 -10 135.28 10.57
0 -4 -10 140.29 10.72
0 -4 -10 121.61 10.51
0 -4 -11 455.56 22.03
0 -4 -11 520.11 23.81
0 -4 -11 452.24 22.44
0 -4 -11 452.82 21.98
0 -4 -11 473.2 22.6
0 -4 -11 454.92 22.05
0 -4 -11 433.33 21.31
0 -4 -12 303.22 16.71
0 -4 -12 313.8 17.53
0 -4 -12 296.11 16.81
0 -4 -12 279.43 16.2
0 -4 -12 283.41 16.04
0 -4 -12 283.42 16.41
0 -4 -12 280.51 16.61
0 -4 -13 101.39 8.84
0 -4 -13 97.09 8.59
0 -4 -13 93.66 8.57
0 -4 -13 97.61 8.23
0 -4 -13 110.89 9.2
0 -4 -13 106.98 9.03
0 -4 -13 109.77 9.3
0 -4 -14 89.72 7.71
0 -4 -14 96.8 8.13
0 -4 -14 83.81 7.03
0 -4 -14 100.06 8.2
0 -4 -15 31.89 4.04
0 -4 -15 40.06 4.64
0 -4 -15 41.18 4.73
0 -4 -16 8.79 1.76
0 -4 -16 5.36 1.52
0 -3 0 1.71 0.54
0 -3 0 0.22 0.77
0 -3 -1 488.25 16
0 -3 -1 552.16 19.85
0 -3 1 540.3 17.16
0 -3 -1 482.89 16.61
0 -3 1 539.61 20.03
0 -3 -2 263.58 11.84
0 -3 -2 277 12.66
0 -3 2 325.37 14.28
0 -3 2 312.1 12.15
0 -3 -3 3013.11 84.57
0 -3 -3 2931.19 84.91
0 -3 -4 545.88 22.02
0 -3 -5 521.5 22.62
0 -3 -6 741.91 30.53
0 -3 -7 194.48 14.16
0 -3 -8 302.36 19.65
0 -3 -9 163.56 11.36
0 -3 -9 174.18 15.28
0 -3 -9 192.32 12.66
0 -3 -10 20.28 4.02
0 -3 -10 17.15 3.53
0 -3 -10 18.68 3.64
0 -3 -10 16.52 3.37
0 -3 -10 19.65 3.89
0 -3 -10 12.69 4.42
0 -3 -10 20.83 4.1
0 -3 -10 20.4 4.08
0 -3 -10 21.59 4.06
0 -3 -10 14.95 3.3
0 -3 -11 14.87 3.52
0 -3 -11 18.05 5.43
0 -3 -11 9.46 2.67
0 -3 -11 9.65 2.79
0 -3 -11 9.14 2.65
0 -3 -11 16.09 3.78
0 -3 -11 12.04 3.26
0 -3 -11 14.39 3.5
0 -3 -11 18.09 3.95
0 -3 -11 15.63 3.48
0 -3 -12 294.41 16.67
0 -3 -12 279.73 16
0 -3 -12 267.34 15.95
0 -3 -12 255.82 15.85
0 -3 -12 278.13 16.2
0 -3 -12 283.91 16.39
0 -3 -12 240.6 14.59
0 -3 -12 273.97 15.91
0 -3 -12 255.2 14.98
0 -3 -13 126.53 10.04
0 -3 -13 112.15 9.16
0 -3 -13 122.91 10.13
0 -3 -13 99.81 8.54
0 -3 -13 127.02 10.29
0 -3 -13 118.65 9.73
0 -3 -13 104.81 9.46
0 -3 -13 121.54 9.95
0 -3 -13 126.7 10.22
0 -3 -14 181.27 11.91
0 -3 -14 172.11 11.56
0 -3 -14 165.66 11.47
0 -3 -14 145.65 10.63
0 -3 -14 162.38 11.23
0 -3 -14 171.36 11.53
0 -3 -14 161.17 10.66
0 -3 -15 52.17 5.41
0 -3 -15 58.87 5.96
0 -3 -15 62.31 6.19
0 -3 -15 59.56 6.01
0 -3 -15 54.42 5.6
0 -3 -15 48.31 5.04
0 -3 -16 55.93 5.27
0 -3 -16 50.28 4.92
0 -3 -16 56.97 5.24
0 -3 -17 30.62 3.15
0 -3 -17 35.44 3.46
0 -2 0 5033.44 133.1
0 -2 -1 43.32 2.53
0 -2 -1 41.33 2.89
0 -2 -2 7470.95 199.37
0 -2 -3 416.07 16.28
0 -2 -4 866.8 25
0 -2 -4 867.16 25.98
0 -2 -5 2880.65 80.47
0 -2 -5 2892.36 79.37
0 -2 -6 236.12 13.62
0 -2 -6 214.08 9.91
0 -2 -7 491.31 23.5
0 -2 -8 155.3 12.64
0 -2 -9 84.63 9.9
0 -2 -10 886.18 33
0 -2 -10 845.83 31.85
0 -2 -10 724.32 30.17
0 -2 -10 742.61 30.53
0 -2 -10 833.72 38.97
0 -2 -10 843.92 31.72
0 -2 -10 810.64 31.81
0 -2 -10 848.99 31.86
0 -2 -10 793.24 31.56
0 -2 -11 546.42 24.83
0 -2 -11 607.4 26.02
0 -2 -11 554.01 32.68
0 -2 -11 587.31 25.57
0 -2 -11 618.68 26.35
0 -2 -11 564.51 25.34
0 -2 -11 581.9 25.67
0 -2 -11 653.05 27.56
0 -2 -11 598.44 26.36
0 -2 -12 297.67 17.03
0 -2 -12 305.06 17.33
0 -2 -12 333.45 17.97
0 -2 -12 334.54 18.23
0 -2 -12 281.98 16.47
0 -2 -12 322.2 17.65
0 -2 -12 319.63 17.59
0 -2 -12 334.44 17.91
0 -2 -13 126.81 10.36
0 -2 -13 121.88 10.17
0 -2 -13 142.71 10.96
0 -2 -13 130.23 10.65
0 -2 -13 125.37 10.44
0 -2 -13 131.74 10.46
0 -2 -13 135.34 10.57
0 -2 -13 122.09 9.97
0 -2 -14 323.81 17.14
0 -2 -14 332.97 17.62
0 -2 -14 336.44 18.06
0 -2 -14 350.84 17.89
0 -2 -14 361.63 18.38
0 -2 -14 346.52 17.96
0 -2 -14 368.78 18.41
0 -2 -14 379.54 18.71
0 -2 -15 30.26 4.47
0 -2 -15 28.16 4.21
0 -2 -15 32.59 4.65
0 -2 -15 30.69 4.49
0 -2 -15 31.69 4.52
0 -2 -15 27.65 4.13
0 -2 -15 27.78 4.28
0 -2 -16 43.44 4.78
0 -2 -16 43.86 4.58
0 -2 -16 41.34 4.48
0 -2 -16 47.96 5.01
0 -2 -16 47.03 4.98
0 -2 -16 41.99 4.64
0 -2 -17 -0.61 0.52
0 -2 -17 -0.52 0.68
0 -2 -17 -0.48 0.79
0 -2 -17 0.78 0.87
0 -1 0 0.55 0.24
0 -1 -1 2871.32 76.5
0 -1 -1 2884.79 77.33
0 -1 -2 2183.54 59.11
0 -1 -2 2193.67 58.89
0 -1 -3 5428.38 139.59
0 -1 -3 5820.79 143.38
0 -1 -3 5260.2 139.42
0 -1 -3 5728.1 141.52
0 -1 -3 4980.28 138.37
0 -1 -4 1524.69 43.21
0 -1 -4 1649.25 45.09
0 -1 -4 1597.13 43.49
0 -1 -4 1693.31 47.43
0 -1 -5 316.99 12.13
0 -1 -5 343.21 13.71
0 -1 -5 328.07 12.23
0 -1 -5 350.21 15.46
0 -1 -6 421.91 16.31
0 -1 -6 424.82 19.28
0 -1 -6 407.36 16.12
0 -1 -7 62.01 5.32
0 -1 -7 55.33 6.02
0 -1 -7 65.82 5.58
0 -1 -7 62.81 6.84
0 -1 -8 358.7 18.89
0 -1 -8 304.8 15.09
0 -1 -8 332.71 19.1
0 -1 -9 377.17 22.1
0 -1 -10 34.2 4.79
0 -1 -10 38.31 7.06
0 -1 -10 31.52 4.61
0 -1 -10 29.07 4.4
0 -1 -10 34.54 4.83
0 -1 -11 215.92 13.21
0 -1 -11 208.97 13.4
0 -1 -11 157.71 11.52
0 -1 -11 199.85 12.88
0 -1 -11 200.26 17.85
0 -1 -11 209.37 13.36
0 -1 -11 196.77 12.97
0 -1 -11 232.02 14.24
0 -1 -11 182.63 12.44
0 -1 -12 65.41 7.61
0 -1 -12 67.8 10.86
0 -1 -12 62.4 7.13
0 -1 -12 62.5 7.19
0 -1 -12 60.5 7.04
0 -1 -12 55.91 6.42
0 -1 -12 62.54 6.92
0 -1 -12 61.09 6.81
0 -1 -12 78.08 7.85
0 -1 -13 27.75 4.66
0 -1 -13 22.04 3.86
0 -1 -13 28.11 4.75
0 -1 -13 21.72 4.24
0 -1 -13 24.71 4.3
0 -1 -13 25.42 4.4
0 -1 -13 24.35 4.24
0 -1 -13 30.36 4.87
0 -1 -14 19.86 3.99
0 -1 -14 24.05 4.48
0 -1 -14 24.96 4.51
0 -1 -14 27.9 4.7
0 -1 -14 20.01 4.05
0 -1 -14 21.48 4.14
0 -1 -14 18.65 3.94
0 -1 -15 16.3 3.25
0 -1 -15 19.93 3.61
0 -1 -15 20.25 3.78
0 -1 -15 16.7 3.55
0 -1 -15 20.11 3.56
0 -1 -15 19.03 3.56
0 -1 -15 23.19 3.85
0 -1 -16 120.32 8.41
0 -1 -16 117.32 8.32
0 -1 -16 114.87 8.64
0 -1 -16 123.81 8.7
0 -1 -16 118.13 8.38
0 -1 -16 117.92 8.52
0 -1 -16 112.79 8.23
0 -1 -17 13.09 2.27
0 -1 -17 7.53 1.64
0 -1 -17 9.73 1.81
0 -1 -17 11.77 2.16
0 -1 -17 10.19 1.95
0 -1 -17 8.41 1.88
0 0 -2 2890.36 76.95
0 0 -2 2906.24 77.59
0 0 -2 2887.73 78.46
0 0 -2 2785.14 76.08
0 0 -2 2826.42 77.06
0 0 -3 1809.39 49.68
0 0 -3 1816.16 51.46
0 0 -3 1804.86 50.29
0 0 -3 1783.04 49.46
0 0 -3 1700.32 47.94
0 0 -4 13.59 1.92
0 0 -4 15.98 2.44
0 0 -4 14.47 1.86
0 0 -4 15.52 2.18
0 0 -4 10.48 1.95
0 0 -4 12.75 1.2
0 0 -5 730.07 25.98
0 0 -5 754.09 23.18
0 0 -5 764.93 24.75
0 0 -5 892.62 26.45
0 0 -5 783.95 24.94
0 0 -5 757.42 23.9
0 0 -5 610.51 20.51
0 0 -6 2737.51 79.37
0 0 -6 2738.41 78.08
0 0 -6 2843.36 80.6
0 0 -6 2690.83 80.03
0 0 -6 2616.01 82.14
0 0 -7 94.75 8.15
0 0 -7 91.23 8.25
0 0 -7 82.39 7.01
0 0 -7 86.74 6.11
0 0 -7 86.51 6.76
0 0 -8 66.76 6.66
0 0 -8 73.46 7.63
0 0 -8 56.18 5.84
0 0 -8 57.17 7.27
0 0 -9 917.84 35.84
0 0 -9 937.45 40.06
0 0 -9 992 37.2
0 0 -10 686.69 30.43
0 0 -10 747.75 34.22
0 0 -10 757.08 35.84
0 0 -11 108.8 8.9
0 0 -11 120.84 9.75
0 0 -11 131.22 10.31
0 0 -11 97.89 8.59
0 0 -11 115.78 13.39
0 0 -11 111.55 9.29
0 0 -11 119.25 9.61
0 0 -11 105.68 12.1
0 0 -11 117.76 9.74
0 0 -11 114.24 9.32
0 0 -12 186.19 12.89
0 0 -12 204.03 13.69
0 0 -12 174.66 18
0 0 -12 202.7 13.16
0 0 -12 194.23 13.05
0 0 -12 204.19 13.42
0 0 -12 203.19 13.85
0 0 -12 197.38 12.77
0 0 -13 85.7 8.36
0 0 -13 82.98 8.78
0 0 -13 83.29 8.41
0 0 -13 91.14 8.77
0 0 -13 88.84 8.53
0 0 -13 88.55 8.58
0 0 -13 96.09 8.56
0 0 -13 80.76 8.17
0 0 -14 125.49 9.97
0 0 -14 131.62 10.01
0 0 -14 137.15 10.54
0 0 -14 140.58 11.11
0 0 -14 138.13 10.63
0 0 -14 125.51 10.06
0 0 -14 143.53 10.79
0 0 -14 127.71 10.55
0 0 -15 49.47 5.73
0 0 -15 45.58 5.52
0 0 -15 51.83 6.23
0 0 -15 45.37 5.67
0 0 -15 39.31 5.11
0 0 -15 46.51 5.58
0 0 -15 47.72 5.67
0 0 -16 140.42 9.47
0 0 -16 132.1 9.08
0 0 -16 131.65 9.48
0 0 -16 151.83 9.62
0 0 -16 125.72 8.7
0 0 -16 131.44 9.12
0 0 -16 130.54 8.94
0 0 -17 88.81 6.28
0 0 -17 105.4 7.02
0 0 -17 109.1 7.1
0 0 -17 99.32 6.79
0 0 -17 108.91 7.35
0 0 -17 105.68 6.77
0 1 0 0.46 0.23
0 1 -1 2807.46 75.61
0 1 -1 2891.29 75.34
0 1 -1 2814.91 75.62
0 1 -1 2777.58 74.38
0 1 -2 2439.95 65.91
0 1 -2 2479.19 66.18
0 1 -2 2336.81 66.45
0 1 -3 5745.06 156
0 1 -3 5887.12 155.77
0 1 -3 5770.06 155.59
0 1 -4 1619.61 48.87
0 1 -4 1696.44 49.92
0 1 -4 1705.6 49.18
0 1 -4 1667.3 49.83
0 1 -4 1728.07 50.07
0 1 -5 360.62 15.19
0 1 -5 356.2 14.8
0 1 -5 370.91 14.78
0 1 -5 336.72 14.26
0 1 -5 333.52 13.03
0 1 -5 354.1 15.25
0 1 -5 367 15.66
0 1 -6 422.14 18.43
0 1 -6 410.42 15.59
0 1 -6 453.78 18.03
0 1 -6 440.52 19.35
0 1 -6 431.27 18.25
0 1 -6 460.35 19.2
0 1 -6 434.3 17.55
0 1 -7 55.48 5.95
0 1 -7 65.42 6.11
0 1 -7 76.52 7.11
0 1 -7 57.05 6.31
0 1 -7 67.96 5.97
0 1 -7 61.08 6.09
0 1 -8 367.75 18.8
0 1 -8 321.14 17.16
0 1 -8 333.51 19.03
0 1 -8 331.77 16.01
0 1 -8 320.26 16.79
0 1 -8 323.19 17.46
0 1 -9 394.39 22.61
0 1 -9 428.35 22.08
0 1 -9 398.68 20.9
0 1 -9 361.96 19.53
0 1 -10 38.81 6.16
0 1 -10 32.15 4.8
0 1 -10 33.99 6.63
0 1 -10 36.53 6.2
0 1 -10 29.65 5.23
0 1 -10 34.81 4.77
0 1 -10 26.78 4.19
0 1 -10 29.85 4.28
0 1 -11 222.34 13.5
0 1 -11 204.94 12.69
0 1 -11 160.96 14.12
0 1 -11 186.2 15.8
0 1 -11 201.52 12.78
0 1 -11 184.88 12.34
0 1 -11 195.13 17.69
0 1 -11 208.63 12.97
0 1 -11 180.1 12.22
0 1 -11 188.87 12.57
0 1 -11 194.91 12.81
0 1 -11 159.44 13.78
0 1 -11 205.43 13.36
0 1 -12 56.42 9.07
0 1 -12 69.77 7.29
0 1 -12 68.38 7.4
0 1 -12 74.16 7.79
0 1 -12 73.63 7.48
0 1 -12 66.18 7
0 1 -12 52.59 9.57
0 1 -12 61.99 6.9
0 1 -12 65.13 7.21
0 1 -12 58.28 6.71
0 1 -12 69.33 7.44
0 1 -13 20.41 4.01
0 1 -13 27.95 4.65
0 1 -13 26.68 4.85
0 1 -13 26.31 4.59
0 1 -13 31.58 5.08
0 1 -13 23.37 4.4
0 1 -13 25.82 4.46
0 1 -13 19.29 3.98
0 1 -14 23.05 3.96
0 1 -14 15.37 3.47
0 1 -14 16.52 3.36
0 1 -14 25.43 4.28
0 1 -14 25.97 4.45
0 1 -14 21.38 4.04
0 1 -14 18.94 3.71
0 1 -14 24.52 4.43
0 1 -15 18.81 3.6
0 1 -15 17.61 3.38
0 1 -15 19.91 3.69
0 1 -15 21.97 4.07
0 1 -15 18.15 3.47
0 1 -15 19.51 3.53
0 1 -15 22.15 3.89
0 1 -15 19.84 3.58
0 1 -16 136.26 8.89
0 1 -16 127.54 9.03
0 1 -16 108.87 8.06
0 1 -16 100.28 7.43
0 1 -16 100.06 7.6
0 1 -16 125 8.86
0 1 -16 99.63 7.51
0 1 -16 117.83 8.39
0 1 -17 11.41 2.21
0 1 -17 8.2 1.98
0 1 -17 7.56 1.58
0 1 -17 7.2 1.58
0 1 -17 14.38 2.41
0 1 -17 12.16 2.34
0 2 0 4915.89 134.43
0 2 0 5161.79 133.81
0 2 -1 45.02 3.44
0 2 -1 42.72 2.85
0 2 -1 41.63 3.16
0 2 -2 7895.7 207.16
0 2 -2 8103.34 206.5
0 2 -2 8264.96 207.39
0 2 -3 421.16 14.74
0 2 -3 434.23 16.82
0 2 -3 448.87 15.93
0 2 -3 415.58 16.1
0 2 -4 1152.37 36.08
0 2 -4 1081.78 36.7
0 2 -4 1190.21 36.36
0 2 -4 1089.65 35.08
0 2 -4 1204.41 36.7
0 2 -5 3321.14 91.95
0 2 -5 3088.55 91.81
0 2 -5 3349.35 92.32
0 2 -5 3027.42 91.16
0 2 -5 3353.01 92.11
0 2 -5 3193.83 92.8
0 2 -6 231.03 12.65
0 2 -6 241.07 12.84
0 2 -6 226.01 11.47
0 2 -6 227.61 12.71
0 2 -6 234.72 13.3
0 2 -6 256.48 13.22
0 2 -6 214.62 12.47
0 2 -7 514.7 22.62
0 2 -7 534.28 22.64
0 2 -7 529.94 23.6
0 2 -7 495.51 20.02
0 2 -7 511.17 23.02
0 2 -7 537.77 22.97
0 2 -7 499.01 22.03
0 2 -8 164.87 11.51
0 2 -8 169.54 12.61
0 2 -8 157.25 12.26
0 2 -8 158.33 12.07
0 2 -8 147.59 11.27
0 2 -8 163.28 11.92
0 2 -9 81.28 9.3
0 2 -9 73.38 8.35
0 2 -9 81.53 8.74
0 2 -9 84.45 9.42
0 2 -9 83.82 8.34
0 2 -10 846.49 31.02
0 2 -10 832.31 31.31
0 2 -10 890.69 31.37
0 2 -10 683.23 29.09
0 2 -10 776.33 35.34
0 2 -10 792.84 35.03
0 2 -10 792.65 30.5
0 2 -10 831.69 38.05
0 2 -10 676.24 29.24
0 2 -10 861.27 31.59
0 2 -10 862.65 37.27
0 2 -10 709.62 29.96
0 2 -10 841.5 30.91
0 2 -11 499.24 28.14
0 2 -11 618.37 25.47
0 2 -11 544.42 29.84
0 2 -11 567.8 24.59
0 2 -11 528.8 29.74
0 2 -11 495.18 22.88
0 2 -11 589.7 25
0 2 -11 583.98 25.2
0 2 -11 611.84 25.92
0 2 -11 562.42 24.76
0 2 -11 556.83 24.98
0 2 -11 596.07 25.09
0 2 -11 620.97 25.75
0 2 -12 341.43 18.11
0 2 -12 337.75 17.61
0 2 -12 338.39 17.83
0 2 -12 302.87 17.32
0 2 -12 307.17 17.32
0 2 -12 322.68 17.29
0 2 -12 299.35 17.07
0 2 -12 315.5 17.21
0 2 -12 325.43 17.54
0 2 -13 126.71 10.24
0 2 -13 137.51 10.71
0 2 -13 136.19 10.74
0 2 -13 146.03 11.08
0 2 -13 134.16 10.63
0 2 -13 138.42 10.84
0 2 -13 135.7 10.91
0 2 -13 133.1 10.42
0 2 -14 348.1 17.88
0 2 -14 355.8 18.62
0 2 -14 373.82 18.74
0 2 -14 363.29 18.5
0 2 -14 347.74 18.12
0 2 -14 339.39 17.66
0 2 -14 391.62 18.98
0 2 -14 324.62 17.4
0 2 -15 28.69 4.24
0 2 -15 27.12 4.18
0 2 -15 30.17 4.62
0 2 -15 31.41 4.7
0 2 -15 29.24 4.48
0 2 -15 31.13 4.51
0 2 -15 30.65 4.29
0 2 -15 27.46 3.99
0 2 -15 29.43 4.33
0 2 -16 49.47 5.12
0 2 -16 53.77 5.46
0 2 -16 46.31 4.55
0 2 -16 49.5 4.89
0 2 -16 40.94 4.39
0 2 -16 53.89 5.3
0 2 -16 48.1 5.04
0 2 -16 42.63 4.61
0 2 -17 -0.47 0.41
0 2 -17 -0.87 0.81
0 2 -17 0.6 0.69
0 2 -17 -0.11 0.55
0 3 0 -0.2 0.24
0 3 0 0.88 0.54
0 3 0 0.29 0.38
0 3 -1 487.31 16.6
0 3 1 511.23 15.98
0 3 -1 500 17.77
0 3 1 474.64 15.97
0 3 -2 287.53 12.07
0 3 -2 274.77 12.49
0 3 -2 290.8 12.31
0 3 -2 288.53 11.09
0 3 -3 3158.73 81.83
0 3 -3 3194.06 80.49
0 3 -3 3033.27 82.56
0 3 -3 3277.92 81.81
0 3 -4 543.95 19.48
0 3 -4 563.95 23.29
0 3 -4 597.74 22.7
0 3 -4 586.69 21.84
0 3 -5 517.4 20.12
0 3 -5 524.83 22.56
0 3 -5 531.8 21.67
0 3 -5 605.49 23.22
0 3 -5 537.96 23.07
0 3 -5 548.87 22.39
0 3 -6 726.03 28.58
0 3 -6 742.77 29.18
0 3 -6 850.81 30.87
0 3 -6 750.11 28.13
0 3 -6 740.71 30.4
0 3 -6 766.43 30.33
0 3 -6 787.85 29.85
0 3 -7 193.92 12.97
0 3 -7 205.1 14.04
0 3 -7 178.87 12.75
0 3 -7 194.21 13.31
0 3 -7 179.66 11.75
0 3 -7 187.5 12.22
0 3 -7 197.79 13.09
0 3 -8 286.19 17.72
0 3 -8 296.72 17.87
0 3 -8 325.85 19.54
0 3 -8 291.4 15.89
0 3 -8 292.51 17.86
0 3 -8 313.66 18.4
0 3 -9 174.92 11.39
0 3 -9 170.19 13.9
0 3 -9 179.03 14.28
0 3 -9 167.11 11.19
0 3 -9 178.26 15.04
0 3 -9 171.48 13.8
0 3 -9 181.66 11.24
0 3 -10 18.37 3.73
0 3 -10 22.94 4.04
0 3 -10 20.49 3.65
0 3 -10 16.75 4.02
0 3 -10 12.71 4.14
0 3 -10 16.57 3.42
0 3 -10 12.51 2.65
0 3 -10 17.42 4.8
0 3 -10 15.85 4.83
0 3 -10 12.47 3.03
0 3 -10 18.81 3.62
0 3 -11 9.55 3.66
0 3 -11 14.15 3.25
0 3 -11 14.49 3.38
0 3 -11 14.29 3.12
0 3 -11 12.4 4.51
0 3 -11 12.62 3.21
0 3 -11 14.34 3.37
0 3 -11 10.89 3.51
0 3 -11 13.81 3.17
0 3 -11 12.38 3
0 3 -11 8.72 2.68
0 3 -11 11.04 2.94
0 3 -12 255.1 15.13
0 3 -12 288.41 16.54
0 3 -12 237.06 14.81
0 3 -12 284.15 16.37
0 3 -12 265.2 14.89
0 3 -12 294.07 15.98
0 3 -12 273.7 15.69
0 3 -12 294.08 16.09
0 3 -12 229.28 14.47
0 3 -12 277.78 15.89
0 3 -13 111.5 9.5
0 3 -13 113.13 9.28
0 3 -13 122.16 10.05
0 3 -13 105.08 9
0 3 -13 116.32 9.93
0 3 -13 128.32 9.93
0 3 -13 110.99 8.86
0 3 -13 109.38 9.25
0 3 -13 119.8 9.65
0 3 -14 152.56 10.57
0 3 -14 181.09 11.62
0 3 -14 163.61 10.88
0 3 -14 166.6 11.36
0 3 -14 176.19 11.97
0 3 -14 180.41 12.12
0 3 -14 180.34 11.79
0 3 -14 152.3 10.69
0 3 -15 61.09 6.13
0 3 -15 65.18 6.32
0 3 -15 64.24 6.33
0 3 -15 53.68 5.86
0 3 -15 57.71 6.14
0 3 -16 52.13 5.06
0 3 -16 55.79 5.22
0 3 -16 55.34 5.27
0 3 -16 54.81 5.09
0 3 -16 56.81 5.38
0 3 -16 44.83 4.46
0 3 -17 42.08 3.74
0 3 -17 39.46 3.63
0 3 -17 35.97 3.55
0 3 -17 35.2 3.43
0 4 0 323.82 13.39
0 4 0 342.82 14.65
0 4 0 312.31 11.84
0 4 1 7.12 1.38
0 4 -1 11.16 2.35
0 4 -1 7.7 1.44
0 4 1 9.4 1.83
0 4 1 8.38 1.29
0 4 -1 12.16 2.47
0 4 -1 9.11 1.91
0 4 -2 238.45 12.85
0 4 2 225.66 9.34
0 4 -2 248.04 12.45
0 4 -2 231.32 11.92
0 4 -2 221.28 10.46
0 4 -3 14.09 2.9
0 4 -3 7.7 2.13
0 4 -3 10.11 2.12
0 4 -3 11.69 2.76
0 4 -4 270.53 15.69
0 4 -4 302.33 15.46
0 4 -4 279.29 15.67
0 4 -4 321.53 15.99
0 4 -4 276.35 13.96
0 4 -5 1026.82 38.63
0 4 -5 919.1 35.04
0 4 -5 1116.04 38.35
0 4 -5 1024.18 37.24
0 4 -5 987.74 37.9
0 4 -6 576.17 26.9
0 4 -6 606.79 26.35
0 4 -6 614.72 26.77
0 4 -6 553.77 25.5
0 4 -6 521.65 24.18
0 4 -6 577.99 27.29
0 4 -7 493.22 25.29
0 4 -7 520.26 24.45
0 4 -7 477.38 24.27
0 4 -7 464.87 23.25
0 4 -7 457.17 24.83
0 4 -7 495.59 24.9
0 4 -8 35.78 6.04
0 4 -8 36.56 6.25
0 4 -8 43.11 6.59
0 4 -8 38.64 5.85
0 4 -8 47.96 7.31
0 4 -8 40.49 6.73
0 4 -9 7.1 3.21
0 4 -9 6.26 2.35
0 4 -9 13.05 3.15
0 4 -9 13.43 3.95
0 4 -9 12.3 2.96
0 4 -9 8.46 3.21
0 4 -9 13.02 4.36
0 4 -9 9.08 2.75
0 4 -9 8.81 2.45
0 4 -10 136.03 10.49
0 4 -10 143.86 10.78
0 4 -10 137.85 10.86
0 4 -10 118.2 12.89
0 4 -10 140.66 10.87
0 4 -10 148.29 10.47
0 4 -10 119.43 13.1
0 4 -10 113.75 12.56
0 4 -10 155.47 15.59
0 4 -11 512.74 23.27
0 4 -11 498.66 22.93
0 4 -11 496.59 23.37
0 4 -11 494.36 22.11
0 4 -11 498.48 23.3
0 4 -11 455.77 22.06
0 4 -11 452.74 21.11
0 4 -12 281.61 16.79
0 4 -12 301.11 16.77
0 4 -12 285.7 16.19
0 4 -12 287.39 16.25
0 4 -12 304.91 16.66
0 4 -12 276.61 15.41
0 4 -12 287.92 16.77
0 4 -13 115.48 9.78
0 4 -13 113.83 9.13
0 4 -13 94.63 8.17
0 4 -13 121.53 9.78
0 4 -13 106.88 8.98
0 4 -13 98.61 8.76
0 4 -14 88.1 7.23
0 4 -14 94.72 8.04
0 4 -14 107.34 8.85
0 4 -14 98.4 8.17
0 4 -14 110.65 8.62
0 4 -14 100.96 8.44
0 4 -14 107.34 8.35
0 4 -15 38.49 4.46
0 4 -15 33.71 4.28
0 4 -15 36.71 4.52
0 4 -15 38.3 4.65
0 4 -15 30.06 3.97
0 4 -15 39.9 4.67
0 4 -16 3.97 1.64
0 4 -16 6.16 1.81
0 4 -16 5.17 1.45
0 4 -16 4.85 1.35
0 4 -16 2.89 1.14
0 4 -16 5.62 1.41
0 5 0 1.58 1.14
0 5 0 -0.72 1.16
0 5 0 0.13 0.88
0 5 1 369.58 17.14
0 5 -1 318.48 16.06
0 5 -1 307.53 15.12
0 5 -1 331.21 16.86
0 5 2 379.3 18.16
0 5 -2 378.27 19.93
0 5 -2 387.73 18.48
0 5 -2 399.52 19.85
0 5 -2 387.98 18.68
0 5 -3 388.35 20.59
0 5 -3 376.91 18.94
0 5 -3 392.12 20.46
0 5 -3 412.19 19.78
0 5 -4 132.89 11.52
0 5 -4 146.42 11.29
0 5 -4 136.36 10.82
0 5 -4 138.31 11.66
0 5 -5 32.52 5.49
0 5 -5 36.53 5.93
0 5 -5 31.87 5.72
0 5 -5 28.46 4.51
0 5 -5 36.15 5.97
0 5 -6 92.72 9.79
0 5 -6 92.81 9.81
0 5 -6 107.55 11.06
0 5 -6 86.73 8.61
0 5 -6 104.41 10.5
0 5 -6 100.84 11.07
0 5 -7 132.33 13.2
0 5 -7 119.84 11.98
0 5 -7 123.26 11.96
0 5 -7 140.26 12.8
0 5 -7 131.54 12.99
0 5 -7 116.62 10.91
0 5 -8 301.6 19.67
0 5 -8 271.13 15.4
0 5 -8 320.99 21.86
0 5 -8 271.8 19.81
0 5 -8 313.88 21.96
0 5 -8 282.17 16.09
0 5 -8 283.21 19.99
0 5 -9 218.46 14.12
0 5 -9 257.28 15.37
0 5 -9 243.01 19.64
0 5 -9 227.74 18.57
0 5 -9 276.07 15.43
0 5 -9 267.43 21.16
0 5 -9 250.99 14.62
0 5 -9 261.76 15.5
0 5 -9 237.87 18.9
0 5 -10 273.39 16.35
0 5 -10 285.01 16.37
0 5 -10 287.18 15.67
0 5 -10 280.63 16.09
0 5 -10 266.97 15.77
0 5 -11 105.02 9.13
0 5 -11 107.91 9.47
0 5 -11 113.18 9.74
0 5 -11 113.03 9.51
0 5 -11 122.42 9.98
0 5 -11 101.27 9.54
0 5 -12 143.64 10.29
0 5 -12 153.58 11.11
0 5 -12 163.75 11.63
0 5 -12 163.18 11.49
0 5 -12 171.89 11.44
0 5 -12 167.12 11.58
0 5 -12 148.36 11.54
0 5 -13 92.95 8.1
0 5 -13 87.12 7.74
0 5 -13 83.42 7.55
0 5 -13 95.95 8.52
0 5 -13 83.67 7.25
0 5 -13 83.89 7.62
0 5 -14 14.12 2.88
0 5 -14 24.75 3.77
0 5 -14 19 3.34
0 5 -14 22.5 3.84
0 5 -14 18.08 2.85
0 5 -14 19.97 3.35
0 5 -14 20.12 3.55
0 5 -15 133.19 8.27
0 5 -15 136.39 8.45
0 5 -15 137.41 8.19
0 5 -15 150.85 9.07
0 5 -15 146.57 8.68
0 5 -15 152.82 8.86
0 5 -16 195.9 8.88
0 5 -16 195.69 8.93
0 6 0 1399.11 48.64
0 6 0 1459.72 52.22
0 6 -1 277.69 16.23
0 6 -1 300.15 18.65
0 6 1 289.65 17.56
0 6 -2 161.45 13.46
0 6 -2 146.22 11.15
0 6 -2 166.91 13.01
0 6 -2 152.8 11.97
0 6 -3 6.29 2.37
0 6 -3 7.07 2.69
0 6 -3 7.32 2.76
0 6 -3 9.43 3.09
0 6 -4 332.82 21.14
0 6 -4 344.21 21.66
0 6 -4 342.4 20.26
0 6 -4 315.72 19.57
0 6 -5 598.25 29.74
0 6 -5 567.74 28.83
0 6 -5 600.42 31.07
0 6 -5 606.59 30.68
0 6 -5 530.49 29.74
0 6 -6 55.44 8.34
0 6 -6 53.8 8.61
0 6 -6 53.55 8.17
0 6 -6 45.89 7.46
0 6 -6 54.88 8.52
0 6 -7 401.32 25
0 6 -7 365.94 23.64
0 6 -7 400.95 26.26
0 6 -7 336.57 18.41
0 6 -7 413.51 26.19
0 6 -7 393.93 24.71
0 6 -8 163.53 11.79
0 6 -8 172.89 17.3
0 6 -8 168.82 11.7
0 6 -8 150.25 14.69
0 6 -8 174.42 12.15
0 6 -8 147.01 14.79
0 6 -8 151.54 15.18
0 6 -8 155 15.96
0 6 -9 432.32 21.67
0 6 -9 463.99 22.24
0 6 -9 481.75 21.79
0 6 -9 452.4 21.66
0 6 -10 208.29 13.37
0 6 -10 221.67 13.95
0 6 -10 198.43 12.99
0 6 -10 195.68 13.3
0 6 -11 9.6 2.69
0 6 -11 11.43 2.9
0 6 -11 13.77 3.32
0 6 -11 15.03 3.15
0 6 -11 10.84 2.94
0 6 -12 156.09 10.72
0 6 -12 155.97 10.63
0 6 -12 132.35 9.36
0 6 -12 141.76 10.4
0 6 -12 126.77 9.28
0 6 -12 156.69 10.49
0 6 -13 117.9 8.25
0 6 -13 136.98 9.21
0 6 -13 143.5 9.58
0 6 -13 125.44 9.15
0 6 -13 144.1 9.59
0 6 -14 67.61 5.42
0 6 -14 90.78 6.79
0 6 -14 87.28 6.54
0 6 -14 90.43 6.67
0 6 -14 82.81 6.58
0 6 -14 76.31 6.2
0 6 -15 11.22 2.02
0 6 -15 9.71 1.88
0 6 -15 12.59 2.03
0 6 -15 13.36 2.07
0 7 0 -2.53 2.66
0 7 0 1.44 1.91
0 7 -1 226.34 17.68
0 7 1 250.42 18.55
0 7 -1 225.96 17.93
0 7 -2 180.84 15.93
0 7 2 174.03 15.23
0 7 -2 198.55 16.55
0 7 -3 36.14 7.36
0 7 -3 36.07 7.15
0 7 -4 20.3 5.23
0 7 -4 31.18 6.62
0 7 -4 20.5 5.45
0 7 -5 72.77 10.55
0 7 -5 57.41 9.14
0 7 -5 59.98 8.86
0 7 -6 305.77 22.2
0 7 -6 374.76 25.61
0 7 -6 311.68 23.35
0 7 -6 277.03 20.91
0 7 -6 368.51 24.93
0 7 -7 358.45 18.66
0 7 -8 135.79 10.55
0 7 -8 131.25 10.4
0 7 -9 108.63 9.27
0 7 -9 101.29 8.76
0 7 -10 50.11 6.01
0 7 -10 52.64 6.1
0 7 -10 47.14 5.81
0 7 -10 57.51 6.38
0 7 -11 41.68 5.25
0 7 -11 35.2 4.64
0 7 -11 46.25 5.33
0 7 -11 42.34 5.4
0 7 -11 42.43 5.25
0 7 -12 1.89 1.08
0 7 -12 -0.49 1.3
0 7 -12 0.84 0.88
0 7 -12 1.92 1.51
0 7 -13 22.72 3.22
0 7 -13 30.48 3.68
0 7 -13 27.53 3.5
0 7 -13 29.41 3.72
0 7 -13 26.68 3.45
0 7 -14 133.38 7.29
0 7 -14 140.67 7.79
0 7 -14 140.31 7.45
0 7 -14 146.36 7.85
0 8 0 616.84 33.88
0 8 1 65.43 9.7
0 8 -1 66.81 10.01
0 8 -7 236.41 14.08
0 8 -8 3.15 1.46
0 8 -8 4.77 1.76
0 8 -9 10.45 2.7
0 8 -9 12.9 3.07
0 8 -9 11.96 2.77
0 8 -10 4.83 2.06
0 8 -10 5.43 1.89
0 8 -10 5.28 1.9
0 8 -11 30.22 3.88
0 8 -11 30.49 3.94
0 8 -11 34.96 4.02
0 8 -11 28.79 3.78
0 8 -12 83.02 6.18
0 8 -12 86.15 6.18
0 8 -12 74.61 5.48
0 8 -12 65.83 5.1
0 8 -12 86.8 5.93
0 8 -13 29.46 3.05
0 8 -13 31.39 3.16
0 9 -7 315.09 14.98
0 9 -8 67.85 6.14
0 9 -8 57.73 5.37
0 9 -9 26.68 3.4
0 9 -9 39.39 4.44
0 9 -10 14.95 2.48
0 9 -10 11.75 2.13
0 9 -10 16.36 2.62
0 9 -10 13.51 2.43
0 9 -11 11.22 1.91
0 9 -11 15.43 2.31
0 9 -11 13.05 2.09
0 10 -8 24.37 3.02
0 10 -9 26.3 2.78
-1 -11 3 16.1 2.49
1 -11 -3 155.84 7.6
1 -11 -2 207.1 9.41
-1 -11 2 129.85 7.89
-1 -11 1 10.34 2.01
1 -11 -1 55.71 4.52
-1 -11 0 37.21 3.9
1 -11 0 55.32 4.6
-1 -11 -1 3.12 1
-1 -11 -2 67.9 5.11
-1 -11 -3 -1.24 0.67
-1 -11 -3 7.07 1.79
-1 -11 -4 16.77 2.2
-1 -11 -4 57.48 4.33
-1 -11 -5 103.12 6.23
1 -10 -9 20.76 2.6
1 -10 -8 9.26 2.03
1 -10 -7 75.02 6.22
1 -10 -6 312.95 12.27
1 -10 -6 56.37 6.17
-1 -10 5 80.52 6.75
1 -10 -5 119.8 8.91
1 -10 -4 129.38 9.27
1 -10 -4 141.92 9.25
1 -10 -3 110.27 7.9
1 -10 -3 112.19 8.52
-1 -10 3 103.06 7.96
1 -10 -2 473.21 19.45
-1 -10 2 466.61 20.15
1 -10 -1 46.29 4.85
-1 -10 1 39.01 4.8
-1 -10 1 33.6 4.13
-1 -10 0 16.35 3.04
-1 -10 0 14.71 2.85
1 -10 0 18.48 2.99
-1 -10 -1 113.53 8.18
-1 -10 -1 125.51 8.68
1 -10 1 114.85 7.83
-1 -10 -2 100.15 7.56
1 -10 2 95.77 6.94
-1 -10 -2 120.37 8.2
-1 -10 -3 13.87 2.49
-1 -10 -3 11.86 2.46
-1 -10 -4 188.93 10.7
-1 -10 -4 211.94 10.99
-1 -10 -5 12.54 2.6
-1 -10 -5 2.16 1.17
-1 -10 -6 15.86 2.67
-1 -10 -6 19.77 3.22
-1 -10 -7 72.47 5.83
-1 -10 -7 72.09 6.18
-1 -10 -8 64.76 5.09
1 -9 -11 25.2 3
1 -9 -11 24.74 2.89
1 -9 -10 14.91 2.58
1 -9 -10 17.55 2.89
1 -9 -9 46.23 4.96
1 -9 -9 47.92 5.39
1 -9 -8 21.24 4.02
1 -9 -8 30.88 4.33
1 -9 -7 35.78 5.04
1 -9 -7 49 6.24
1 -9 -6 53.06 6.2
1 -9 -6 43.44 5.05
1 -9 -6 50.07 6.52
-1 -9 6 39.05 4.91
1 -9 -5 157.26 11.19
1 -9 -5 137.2 9.3
1 -9 -5 166.33 10.38
1 -9 -5 168.18 12.41
1 -9 -4 49.25 6.07
1 -9 -4 50 5.54
1 -9 -4 45.24 5.08
-1 -9 4 35.87 5.01
1 -9 -3 160.27 10.6
-1 -9 3 151.67 11.08
1 -9 -3 181.16 12.19
1 -9 -2 297.95 16.03
1 -9 -2 270.08 14.43
-1 -9 2 256.74 14.79
-1 -9 1 125.58 9.85
1 -9 -1 120.97 9.16
-1 -9 1 116.28 9.33
1 -9 0 349.75 17.41
-1 -9 0 359.42 18.18
-1 -9 0 377.59 18.73
-1 -9 -1 255.5 14.64
1 -9 1 221.02 13.15
-1 -9 -1 258.94 14.68
1 -9 2 91.39 7.64
-1 -9 -2 97.56 8.49
-1 -9 -2 106.31 8.72
-1 -9 -3 94.68 8.04
-1 -9 -3 95.52 8.33
-1 -9 -4 380.26 19.15
-1 -9 -4 364.75 17.67
-1 -9 -4 359.28 17.73
-1 -9 -5 256.32 15.15
-1 -9 -5 230.03 13.04
-1 -9 -5 244.52 14.43
-1 -9 -5 243.93 13.61
-1 -9 -6 394.52 17.85
-1 -9 -6 427.59 20.29
-1 -9 -6 391.82 18.12
-1 -9 -6 403.84 19.19
-1 -9 -7 28.07 4.05
-1 -9 -7 33.67 4.6
-1 -9 -7 31.68 4.71
-1 -9 -8 101.89 7.71
-1 -9 -8 103.38 8.33
-1 -9 -9 88.45 6.97
-1 -9 -9 86.61 6.88
-1 -9 -10 72.88 5.81
-1 -9 -10 68.74 5.54
-1 -9 -11 6.51 1.45
1 -8 -13 122.4 6.65
1 -8 -12 3.11 1.15
1 -8 -12 3.89 1.37
1 -8 -11 16.51 2.99
1 -8 -11 15.2 2.76
1 -8 -10 80.74 7.49
1 -8 -10 74.18 6.76
1 -8 -9 53.62 6.35
1 -8 -9 42.13 5.35
1 -8 -8 55.21 6.1
1 -8 -8 49.48 6.77
1 -8 -7 171.7 11.37
1 -8 -7 183.88 12.58
1 -8 -7 177.66 13.44
1 -8 -6 293.18 15.59
1 -8 -6 341.38 17.71
1 -8 -6 358.54 19.51
1 -8 -6 334.91 16.3
-1 -8 5 4.84 1.77
1 -8 -5 10.77 3.2
1 -8 -5 10.54 2.75
1 -8 -5 9.55 2.45
1 -8 -5 11.34 2.68
-1 -8 4 107.49 9.44
-1 -8 4 94.07 8.66
1 -8 -4 125.85 9.24
1 -8 -4 124.93 10.19
1 -8 -4 132.15 9.37
1 -8 -4 139.6 11.18
-1 -8 3 45.82 5.79
1 -8 -3 57.29 6.14
1 -8 -3 52.45 5.71
1 -8 -3 53.63 6.44
-1 -8 3 49.4 6.3
1 -8 -3 51.3 6.53
1 -8 -2 599.7 25.04
1 -8 -2 515.5 22.7
1 -8 -2 578.17 25.42
-1 -8 2 509.81 23.75
-1 -8 2 467.86 22.98
1 -8 -1 108.83 8.93
1 -8 -1 120.67 9.93
-1 -8 1 108.22 9.3
-1 -8 1 113.19 9.55
1 -8 0 215.68 13.12
-1 -8 0 215.33 13.81
-1 -8 0 221.83 13.85
1 -8 1 16.13 3.29
-1 -8 -1 16.53 3.55
-1 -8 -1 17.61 3.6
1 -8 2 263.81 14.89
-1 -8 -2 300.38 16.5
-1 -8 -2 320.13 17.12
-1 -8 -2 300.81 16.57
-1 -8 -3 96.22 8.83
-1 -8 -3 99.39 8.91
-1 -8 -3 114.71 9.54
-1 -8 -3 107.04 9.11
-1 -8 -4 479.97 22.32
-1 -8 -4 507.49 23.03
-1 -8 -4 494.58 23.26
-1 -8 -4 525.35 24
-1 -8 -5 178.43 11.77
-1 -8 -5 174.3 12.41
-1 -8 -5 170.89 11.78
-1 -8 -5 180.67 12.82
-1 -8 -6 5.55 2.23
-1 -8 -6 5.6 2.16
-1 -8 -6 6.5 2.55
-1 -8 -6 2.05 1.28
-1 -8 -7 258.51 14.28
-1 -8 -7 264.83 15.6
-1 -8 -7 251.19 15.11
-1 -8 -7 254.17 13.86
-1 -8 -8 74.65 7.59
-1 -8 -8 62.64 6.92
-1 -8 -8 71.48 6.9
-1 -8 -9 10.51 2.65
-1 -8 -9 12.92 2.82
-1 -8 -9 11.45 2.64
-1 -8 -10 15.19 2.95
-1 -8 -10 15.16 3.02
-1 -8 -11 8.84 1.98
-1 -8 -11 12.27 2.6
-1 -8 -12 23.41 2.96
-1 -8 -12 26.63 3.31
1 -7 -14 43.11 3.84
1 -7 -13 77.77 6.25
1 -7 -13 80.16 6.24
1 -7 -12 32.35 4.32
1 -7 -12 34.66 4.35
1 -7 -11 40.86 5.3
1 -7 -11 47.04 5.53
1 -7 -10 44.23 6.17
1 -7 -10 45.05 5.67
1 -7 -9 54.41 6.38
1 -7 -9 60.3 7.32
1 -7 -8 332.87 19.26
1 -7 -8 300.5 17.11
1 -7 -8 328.56 17.14
1 -7 -7 519.23 22.48
1 -7 -7 547.81 23.03
1 -7 -7 488.36 23.2
1 -7 -7 529.81 25.5
1 -7 -6 149.41 10.2
1 -7 -6 132.65 10.38
-1 -7 6 142.89 16.61
1 -7 -6 147.3 11.64
-1 -7 6 110.73 9.58
1 -7 -6 135.02 9.53
1 -7 -5 153.04 11.59
1 -7 -5 131.72 9.53
-1 -7 5 125.81 10.27
1 -7 -5 138.92 9.93
1 -7 -5 137.93 10.54
-1 -7 4 105.99 9.33
1 -7 -4 138.48 9.7
1 -7 -4 168.51 14.92
-1 -7 4 164.08 17.04
1 -7 -4 136.39 10.73
-1 -7 4 120.1 9.98
1 -7 -4 131.01 9.53
1 -7 -4 140.87 10.43
1 -7 -3 40.78 7.09
1 -7 -3 38.41 5.22
-1 -7 3 58.35 9.61
1 -7 -3 40.9 5.1
-1 -7 3 35.15 5.17
1 -7 -3 38.49 5.64
-1 -7 3 32.4 4.96
1 -7 -3 33.64 4.56
-1 -7 2 13.95 4.71
-1 -7 2 9.49 2.63
1 -7 -2 9.19 3.44
1 -7 -2 7.09 2.13
1 -7 -2 7.44 2.54
-1 -7 2 4.39 2.16
1 -7 -2 7.19 2.06
1 -7 -1 98.62 11.14
1 -7 -1 83.16 7.82
-1 -7 1 92.78 10.95
1 -7 -1 89.6 8.55
1 -7 -1 87.15 7.57
-1 -7 1 79.13 7.83
-1 -7 1 81.72 7.85
-1 -7 0 455.54 25.56
1 -7 0 470.96 26.47
-1 -7 0 406.79 20.17
-1 -7 0 448.01 20.66
1 -7 0 392.86 19.01
-1 -7 -1 27.76 4.39
1 -7 1 30.19 6.45
1 -7 1 25.08 3.89
-1 -7 -1 28.23 4.62
-1 -7 -1 29.35 5.97
-1 -7 -1 30.9 4.72
-1 -7 -2 63.85 6.78
-1 -7 -2 74.59 9.33
1 -7 2 92.5 11.49
-1 -7 -2 73.49 7.44
-1 -7 -2 58.22 6.58
1 -7 2 49.93 5.68
-1 -7 -3 93.9 10.41
-1 -7 -3 85.28 7.87
-1 -7 -3 94.12 8.44
-1 -7 -3 75.89 7.54
1 -7 3 97.95 12.75
-1 -7 -3 69.81 7.33
-1 -7 -4 81.85 7.9
-1 -7 -4 80.07 7.71
1 -7 4 87.74 12.26
-1 -7 -4 74.18 7.65
-1 -7 -4 74.57 7.34
-1 -7 -5 283.09 16.49
-1 -7 -5 260.54 14.97
-1 -7 -5 280.85 16.22
-1 -7 -5 272 15.44
-1 -7 -6 8.97 2.67
-1 -7 -6 7.31 2.33
-1 -7 -6 10.96 3.03
-1 -7 -6 13.13 3.34
-1 -7 -7 166.14 12.16
-1 -7 -7 171 12.32
-1 -7 -7 175.17 11.47
-1 -7 -7 167.56 11.07
-1 -7 -8 86.68 7.81
-1 -7 -8 101.52 8.11
-1 -7 -8 82.54 8.19
-1 -7 -8 85.49 8.45
-1 -7 -9 14.79 3.68
-1 -7 -9 13.58 3.04
-1 -7 -10 326.3 17.66
-1 -7 -10 333.11 17.35
-1 -7 -11 19.43 3.66
-1 -7 -11 15.14 3.08
-1 -7 -12 106.61 8.21
-1 -7 -12 101.98 7.73
-1 -7 -13 61.56 5.44
-1 -7 -13 59.54 5.17
1 -6 -15 19.11 2.52
1 -6 -14 15.12 2.51
1 -6 -14 14.89 2.57
1 -6 -13 36.36 4.47
1 -6 -13 39.04 4.75
1 -6 -12 91.8 8.18
1 -6 -12 100.43 8.25
1 -6 -12 88.5 8.02
1 -6 -11 4 2.01
1 -6 -11 6.23 1.94
1 -6 -11 8.19 2.79
1 -6 -11 3.57 1.97
1 -6 -10 21.43 4
1 -6 -10 19.87 4.17
1 -6 -10 23.27 4.56
1 -6 -10 14.3 3.72
1 -6 -9 271.85 16.63
1 -6 -9 257.63 16.23
1 -6 -9 245.32 15.8
1 -6 -9 249.27 15.06
1 -6 -8 459.95 23.22
1 -6 -8 536.51 22.44
1 -6 -8 551.47 22.84
1 -6 -8 446.79 21.67
-1 -6 8 411.88 28.73
1 -6 -8 543.57 24.81
1 -6 -8 415.56 22.39
1 -6 -7 65.11 7.49
1 -6 -7 80.11 8.32
1 -6 -7 79.77 7.36
1 -6 -7 71.63 7.27
1 -6 -7 85.84 7.46
-1 -6 7 86.11 11.89
1 -6 -7 74.39 8.19
1 -6 -6 330.81 16.88
-1 -6 6 458.59 28.02
1 -6 -6 345.7 16.69
1 -6 -6 364.7 18.78
1 -6 -6 359.91 18.52
1 -6 -6 258.97 16.11
-1 -6 6 254.39 15.78
1 -6 -6 332.03 16.1
-1 -6 5 50.68 6.18
1 -6 -5 61.53 6.03
1 -6 -5 58.64 6
1 -6 -5 64.51 6.96
1 -6 -5 57.3 6.2
1 -6 -4 554.33 26.81
1 -6 -4 518.42 22.21
-1 -6 3 184.72 15.66
1 -6 -3 168.5 13.05
-1 -6 2 235.84 17.32
1 -6 -2 225.76 15.61
1 -6 -1 1280.73 47.71
-1 -6 1 1166.65 46.97
1 -6 0 207.1 15.6
-1 -6 0 190.4 14.46
1 -6 1 104.64 10.81
-1 -6 -1 74.67 8.74
1 -6 2 693.93 33.11
-1 -6 -2 684.15 30.11
-1 -6 -3 125.59 11.17
1 -6 3 134.19 12.92
1 -6 4 605.85 26.29
-1 -6 -4 644.04 26.38
-1 -6 -5 11.06 2.73
-1 -6 -5 9.75 2.52
-1 -6 -5 14.24 3.4
-1 -6 -5 11.49 2.71
-1 -6 -5 12.61 3.13
1 -6 5 8.31 3.57
-1 -6 -6 35.19 4.76
1 -6 6 51.15 9.29
-1 -6 -6 33.41 5.01
-1 -6 -6 38.08 5.44
-1 -6 -6 33.68 4.96
-1 -6 -6 31.68 4.47
-1 -6 -7 294.61 16.67
1 -6 7 335.14 26.11
-1 -6 -7 323.36 17.57
-1 -6 -7 276.93 16.19
-1 -6 -7 284.48 15
-1 -6 -7 293.7 15.44
-1 -6 -8 375.97 17.56
-1 -6 -8 381.75 19.87
-1 -6 -8 362.05 20.03
-1 -6 -8 383.26 18.32
-1 -6 -8 386.67 19.83
-1 -6 -8 378.08 19.44
-1 -6 -9 566.01 26.08
-1 -6 -9 615.31 26.96
-1 -6 -9 606.2 24.46
-1 -6 -9 559.53 25.76
-1 -6 -9 604.24 27.52
-1 -6 -9 645.35 25.61
-1 -6 -10 33.42 5.18
-1 -6 -10 37.53 5.3
-1 -6 -10 36.42 5.21
-1 -6 -10 34.65 5.43
-1 -6 -10 42.11 5.38
-1 -6 -11 60.32 6.91
-1 -6 -11 67.01 7.2
-1 -6 -11 70.69 7.57
-1 -6 -11 55.32 6.52
-1 -6 -12 134.19 9.78
-1 -6 -12 133.14 9.91
-1 -6 -12 134.25 10.15
-1 -6 -13 136.21 9.5
-1 -6 -13 133.34 9.12
-1 -6 -13 138.67 9.29
-1 -6 -14 37.97 4.23
-1 -6 -14 41.91 4.24
1 -5 -16 13.41 2.02
1 -5 -15 56.87 5.29
1 -5 -15 51.58 4.82
1 -5 -14 15.54 2.95
1 -5 -14 18.53 3.51
1 -5 -14 14.9 2.83
1 -5 -14 14.37 2.55
1 -5 -13 2.98 1.27
1 -5 -13 3.17 1.32
1 -5 -13 3.39 1.72
1 -5 -13 4.86 1.1
1 -5 -12 80.57 7.82
1 -5 -12 65.29 7.2
1 -5 -12 70.71 7.03
1 -5 -12 82.88 8.28
1 -5 -12 66.71 7.15
1 -5 -11 196.05 13.64
1 -5 -11 173.53 12.3
1 -5 -11 182.91 12.68
1 -5 -11 195.77 13.29
1 -5 -11 179.89 12.15
1 -5 -10 153.46 11.53
1 -5 -10 156.6 11.31
1 -5 -10 178.04 13.04
1 -5 -10 169.57 12.17
1 -5 -10 178.48 12.71
1 -5 -9 91.86 8.61
1 -5 -9 84.96 8.88
1 -5 -9 79.08 11.35
1 -5 -9 98.41 9.27
1 -5 -9 118.46 9.35
1 -5 -9 85.64 8.05
-1 -5 9 79.17 11.1
1 -5 -9 83.88 8.43
1 -5 -8 5.08 2.22
-1 -5 8 8.27 4.17
1 -5 -8 2.51 2.77
1 -5 -8 5.02 2.16
1 -5 -8 7.26 2.23
1 -5 -8 8.04 2.07
1 -5 -8 8.27 2.91
1 -5 -8 4.74 1.87
1 -5 -7 17.46 4.49
1 -5 -7 27.09 4.47
1 -5 -7 43.55 6.44
1 -5 -7 26.42 4.04
1 -5 -7 28.07 4.35
1 -5 -7 26.82 4.43
1 -5 -7 25.43 3.93
1 -5 -7 21.42 3.93
-1 -5 7 28.28 6.45
-1 -5 6 302.88 21.31
-1 -5 5 228.33 17.45
-1 -5 4 1381.43 49.6
1 -5 -4 1155.76 43.06
-1 -5 3 349.72 19.79
1 -5 -3 311.81 16.8
1 -5 -2 248.19 14.77
-1 -5 2 250.66 15.7
-1 -5 1 645.6 28.34
1 -5 -1 692.77 28.99
1 -5 0 170.09 12.53
-1 -5 0 158.85 11.81
1 -5 1 994.6 35.36
-1 -5 -1 1045.09 39.07
1 -5 2 122.33 8.66
-1 -5 -2 98.72 8.9
1 -5 2 123.05 10.6
-1 -5 -3 145.32 10.43
1 -5 3 121.15 9.16
1 -5 3 122.61 11.26
1 -5 4 723.2 32.87
1 -5 4 667.33 28.16
1 -5 5 680.97 32.64
1 -5 5 616.7 27.33
1 -5 6 949.9 41.94
1 -5 6 850.56 35.53
-1 -5 -7 649.37 26.98
-1 -5 -7 683.29 27.75
1 -5 7 759.53 33.29
1 -5 7 636.51 26.73
-1 -5 -7 651.43 27.01
-1 -5 -7 728.86 26.62
-1 -5 -7 533.45 23.77
-1 -5 -7 620.48 27.51
1 -5 7 795.31 38.77
-1 -5 -7 660.66 32.28
-1 -5 -8 10.84 2.64
1 -5 8 6.88 3.07
1 -5 8 7.3 3.66
-1 -5 -8 7.2 2.22
-1 -5 -8 5.76 1.92
1 -5 8 6.38 2.18
-1 -5 -8 4.15 2.13
-1 -5 -8 3.4 1.81
-1 -5 -8 8.58 2.93
-1 -5 -8 4.78 1.86
-1 -5 -9 165.99 12.15
-1 -5 -9 157.86 12.03
-1 -5 -9 160.6 11.64
-1 -5 -9 158.06 11.77
1 -5 9 129.9 14.1
-1 -5 -9 136.41 14.82
1 -5 9 161.2 17.95
-1 -5 -9 152.23 11.56
-1 -5 -9 180.88 11.43
-1 -5 -10 188.47 13.33
-1 -5 -10 243.86 13.93
-1 -5 -10 204.48 13.37
-1 -5 -10 205.08 13.81
-1 -5 -10 211.51 14.11
-1 -5 -10 197.17 13.47
-1 -5 -11 43.76 5.98
-1 -5 -11 49.12 6.38
-1 -5 -11 45.28 5.81
-1 -5 -11 48.68 6.26
-1 -5 -11 53.45 6.54
-1 -5 -12 212.22 13.37
-1 -5 -12 181.78 12.33
-1 -5 -12 214.28 13.83
-1 -5 -12 174.25 11.87
-1 -5 -12 185.59 12.63
-1 -5 -13 112.36 8.68
-1 -5 -13 120.88 9.43
-1 -5 -13 110.81 8.85
-1 -5 -13 116.79 9.19
-1 -5 -13 127.44 9.38
-1 -5 -14 114.94 8.14
-1 -5 -14 121.27 8.47
-1 -5 -14 124.17 8.79
-1 -5 -15 85.15 5.76
-1 -5 -15 90.33 6.36
-1 -5 -15 98.35 6.64
1 -4 -16 35.74 3.89
1 -4 -16 25.56 3.18
1 -4 -15 60.03 5.59
1 -4 -15 59.07 5.7
1 -4 -15 59.5 5.59
1 -4 -15 72.25 6.5
1 -4 -14 2.83 0.73
1 -4 -14 4.92 2.27
1 -4 -14 1.82 1.26
1 -4 -14 1.14 1.15
1 -4 -14 2.72 1.53
1 -4 -13 35.13 5.13
1 -4 -13 25.65 4.46
1 -4 -13 30.62 4.97
1 -4 -13 34.58 5.01
1 -4 -13 37.41 5.41
1 -4 -13 28.09 4.29
1 -4 -13 32.88 4.58
1 -4 -12 0.55 1.03
1 -4 -12 4.16 2.23
1 -4 -12 0.02 0.82
1 -4 -12 0.85 1.86
1 -4 -12 -1.2 0.88
1 -4 -12 2.87 1.65
1 -4 -12 2.06 1.93
1 -4 -11 38.68 5.24
1 -4 -11 34.28 4.97
1 -4 -11 40.23 5.79
1 -4 -11 43.37 6.05
1 -4 -11 41.37 5.99
1 -4 -11 42.65 5.68
1 -4 -11 48.26 6.12
1 -4 -11 40.53 5.61
1 -4 -10 431.14 21.95
1 -4 -10 453.87 29.38
1 -4 -10 399.14 20.08
1 -4 -10 435.18 21.19
1 -4 -10 453.29 21.4
1 -4 -10 446.6 21.42
1 -4 -10 505.55 23.16
1 -4 -10 488 23.2
1 -4 -10 453.46 21.5
1 -4 -9 86.2 7.99
1 -4 -9 107.2 9.34
1 -4 -9 99.63 12.14
1 -4 -9 86.43 8
1 -4 -9 110.08 9.85
1 -4 -9 90.04 8.79
1 -4 -9 108.75 8.96
1 -4 -9 85.48 8.11
1 -4 -9 88.26 7.92
1 -4 -8 37.87 4.92
1 -4 -8 32.97 6.39
1 -4 -8 29.46 4.44
1 -4 -8 36.12 5.29
1 -4 -7 222.77 16.29
-1 -4 7 263.05 17.81
-1 -4 6 78.34 9.11
1 -4 -6 54.81 7.03
-1 -4 5 49.25 6.74
1 -4 -5 31.97 4.77
1 -4 -4 928.49 34.71
1 -4 -4 867.1 33.43
1 -4 -3 175.28 10.4
1 -4 -3 197.42 10.28
1 -4 -2 1372.16 41.19
1 -4 -2 1436.63 44.17
1 -4 -1 806.82 28.53
-1 -4 1 748.8 27.96
-1 -4 0 134.78 9.27
1 -4 0 115.3 8.9
1 -4 0 114.14 7.37
-1 -4 -1 736.98 26.66
1 -4 1 692.04 24.79
1 -4 1 656.55 26.85
1 -4 2 1225.22 41.7
-1 -4 -2 1207.92 39.38
1 -4 2 1157.87 38.98
1 -4 3 9.47 2.37
-1 -4 -3 6.23 2.15
-1 -4 -3 9.27 2.59
1 -4 3 7.48 2.7
-1 -4 -4 275.48 15.4
1 -4 4 281.7 15.37
1 -4 5 1172.43 40.98
-1 -4 -5 1034.36 40.44
-1 -4 -6 570.7 27.94
1 -4 6 643.92 28.12
1 -4 7 172.77 13.6
-1 -4 -7 147.56 13.32
-1 -4 -8 347.59 16.16
-1 -4 -8 291.16 16.24
-1 -4 -8 331.99 22.05
-1 -4 -8 285.64 16.04
1 -4 8 355.01 21.48
1 -4 8 291.46 16.07
-1 -4 -8 302.44 16.73
-1 -4 -8 312.47 16.75
-1 -4 -9 175.57 12.15
-1 -4 -9 172.64 12.14
-1 -4 -9 168.55 11.79
1 -4 9 197.57 16.53
-1 -4 -9 184.22 16.93
-1 -4 -9 179.18 12.45
-1 -4 -9 163.63 11.71
1 -4 9 176.87 12.02
-1 -4 -9 184.91 11.66
-1 -4 -9 136.65 10.55
-1 -4 -10 21.66 4.42
-1 -4 -10 25.87 4.56
1 -4 10 28.8 4.8
-1 -4 -10 19.48 3.74
-1 -4 -10 17.66 5.23
-1 -4 -10 21.57 3.99
-1 -4 -10 21.76 4.17
-1 -4 -10 18.38 4.01
1 -4 10 24.34 6.1
-1 -4 -10 19.64 4.04
-1 -4 -11 52.76 6.38
-1 -4 -11 47.36 6.18
-1 -4 -11 63.56 7.17
-1 -4 -11 54.35 6.66
-1 -4 -11 53.56 6.45
-1 -4 -11 55.17 7.04
-1 -4 -12 306.93 17.08
-1 -4 -12 330.51 17.76
-1 -4 -12 357.99 19.19
-1 -4 -12 344.07 18.39
-1 -4 -12 322.17 17.63
-1 -4 -12 303.33 17.25
-1 -4 -13 119.28 9.42
-1 -4 -13 124.42 9.96
-1 -4 -13 109.59 9.18
-1 -4 -13 123.19 9.88
-1 -4 -13 112.02 9.09
-1 -4 -13 111.22 9.11
-1 -4 -14 15.86 3.21
-1 -4 -14 11.26 2.95
-1 -4 -14 14.16 2.95
-1 -4 -14 12.05 2.6
-1 -4 -14 14.1 2.87
-1 -4 -15 25.94 3.61
-1 -4 -15 27.27 3.65
-1 -4 -15 20.54 3.14
-1 -4 -16 62.68 4.86
-1 -4 -16 48.95 4.33
1 -3 -17 17.84 2.48
1 -3 -17 16.21 2.29
1 -3 -16 38.62 4.32
1 -3 -16 35.85 3.91
1 -3 -16 38.39 4.18
1 -3 -16 32.75 3.87
1 -3 -16 44.51 4.7
1 -3 -15 23.04 3.57
1 -3 -15 19.57 3.2
1 -3 -15 19.69 3.37
1 -3 -15 16.65 3.11
1 -3 -15 19.92 3.42
1 -3 -15 17.95 3.2
1 -3 -14 3.76 2.16
1 -3 -14 3.2 1.89
1 -3 -14 4.18 1.85
1 -3 -14 2.62 1.73
1 -3 -14 3.35 2.08
1 -3 -14 1.67 0.95
1 -3 -13 228.21 14.29
1 -3 -13 233.97 14.54
1 -3 -13 219.51 13.85
1 -3 -13 203.41 13.19
1 -3 -13 239.15 14.43
1 -3 -13 204.08 13.37
1 -3 -13 223.52 13.89
1 -3 -12 43.37 5.73
1 -3 -12 46.02 6.11
1 -3 -12 40.25 5.75
1 -3 -12 48.93 5.99
1 -3 -12 41.65 5.58
1 -3 -12 45.27 6.13
1 -3 -12 37.68 5.36
1 -3 -12 43.98 6.13
1 -3 -11 3.55 1.81
1 -3 -11 3.43 1.96
1 -3 -11 3.19 1.8
1 -3 -11 1.86 1.62
1 -3 -11 3.22 2.07
1 -3 -11 0.87 1.02
1 -3 -11 2.13 1.04
1 -3 -11 0.76 1.57
1 -3 -11 0.95 0.95
1 -3 -11 2.56 1.6
1 -3 -10 94.8 8.4
1 -3 -10 72.13 7.15
1 -3 -10 103.1 9.27
1 -3 -10 98.71 8.91
1 -3 -10 80.05 7.74
1 -3 -10 107.58 9.23
1 -3 -10 103.08 8.85
1 -3 -10 96.42 8.53
1 -3 -10 91.07 8.17
1 -3 -10 76.1 10.53
1 -3 -9 17.47 3.3
1 -3 -9 20.69 3.75
1 -3 -9 15.82 3.27
1 -3 -9 14.81 4.31
1 -3 -8 99.54 10.57
1 -3 -7 705.5 31.12
1 -3 -6 181.49 12.59
1 -3 -5 289.34 15.53
1 -3 -4 1373.24 40.03
1 -3 -4 1061.87 39.22
1 -3 -3 96.67 6.71
1 -3 -3 106.03 6.66
1 -3 -3 95.76 6.89
-1 -3 2 375.34 15.93
1 -3 -2 386.27 14.48
1 -3 -2 373.69 15.18
-1 -3 1 1908.53 50.28
1 -3 -1 1918.87 48.09
1 -3 -1 2044.76 50.66
1 -3 -1 1489.23 45.09
-1 -3 0 85.41 6.08
1 -3 0 81.48 5.21
1 -3 0 77.51 6.01
-1 -3 -1 2432.35 72.63
1 -3 1 2610.07 74.43
1 -3 1 2598.63 72.52
1 -3 2 3043.83 92.11
1 -3 2 3563.25 91.98
-1 -3 -2 3354.34 90.93
-1 -3 -2 2993.09 90.74
-1 -3 -3 528.96 22.18
1 -3 3 581.33 22.28
-1 -3 -4 4136.33 118.32
-1 -3 -5 1880.29 60.97
-1 -3 -6 69.51 7.88
-1 -3 -7 151.38 12.77
-1 -3 -8 17.21 4.32
-1 -3 -9 84.16 7.88
-1 -3 -9 87.96 7.59
-1 -3 -9 83.75 8.34
-1 -3 -9 72.65 9.94
1 -3 9 76.61 7.44
-1 -3 -9 72.07 7.32
-1 -3 -9 81.27 7.64
-1 -3 -9 84.4 7.88
-1 -3 -9 88.19 8.03
-1 -3 -10 202.48 13.22
-1 -3 -10 200.65 13.2
1 -3 10 184.15 12.64
-1 -3 -10 224.7 14.53
-1 -3 -10 203.35 17.93
-1 -3 -10 182.38 12.51
-1 -3 -10 199.86 13.19
-1 -3 -10 202.28 13.24
-1 -3 -11 634.4 27.56
-1 -3 -11 669.2 28.2
-1 -3 -11 642.76 27.58
-1 -3 -11 591.51 26.55
-1 -3 -11 646.28 27.73
-1 -3 -11 560.02 34.33
-1 -3 -11 676.15 29.09
-1 -3 -12 394.04 20.46
-1 -3 -12 456.5 21.91
-1 -3 -12 438.75 21.79
-1 -3 -12 504.75 23.79
-1 -3 -12 445.28 21.92
-1 -3 -12 459.59 22.33
-1 -3 -13 14.66 3.49
-1 -3 -13 20.02 4.34
-1 -3 -13 17.4 3.82
-1 -3 -13 19.46 3.8
-1 -3 -13 14 3.29
-1 -3 -13 18.45 3.84
-1 -3 -14 10.46 2.63
-1 -3 -14 8.73 2.32
-1 -3 -14 10.11 2.61
-1 -3 -14 10.52 2.81
-1 -3 -14 6.14 1.82
-1 -3 -14 11.27 2.71
-1 -3 -15 20.49 3.39
-1 -3 -15 13.82 2.87
-1 -3 -15 21.68 3.57
-1 -3 -15 16.67 3.14
-1 -3 -16 13.55 2.38
-1 -3 -16 12.99 2.48
-1 -3 -16 12.37 2.31
-1 -3 -17 1.08 0.52
1 -2 -17 64.07 4.98
1 -2 -17 66.19 5.05
1 -2 -17 65.66 5.21
1 -2 -17 61.59 4.93
1 -2 -17 72.02 5.33
1 -2 -16 61.41 5.82
1 -2 -16 71.97 6.25
1 -2 -16 71.19 6.21
1 -2 -16 65.65 6.03
1 -2 -16 73.84 6.55
1 -2 -16 64.05 5.93
1 -2 -15 274.4 14.92
1 -2 -15 282.76 14.96
1 -2 -15 266.24 14.79
1 -2 -15 299.68 15.24
1 -2 -15 277.72 14.84
1 -2 -15 265.79 15.2
1 -2 -14 80.19 8.08
1 -2 -14 65.66 7.04
1 -2 -14 66.35 7.23
1 -2 -14 67.97 7.08
1 -2 -14 66.15 6.93
1 -2 -14 67.15 7.23
1 -2 -14 74.44 7.52
1 -2 -13 245.08 15.04
1 -2 -13 243.26 14.79
1 -2 -13 250.94 15.03
1 -2 -13 283.19 16.05
1 -2 -13 248.02 15.69
1 -2 -13 240.76 14.85
1 -2 -13 257.52 15.6
1 -2 -12 163.07 12.05
1 -2 -12 140.79 10.91
1 -2 -12 137.46 10.47
1 -2 -12 142.47 11.03
1 -2 -12 136.3 10.58
1 -2 -12 151.3 11.47
1 -2 -12 131.94 10.64
1 -2 -12 136 10.6
1 -2 -11 270.99 15.77
1 -2 -11 263.95 20.96
1 -2 -11 318.6 16.47
1 -2 -11 259.73 15.05
1 -2 -11 233.2 14.38
1 -2 -11 273.02 15.58
1 -2 -11 265.13 16
1 -2 -11 255.59 15.07
1 -2 -11 244.99 14.72
1 -2 -10 113.53 9.5
1 -2 -10 93.45 8.22
1 -2 -10 118.78 9.33
1 -2 -10 109.87 8.85
1 -2 -10 120.01 9.46
1 -2 -10 95.14 11.4
1 -2 -10 107.23 8.79
1 -2 -10 135.35 10.11
1 -2 -10 108.83 9.23
1 -2 -9 59.45 8.25
1 -2 -8 259.2 16.91
1 -2 -7 191.12 11.03
1 -2 -7 191.37 13.28
1 -2 -6 1564.08 47.89
1 -2 -6 1503.92 50.83
1 -2 -5 189.74 10.18
1 -2 -5 186.81 11.36
1 -2 -4 236.29 12.16
1 -2 -3 74.71 4.93
1 -2 -3 62.59 4.81
1 -2 -3 61.54 5.16
1 -2 -2 1564.66 45.13
-1 -2 2 1610.7 45.69
1 -2 -2 1613.97 45.17
1 -2 -1 744.35 22.65
1 -2 -1 743.71 22.89
-1 -2 1 685.95 22.56
1 -2 0 281.17 9.81
1 -2 0 300.13 11.47
1 -2 0 284.15 11.75
1 -2 1 4043.2 107.93
-1 -2 -1 3920.8 107.44
1 -2 1 3911.58 108.28
1 -2 2 2733.53 77.43
-1 -2 -2 2674.44 78.11
-1 -2 -2 2850.79 76.81
-1 -2 -3 3502.55 99.08
-1 -2 -4 640.94 21.57
-1 -2 -4 642.44 24.86
-1 -2 -5 1563.24 46.53
-1 -2 -5 1556.82 51.16
-1 -2 -6 182.31 9.66
-1 -2 -6 203.7 13.16
-1 -2 -7 174.98 13.05
-1 -2 -8 23.4 4.82
-1 -2 -9 216.33 16.94
-1 -2 -10 379.19 18.71
-1 -2 -10 335.52 17.72
-1 -2 -10 417.51 19.85
-1 -2 -10 374.54 18.69
-1 -2 -10 339.09 23.08
-1 -2 -10 318.25 16.95
-1 -2 -10 334.64 17.6
-1 -2 -10 386.32 18.69
1 -2 10 304.97 17.05
-1 -2 -10 290.45 16.48
-1 -2 -11 2.8 1.91
1 -2 11 6.11 1.81
-1 -2 -11 4.28 2.18
-1 -2 -11 3.48 1.74
-1 -2 -11 3.62 2.04
-1 -2 -11 6.07 2.13
-1 -2 -11 4.11 1.92
-1 -2 -11 4 2.02
-1 -2 -11 6.62 2.37
-1 -2 -11 2.63 1.82
-1 -2 -11 6.55 3.73
-1 -2 -12 19.78 4.19
-1 -2 -12 21.63 4.12
-1 -2 -12 22.4 4.25
-1 -2 -12 16.91 3.68
-1 -2 -12 18.48 3.73
-1 -2 -12 22.79 4.23
-1 -2 -12 22.03 3.92
-1 -2 -12 19.39 3.93
-1 -2 -12 25.08 4.44
-1 -2 -13 14.75 3.56
-1 -2 -13 12.1 3.04
-1 -2 -13 9.96 2.77
-1 -2 -13 10.16 3.02
-1 -2 -13 11.88 3.05
-1 -2 -13 15.28 3.54
-1 -2 -13 9.63 2.9
-1 -2 -13 13.21 3.16
-1 -2 -14 272.95 15.21
-1 -2 -14 273.83 15.38
-1 -2 -14 236.96 14.16
-1 -2 -14 286.76 15.84
-1 -2 -14 257.8 14.49
-1 -2 -14 286.82 15.8
-1 -2 -14 253.01 14.65
-1 -2 -14 256.11 14.73
-1 -2 -15 35.57 4.7
-1 -2 -15 33.17 4.61
-1 -2 -15 27.54 3.98
-1 -2 -15 21.95 3.55
-1 -2 -15 33.74 4.45
-1 -2 -15 30.02 4.01
-1 -2 -15 33.5 4.62
-1 -2 -16 51.39 5.07
-1 -2 -16 36.99 3.94
-1 -2 -16 52.44 5.05
-1 -2 -16 46.89 4.85
-1 -2 -16 45.68 4.89
-1 -2 -17 16.5 2.34
-1 -2 -17 18.97 2.54
-1 -2 -17 16.53 2.49
1 -1 -17 46.31 4.48
1 -1 -17 47.32 4.65
1 -1 -17 44.98 4.22
1 -1 -17 40.33 4.17
1 -1 -17 43.7 4.37
1 -1 -17 46.71 4.23
1 -1 -16 3.91 1.66
1 -1 -16 0.77 1.07
1 -1 -16 0.9 0.95
1 -1 -16 3.33 1.42
1 -1 -16 4.57 1.64
1 -1 -16 1.19 0.87
1 -1 -15 48.6 6.04
1 -1 -15 36.22 4.96
1 -1 -15 39.52 5.16
1 -1 -15 33.53 4.66
1 -1 -15 41.46 5.43
1 -1 -15 40.36 5.09
1 -1 -15 34.7 4.84
1 -1 -14 100.82 8.93
1 -1 -14 106.52 9.23
1 -1 -14 112.82 9.62
1 -1 -14 115.07 9.64
1 -1 -14 107.46 9.02
1 -1 -14 92.48 8.44
1 -1 -14 110.25 9.79
1 -1 -13 8.89 2.51
1 -1 -13 11.9 3.17
1 -1 -13 10.1 2.96
1 -1 -13 8.12 2.89
1 -1 -13 6.49 2.42
1 -1 -13 7.82 2.73
1 -1 -13 8.28 2.47
1 -1 -13 7.45 2.58
1 -1 -12 156.95 11.46
1 -1 -12 166.26 11.73
1 -1 -12 168.87 11.96
1 -1 -12 178.2 12.16
1 -1 -12 190.95 18.52
1 -1 -12 187.44 12.84
1 -1 -12 169.5 11.7
1 -1 -12 179.3 12.83
1 -1 -12 171.16 12.16
1 -1 -11 145.68 10.73
1 -1 -11 158.84 11.25
1 -1 -11 167.75 11.76
1 -1 -11 121.19 9.67
1 -1 -11 155.69 10.92
1 -1 -11 151.14 15.43
1 -1 -11 142.39 10.47
1 -1 -11 164.09 11.88
1 -1 -11 138.93 10.43
1 -1 -10 353.89 17.63
1 -1 -10 323.47 16.87
1 -1 -10 339.5 17.13
1 -1 -10 364.83 21.69
1 -1 -10 368.93 17.73
1 -1 -10 383.13 18.3
1 -1 -10 343.86 22.55
1 -1 -10 354.3 18.23
1 -1 -9 659.06 27.44
1 -1 -9 667.37 31.54
1 -1 -9 674.8 30.31
1 -1 -8 69.85 6.61
1 -1 -8 81.86 7.9
1 -1 -8 68.4 8.14
1 -1 -7 513.36 19.93
1 -1 -7 521.84 23.62
1 -1 -7 484.12 20.43
1 -1 -6 98.82 6.7
1 -1 -6 85.86 5.8
1 -1 -6 91.07 7.79
1 -1 -6 97.49 7.11
1 -1 -5 581.98 22.8
1 -1 -5 591.76 20.55
1 -1 -5 615.33 20.52
1 -1 -4 1828.4 52.23
1 -1 -4 1898.01 49.15
1 -1 -3 2910.46 76.62
1 -1 -3 2509.64 72.98
1 -1 -3 2658.28 74.26
1 -1 -3 2990.03 75.82
1 -1 -2 815.81 22.15
1 -1 -2 770.37 23.08
1 -1 -2 844.03 23.38
1 -1 -2 743.42 23.38
1 -1 -1 1330.6 37.93
1 -1 -1 1347.74 37.33
-1 -1 1 1322.15 37.18
1 -1 0 3256.62 85.51
-1 -1 0 3163.68 84.76
-1 -1 0 3089.23 84.93
1 -1 0 3156.12 85.07
-1 -1 -1 6395.55 166.37
-1 -1 -1 6042.81 163.66
-1 -1 -1 6475.27 165.22
-1 -1 -1 6495.82 164.97
-1 -1 -1 6307.99 164.73
1 -1 1 5951.24 165.59
-1 -1 -1 6072.75 164.58
-1 -1 -2 2466.44 65.64
-1 -1 -2 2449.6 68.68
-1 -1 -2 2331.15 65.66
-1 -1 -3 5.51 1.25
-1 -1 -3 5.91 1.02
-1 -1 -3 5.11 1.21
-1 -1 -3 4.52 1.3
-1 -1 -3 5.28 1.26
-1 -1 -3 4.3 0.85
-1 -1 -4 41.7 3.82
-1 -1 -4 47.15 3.6
-1 -1 -4 42.15 3.63
-1 -1 -4 37.04 2.78
-1 -1 -4 48.56 4.96
-1 -1 -4 39.79 2.96
-1 -1 -5 145.93 7.28
-1 -1 -5 136.37 5.97
-1 -1 -5 136.15 7.59
-1 -1 -5 131.67 7.03
-1 -1 -5 163.36 8.9
-1 -1 -5 166.48 10.24
-1 -1 -6 479.93 17.31
-1 -1 -6 481.16 21.6
-1 -1 -6 434.21 17.09
-1 -1 -6 453.79 18.09
-1 -1 -6 505.42 19.78
-1 -1 -7 1236.2 40.53
-1 -1 -7 1357.53 44.2
-1 -1 -7 1284.61 42
-1 -1 -7 1380.23 47.25
-1 -1 -8 402.91 18.69
-1 -1 -8 398.22 22.08
-1 -1 -9 895.04 39.38
-1 -1 -10 265.13 15.01
-1 -1 -10 265.34 15.12
-1 -1 -10 254.88 15.02
-1 -1 -10 277.24 15.37
-1 -1 -10 271.93 15.19
-1 -1 -10 304.07 16.48
-1 -1 -10 268.84 19.89
-1 -1 -11 122.83 9.96
-1 -1 -11 148.19 11.13
-1 -1 -11 129.21 10.43
-1 -1 -11 169.16 12.15
-1 -1 -11 145.34 10.94
-1 -1 -11 142.19 10.73
-1 -1 -11 153.51 15.61
-1 -1 -11 145.75 11.07
-1 -1 -11 140.52 11.07
-1 -1 -12 454.96 21.62
-1 -1 -12 440.52 21.67
-1 -1 -12 431.02 21.45
-1 -1 -12 460.36 22.26
-1 -1 -12 448.63 21.84
-1 -1 -12 453.77 22.23
-1 -1 -12 394.23 20.44
-1 -1 -12 484.06 22.51
-1 -1 -13 95.59 9.12
-1 -1 -13 102.4 9.41
-1 -1 -13 74.43 7.68
-1 -1 -13 95.89 9
-1 -1 -13 86.59 8.56
-1 -1 -13 85.5 8.29
-1 -1 -13 99.1 8.99
-1 -1 -13 102.67 9.22
-1 -1 -14 313.62 16.95
-1 -1 -14 317.22 17.05
-1 -1 -14 273.6 15.8
-1 -1 -14 279.92 15.66
-1 -1 -14 337.91 17.48
-1 -1 -14 330.5 17.36
-1 -1 -14 316.54 16.99
-1 -1 -14 307.27 16.99
-1 -1 -15 8.8 2.47
-1 -1 -15 6.1 1.74
-1 -1 -15 8.66 2.14
-1 -1 -15 13.5 3.01
-1 -1 -15 12.41 2.85
-1 -1 -15 11.83 2.66
-1 -1 -15 12.45 3.02
-1 -1 -16 103.05 7.54
-1 -1 -16 93.41 7.3
-1 -1 -16 96.26 7.23
-1 -1 -16 109.87 7.85
-1 -1 -16 98.32 7.28
-1 -1 -16 96.46 7.32
-1 -1 -16 84.66 6.51
-1 -1 -17 19.7 2.53
-1 -1 -17 20 2.63
-1 -1 -17 22.7 2.89
-1 -1 -17 19.92 2.72
1 0 -17 235.57 11.65
1 0 -17 236.97 11.25
1 0 -17 215.19 10.46
1 0 -17 224.86 11.26
1 0 -17 239.7 11.34
1 0 -16 75.02 6.84
1 0 -16 78.57 7.12
1 0 -16 78.37 6.57
1 0 -16 73.63 6.75
1 0 -16 81.16 6.91
1 0 -16 60.16 5.69
1 0 -16 67.67 5.95
1 0 -15 15.66 3.21
1 0 -15 18.48 3.42
1 0 -15 12.66 2.7
1 0 -15 18.25 3.36
1 0 -15 18.06 3.75
1 0 -15 13.11 2.63
1 0 -15 17.07 3.59
1 0 -15 17.09 3.45
1 0 -14 1.11 1
1 0 -14 1.44 1.77
1 0 -14 1.13 0.9
1 0 -14 4.95 2.45
1 0 -14 1.22 1.38
1 0 -14 -0.03 1.41
1 0 -14 0.42 1.29
1 0 -14 1.08 1.17
1 0 -14 -0.23 0.89
1 0 -13 4.73 2.33
1 0 -13 3.92 1.5
1 0 -13 1.28 1.81
1 0 -13 2.29 1.99
1 0 -13 3.86 0.84
1 0 -13 0.45 1.19
1 0 -13 0.99 0.91
1 0 -13 2.54 1.72
1 0 -13 1.49 1.37
1 0 -12 125.17 9.89
1 0 -12 130.6 10.56
1 0 -12 105.38 9.15
1 0 -12 112.05 9.61
1 0 -12 99.04 13.23
1 0 -12 110.19 9.48
1 0 -12 124.64 9.91
1 0 -12 119.68 9.99
1 0 -12 116.66 9.59
1 0 -11 204.46 17.92
1 0 -11 194.94 12.6
1 0 -11 201.35 12.71
1 0 -11 230.61 13.91
1 0 -11 208.2 13.54
1 0 -11 208.46 13.03
1 0 -11 197.16 12.77
1 0 -11 202.13 12.8
1 0 -11 193.31 12.74
1 0 -11 193.52 15.89
1 0 -10 373.9 20.62
1 0 -10 370.83 22.04
1 0 -10 386.15 23.91
1 0 -9 419.92 20.63
1 0 -9 445.44 24.5
1 0 -9 470.8 23.37
1 0 -9 397.11 20.34
1 0 -8 311.36 18.32
1 0 -8 335.7 17.63
1 0 -8 283.37 15.26
1 0 -8 285.54 15.31
1 0 -7 564.8 22.86
1 0 -7 651.37 25.36
1 0 -7 590.83 23.09
1 0 -7 569.16 20.78
1 0 -7 627.56 26.38
1 0 -6 153.66 9.14
1 0 -6 185.72 10.66
1 0 -6 157.54 7.99
1 0 -6 189.63 9.87
1 0 -6 179.36 11.4
1 0 -5 391.69 17.41
1 0 -5 433.7 15.92
1 0 -5 411.08 16.59
1 0 -4 163.97 9.36
1 0 -4 171.8 8.37
1 0 -3 1619.34 44.86
1 0 -3 1582.4 45
1 0 -3 1500.4 46.07
1 0 -2 125 5.47
1 0 -2 137.51 6.14
1 0 -2 138.39 6.64
1 0 -2 145.3 6
-1 0 2 135.49 5.02
1 0 -1 5329.23 148.03
1 0 -1 5351.81 147.57
-1 0 1 5568.99 147.58
1 0 0 2150.13 60.25
-1 0 0 2333.71 60.41
-1 0 0 2204.14 60.38
-1 0 0 2256.24 60.23
-1 0 -1 3533 94.53
-1 0 -1 3423.66 94.06
-1 0 -1 3674.84 94.24
-1 0 -1 3451.33 94.34
1 0 1 3547.63 94.48
-1 0 -2 28.94 2.32
-1 0 -2 27.65 2.47
-1 0 -2 26.68 2.45
-1 0 -2 24.9 2.15
-1 0 -2 30.74 2.57
-1 0 -2 28 2.84
-1 0 -3 1534.51 46.62
-1 0 -3 1570.76 45.3
-1 0 -3 1728.33 47.23
-1 0 -3 1678.77 48.77
-1 0 -3 1647.76 45.99
-1 0 -4 36.09 4.15
-1 0 -4 41.35 3.87
-1 0 -4 32.62 3.49
-1 0 -4 37.46 3.04
-1 0 -4 37.33 3.68
-1 0 -4 33.94 3.24
-1 0 -4 33.51 3.12
-1 0 -5 3245.37 87.36
-1 0 -5 2813.99 83.56
-1 0 -5 3469.98 87.94
-1 0 -5 3208.96 89.42
-1 0 -5 2887.44 84.59
-1 0 -5 2923.32 85.28
-1 0 -5 3253.63 87.25
-1 0 -6 584.5 22.27
-1 0 -6 528.01 18.77
-1 0 -6 552.7 22.31
-1 0 -6 568.78 20.89
-1 0 -6 562.86 20.5
-1 0 -6 587.9 22.31
-1 0 -6 573.19 23.91
-1 0 -7 832.38 33.03
-1 0 -7 820.5 31.48
-1 0 -7 792.35 29.18
-1 0 -7 856.35 31
-1 0 -7 869.61 31.39
-1 0 -7 837.74 28.88
-1 0 -8 136.84 9.74
-1 0 -8 145.19 10.87
-1 0 -8 139.89 10.48
-1 0 -8 148.29 12.24
-1 0 -8 167.5 12.42
-1 0 -9 809.39 32.25
-1 0 -9 737.65 32.2
-1 0 -9 726.38 30.02
-1 0 -9 763.6 33.59
-1 0 -9 772.19 35.35
-1 0 -10 39.68 5.32
-1 0 -10 38.07 5.21
-1 0 -10 38.62 5.42
-1 0 -10 36.43 6.93
-1 0 -10 41.12 6.37
-1 0 -10 38.92 5.2
-1 0 -10 40.82 5.35
-1 0 -10 45.47 5.55
-1 0 -11 138.6 10.64
-1 0 -11 149.92 11.31
-1 0 -11 147.31 11
-1 0 -11 131.75 10.01
-1 0 -11 135.26 14.69
-1 0 -11 106.98 9.14
-1 0 -11 151.79 11.11
-1 0 -11 155.86 11.04
-1 0 -11 135.22 10.52
-1 0 -12 112.71 9.74
-1 0 -12 112.03 9.59
-1 0 -12 87.99 8.33
-1 0 -12 102.98 9.14
-1 0 -12 97.81 13.2
-1 0 -12 105.93 9.34
-1 0 -12 109.05 9.61
-1 0 -12 121.77 10.42
-1 0 -12 97.66 8.67
-1 0 -13 45.44 6.08
-1 0 -13 41.83 5.76
-1 0 -13 34.88 5.42
-1 0 -13 42.41 5.74
-1 0 -13 44.68 6.18
-1 0 -13 46.22 6.04
-1 0 -13 41.62 6.04
-1 0 -14 381.77 19.61
-1 0 -14 374.4 19.1
-1 0 -14 367.04 18.37
-1 0 -14 352.94 18.63
-1 0 -14 341.94 18.29
-1 0 -14 356.57 18.49
-1 0 -14 359.29 18.57
-1 0 -15 1.31 1.12
-1 0 -15 -0.51 0.93
-1 0 -15 0.57 0.8
-1 0 -15 -0.14 1.02
-1 0 -15 -0.1 0.95
-1 0 -15 -1.09 0.87
-1 0 -15 2.61 1.54
-1 0 -16 8.99 2.37
-1 0 -16 9.82 2.27
-1 0 -16 11.03 2.47
-1 0 -16 10.04 2.31
-1 0 -16 7.06 1.78
-1 0 -16 7.34 1.85
-1 0 -16 9.12 2.35
-1 0 -17 7.68 1.78
-1 0 -17 9.7 1.96
-1 0 -17 3.6 1.27
-1 0 -17 9.04 1.92
-1 0 -17 7.37 1.66
-1 0 -17 6.49 1.57
-1 0 -17 8.62 1.83
1 1 -17 46.31 4.41
1 1 -17 44.87 4.42
1 1 -17 31.86 3.44
1 1 -17 44.66 4.47
1 1 -17 48.92 4.64
1 1 -16 2.47 1.55
1 1 -16 1.77 0.87
1 1 -16 1.16 1.17
1 1 -16 2.27 1.34
1 1 -16 2.42 1.16
1 1 -16 -0.23 0.85
1 1 -16 1.05 0.81
1 1 -15 41.89 5.24
1 1 -15 40.09 5.4
1 1 -15 46.57 5.55
1 1 -15 48.87 5.91
1 1 -15 40.66 5.1
1 1 -15 44.75 5.49
1 1 -15 38.18 5.05
1 1 -15 34.07 4.62
1 1 -15 37.93 4.93
1 1 -14 93.96 8.57
1 1 -14 107.3 9.33
1 1 -14 98.82 9.09
1 1 -14 113.66 9.66
1 1 -14 88.34 8.15
1 1 -14 99.13 8.89
1 1 -14 95.89 8.65
1 1 -14 97.95 8.56
1 1 -14 90.7 8.61
1 1 -13 9.02 2.67
1 1 -13 9.37 2.69
1 1 -13 8.09 2.59
1 1 -13 8.5 2.58
1 1 -13 7.22 2.58
1 1 -13 11.6 3.21
1 1 -13 8.59 2.69
1 1 -13 7.14 2.4
1 1 -12 186.55 12.51
1 1 -12 149.24 10.82
1 1 -12 129.21 15
1 1 -12 172.78 12.25
1 1 -12 177.63 12.27
1 1 -12 158.75 11.44
1 1 -12 169.4 11.67
1 1 -12 119.52 13.19
1 1 -12 162.35 11.59
1 1 -12 183.35 12.23
1 1 -12 140.72 13.94
1 1 -12 187.69 12.76
1 1 -11 152.95 11.03
1 1 -11 142.54 13.48
1 1 -11 151.8 11.15
1 1 -11 158.68 11.05
1 1 -11 147.93 11.12
1 1 -11 135.1 10.08
1 1 -11 134.32 12.59
1 1 -11 160.92 11.17
1 1 -11 132.73 10.18
1 1 -11 131.18 10.08
1 1 -11 164.18 15.82
1 1 -11 173.77 11.6
1 1 -10 344.79 17.72
1 1 -10 345.34 17.06
1 1 -10 359.05 21.28
1 1 -10 372.37 21.14
1 1 -10 345.43 22.7
1 1 -10 404.09 18.59
1 1 -10 352.22 20.3
1 1 -10 346.87 17.37
1 1 -9 671.86 29.45
1 1 -9 692.14 30.24
1 1 -9 688.22 32.12
1 1 -9 625.32 28.02
1 1 -8 70.66 7
1 1 -8 72.13 6.51
1 1 -8 76.44 7.67
1 1 -8 72.72 8.22
1 1 -8 77.9 7.88
1 1 -7 471.69 20.1
1 1 -7 510.98 22.23
1 1 -7 522.37 23.92
1 1 -7 567.24 23.06
1 1 -7 544.87 21.81
1 1 -6 87.41 7.19
1 1 -6 86.71 7.21
1 1 -6 94.61 6.9
1 1 -6 86.65 7.63
1 1 -5 628.91 23.09
1 1 -5 635.37 24.31
1 1 -5 643.33 22.57
1 1 -4 2019.58 57.91
1 1 -4 2001.03 59.39
1 1 -4 2021.02 58.71
1 1 -3 2977.28 66.36
1 1 -3 3028.89 67.38
1 1 -2 793.96 23.74
-1 1 2 786.38 21.48
1 1 -1 1430.34 39.49
-1 1 1 1517.01 38.9
-1 1 1 1418.93 39.17
-1 1 0 3213.62 86.39
-1 1 0 3206.89 88.05
-1 1 0 3231.42 88
-1 1 0 3321.85 87.87
1 1 0 3292.01 87.58
1 1 0 3376.12 86.62
-1 1 -1 6056.64 159.87
-1 1 -1 6015.08 160.16
-1 1 -1 5899.03 160.05
-1 1 -1 6013.27 160.14
-1 1 -1 6057.23 159.02
-1 1 -2 2440.69 67.54
-1 1 -2 2453.07 68.14
-1 1 -2 2499.82 67.94
-1 1 -2 2442.29 67.58
-1 1 -2 2394.87 68.23
-1 1 -3 4.02 1.28
-1 1 -3 5.95 1.56
-1 1 -3 5.26 1.48
-1 1 -3 6.16 1.46
-1 1 -3 6.34 1.33
-1 1 -4 49.6 4.79
-1 1 -4 47.98 4.33
-1 1 -4 47.53 3.84
-1 1 -4 51.07 4.53
-1 1 -4 49.03 4.69
-1 1 -4 51.39 4.47
-1 1 -4 51.42 4.6
-1 1 -5 166.38 9.59
-1 1 -5 154.53 8
-1 1 -5 159.12 9.54
-1 1 -5 173.37 9.34
-1 1 -5 154.32 9.28
-1 1 -5 158.59 9.86
-1 1 -5 150.07 8.87
-1 1 -6 484.14 19.65
-1 1 -6 489.2 20.82
-1 1 -6 538.87 21.36
-1 1 -6 487.32 21.57
-1 1 -6 484.02 19.94
-1 1 -6 477.17 18.09
-1 1 -6 497.54 20.66
-1 1 -7 1347.64 42.18
-1 1 -7 1381.02 47.91
-1 1 -7 1335.02 45.95
-1 1 -7 1346.08 45.82
-1 1 -7 1330.77 44.28
-1 1 -7 1299.83 44.51
-1 1 -8 472.96 21.64
-1 1 -8 406.62 20.54
-1 1 -8 392.95 20.13
-1 1 -8 383.83 18.57
-1 1 -8 393.94 19.4
-1 1 -8 408.3 21.95
-1 1 -9 855.13 35.2
-1 1 -9 807.93 32.1
-1 1 -9 876.97 35.22
-1 1 -9 806.65 33.41
-1 1 -9 874.6 37.66
-1 1 -9 821.28 35.03
-1 1 -10 286.33 15.32
-1 1 -10 285.84 15.02
-1 1 -10 249.78 16.62
-1 1 -10 234.31 13.93
-1 1 -10 268.57 15.34
-1 1 -10 250.75 17.78
-1 1 -10 263.18 17.9
-1 1 -10 256.87 14.37
-1 1 -10 238.17 14.17
-1 1 -10 268.37 14.93
-1 1 -10 250.19 14.59
-1 1 -10 275.23 17.93
-1 1 -10 277.31 19.9
-1 1 -11 131.59 10.39
-1 1 -11 154 11.09
-1 1 -11 130.22 14.43
-1 1 -11 147.98 10.72
-1 1 -11 134.84 10.36
-1 1 -11 134.55 10.52
-1 1 -11 153.97 11.51
-1 1 -11 139.05 10.34
-1 1 -11 150.75 10.73
-1 1 -11 105.61 11.6
-1 1 -11 129.72 13.1
-1 1 -12 350.07 26.43
-1 1 -12 438.17 20.84
-1 1 -12 433.92 21.73
-1 1 -12 426.41 21.17
-1 1 -12 421.63 20.91
-1 1 -12 418.08 20.5
-1 1 -12 430.56 21.26
-1 1 -12 448.11 21.44
-1 1 -12 451.99 21.41
-1 1 -13 92.32 8.54
-1 1 -13 82.26 8.29
-1 1 -13 89.13 8.52
-1 1 -13 94.38 8.84
-1 1 -13 100.57 9.06
-1 1 -13 99.7 9.19
-1 1 -13 100.05 8.79
-1 1 -13 104.7 9.67
-1 1 -14 312.22 17.29
-1 1 -14 342.09 18.27
-1 1 -14 321.83 17.52
-1 1 -14 326.61 17
-1 1 -14 313.71 17.01
-1 1 -14 318.78 17.21
-1 1 -14 301.95 16.29
-1 1 -14 311.12 17.14
-1 1 -15 9.62 2.8
-1 1 -15 10.85 2.54
-1 1 -15 13.23 2.99
-1 1 -15 12.41 2.86
-1 1 -15 11.05 2.59
-1 1 -15 13.01 2.81
-1 1 -15 7.32 2.19
-1 1 -15 9.8 2.52
-1 1 -16 114.11 7.92
-1 1 -16 108.81 8.15
-1 1 -16 94.41 7.24
-1 1 -16 92.85 7.12
-1 1 -16 103.05 7.6
-1 1 -16 95.05 7.39
-1 1 -16 104.47 7.7
-1 1 -17 23.32 2.99
-1 1 -17 19.67 2.66
-1 1 -17 23.72 3.09
-1 1 -17 19.42 2.56
-1 1 -17 21.27 2.73
-1 1 -17 18.61 2.51
-1 1 -17 24.42 3.03
1 2 -17 71.7 5.35
1 2 -17 65.46 5.29
1 2 -17 67.52 5.44
1 2 -17 71.54 5.4
1 2 -17 64.98 5
1 2 -16 77.25 6.57
1 2 -16 65.52 5.93
1 2 -16 71.3 6.3
1 2 -16 69.9 6.38
1 2 -16 74.38 6.34
1 2 -16 73.34 6.38
1 2 -15 276.99 15.02
1 2 -15 288.06 15.06
1 2 -15 286.37 15.16
1 2 -15 259.33 14.13
1 2 -15 283.32 15.37
1 2 -15 266.05 14.53
1 2 -15 277.69 14.96
1 2 -14 70.53 6.94
1 2 -14 69.71 7.42
1 2 -14 78.43 7.67
1 2 -14 81.25 7.82
1 2 -14 65.19 6.68
1 2 -14 72.7 7.26
1 2 -14 71.25 7.23
1 2 -14 61.35 6.42
1 2 -14 69.31 7.34
1 2 -13 270.71 15.86
1 2 -13 285.87 16.29
1 2 -13 245.55 14.52
1 2 -13 248.38 14.79
1 2 -13 265.11 15.69
1 2 -13 250.96 14.93
1 2 -13 224.5 14.06
1 2 -13 275.52 15.63
1 2 -13 255.11 15.1
1 2 -13 217.13 13.89
1 2 -12 154.15 11.52
1 2 -12 143.52 10.81
1 2 -12 129.17 10.04
1 2 -12 144.36 10.77
1 2 -12 143.36 10.74
1 2 -12 156.4 11.14
1 2 -12 104.42 12.6
1 2 -12 122.39 9.94
1 2 -12 162.31 11.66
1 2 -12 143.31 10.98
1 2 -11 210.16 13.42
1 2 -11 211.28 17.08
1 2 -11 267.7 15.24
1 2 -11 266.48 14.81
1 2 -11 259.42 14.76
1 2 -11 237.17 14.41
1 2 -11 305.4 15.84
1 2 -11 259.17 14.71
1 2 -11 273.93 15.36
1 2 -11 216.98 18.62
1 2 -11 236.87 18.57
1 2 -11 225.72 17.95
1 2 -11 266.21 15.41
1 2 -11 214.31 13.6
1 2 -10 118.76 9.14
1 2 -10 117.29 9.05
1 2 -10 113.67 8.89
1 2 -10 114.04 11.52
1 2 -10 108.88 10.91
1 2 -10 112.12 12.1
1 2 -10 118.25 9.31
1 2 -10 117.3 9.24
1 2 -10 115.17 9.41
1 2 -10 129.34 12.57
1 2 -10 110 9.06
1 2 -9 59.51 7.92
1 2 -9 65.22 7.86
1 2 -9 61.76 7.67
1 2 -9 59.49 7
1 2 -9 71.36 8.74
1 2 -8 259.72 16.57
1 2 -8 267.01 15.61
1 2 -8 256.81 16.63
1 2 -8 279.25 16.36
1 2 -8 252.89 15.14
1 2 -7 186.03 12
1 2 -7 210.11 13.47
1 2 -7 194.1 12.09
1 2 -7 206.5 12.79
1 2 -7 176.13 12.33
1 2 -6 1598.07 50.41
1 2 -6 1514.97 51.22
1 2 -6 1592.63 51.93
1 2 -6 1607.61 50.87
1 2 -5 217.23 11.5
1 2 -5 195.7 10.7
1 2 -5 202.77 11.48
1 2 -4 252.7 11.33
1 2 -4 245.27 11.18
1 2 -4 277.69 11.5
1 2 -4 252.06 10.68
1 2 -3 62.99 5.02
-1 2 3 62.77 3.51
1 2 -3 62.52 4.4
1 2 -3 69.29 4.96
1 2 -3 61.15 4.58
1 2 -2 1564.77 45.37
-1 2 2 1547.78 43.19
1 2 -2 1615.5 44.31
-1 2 2 1438.52 41.58
-1 2 1 679.44 20.25
-1 2 1 694.43 21.37
-1 2 1 705.59 22.08
1 2 -1 734.19 21.7
-1 2 1 679.35 19.63
-1 2 0 280.7 11.27
-1 2 0 289.21 10.67
-1 2 0 296.54 11.23
1 2 0 278.93 9.74
-1 2 0 315.87 11.43
-1 2 0 270.45 9.29
-1 2 -1 3671.95 95.69
-1 2 -1 3727.08 97.66
-1 2 -1 3729.17 97.81
-1 2 -1 3764.42 97.6
-1 2 -1 3839.7 97.54
-1 2 -2 2567.33 73.67
-1 2 -2 2618.09 75.14
-1 2 -2 2635.52 74.84
-1 2 -2 2824.22 75.25
-1 2 -2 2678.57 75.35
-1 2 -3 3590.97 97.41
-1 2 -3 3411 97.12
-1 2 -3 3472.95 95.29
-1 2 -3 3414.24 97.19
-1 2 -3 3480.46 96.53
-1 2 -3 3486.86 96.34
-1 2 -3 3397.51 97.46
-1 2 -4 663.44 24.38
-1 2 -4 710.62 24.9
-1 2 -4 685.23 24.02
-1 2 -4 663.62 23.5
-1 2 -4 653.81 24.3
-1 2 -4 683.48 23.98
-1 2 -4 635.31 24.45
-1 2 -5 1561.29 49.71
-1 2 -5 1685.6 50.77
-1 2 -5 1558.69 48.25
-1 2 -5 1602.37 49.93
-1 2 -5 1538.44 49.3
-1 2 -5 1521.52 50.27
-1 2 -5 1644.36 50.39
-1 2 -6 189.64 11.3
-1 2 -6 168.53 9.85
-1 2 -6 201.26 12.3
-1 2 -6 174.35 11.23
-1 2 -6 205.62 12.19
-1 2 -6 184.42 11.39
-1 2 -6 186.91 11.82
-1 2 -7 157.71 11.17
-1 2 -7 164.25 11.82
-1 2 -7 153.43 11.3
-1 2 -7 156.37 11.07
-1 2 -7 151.19 10.62
-1 2 -7 170.74 11.83
-1 2 -7 155.28 9.42
-1 2 -8 27.56 5.18
-1 2 -8 25.12 4.65
-1 2 -8 26.15 4.75
-1 2 -8 20.18 3.99
-1 2 -8 33.11 5.3
-1 2 -8 24.49 4.42
-1 2 -9 197.93 13.83
-1 2 -9 223.83 15.38
-1 2 -9 219.42 15.45
-1 2 -9 217 15.68
-1 2 -9 243.73 17.34
-1 2 -9 216.71 15.55
-1 2 -10 360.45 22.08
-1 2 -10 376.4 22.74
-1 2 -10 382.15 18.26
-1 2 -10 307.36 20.38
-1 2 -10 328.78 17.37
-1 2 -10 344.96 22.69
-1 2 -10 342.11 21.08
-1 2 -10 323.17 17.3
-1 2 -10 336.56 17.88
-1 2 -10 362.46 17.98
-1 2 -10 365.94 18.46
-1 2 -10 378.28 18.09
-1 2 -10 381.22 18.45
-1 2 -11 3.32 1.95
-1 2 -11 1.46 0.83
-1 2 -11 4.26 1.82
-1 2 -11 7.54 2.35
-1 2 -11 1.74 2.01
-1 2 -11 4.78 1.91
-1 2 -11 3.47 1.84
-1 2 -11 -0.69 1.63
-1 2 -11 5.86 2.37
-1 2 -11 5.27 1.68
-1 2 -11 2.92 2.7
-1 2 -11 2.47 1.49
-1 2 -12 21.03 4.02
-1 2 -12 18.63 3.75
-1 2 -12 18.35 3.85
-1 2 -12 22.32 4.28
-1 2 -12 20.43 4.11
-1 2 -12 17.27 3.55
-1 2 -12 20.82 4.15
-1 2 -12 14.07 3.32
-1 2 -12 25.68 4.45
-1 2 -13 12.17 2.99
-1 2 -13 10.12 2.67
-1 2 -13 14.95 3.39
-1 2 -13 12.48 3.15
-1 2 -13 20.27 3.98
-1 2 -13 15.72 3.5
-1 2 -13 11.31 2.98
-1 2 -13 13.49 3.19
-1 2 -13 12.78 3.21
-1 2 -14 279.13 15.86
-1 2 -14 264.99 15.27
-1 2 -14 286.69 15.78
-1 2 -14 262.36 15.18
-1 2 -14 286.8 15.88
-1 2 -14 279.35 15.26
-1 2 -14 292.8 16.36
-1 2 -15 30.56 4.51
-1 2 -15 29.37 4.29
-1 2 -15 27.33 4.29
-1 2 -15 26.09 3.98
-1 2 -15 30.1 4.47
-1 2 -15 27.22 4
-1 2 -15 32.15 4.34
-1 2 -15 31.41 4.37
-1 2 -16 40.36 4.33
-1 2 -16 43.9 4.52
-1 2 -16 43.49 4.61
-1 2 -16 43.59 4.37
-1 2 -16 36.69 4.1
-1 2 -16 49.4 5.01
-1 2 -16 41.95 4.72
-1 2 -16 54.02 5.34
-1 2 -17 18.24 2.55
-1 2 -17 14.6 2.25
-1 2 -17 17.95 2.46
-1 2 -17 15.11 2.25
1 3 -17 18.28 2.51
1 3 -17 17.85 2.43
1 3 -17 22.56 2.66
1 3 -17 22.42 2.8
1 3 -17 16.12 2.36
1 3 -16 36.58 4.38
1 3 -16 42.47 4.6
1 3 -16 45.17 4.63
1 3 -16 38.44 4.37
1 3 -16 38.46 4.32
1 3 -16 42.75 4.51
1 3 -15 24.38 3.92
1 3 -15 20.29 3.32
1 3 -15 33.55 4.61
1 3 -15 27.25 4.22
1 3 -15 24.18 3.91
1 3 -15 20.16 3.54
1 3 -15 28.82 4.14
1 3 -14 1.99 1.51
1 3 -14 -0.19 0.99
1 3 -14 5.81 2.22
1 3 -14 3.51 1.69
1 3 -14 6.55 2.25
1 3 -14 4.27 2.02
1 3 -14 5.91 1.79
1 3 -13 226.15 14.08
1 3 -13 218.26 13.5
1 3 -13 205.62 13.59
1 3 -13 243.49 14.36
1 3 -13 223.16 14.6
1 3 -13 220.08 14.21
1 3 -13 237.25 14.19
1 3 -12 48.86 6.45
1 3 -12 46.8 5.79
1 3 -12 50.49 6.22
1 3 -12 43.89 5.82
1 3 -12 41.24 5.64
1 3 -12 46.16 6.12
1 3 -11 2.65 1.84
1 3 -11 2.56 2.56
1 3 -11 1.73 1.65
1 3 -11 1.8 1.19
1 3 -11 1.41 1.55
1 3 -11 2.89 1.8
1 3 -11 2.01 1.54
1 3 -11 1.02 1.29
1 3 -11 -0.08 1.05
1 3 -11 -0.55 2.07
1 3 -10 100.96 8.83
1 3 -10 88.67 10.67
1 3 -10 90.48 7.92
1 3 -10 95.74 11.53
1 3 -10 104.05 8.75
1 3 -10 93.11 8.31
1 3 -10 99.98 8.84
1 3 -10 89.79 10.65
1 3 -10 100.87 8.56
1 3 -10 101.27 8.56
1 3 -9 17.93 3.49
1 3 -9 17.58 4.29
1 3 -9 17.12 3.37
1 3 -9 20.53 3.55
1 3 -9 15.11 3.87
1 3 -9 24.63 4.99
1 3 -9 12.84 3.91
1 3 -8 91.15 9.39
1 3 -8 87.62 9.29
1 3 -8 97.46 10.29
1 3 -8 99.41 9.57
1 3 -8 94.21 9.43
1 3 -7 739.18 30.05
1 3 -7 698.02 29.11
1 3 -7 748.42 30.55
1 3 -7 705 30.55
1 3 -7 757.55 32.08
1 3 -6 209.56 12.75
1 3 -6 183.83 12.84
1 3 -6 177.05 11.12
1 3 -6 172.86 11.57
1 3 -5 309.15 15.13
1 3 -5 283.18 13.82
1 3 -5 277.14 13.92
1 3 -5 309.06 15.5
1 3 -4 1164.63 36.28
1 3 -4 1023.1 33.77
-1 3 4 996.59 31.32
1 3 -4 1147.36 36.46
1 3 -4 1068.13 34.33
-1 3 3 88.76 4.32
1 3 -3 117.54 7.71
-1 3 3 114.44 6.46
1 3 -3 119.61 7.61
1 3 -3 94.66 5.89
1 3 -3 96.65 5.82
-1 3 2 369.98 11.84
-1 3 2 375.15 13.35
1 3 -2 341.09 11.12
1 3 -2 390.91 14.66
1 3 -2 386.13 13.6
-1 3 1 1744.04 49.34
-1 3 1 1747.04 49.62
1 3 -1 1714.78 50.8
-1 3 1 1725.02 51.53
-1 3 1 1747.98 52.33
-1 3 1 1823.06 51.65
1 3 -1 1903.27 54
-1 3 0 75.32 4.42
1 3 0 75.8 4.44
-1 3 0 79.6 5.3
-1 3 0 80.05 5.59
-1 3 0 73.75 5.6
-1 3 -1 2244.3 61.54
-1 3 -1 2281.11 64.23
-1 3 -1 2396.91 64.09
-1 3 -2 3023.54 88.68
-1 3 -2 3079.46 89.11
-1 3 -2 3065.44 89.25
-1 3 -2 3038.32 87.09
-1 3 -3 549.96 21.54
-1 3 -3 549.7 21.34
-1 3 -3 556.3 20.51
-1 3 -3 535.72 21.56
-1 3 -3 527.36 21.65
-1 3 -3 568.67 21.61
-1 3 -4 4327.89 121.17
-1 3 -4 4185.23 122.52
-1 3 -4 4643.26 122.85
-1 3 -4 4288.59 122.24
-1 3 -4 4249.66 121.47
-1 3 -4 4251.01 122.25
-1 3 -5 1841.47 57.62
-1 3 -5 1986.94 59.66
-1 3 -5 1867.27 58.75
-1 3 -5 1872.54 57.96
-1 3 -5 1798.43 55.23
-1 3 -5 1834.37 58.74
-1 3 -5 1838.48 59.22
-1 3 -6 67.65 6.31
-1 3 -6 69.39 7.08
-1 3 -6 78.66 7.62
-1 3 -6 62.06 6.25
-1 3 -6 66.66 7.03
-1 3 -6 71.49 7.33
-1 3 -6 68.48 7.35
-1 3 -7 147.22 11.7
-1 3 -7 149 10.29
-1 3 -7 149.17 11.56
-1 3 -7 138.09 11.48
-1 3 -7 157.06 11.63
-1 3 -7 153.76 11.63
-1 3 -8 14.33 3.62
-1 3 -8 22.57 4.7
-1 3 -8 19.48 3.66
-1 3 -8 13.65 3.5
-1 3 -8 16.89 4.09
-1 3 -8 15.08 3.93
-1 3 -9 74.8 9.21
-1 3 -9 71.96 8.75
-1 3 -9 69.22 6.85
-1 3 -9 80.34 7.75
-1 3 -9 79.82 9.41
-1 3 -9 83.37 7.87
-1 3 -9 81.28 9.55
-1 3 -9 80.42 7.28
-1 3 -9 80.38 7.47
-1 3 -9 82.89 9.9
-1 3 -10 177 11.81
-1 3 -10 171.31 12.02
-1 3 -10 185.46 16.06
-1 3 -10 193.63 12.67
-1 3 -10 213.45 17.36
-1 3 -10 194.79 12.53
-1 3 -10 203.87 12.59
-1 3 -10 167.69 14.95
-1 3 -10 168.64 11.72
-1 3 -10 204.83 13.12
-1 3 -10 163.41 13.94
-1 3 -10 183.02 15.64
-1 3 -11 604.59 26.59
-1 3 -11 496.74 30.61
-1 3 -11 641.44 26.7
-1 3 -11 673.9 27.67
-1 3 -11 593.58 25.94
-1 3 -11 581.55 33.31
-1 3 -11 653.28 27.33
-1 3 -11 638.18 26.79
-1 3 -11 546.8 31.34
-1 3 -11 631.22 26.42
-1 3 -11 613.45 26.47
-1 3 -11 658.87 27.11
-1 3 -12 490.1 22.03
-1 3 -12 449.55 21.43
-1 3 -12 461.93 22.1
-1 3 -12 455.5 21.77
-1 3 -12 432.21 21.17
-1 3 -12 455.27 22
-1 3 -12 444.2 21.32
-1 3 -12 420.07 21.08
-1 3 -12 428.11 21.44
-1 3 -13 16.53 3.55
-1 3 -13 14.99 3.55
-1 3 -13 12.95 3.08
-1 3 -13 12.18 3.08
-1 3 -13 16.01 3.76
-1 3 -13 18.22 3.55
-1 3 -13 18.36 3.77
-1 3 -13 17.05 3.44
-1 3 -13 17.72 3.68
-1 3 -14 9.83 2.65
-1 3 -14 10.26 2.72
-1 3 -14 6.99 2.08
-1 3 -14 7.51 1.98
-1 3 -14 14.14 3.11
-1 3 -14 12.49 2.84
-1 3 -14 12.42 2.93
-1 3 -14 8.73 2.33
-1 3 -15 13.09 2.55
-1 3 -15 18.37 3.23
-1 3 -15 15.74 2.79
-1 3 -15 21 3.51
-1 3 -15 16.95 2.91
-1 3 -15 16.45 3.19
-1 3 -15 19.13 3.43
-1 3 -15 17.11 3.2
-1 3 -15 17.42 3.09
-1 3 -16 7.67 1.64
-1 3 -16 12.07 2.26
-1 3 -16 11.56 2.18
-1 3 -16 12.91 2.48
-1 3 -16 11.41 2.22
-1 3 -16 14.5 2.39
-1 3 -17 0.63 0.44
-1 3 -17 0.94 0.53
1 4 -16 29.42 3.56
1 4 -16 23.98 3.09
1 4 -16 30.21 3.49
1 4 -16 31.02 3.6
1 4 -16 26.93 3.45
1 4 -16 29.62 3.56
1 4 -15 67.64 6.16
1 4 -15 73.21 6.41
1 4 -15 70.84 6.27
1 4 -15 63.04 5.9
1 4 -15 56.6 5.21
1 4 -15 66.33 6.35
1 4 -15 66.9 6.25
1 4 -14 4 1.92
1 4 -14 0.95 1.5
1 4 -14 1.83 1.16
1 4 -14 1.51 0.92
1 4 -14 -0.01 0.9
1 4 -14 3.62 1.75
1 4 -14 2.81 1.68
1 4 -13 26.84 4.35
1 4 -13 31.98 4.31
1 4 -13 36.59 5.47
1 4 -13 29.83 4.83
1 4 -13 40.38 5.65
1 4 -13 41.01 5.34
1 4 -13 34.02 4.93
1 4 -13 31.38 4.88
1 4 -12 0.34 1.06
1 4 -12 1.71 1.45
1 4 -12 2.89 1.55
1 4 -12 0.92 1.14
1 4 -12 4.79 2.18
1 4 -12 5.23 1.98
1 4 -11 44.93 5.95
1 4 -11 41.01 5.68
1 4 -11 41.41 5.79
1 4 -11 41.25 5.72
1 4 -11 42.44 5.6
1 4 -11 47.47 5.8
1 4 -11 45.7 5.96
1 4 -10 470.41 22.25
1 4 -10 460.87 21.64
1 4 -10 476.01 29.15
1 4 -10 417.53 26.03
1 4 -10 451.7 21.32
1 4 -10 445.85 21.51
1 4 -10 444.17 26.83
1 4 -10 507.63 21.91
1 4 -10 484.28 22.16
1 4 -10 410.09 25.87
1 4 -9 87.55 8.05
1 4 -9 83.7 8.1
1 4 -9 98.34 11.84
1 4 -9 104.56 8.67
1 4 -9 90.8 10.4
1 4 -9 83.26 10.14
1 4 -9 103.49 8.41
1 4 -9 104.11 11.56
1 4 -9 114.53 9.14
1 4 -8 40.2 6.92
1 4 -8 30.63 5.89
1 4 -8 29.06 5.23
1 4 -8 28.8 5.58
1 4 -8 32.44 5.97
1 4 -7 239.84 16.05
1 4 -7 228.18 16.22
1 4 -7 227.32 15.48
1 4 -7 227.31 16.54
1 4 -6 60.41 7.23
1 4 -6 69.54 8.18
1 4 -6 66.63 7.47
1 4 -5 39.03 5.31
1 4 -5 41.6 5.61
1 4 -5 33.8 5.41
1 4 -4 1004.87 35.26
-1 4 4 925.04 31.47
1 4 -4 953.47 34.64
1 4 -3 213.26 12.4
1 4 -3 217.7 12.18
-1 4 3 224.3 11.86
-1 4 2 1381.38 41.36
1 4 -2 1322.04 43.4
-1 4 2 1364.32 42.69
-1 4 2 1418.47 43.05
1 4 -2 1390.69 45.18
-1 4 2 1387.11 44.68
-1 4 1 655.7 24.73
1 4 -1 693.61 25.64
-1 4 1 661.12 23.21
1 4 -1 596.88 22.15
-1 4 1 600.01 21
-1 4 1 624.92 21.33
-1 4 1 639.33 23.76
-1 4 0 109.33 7.08
-1 4 0 101.83 6.97
-1 4 0 99.4 6.16
-1 4 0 111.04 8.02
1 4 0 97.06 5.88
-1 4 -1 607.42 22.82
-1 4 -1 638.86 23.97
-1 4 -1 604.5 24.26
-1 4 -1 623.03 23.81
-1 4 -1 602.74 21.77
-1 4 -2 1050.92 34.87
-1 4 -2 1017.09 36.51
-1 4 -2 1084.46 36.78
-1 4 -2 1117.62 36.05
-1 4 -2 1049.8 36.9
-1 4 -2 1056.34 37.24
-1 4 -3 4.25 1.66
-1 4 -3 7.06 2.29
-1 4 -3 8.44 2.16
-1 4 -3 5.67 1.83
-1 4 -3 6.55 1.95
-1 4 -3 4.92 1.73
-1 4 -4 290.68 14.83
-1 4 -4 258.03 15.11
-1 4 -4 274.33 15.08
-1 4 -4 261.25 15.27
-1 4 -4 272.05 15.1
-1 4 -4 259.29 14.5
-1 4 -5 1023 38.94
-1 4 -5 1050.9 38.57
-1 4 -5 1097.3 38.55
-1 4 -5 1056.14 39.76
-1 4 -5 1030.19 38.2
-1 4 -5 1015.45 38.47
-1 4 -6 572.48 26.71
-1 4 -6 576.5 26.26
-1 4 -6 556.12 26.2
-1 4 -6 579.92 26.18
-1 4 -6 591.07 26
-1 4 -6 564.39 26.94
-1 4 -7 141.2 12.25
-1 4 -7 155.11 13.15
-1 4 -7 149.35 12.27
-1 4 -7 154.37 12.58
-1 4 -7 155.87 11.92
-1 4 -7 145.62 12.31
-1 4 -8 308.02 16.69
-1 4 -8 286 17.33
-1 4 -8 324.55 20.19
-1 4 -8 282.62 18.82
-1 4 -8 307.63 19.7
-1 4 -8 284.31 19.61
-1 4 -8 283.16 16
-1 4 -8 325.04 20.17
-1 4 -9 188.57 12.53
-1 4 -9 180.61 15.33
-1 4 -9 186.61 12.46
-1 4 -9 159.31 14.63
-1 4 -9 178.95 12
-1 4 -9 157.37 14.34
-1 4 -9 162.82 14.73
-1 4 -9 166.87 15.57
-1 4 -9 149.66 10.76
-1 4 -9 178.97 11.47
-1 4 -10 26.24 4.55
-1 4 -10 17.4 5.3
-1 4 -10 18.39 3.61
-1 4 -10 15.67 4.77
-1 4 -10 21.56 3.91
-1 4 -10 19.48 3.82
-1 4 -10 14.89 4.7
-1 4 -10 26.8 4.54
-1 4 -10 19.17 5
-1 4 -10 16.91 4.92
-1 4 -11 52.84 6.39
-1 4 -11 56.28 6.84
-1 4 -11 59.93 6.86
-1 4 -11 49.98 6.42
-1 4 -11 64.83 6.9
-1 4 -11 57.96 6.79
-1 4 -12 356.11 17.67
-1 4 -12 322.58 17.94
-1 4 -12 346.38 18.03
-1 4 -12 312.35 16.95
-1 4 -12 328.44 17.41
-1 4 -12 333.76 17.69
-1 4 -12 299.75 15.8
-1 4 -12 328.89 18.11
-1 4 -13 127.34 10.08
-1 4 -13 127.28 9.75
-1 4 -13 114.67 9.13
-1 4 -13 122.98 9.96
-1 4 -13 122.39 9.49
-1 4 -13 118.13 9.38
-1 4 -13 126.07 9.8
-1 4 -14 15.45 2.95
-1 4 -14 10.44 2.37
-1 4 -14 14.95 3.15
-1 4 -14 16.7 3.44
-1 4 -14 14.23 3.27
-1 4 -14 14.33 3.14
-1 4 -15 25.42 3.61
-1 4 -15 23.87 3.44
-1 4 -15 25 3.58
-1 4 -15 26.59 3.72
-1 4 -15 24.46 3.33
-1 4 -16 62.39 5.1
-1 4 -16 58.89 4.81
-1 4 -16 63.14 4.85
-1 4 -16 64.3 5.02
-1 4 -16 59.67 4.82
1 5 -16 16.7 2.32
1 5 -16 13.22 2.03
1 5 -16 16.94 2.33
1 5 -16 15.34 2.18
1 5 -15 56.27 5.12
1 5 -15 48.44 4.44
1 5 -15 59.82 5.33
1 5 -15 58.04 5.3
1 5 -15 52.63 4.59
1 5 -15 59.88 5.39
1 5 -15 59.31 5.3
1 5 -14 19.34 3.4
1 5 -14 12.35 2.78
1 5 -14 18.59 3.42
1 5 -14 15.25 2.76
1 5 -14 14.17 2.89
1 5 -14 17.01 2.85
1 5 -14 17.88 3.1
1 5 -13 3.39 1.7
1 5 -13 3.56 1.87
1 5 -13 3.28 1.85
1 5 -13 3.67 1.49
1 5 -13 3.37 1.73
1 5 -13 2.16 1.08
1 5 -13 3.78 1.41
1 5 -12 80.46 7.86
1 5 -12 77.32 7.75
1 5 -12 79.22 7.46
1 5 -12 75.18 7.39
1 5 -12 74.4 7.64
1 5 -12 75.22 7.62
1 5 -11 199.95 13.03
1 5 -11 174.19 12.6
1 5 -11 184.96 12.03
1 5 -11 194.36 13.02
1 5 -11 201.22 13.07
1 5 -11 179.24 12.27
1 5 -10 158.63 12.01
1 5 -10 171.67 12.13
1 5 -10 190.7 12.28
1 5 -10 179.08 12.5
1 5 -10 186.3 12.56
1 5 -9 84.51 8.17
1 5 -9 88.55 11.81
1 5 -9 96.9 8.64
1 5 -9 89.27 11.57
1 5 -9 97.61 11.85
1 5 -9 104.03 8.97
1 5 -9 79.59 10.48
1 5 -9 88.03 8.02
1 5 -8 8.72 2.55
1 5 -8 7.44 2.31
1 5 -8 7.03 3.58
1 5 -8 3.56 2.73
1 5 -8 6.06 2.01
1 5 -8 5.91 2.38
1 5 -8 7.1 2.24
1 5 -8 5.54 2.05
1 5 -8 9.13 4.07
1 5 -7 23.48 3.98
1 5 -7 25.27 5.35
1 5 -7 24.66 5.34
1 5 -7 26.64 5.67
1 5 -7 16.13 4.41
1 5 -6 217.34 16.86
1 5 -6 228.59 16.15
1 5 -6 218.34 15.77
1 5 -6 228.56 16.93
1 5 -5 176.61 14.35
1 5 -5 171.33 13.2
1 5 -5 179.82 13.52
1 5 -4 1171.04 45.29
1 5 -4 1182.84 43.02
1 5 -4 1177.77 43.3
-1 5 3 316.55 16.46
1 5 -3 298.22 16.14
1 5 -3 298.81 17.74
1 5 -3 268.05 16.02
-1 5 2 230.21 12.68
-1 5 2 239.13 14.29
1 5 -2 212.86 12.43
1 5 -2 228.8 14.07
-1 5 1 492.57 20.6
1 5 -1 479.62 20.17
1 5 -1 563.87 24.31
-1 5 1 579.45 24.54
-1 5 1 577.84 23.53
-1 5 0 112.01 7.58
1 5 0 142.67 10.82
-1 5 0 130.39 8.87
-1 5 0 119.4 8.1
-1 5 0 129.01 9.98
-1 5 0 135.09 10.37
-1 5 0 122.03 8.78
-1 5 -1 902.79 34.15
-1 5 -1 1005.97 35.29
-1 5 -1 973.46 36.3
-1 5 -1 966.9 36.27
-1 5 -1 908.91 32.84
-1 5 -1 945.2 32.67
-1 5 -2 117.12 9.49
-1 5 -2 116.05 8.58
-1 5 -2 121.9 8.91
-1 5 -2 117.38 9.99
-1 5 -2 109.91 9.4
-1 5 -2 119.51 9.83
-1 5 -3 128.8 10.64
-1 5 -3 118.45 10.01
-1 5 -3 111.57 8.98
-1 5 -3 128.89 10.75
-1 5 -3 117.08 9.85
-1 5 -3 105.48 8.83
-1 5 -4 609.27 27.89
-1 5 -4 557.26 26.42
-1 5 -4 629.52 27.72
-1 5 -4 595.07 25.68
-1 5 -4 570.08 25.7
-1 5 -4 621.04 28.22
-1 5 -5 583.1 27.08
-1 5 -5 546.68 25.7
-1 5 -5 545.72 27.28
-1 5 -5 514.75 24.9
-1 5 -5 569.15 27.28
-1 5 -5 536.68 26.4
-1 5 -6 670.34 30.92
-1 5 -6 747.4 34.18
-1 5 -6 733.61 33.16
-1 5 -6 786.51 33.58
-1 5 -6 676.1 31.64
-1 5 -6 754.76 33.82
-1 5 -7 693.12 32.98
-1 5 -7 626.27 30.32
-1 5 -7 695.1 33.53
-1 5 -7 579.96 25.87
-1 5 -7 635.04 30.91
-1 5 -7 684.2 31.53
-1 5 -7 664.18 32.12
-1 5 -8 4.73 2.84
-1 5 -8 7.98 2.54
-1 5 -8 5.44 2.81
-1 5 -8 3.98 1.6
-1 5 -8 8.42 3.81
-1 5 -8 5.8 1.91
-1 5 -8 4.55 2.95
-1 5 -8 4.38 2.04
-1 5 -8 4.78 2.42
-1 5 -8 1.64 1.64
-1 5 -9 147.12 14.82
-1 5 -9 140.9 14.24
-1 5 -9 157.27 11.01
-1 5 -9 145.45 15.24
-1 5 -9 129.09 9.83
-1 5 -9 150.47 11.21
-1 5 -9 153.95 11.2
-1 5 -9 104.16 12.05
-1 5 -9 125.77 13.53
-1 5 -9 138.77 11.19
-1 5 -10 204 13.61
-1 5 -10 179.11 12.05
-1 5 -10 220.37 14.12
-1 5 -10 213.25 13.71
-1 5 -10 203.21 13.54
-1 5 -10 205.98 12.95
-1 5 -11 52.89 6.66
-1 5 -11 41.58 5.52
-1 5 -11 54.23 6.51
-1 5 -11 42.66 5.97
-1 5 -11 50.71 6.39
-1 5 -11 51.24 6.06
-1 5 -12 209.75 13.18
-1 5 -12 166.39 11.02
-1 5 -12 203.77 13.13
-1 5 -12 190.88 12.98
-1 5 -12 189.08 12.44
-1 5 -12 211.52 12.68
-1 5 -12 209.88 12.83
-1 5 -13 126.35 9.33
-1 5 -13 117.52 9.24
-1 5 -13 119.75 9.24
-1 5 -13 103.73 8.36
-1 5 -13 95.47 7.44
-1 5 -13 115.87 8.88
-1 5 -13 122.5 9.14
-1 5 -14 131.29 9.19
-1 5 -14 114.35 8.42
-1 5 -14 123.32 8.45
-1 5 -14 140.22 9.09
-1 5 -14 121.93 8.5
-1 5 -15 99.5 6.69
-1 5 -15 101.89 6.73
-1 5 -15 100.4 6.95
-1 5 -15 96.64 6.61
-1 5 -15 73.88 5.61
-1 5 -15 87.79 6.16
1 6 -15 25.25 2.96
1 6 -15 18.63 2.47
1 6 -15 24.84 3.03
1 6 -15 20.86 2.75
1 6 -14 10.93 2.17
1 6 -14 17.17 3.02
1 6 -14 19.84 3.16
1 6 -14 12.39 2.25
1 6 -14 12.9 2.42
1 6 -14 18.87 3.03
1 6 -14 19.21 3.01
1 6 -13 36.03 4.41
1 6 -13 30.66 4.07
1 6 -13 36.08 4.64
1 6 -13 32.5 4.36
1 6 -13 40.37 5.1
1 6 -13 36.45 4.66
1 6 -12 89.62 7.9
1 6 -12 103.27 8.16
1 6 -12 97.49 8.4
1 6 -12 96.21 8.32
1 6 -12 91.78 8.02
1 6 -11 8.21 2.51
1 6 -11 8.34 2.73
1 6 -11 5.17 1.91
1 6 -11 5.74 2.61
1 6 -11 9.27 2.64
1 6 -10 22.37 4.13
1 6 -10 19.55 3.87
1 6 -10 19.89 4.01
1 6 -10 25.41 4.5
1 6 -9 266.26 15.51
1 6 -9 254.77 15.16
1 6 -9 247.12 14.7
1 6 -8 366.38 24.94
1 6 -8 372.07 25.27
1 6 -8 379.29 25.1
1 6 -8 437.27 20.65
1 6 -8 428.92 19.99
1 6 -8 425.61 27.88
1 6 -8 440.95 28.63
1 6 -7 67.65 9.55
1 6 -7 63.45 9.36
1 6 -7 62.92 6.64
1 6 -7 60.88 6.79
1 6 -7 80.69 11.06
1 6 -7 83.02 11.2
1 6 -7 60.45 8.88
1 6 -6 322.86 22.86
1 6 -6 355.63 23.46
1 6 -6 350.22 22.24
1 6 -6 328.94 21.66
1 6 -5 60.63 8.92
1 6 -5 72.14 8.92
1 6 -5 63.26 8.99
1 6 -5 61.47 8.34
1 6 -4 505 26.45
1 6 -4 548.45 28.41
1 6 -4 526.64 26.27
1 6 -3 157.21 13.4
-1 6 3 175.75 13.08
1 6 -3 165.87 13.15
1 6 -3 154.56 11.82
-1 6 2 204.97 14.72
1 6 -2 174.66 13.71
1 6 -2 194.23 14.11
-1 6 1 1173.68 43.9
1 6 -1 1073.5 41.55
-1 6 1 1115.9 41.33
1 6 0 171.67 13.21
-1 6 0 183.79 14.16
-1 6 0 191.44 14.03
-1 6 -1 82.05 9.24
-1 6 -1 93.63 9.82
-1 6 -1 69.36 7.42
1 6 1 76.36 8.66
-1 6 -2 612.29 28.21
-1 6 -2 659.92 29.72
-1 6 -2 670.2 30.72
-1 6 -2 626.04 30.3
1 6 2 667.53 29.99
-1 6 -3 110.35 10.59
-1 6 -3 105.59 10.72
-1 6 -3 106.69 11.04
-1 6 -3 111.72 11.02
-1 6 -4 784.07 35.17
-1 6 -4 653.45 30.7
-1 6 -4 771.09 34.37
-1 6 -4 780.02 35.15
-1 6 -4 711.83 33.11
-1 6 -5 9.73 3.13
-1 6 -5 8.54 2.74
-1 6 -5 12.46 3.91
-1 6 -5 8.39 3.11
-1 6 -5 11.88 3.67
-1 6 -6 36.95 6.87
-1 6 -6 39.36 6.99
-1 6 -6 26.01 5.81
-1 6 -6 27.83 5.59
-1 6 -6 42 7.69
-1 6 -7 298.49 21.42
-1 6 -7 289.76 20.94
-1 6 -7 284.1 16.54
-1 6 -7 279.48 20.04
-1 6 -7 272.44 21.29
-1 6 -7 223.85 18.09
-1 6 -7 258.98 15.08
-1 6 -8 363.79 18.94
-1 6 -8 300.39 21.19
-1 6 -8 320.64 17.3
-1 6 -8 365.55 18.23
-1 6 -9 568.07 26.18
-1 6 -9 581.91 25.7
-1 6 -9 543.73 24.97
-1 6 -10 34.13 5.4
-1 6 -10 39.91 5.6
-1 6 -10 36.9 5.34
-1 6 -10 32.01 4.81
-1 6 -10 33.11 4.96
-1 6 -11 53.79 6.29
-1 6 -11 75.01 7.44
-1 6 -11 56.52 6.57
-1 6 -11 59.79 6.66
-1 6 -11 63.28 6.91
-1 6 -11 62.79 6.71
-1 6 -12 136.81 9.76
-1 6 -12 121.04 9.14
-1 6 -12 133.87 10.07
-1 6 -12 144.48 9.81
-1 6 -12 144.88 10.09
-1 6 -12 124.61 8.72
-1 6 -12 134.87 9.69
-1 6 -13 127.06 8.61
-1 6 -13 132.62 9.27
-1 6 -13 151.43 9.57
-1 6 -13 132.62 9.05
-1 6 -13 142.23 9.17
-1 6 -13 118.51 7.87
-1 6 -14 38.77 4.14
-1 6 -14 27.77 3.3
-1 6 -14 40.13 4.18
-1 6 -14 43.24 4.45
-1 6 -14 42.04 4.32
-1 6 -14 37.84 4.11
-1 6 -15 140.47 7.42
-1 6 -15 153.01 7.64
1 7 -14 47.94 4.29
1 7 -14 42.83 3.8
1 7 -14 43.28 3.77
1 7 -14 52.39 4.47
1 7 -13 69.25 5.62
1 7 -13 69.49 5.59
1 7 -13 72.38 6.09
1 7 -13 67.85 5.64
1 7 -13 70.89 5.99
1 7 -13 73.04 5.84
1 7 -12 30.91 4.11
1 7 -12 30.83 4.14
1 7 -12 35.75 4.52
1 7 -12 30.97 4.33
1 7 -12 31.56 4.02
1 7 -11 43.92 5.3
1 7 -11 41.62 5.29
1 7 -11 38.82 4.95
1 7 -11 38.85 4.96
1 7 -10 39.1 5.22
1 7 -10 43.31 5.33
1 7 -10 42.95 5.57
1 7 -9 51.65 5.97
1 7 -9 53.79 6.24
1 7 -9 48.35 6.14
1 7 -8 265.07 14.84
1 7 -8 269.61 15.39
1 7 -7 399.61 19.05
1 7 -6 115.34 13.33
1 7 -6 105.29 12.46
1 7 -6 109.63 13.34
1 7 -6 106.25 13.11
1 7 -5 126.44 14.16
1 7 -5 122.22 12.98
1 7 -5 111.97 12.99
1 7 -4 115.34 12.23
1 7 -4 119.1 13.18
1 7 -4 105.49 12.13
1 7 -3 28.83 6.37
1 7 -3 35.89 6.38
-1 7 2 5.53 2.14
1 7 -2 8.05 3.19
1 7 -2 8.88 3.2
-1 7 1 94.57 10.86
1 7 -1 67.96 9.23
1 7 -1 74.6 9.04
-1 7 0 481.87 26.79
1 7 0 364.25 22.69
-1 7 -1 34.41 6.41
-1 7 -1 29.24 6.2
-1 7 -2 63.07 9.09
-1 7 -2 72.94 9.75
-1 7 -3 84.95 10.88
-1 7 -3 73.21 9.97
-1 7 -4 67.75 9.51
-1 7 -4 73.26 10.37
-1 7 -4 54.07 8.36
-1 7 -5 206.85 17.55
-1 7 -5 214.45 18.45
-1 7 -5 262.54 19.85
-1 7 -5 269.36 20.82
-1 7 -6 7.47 3.69
-1 7 -7 150.36 11.5
-1 7 -8 76.67 7.89
-1 7 -9 13.54 3.47
-1 7 -9 12.47 2.98
-1 7 -9 15.23 3.44
-1 7 -9 9.46 2.86
-1 7 -10 289.78 15.41
-1 7 -10 324.13 16.78
-1 7 -10 286.64 16.07
-1 7 -10 340.94 16.63
-1 7 -11 20.58 3.56
-1 7 -11 16.76 3.17
-1 7 -11 16.07 3.19
-1 7 -11 16.63 3.41
-1 7 -12 99.57 7.5
-1 7 -12 81.58 6.48
-1 7 -12 91.94 7.23
-1 7 -12 102.86 7.56
-1 7 -12 98.22 7.43
-1 7 -13 42.69 3.94
-1 7 -13 43.79 4.3
-1 7 -13 49.94 4.73
-1 7 -13 55.47 4.94
-1 7 -13 57.48 5
-1 7 -14 0.64 0.68
-1 7 -14 -0.29 0.83
-1 7 -14 -0.11 0.36
1 8 -13 112.49 6.31
1 8 -13 118.7 6.74
1 8 -12 2.7 1.24
1 8 -12 1.49 0.84
1 8 -12 2.4 1.19
1 8 -12 2.89 1.21
1 8 -11 12.33 2.51
1 8 -11 12.54 2.36
1 8 -11 15.88 3.06
1 8 -11 7.61 1.84
1 8 -11 12.45 2.57
1 8 -10 59.31 5.58
1 8 -10 62.16 5.95
1 8 -10 61.92 6.18
1 8 -9 42.67 4.83
1 8 -9 33.8 4.81
1 8 -8 42.39 5.48
1 8 -7 156.36 11.17
1 8 -2 357.75 23.82
-1 8 1 107.91 12.77
-1 8 0 207.04 18.15
-1 8 -1 28.18 6.5
-1 8 -7 225.69 13.58
-1 8 -8 52.33 5.94
-1 8 -8 53.85 6.3
-1 8 -9 6.88 2.32
-1 8 -9 10.68 2.61
-1 8 -10 8.72 2.38
-1 8 -10 9.81 2.2
-1 8 -10 12.84 2.59
-1 8 -11 10.01 2.24
-1 8 -11 11.24 2.45
-1 8 -11 9.38 2.26
-1 8 -11 8.96 2.03
-1 8 -12 20.49 2.71
-1 8 -12 27.45 3.2
-1 8 -12 20 2.83
-1 8 -12 20.48 2.65
1 9 -11 19.51 2.53
1 9 -11 20.35 2.61
1 9 -11 16.99 2.39
1 9 -10 15.75 2.51
1 9 -10 12.26 2.19
1 9 -10 15.3 2.61
1 9 -9 34.75 4.15
1 9 -9 46.63 4.78
1 9 -9 40.83 4.43
1 9 -8 18.62 3.14
1 9 -8 20.67 3.33
1 9 -7 25.14 3.73
-1 9 -7 26.84 4.09
-1 9 -8 76.11 6.49
-1 9 -9 68.11 5.63
-1 9 -9 72.74 6.06
-1 9 -10 69.24 5.39
-1 9 -10 58.84 4.73
-1 9 -10 65.31 5.09
-1 9 -11 5.27 1.31
-1 9 -11 3.3 1.1
-1 9 -11 5.47 1.31
1 10 -9 14.93 2.01
1 10 -9 13.88 2.06
1 10 -8 5.79 1.46
1 10 -7 56.56 4.84
-1 10 -5 2.53 1.15
-1 10 -6 13.12 2.21
-1 10 -6 11.1 2.13
-1 10 -7 44.73 4.1
-1 10 -8 40.05 3.55
-1 10 -9 12.85 1.8
-2 -11 4 2.49 0.93
-2 -11 3 1.77 0.92
-2 -11 2 23.17 2.95
-2 -11 1 36.97 3.79
-2 -11 0 103.01 6.47
-2 -11 0 74.76 5.26
-2 -11 -1 85.78 5.68
-2 -11 -1 105.26 6.49
-2 -11 -2 30.77 3.18
-2 -11 -2 40.49 3.7
-2 -11 -3 114.81 6.42
-2 -11 -3 94.19 5.82
-2 -11 -4 13.69 2.01
-2 -11 -4 43.73 3.68
2 -10 -9 8.47 1.55
2 -10 -8 23.74 2.99
2 -10 -7 36.94 4.22
-2 -10 6 127.67 8.3
2 -10 -6 181.08 10.17
2 -10 -5 129.07 8.88
-2 -10 5 111.78 8.09
-2 -10 4 90.6 7.72
2 -10 -4 102.53 8.29
-2 -10 3 12.85 2.79
-2 -10 3 5.67 2.01
-2 -10 2 89.59 7.49
-2 -10 2 93.07 7.91
-2 -10 1 22.24 3.6
-2 -10 1 14.88 2.94
-2 -10 0 61.12 6.03
-2 -10 0 51.46 5.48
2 -10 0 70.28 5.8
-2 -10 -1 60.83 5.9
-2 -10 -1 62.5 5.82
-2 -10 -2 96.36 7.22
-2 -10 -2 84.28 6.94
-2 -10 -3 18.03 3.07
-2 -10 -3 16.28 2.74
-2 -10 -4 24.71 3.45
-2 -10 -4 28.57 3.6
-2 -10 -5 20.14 2.94
-2 -10 -5 17.55 2.78
-2 -10 -6 60.77 5.03
-2 -10 -6 23.69 3.15
-2 -10 -7 7.75 1.74
2 -9 -11 21.23 2.6
2 -9 -10 65.4 5.3
2 -9 -10 58.82 5.17
2 -9 -9 0.02 0.68
2 -9 -9 0.24 0.61
2 -9 -8 37.19 4.9
2 -9 -8 30.72 4.14
-2 -9 7 30.13 4.19
2 -9 -7 44.07 5.37
2 -9 -7 48.9 6.02
2 -9 -6 170.82 11.62
2 -9 -6 169.8 12.23
-2 -9 5 344.26 18.42
-2 -9 5 326 17.81
-2 -9 4 89.31 8.3
-2 -9 4 91.03 8.52
-2 -9 3 160.55 11.34
-2 -9 3 133.86 10.44
2 -9 -3 170.72 11.75
2 -9 -3 162.03 10.34
-2 -9 2 266.37 15.39
-2 -9 2 234.5 14.51
2 -9 -2 278.41 14.18
2 -9 -2 296.43 15.92
2 -9 -1 119.37 8.64
2 -9 -1 134.1 10.22
-2 -9 1 123.86 9.89
-2 -9 1 125.97 9.91
-2 -9 0 6.23 2.26
-2 -9 0 3.77 1.89
2 -9 0 1.05 0.82
-2 -9 -1 639.9 26.36
-2 -9 -1 634.91 26.65
-2 -9 -2 94.18 8.26
-2 -9 -2 96.69 8.42
-2 -9 -3 144.87 10.19
-2 -9 -3 139.24 10.2
-2 -9 -4 2.62 1.12
-2 -9 -4 2.44 1.57
-2 -9 -5 91.52 7.4
-2 -9 -5 88.12 7.52
-2 -9 -5 96.37 8.44
-2 -9 -6 141.41 10.27
-2 -9 -6 122.56 8.74
-2 -9 -6 117.17 8.29
-2 -9 -7 36.09 4.85
-2 -9 -7 41.53 4.62
-2 -9 -8 61.01 6.29
-2 -9 -8 64.88 5.9
-2 -9 -9 47.56 4.84
-2 -9 -10 52.29 4.53
2 -8 -12 100.95 6.69
2 -8 -12 114.62 7.11
2 -8 -11 103.01 7.45
2 -8 -11 95.8 7.31
2 -8 -10 15.3 2.98
2 -8 -10 14.84 2.91
2 -8 -9 70.44 7.16
2 -8 -9 77.43 7.1
2 -8 -8 36.49 5.01
2 -8 -8 33.05 5.17
-2 -8 8 22.35 3.79
-2 -8 7 11.7 3.01
-2 -8 7 9.03 2.84
2 -8 -7 12.88 3.14
2 -8 -7 15.79 3.96
-2 -8 6 65.79 7.45
2 -8 -6 60.25 6.13
2 -8 -6 66.76 7.21
-2 -8 6 47.71 6.42
2 -8 -6 56.96 7.21
-2 -8 5 115.37 10.05
2 -8 -5 112.47 10.22
-2 -8 5 98.24 9.41
2 -8 -5 121.7 9.96
2 -8 -4 163.15 12.09
-2 -8 4 122.7 10.49
2 -8 -4 148.17 11.03
-2 -8 4 115.72 10.17
2 -8 -4 154.92 10.28
2 -8 -3 510.92 22.94
-2 -8 3 425.34 21.76
2 -8 -3 502.88 23.56
2 -8 -3 471.08 20.69
-2 -8 3 438.1 21.95
2 -8 -2 765.44 29.46
-2 -8 2 731.28 31.11
-2 -8 2 744.75 31.09
2 -8 -1 121.08 9.05
-2 -8 1 120.38 10.06
-2 -8 1 116.76 9.92
2 -8 -1 150.75 11.19
2 -8 0 7.09 2.07
-2 -8 0 6.69 2.29
2 -8 0 5.27 2.17
-2 -8 0 12.79 3.04
-2 -8 -1 322.11 17.06
2 -8 1 273.82 14.6
-2 -8 -1 326.4 17.49
-2 -8 -2 194.4 12.92
-2 -8 -2 190.44 12.93
-2 -8 -3 19.18 3.99
-2 -8 -3 13.42 3.02
-2 -8 -3 19.19 3.86
-2 -8 -4 62.34 6.73
-2 -8 -4 56.49 6.5
-2 -8 -4 54.68 6.52
-2 -8 -4 62.83 7.2
-2 -8 -5 118.23 10.23
-2 -8 -5 110.27 8.99
-2 -8 -5 115.76 9.34
-2 -8 -5 102.39 8.84
-2 -8 -6 84.79 7.85
-2 -8 -6 79.88 7.25
-2 -8 -6 86.91 8.67
-2 -8 -6 78.81 7.59
-2 -8 -7 145.83 9.73
-2 -8 -7 146.25 10.1
-2 -8 -7 127.59 9.61
-2 -8 -7 155.32 11.41
-2 -8 -8 22.19 3.69
-2 -8 -8 17.47 3.26
-2 -8 -8 22.21 4.08
-2 -8 -9 192.98 11.9
-2 -8 -9 223.12 11.85
-2 -8 -10 53.71 5.28
-2 -8 -10 57.66 5.67
-2 -8 -11 38.34 4.07
-2 -8 -11 42.43 4.38
-2 -8 -12 138.95 7.54
2 -7 -14 55.85 4.27
2 -7 -13 112.14 7.36
2 -7 -13 114.39 7.23
2 -7 -12 168.91 10.08
2 -7 -12 144.74 9.48
2 -7 -11 42.71 5.08
2 -7 -11 40.72 5.18
2 -7 -10 11.67 2.97
2 -7 -10 6.47 2.05
2 -7 -9 148.22 11.68
-2 -7 9 129.84 11.2
2 -7 -9 154.28 10.93
2 -7 -8 312.77 16.92
2 -7 -8 352.65 18.86
-2 -7 8 306.87 18.37
-2 -7 8 282.94 17.13
2 -7 -7 112.25 9.45
2 -7 -7 128.08 11.03
-2 -7 7 110.38 10.58
2 -7 -7 125.87 9.57
-2 -7 7 109.46 10.19
2 -7 -6 343.62 16.57
2 -7 -6 310.67 15.95
2 -7 -6 294.4 16.59
-2 -7 6 319.15 18.67
-2 -7 6 288.21 17.63
2 -7 -6 331.84 18.39
2 -7 -5 219.86 13.58
2 -7 -5 193.26 11.82
-2 -7 5 209.28 14.28
-2 -7 5 199.74 13.95
2 -7 -5 230.36 14.57
-2 -7 5 205.95 19.05
2 -7 -5 221.83 12.71
-2 -7 4 4.58 2.11
-2 -7 4 10.15 4.5
2 -7 -4 5.01 1.64
2 -7 -4 7.52 2.36
-2 -7 4 5.13 2.11
2 -7 -4 3.98 1.99
2 -7 -4 0.22 1.6
-2 -7 3 211.53 13.95
2 -7 -3 243.19 14.79
2 -7 -3 218.5 12.7
-2 -7 3 196.43 13.72
2 -7 -3 244.05 18.02
2 -7 -3 227.18 13.78
-2 -7 3 231.61 19.05
2 -7 -2 127.11 10.33
2 -7 -2 126.79 12.63
2 -7 -2 105.48 9.08
2 -7 -2 101.71 8.21
-2 -7 2 104.52 9.31
-2 -7 2 97.65 8.88
-2 -7 2 107.5 12.19
-2 -7 1 130 10.29
2 -7 -1 149.95 14.24
-2 -7 1 144.22 10.92
2 -7 -1 117.09 8.89
2 -7 -1 165.51 12.09
-2 -7 1 143.24 13.43
2 -7 -1 150.86 11.1
-2 -7 0 0.72 1.43
2 -7 0 -0.78 1.57
2 -7 0 2.16 2.1
-2 -7 0 0.01 0.82
2 -7 0 -0.07 0.75
2 -7 0 -0.65 1.88
-2 -7 0 0.74 1.22
2 -7 1 306.19 16.92
-2 -7 -1 373.8 21.95
2 -7 1 345.22 23.78
-2 -7 -1 318.32 16.68
-2 -7 -1 342.6 18.04
2 -7 1 384.68 19.57
-2 -7 -1 331.92 17.61
-2 -7 -2 385.78 22.86
2 -7 2 388.14 25.39
-2 -7 -2 332.17 17.29
-2 -7 -2 351.31 18.24
-2 -7 -2 340.9 17.92
2 -7 2 315.67 17.15
-2 -7 -3 213.27 13.39
2 -7 3 178.79 12.32
-2 -7 -3 195.79 13.07
2 -7 3 232.41 19.56
-2 -7 -3 199.69 12.7
-2 -7 -3 226.09 13.89
-2 -7 -4 117.64 9.51
2 -7 4 125.58 14.7
-2 -7 -4 126.16 10.5
-2 -7 -4 143.55 10.68
2 -7 4 104.86 9.12
-2 -7 -4 120.65 9.77
-2 -7 -5 190.92 12.43
-2 -7 -5 204.45 14.03
-2 -7 -5 196.2 12.71
-2 -7 -5 184.95 12.47
-2 -7 -6 1024.54 38.8
-2 -7 -6 942.27 36.09
-2 -7 -6 938.4 35.49
-2 -7 -6 979.16 38.24
-2 -7 -6 1044.91 36.89
-2 -7 -7 19.33 4.17
-2 -7 -7 18.82 3.73
-2 -7 -7 19.66 4.26
-2 -7 -7 19.76 3.77
-2 -7 -7 16.78 3.41
-2 -7 -8 77.28 6.88
-2 -7 -8 76.53 7.2
-2 -7 -8 78.18 8.18
-2 -7 -8 64.37 6.78
-2 -7 -8 66.04 7.41
-2 -7 -9 166.74 10.86
-2 -7 -9 163.49 11.42
-2 -7 -10 33.79 4.65
-2 -7 -10 38.02 4.81
-2 -7 -10 36.29 4.83
-2 -7 -11 257.23 13.66
-2 -7 -11 257.75 13.7
-2 -7 -12 87.8 6.8
-2 -7 -12 96.95 7.09
-2 -7 -13 31.04 3.41
-2 -7 -13 21.95 2.74
2 -6 -15 49.43 4
2 -6 -14 10.89 2.18
2 -6 -14 7.64 1.73
2 -6 -13 48.42 5
2 -6 -13 44.7 5.11
2 -6 -13 53.3 5.48
2 -6 -12 6.88 2.04
2 -6 -12 5.32 1.87
2 -6 -12 6.09 1.89
2 -6 -11 6.2 2.44
2 -6 -11 7.95 2.47
2 -6 -11 2.76 1.93
2 -6 -10 9.84 2.65
2 -6 -10 12.04 3.01
2 -6 -10 12.42 3.41
2 -6 -9 228.79 14.1
2 -6 -9 258.7 15.92
2 -6 -9 237.99 16.11
2 -6 -8 51.13 6.06
2 -6 -8 55.51 6.76
-2 -6 8 45.19 6.35
2 -6 -8 61.34 7.82
2 -6 -7 184.32 12.34
2 -6 -7 204.42 13.79
-2 -6 7 175.67 17.01
-2 -6 7 180.01 13.5
2 -6 -7 220.26 13.04
2 -6 -7 196.76 14.39
-2 -6 6 20.55 5.75
2 -6 -6 22.19 3.67
-2 -6 6 17.66 3.84
2 -6 -6 21.6 3.99
2 -6 -6 20.12 3.75
2 -6 -6 20.23 4.41
2 -6 -6 32.28 4.66
2 -6 -5 219.4 12.24
2 -6 -5 191.61 13.32
2 -6 -5 210.08 12.67
-2 -6 5 254.94 19.28
-2 -6 5 207.03 13.93
2 -6 -5 194.59 11.59
2 -6 -5 154.12 11.28
2 -6 -5 221.98 13.68
2 -6 -4 118.17 9.13
2 -6 -4 127.1 8.92
2 -6 -4 148.73 12.22
-2 -6 4 159.25 14.56
-2 -6 4 111.62 9.59
2 -6 -4 114.24 9.37
-2 -6 4 112.53 9.74
-2 -6 3 77.43 9.69
2 -6 -3 92 9.43
2 -6 -2 550.99 26.97
-2 -6 2 542.69 28.04
-2 -6 1 50.6 7.06
2 -6 -1 52.26 7.58
2 -6 0 113.85 11.64
-2 -6 0 97.13 9.89
-2 -6 -1 83.01 9.02
2 -6 1 83.29 9.91
2 -6 2 18.25 4.6
-2 -6 -2 18.73 4.32
-2 -6 -3 150.65 10.55
-2 -6 -3 152.17 12.7
-2 -6 -3 148.83 10.45
2 -6 3 129.54 9.77
-2 -6 -4 155.41 10.81
2 -6 4 159.92 11.15
-2 -6 -4 144.03 10.25
2 -6 4 140.15 10.27
-2 -6 -4 186.8 11.82
-2 -6 -4 172.97 12
-2 -6 -5 329.08 16.63
-2 -6 -5 299.91 15.8
-2 -6 -5 274.18 15.3
2 -6 5 271.85 15.52
2 -6 5 286.14 16.15
-2 -6 -5 324.61 17.55
-2 -6 -5 297.61 16.74
-2 -6 -6 96.5 8.16
-2 -6 -6 113.24 9.86
2 -6 6 121.84 14.64
-2 -6 -6 119.71 9.31
-2 -6 -6 98.31 8.55
2 -6 6 99.96 8.81
2 -6 6 103.85 8.97
-2 -6 -6 102.93 9.34
2 -6 7 110.52 14.44
-2 -6 -7 97.22 8.28
-2 -6 -7 99.64 8.49
2 -6 7 80.76 8.01
-2 -6 -7 77.75 7.11
-2 -6 -7 94.41 9.09
-2 -6 -7 104.65 9.43
-2 -6 -8 604.21 27.06
-2 -6 -8 568.89 25.53
-2 -6 -8 651.44 28.06
-2 -6 -8 654.09 25.98
-2 -6 -9 80.41 7.46
-2 -6 -9 74.59 7.93
-2 -6 -9 90.33 8.69
-2 -6 -9 66.76 7
-2 -6 -10 127.39 10.24
-2 -6 -10 110.81 9.41
-2 -6 -10 113.88 9.34
-2 -6 -10 139.21 9.86
-2 -6 -11 63.31 6.63
-2 -6 -11 66.75 6.87
-2 -6 -11 66.63 7.02
-2 -6 -11 68.24 7.01
-2 -6 -12 39.76 4.93
-2 -6 -12 42.54 5.14
-2 -6 -12 40.86 5.06
-2 -6 -12 43.55 5.21
-2 -6 -13 206.77 11.32
-2 -6 -13 217.17 11.53
-2 -6 -13 191.59 10.75
-2 -6 -14 90.02 6.07
-2 -6 -14 76.48 5.43
2 -5 -15 39.07 4.08
2 -5 -15 45.39 4.4
2 -5 -14 201.33 11.54
2 -5 -14 222.78 11.92
2 -5 -14 205.56 11.74
2 -5 -13 86.66 7.84
2 -5 -13 80.19 7.52
2 -5 -13 85.47 7.8
2 -5 -13 80.98 6.93
2 -5 -13 96.62 8
2 -5 -12 42.05 5.23
2 -5 -12 34.43 5.15
2 -5 -12 40.05 5.56
2 -5 -12 42.54 5.49
2 -5 -12 41.53 5.7
2 -5 -11 3.06 1.55
2 -5 -11 -0.27 1.4
2 -5 -11 3.96 2.37
2 -5 -11 4.31 2.08
2 -5 -11 3.99 1.59
2 -5 -10 327.57 17.52
2 -5 -10 361.94 19
2 -5 -10 342.69 18.48
2 -5 -10 372.69 20.11
2 -5 -10 380.71 20.43
2 -5 -9 142.99 10.79
2 -5 -9 126.03 9.86
2 -5 -9 137.25 10.92
2 -5 -9 163.82 12.6
2 -5 -9 153.76 12.15
2 -5 -8 105.77 8.72
-2 -5 8 101.81 11.86
2 -5 -8 95.29 8.84
2 -5 -8 107.92 10.06
2 -5 -8 119.78 10.58
2 -5 -8 113.89 9.68
-2 -5 7 92.93 11
2 -5 -7 83.62 7.61
2 -5 -7 90.95 8.36
2 -5 -7 87.07 8.23
2 -5 -7 80.09 8.52
2 -5 -7 86.38 8.79
2 -5 -7 109.48 8.72
-2 -5 6 214.59 16.98
2 -5 -6 230.4 12.73
-2 -5 5 146.45 13.17
2 -5 -4 280.61 15.52
-2 -5 4 272.2 17.4
2 -5 -3 503.34 22.71
-2 -5 3 551.95 25.42
2 -5 -2 2.41 0.67
-2 -5 2 1.61 1.38
2 -5 -2 2.12 1.24
2 -5 -1 313.93 16.66
-2 -5 1 335.42 18.33
2 -5 -1 334.9 18.81
-2 -5 0 63.68 7.05
2 -5 0 70.36 7.98
2 -5 0 53.28 6.21
2 -5 1 250.24 16.37
-2 -5 -1 256.93 14.87
2 -5 1 242.3 14.38
2 -5 2 324.45 19.3
-2 -5 -2 364.17 18.24
2 -5 2 328.51 17.68
2 -5 3 195.31 14.82
2 -5 3 188.11 13.3
-2 -5 -3 214.07 13.54
2 -5 4 532.08 27.35
2 -5 4 484.66 24.27
2 -5 5 599.02 31.44
2 -5 5 614.54 29.11
2 -5 6 266.31 20.32
2 -5 6 203.32 12.78
-2 -5 -6 205.55 13.08
2 -5 6 168.23 11.83
-2 -5 -6 217.07 12.57
-2 -5 -6 194.25 12.8
2 -5 6 233.26 16.84
-2 -5 -7 60.15 6.85
2 -5 7 47.51 5.84
-2 -5 -7 48.45 5.59
-2 -5 -7 62.14 6.33
2 -5 7 58.27 8.52
-2 -5 -7 54.96 6.6
2 -5 7 74.49 11.17
2 -5 7 57.81 6.65
2 -5 8 149.5 11.11
-2 -5 -8 177.89 12.46
2 -5 8 180.23 16.26
-2 -5 -8 199.13 11.98
-2 -5 -8 176.9 11.78
-2 -5 -8 193.48 13.14
2 -5 8 181.71 12.37
-2 -5 -9 675.58 28.39
-2 -5 -9 740.7 30.6
2 -5 9 705.84 29.47
-2 -5 -9 714.72 29.98
-2 -5 -9 755.18 28.72
2 -5 9 631.4 35.98
-2 -5 -9 752.68 30.87
-2 -5 -10 143.17 11.25
-2 -5 -10 150.37 11.56
-2 -5 -10 128.51 10.19
2 -5 10 127.96 10.38
-2 -5 -10 136.29 10.56
-2 -5 -10 143.05 11.17
-2 -5 -10 159.66 10.83
-2 -5 -11 388.16 19.66
-2 -5 -11 397.41 20.13
-2 -5 -11 414.08 20.47
-2 -5 -11 421.35 20.59
-2 -5 -11 376.29 19.13
-2 -5 -12 20.6 3.93
-2 -5 -12 26.32 4.51
-2 -5 -12 20.79 3.76
-2 -5 -12 23.71 4.2
-2 -5 -12 22.57 3.75
-2 -5 -13 32.81 4.63
-2 -5 -13 34.55 4.61
-2 -5 -13 29.05 4.13
-2 -5 -13 25.86 3.88
-2 -5 -13 27.13 4.16
-2 -5 -14 36.44 4.2
-2 -5 -14 41.05 4.51
-2 -5 -14 45.09 4.69
-2 -5 -15 12.75 1.96
-2 -5 -15 13.13 2.08
-2 -5 -15 13.68 2.08
2 -4 -16 45.77 4.16
2 -4 -16 53.42 4.54
2 -4 -16 47.73 4.32
2 -4 -15 24.54 3.59
2 -4 -15 35.25 4.19
2 -4 -15 32.36 4.16
2 -4 -15 34.78 4.38
2 -4 -14 227.53 12.81
2 -4 -14 219.57 13.28
2 -4 -14 241.68 13.68
2 -4 -14 240.26 13.25
2 -4 -14 265.26 14.25
2 -4 -13 96.52 8.69
2 -4 -13 96.46 8.25
2 -4 -13 103.75 8.83
2 -4 -13 88.58 7.99
2 -4 -13 94.31 8.59
2 -4 -12 535.64 23.23
2 -4 -12 557.56 25.24
2 -4 -12 553.66 24.42
2 -4 -12 541.44 24.4
2 -4 -12 519.4 23.74
2 -4 -12 542.81 24.86
2 -4 -12 566.97 24.51
2 -4 -11 142.01 10.36
2 -4 -11 146.26 11
2 -4 -11 151.25 11.14
2 -4 -11 143.75 10.89
2 -4 -11 133.16 10.4
2 -4 -11 146.74 11.52
2 -4 -11 136.87 11.14
2 -4 -10 34.56 4.88
-2 -4 10 29.33 6.36
2 -4 -10 31.12 4.75
2 -4 -10 32.35 5.03
2 -4 -10 31.87 4.86
2 -4 -10 39.92 5.84
2 -4 -10 38.08 5.41
2 -4 -10 46.27 6.35
2 -4 -10 28.67 7.08
2 -4 -9 18.08 3.49
2 -4 -9 19.92 3.97
2 -4 -9 20.68 5.83
2 -4 -9 15.91 3.53
2 -4 -9 28.73 4.33
-2 -4 9 18.56 4.8
2 -4 -9 22.54 4.18
2 -4 -9 21.76 3.79
2 -4 -9 19.61 4.21
2 -4 -8 156.83 10.85
2 -4 -8 137.78 9.95
2 -4 -8 156.86 11.66
2 -4 -8 150.09 10.57
2 -4 -8 168.46 15.24
2 -4 -8 164.51 11.4
-2 -4 8 180.4 14.66
2 -4 -8 167.85 12.35
-2 -4 7 27.15 5.72
2 -4 -7 20.96 4.74
-2 -4 6 125.01 11.47
2 -4 -6 122.59 11.29
2 -4 -5 105.14 9.6
-2 -4 5 131.03 11.1
2 -4 -4 500.25 22.78
2 -4 -4 481.03 21.61
-2 -4 4 573.96 24.84
2 -4 -4 603.77 22.93
2 -4 -3 246.72 13.22
2 -4 -3 255.44 13.18
-2 -4 3 244.27 14.03
2 -4 -3 222.56 12.49
-2 -4 2 856.08 30.08
2 -4 -2 843.11 29.29
2 -4 -2 816.37 29.25
-2 -4 1 951.99 34.23
2 -4 -1 966.51 33.97
2 -4 -1 938.08 34.49
-2 -4 0 312.28 15.71
2 -4 0 361.19 16.9
2 -4 0 340.29 17.18
2 -4 1 1066.47 37.44
-2 -4 -1 984.99 34.73
2 -4 1 1012.62 35.85
2 -4 2 1854.37 58.91
-2 -4 -2 1709.05 55.77
2 -4 2 1823.39 57.18
2 -4 3 493.92 23.58
2 -4 3 525.21 23.02
2 -4 4 22.29 4.32
2 -4 4 23.93 4.82
2 -4 5 32 5.43
-2 -4 -6 392.58 22.88
2 -4 6 452.99 23.41
-2 -4 -7 187.05 15.71
2 -4 7 198.23 15.47
-2 -4 -8 172.76 11.88
-2 -4 -8 166.85 11.73
-2 -4 -8 141.03 10.41
2 -4 8 159.64 11.29
-2 -4 -8 152.49 11.52
-2 -4 -8 176.33 10.91
-2 -4 -8 176.6 16.04
2 -4 8 178.97 15.27
-2 -4 -9 112.29 9.48
-2 -4 -9 111.7 9.22
-2 -4 -9 125.08 10.38
-2 -4 -9 124.99 9.23
2 -4 9 122.73 13.31
2 -4 9 114.54 9.67
-2 -4 -9 112.17 13.58
-2 -4 -9 113.21 9.71
-2 -4 -9 125.95 10.29
-2 -4 -10 610.44 26.51
-2 -4 -10 571.26 25.85
-2 -4 -10 491.94 32.19
2 -4 10 529.26 31.89
-2 -4 -10 572.91 25.11
-2 -4 -10 621.96 24.95
-2 -4 -10 566.04 25.65
2 -4 10 538.7 24.87
-2 -4 -10 593.98 25.65
-2 -4 -10 528.32 24.33
2 -4 11 75.94 7.76
-2 -4 -11 78.38 7.91
-2 -4 -11 76.34 8.03
-2 -4 -11 70.64 7.32
-2 -4 -11 67.39 7.66
-2 -4 -11 83.07 8.34
-2 -4 -11 68.33 7.54
-2 -4 -12 121.8 10.09
-2 -4 -12 119.6 10.1
-2 -4 -12 118.65 9.52
-2 -4 -12 114.26 9.59
-2 -4 -12 117.44 9.57
-2 -4 -12 117.46 9.95
-2 -4 -13 0.01 1.09
-2 -4 -13 1.82 0.98
-2 -4 -13 5.62 2.06
-2 -4 -13 4.02 2
-2 -4 -13 3.48 1.98
-2 -4 -13 4.35 1.75
-2 -4 -14 7.11 2.09
-2 -4 -14 3.62 1.6
-2 -4 -14 4.26 1.64
-2 -4 -14 5.19 1.68
-2 -4 -14 7.51 1.99
-2 -4 -14 4.78 1.7
-2 -4 -15 21.88 2.93
-2 -4 -15 21.35 3.08
-2 -4 -15 17.47 2.71
-2 -4 -15 23.06 3.11
2 -3 -17 38.15 3.46
2 -3 -16 84.57 6.48
2 -3 -16 95.31 7.08
2 -3 -16 105.27 7.18
2 -3 -16 82.4 6.53
2 -3 -16 97.88 6.87
2 -3 -15 91.18 7.42
2 -3 -15 90.98 7.45
2 -3 -15 87.41 7.34
2 -3 -15 79.29 7.32
2 -3 -15 86.59 7.46
2 -3 -14 0.32 1.19
2 -3 -14 0.5 1.24
2 -3 -14 1.85 0.98
2 -3 -14 3.43 1.83
2 -3 -14 2.89 1.7
2 -3 -14 -0.1 0.84
2 -3 -13 23.78 4.31
2 -3 -13 18.72 3.69
2 -3 -13 21.45 4.07
2 -3 -13 18.65 3.62
2 -3 -13 20.54 4
2 -3 -13 27.86 4.91
2 -3 -12 787.47 31.57
2 -3 -12 756.01 31.18
2 -3 -12 783.51 31.24
2 -3 -12 771.87 31.39
2 -3 -12 802.93 32.66
2 -3 -12 806.65 32.26
2 -3 -11 224.21 14.54
2 -3 -11 202.66 19.29
2 -3 -11 201.17 13.11
2 -3 -11 234.42 14.3
2 -3 -11 210.28 13.48
2 -3 -11 233.25 14.57
2 -3 -11 221.96 14
2 -3 -10 16.31 3.29
2 -3 -10 15.88 5.17
2 -3 -10 20.82 3.97
2 -3 -10 24.05 4.3
2 -3 -10 20.01 3.79
2 -3 -10 19.28 3.91
2 -3 -10 20.31 4.01
2 -3 -10 18.8 3.64
2 -3 -9 208.75 12.79
2 -3 -9 218.08 13.12
2 -3 -9 225.87 13.33
2 -3 -9 245.46 14.24
2 -3 -9 227.6 18.07
2 -3 -9 215.28 13.23
2 -3 -9 227.19 14.15
2 -3 -9 252.06 14.79
2 -3 -8 200.49 15.98
2 -3 -7 257.65 17.19
2 -3 -6 165.84 12.66
-2 -3 5 273.66 15.01
2 -3 -5 263.6 15.51
2 -3 -4 118.47 8.4
2 -3 -4 124.46 9.41
-2 -3 4 120.76 8.82
2 -3 -3 256.13 12.15
2 -3 -3 282.86 13.48
2 -3 -3 256.75 13.54
-2 -3 3 267.14 13.16
2 -3 -2 1910.24 58.89
-2 -3 2 2035.56 58.52
2 -3 -2 2017.91 57.88
2 -3 -1 349.62 15.23
-2 -3 1 336.66 14.66
2 -3 -1 344.92 14.91
2 -3 0 94.5 7.23
2 -3 0 103.02 6.22
-2 -3 0 98.07 6.87
2 -3 0 112.84 7.59
-2 -3 -1 1079.14 34.78
2 -3 1 1087.27 36.7
2 -3 1 1107.1 36.25
2 -3 2 879.95 31.87
2 -3 2 919.79 31.91
-2 -3 -2 928.05 30.49
2 -3 3 744.63 28.02
-2 -3 -4 2815.6 88.43
2 -3 4 3077.84 88.27
-2 -3 -5 265.79 16.23
2 -3 5 295.08 16.08
-2 -3 -6 553.81 27.08
2 -3 6 605.25 26.58
2 -3 7 531.12 25.49
-2 -3 -7 474.33 25.98
-2 -3 -8 254.79 18.78
2 -3 8 254.96 17.57
-2 -3 -9 52.29 6.31
-2 -3 -9 63.68 6.82
-2 -3 -9 65.67 7.02
-2 -3 -9 71.71 7.5
-2 -3 -9 64.62 7.04
-2 -3 -9 57.46 9.25
2 -3 9 62.22 8.72
2 -3 9 57.02 6.44
-2 -3 -9 63.34 6.32
-2 -3 -9 58.67 6.47
-2 -3 -10 399.27 20.69
-2 -3 -10 425 20.85
-2 -3 -10 407 27.15
2 -3 10 384.4 20.07
-2 -3 -10 441.34 21.36
2 -3 10 414.68 26.07
-2 -3 -10 425.1 20.89
-2 -3 -10 430.8 20.98
-2 -3 -10 423 21.01
-2 -3 -11 329.9 18.49
-2 -3 -11 332.62 18.44
-2 -3 -11 343.77 18.58
-2 -3 -11 343.58 18.49
-2 -3 -11 325.86 18.05
2 -3 11 304.13 17.5
-2 -3 -11 377.66 19.45
-2 -3 -12 94.6 8.76
-2 -3 -12 94.83 9.17
-2 -3 -12 93.21 8.82
-2 -3 -12 92.2 8.77
-2 -3 -12 80.01 8.13
-2 -3 -12 79.19 8.3
-2 -3 -13 287.47 16.06
-2 -3 -13 294.27 16.2
-2 -3 -13 289.35 16.5
-2 -3 -13 266.26 15.43
-2 -3 -13 295.03 16.53
-2 -3 -13 287.32 16.21
-2 -3 -14 -0.09 1.08
-2 -3 -14 2.19 1.29
-2 -3 -14 4.27 1.83
-2 -3 -14 -0.02 0.91
-2 -3 -14 0.76 0.82
-2 -3 -14 3.55 1.64
-2 -3 -15 15.73 2.87
-2 -3 -15 16.62 2.88
-2 -3 -15 15.11 2.77
-2 -3 -15 19.41 3.19
-2 -3 -15 23.29 3.51
-2 -3 -16 64.91 4.89
-2 -3 -16 77.19 5.62
-2 -3 -16 79.8 5.72
2 -2 -17 43.2 3.98
2 -2 -17 40.39 4.06
2 -2 -17 35.53 3.69
2 -2 -17 39.01 3.75
2 -2 -17 39.1 3.93
2 -2 -16 60.75 5.73
2 -2 -16 63.63 5.71
2 -2 -16 74.41 6.53
2 -2 -16 68.44 6.06
2 -2 -16 77.65 6.53
2 -2 -15 29.47 4.4
2 -2 -15 33.67 4.94
2 -2 -15 25.98 3.86
2 -2 -15 28.11 4.19
2 -2 -15 33.79 4.65
2 -2 -15 34.48 4.69
2 -2 -14 60.47 7.06
2 -2 -14 60.62 6.57
2 -2 -14 58.18 6.61
2 -2 -14 65.49 7.09
2 -2 -14 61.41 6.82
2 -2 -14 53.31 6.18
2 -2 -13 443 21.96
2 -2 -13 443.59 21.01
2 -2 -13 431.47 21.38
2 -2 -13 413.47 20.66
2 -2 -13 402.49 20.19
2 -2 -13 421.87 20.48
2 -2 -12 62.81 7.14
2 -2 -12 59.8 6.74
2 -2 -12 62.56 7.29
2 -2 -12 60.88 6.75
2 -2 -12 58.42 6.61
2 -2 -12 52.55 6.27
2 -2 -12 56.93 6.45
2 -2 -12 67.04 7.42
2 -2 -11 241.51 14.59
2 -2 -11 274.77 15.2
2 -2 -11 244.05 20.46
2 -2 -11 261.82 15.36
2 -2 -11 233.92 14.12
2 -2 -11 223.73 13.72
2 -2 -11 228.68 14.28
2 -2 -11 250.7 15.36
2 -2 -11 230.45 14.13
2 -2 -11 226.5 13.82
2 -2 -10 220.35 13.64
2 -2 -10 185.74 11.95
2 -2 -10 202.43 12.36
2 -2 -10 205.65 12.52
2 -2 -10 191.42 16.9
2 -2 -10 190.44 12.18
2 -2 -10 197.52 12.54
2 -2 -10 219.01 12.97
2 -2 -10 170.77 11.65
2 -2 -10 173.63 12.05
2 -2 -10 217.42 13.35
2 -2 -9 130.86 12.93
2 -2 -8 77.04 7.73
2 -2 -8 79 9.31
2 -2 -7 157.08 11.09
2 -2 -7 174.63 13.11
2 -2 -6 3018.89 91.98
2 -2 -5 1206.21 42.1
2 -2 -4 2218.9 67.45
2 -2 -4 2231.52 65.65
2 -2 -3 2103.05 56.93
-2 -2 3 1923.33 57.31
2 -2 -3 2087.11 59.03
2 -2 -2 284.55 12.93
2 -2 -2 292.04 12.91
-2 -2 2 274.02 11.49
2 -2 -2 275.98 11.35
-2 -2 1 1748.28 50.5
2 -2 -1 1700.4 50.55
2 -2 -1 1827.24 52.3
-2 -2 0 4324.82 115.24
2 -2 0 4535.5 116.53
2 -2 0 4676.6 117.54
2 -2 1 190.59 9.67
-2 -2 -1 198.25 8.55
-2 -2 -1 168.24 6.63
2 -2 2 558.34 20.68
-2 -2 -2 515.47 16.92
-2 -2 -2 551.85 19.49
-2 -2 -3 1525.98 45.37
-2 -2 -3 1592.98 48.98
-2 -2 -3 1533.36 46.89
2 -2 3 1636.49 47.96
-2 -2 -4 1241.21 38.47
-2 -2 -4 1293.54 43.37
-2 -2 -4 1335.07 40.39
-2 -2 -4 1279.08 40.1
2 -2 4 1317.19 41.68
-2 -2 -5 610.31 23.58
-2 -2 -5 573.03 22.92
-2 -2 -6 43.5 4.82
-2 -2 -6 46.64 4.91
-2 -2 -6 42.48 4.92
-2 -2 -6 54.67 6.87
-2 -2 -7 17.4 3.2
-2 -2 -7 26.02 5.09
-2 -2 -7 18.54 3.5
-2 -2 -8 158.04 13.83
-2 -2 -9 129.87 13.24
-2 -2 -9 127.91 10
-2 -2 -9 128.76 10
-2 -2 -9 141.13 10.41
-2 -2 -9 132.26 10.08
-2 -2 -10 184.48 12.69
-2 -2 -10 203.4 13.56
-2 -2 -10 191.82 12.91
-2 -2 -10 197.54 13.02
-2 -2 -10 174.75 16.36
-2 -2 -10 205.56 13.34
-2 -2 -10 187.04 12.82
2 -2 10 157.67 11.67
2 -2 11 57.11 6.8
-2 -2 -11 58.12 6.78
-2 -2 -11 61.74 7.23
-2 -2 -11 62.91 7.17
-2 -2 -11 71.23 7.49
-2 -2 -11 59.43 7.14
-2 -2 -11 49.82 9.12
-2 -2 -11 71.03 7.88
2 -2 11 60.15 9.18
-2 -2 -12 130.76 10.75
-2 -2 -12 126.36 10.41
-2 -2 -12 138.22 11.65
-2 -2 -12 142.44 10.95
-2 -2 -12 106.18 9.13
-2 -2 -12 127.98 10.6
2 -2 12 127.59 10.29
-2 -2 -12 110.13 9.53
-2 -2 -13 129.62 9.89
-2 -2 -13 156.28 11.67
-2 -2 -13 153.58 11.27
-2 -2 -13 130.46 10.18
-2 -2 -13 165.25 11.86
-2 -2 -13 157.49 11.62
-2 -2 -13 158.56 11.53
-2 -2 -14 218.67 13.33
-2 -2 -14 256.94 14.46
-2 -2 -14 228.19 13.49
-2 -2 -14 231.16 13.72
-2 -2 -14 225.33 13.46
-2 -2 -15 10.48 2.63
-2 -2 -15 9.22 2.14
-2 -2 -15 8.52 2.33
-2 -2 -15 13.52 2.96
-2 -2 -15 10.1 2.19
-2 -2 -16 31.11 3.68
-2 -2 -16 27.76 3.54
-2 -2 -16 26.61 3.41
-2 -2 -16 23.64 3.07
-2 -2 -17 7.96 1.49
-2 -2 -17 7.12 1.52
2 -1 -17 6.98 1.43
2 -1 -17 7.47 1.91
2 -1 -17 8.27 1.74
2 -1 -17 6.34 1.67
2 -1 -17 5.65 1.61
2 -1 -16 109.84 7.81
2 -1 -16 127.45 8.69
2 -1 -16 136.22 8.92
2 -1 -16 119.42 8.33
2 -1 -16 132.02 9.08
2 -1 -16 126.89 9.02
2 -1 -15 126.9 9.22
2 -1 -15 128.26 9.99
2 -1 -15 142.69 10.23
2 -1 -15 120.38 9.15
2 -1 -15 140.96 9.97
2 -1 -15 136.52 10.15
2 -1 -15 115.26 8.81
2 -1 -14 113.27 9.38
2 -1 -14 117.73 9.92
2 -1 -14 105.04 8.96
2 -1 -14 97.95 8.59
2 -1 -14 93.03 8.23
2 -1 -14 108.26 8.92
2 -1 -14 92.64 8.36
2 -1 -14 102.91 9.24
2 -1 -13 34.64 5.31
2 -1 -13 33.05 5.05
2 -1 -13 40.03 5.32
2 -1 -13 36.81 5.25
2 -1 -13 34.51 5.3
2 -1 -13 35.09 5.16
2 -1 -13 44.79 6.06
2 -1 -13 29.93 4.67
2 -1 -13 38.81 5.46
2 -1 -12 50.39 6.43
2 -1 -12 47.49 5.95
2 -1 -12 41.9 5.63
2 -1 -12 40.83 8.49
2 -1 -12 55.7 6.51
2 -1 -12 56.59 6.7
2 -1 -12 50.57 6.05
2 -1 -12 50.93 6.27
2 -1 -12 40.84 5.31
2 -1 -12 41.74 5.84
2 -1 -12 39.93 5.2
2 -1 -11 87.7 8.35
2 -1 -11 76 7.5
2 -1 -11 76.5 7.42
2 -1 -11 75.13 7.32
2 -1 -11 79.9 7.94
2 -1 -11 66.53 6.9
2 -1 -11 85.24 7.91
2 -1 -11 73.82 10.85
2 -1 -11 76.64 7.64
2 -1 -11 83.7 7.85
2 -1 -11 86.05 8.21
2 -1 -10 57.91 6.23
2 -1 -10 68.48 7.12
2 -1 -10 64.42 6.6
2 -1 -10 69.77 9.77
2 -1 -10 64.84 6.55
2 -1 -10 73.62 7.11
2 -1 -10 77.79 7.4
2 -1 -10 82.6 7.6
2 -1 -10 65.54 6.71
2 -1 -10 67.36 7.13
2 -1 -10 67.84 8.21
2 -1 -9 543.51 25.37
2 -1 -9 556.78 28.68
2 -1 -9 533.78 24.95
2 -1 -8 0.03 0.99
2 -1 -8 0.96 0.94
2 -1 -8 -0.37 1.26
2 -1 -7 310.01 15.45
2 -1 -7 273.03 14.84
2 -1 -7 299.78 17.47
2 -1 -6 1537.58 47.36
2 -1 -6 1438.15 49.7
2 -1 -6 1441.84 46.03
2 -1 -5 299.99 15.42
2 -1 -5 304.8 12.95
2 -1 -5 310.13 14.12
2 -1 -4 3476.99 101.76
2 -1 -4 3560.28 97.53
2 -1 -4 3327.95 99.62
2 -1 -3 3509.99 100.37
2 -1 -3 3476.19 95.7
2 -1 -3 3670.47 99.31
2 -1 -3 3702.1 99.34
2 -1 -2 5434.89 141.47
2 -1 -2 5185.06 137.31
-2 -1 2 5166.36 138.33
-2 -1 2 5161.05 140.32
-2 -1 1 9218.63 243.62
2 -1 -1 9226.2 243.97
2 -1 -1 9610.08 247.18
-2 -1 1 9222.93 246
2 -1 0 553.17 18.92
-2 -1 0 555.12 18.31
2 -1 0 515.25 16.92
-2 -1 0 534.5 18.39
-2 -1 0 559.62 16.28
-2 -1 0 537.82 17.38
-2 -1 -1 3948.39 108.08
-2 -1 -1 3802.33 108.12
-2 -1 -1 3874.25 106.79
2 -1 1 3856.81 108.32
2 -1 2 5226.31 146.66
-2 -1 -2 5351.73 145.89
-2 -1 -2 5441.33 145.53
-2 -1 -2 5038.33 144.84
2 -1 3 12.73 2.29
-2 -1 -3 13.04 2.63
-2 -1 -3 12.23 2.22
-2 -1 -3 10.76 1.92
-2 -1 -3 10.95 1.77
-2 -1 -3 15.3 2.36
-2 -1 -4 1229.03 43.66
-2 -1 -4 1285.25 41.35
-2 -1 -4 1325.84 39.64
-2 -1 -4 1217.2 41
-2 -1 -5 262.2 14.67
-2 -1 -5 277.21 12.16
-2 -1 -5 256.45 10.95
-2 -1 -5 258.68 12.63
-2 -1 -5 257.3 12.82
-2 -1 -6 134.77 7.54
-2 -1 -6 132.26 9.1
-2 -1 -6 148.81 9.88
-2 -1 -6 159.53 9.45
-2 -1 -6 156.45 11.67
-2 -1 -6 135.13 8.04
-2 -1 -7 70.36 6.89
-2 -1 -7 73.39 8.56
-2 -1 -7 72.61 6.43
-2 -1 -7 75.04 7.38
-2 -1 -8 499.73 22.65
-2 -1 -8 452.89 22.98
-2 -1 -8 477.69 25.5
-2 -1 -9 237.17 16.29
-2 -1 -9 223.82 17.53
-2 -1 -10 137.34 10.59
-2 -1 -10 121.39 13.44
-2 -1 -10 142.99 10.72
-2 -1 -10 110.64 9.36
-2 -1 -10 140.08 10.93
-2 -1 -10 131.32 10.16
-2 -1 -10 125.69 9.92
-2 -1 -10 135.96 10.55
-2 -1 -11 297.57 16.85
-2 -1 -11 236.65 14.91
-2 -1 -11 285.71 16.57
-2 -1 -11 288.45 16.37
-2 -1 -11 303.25 16.98
-2 -1 -11 331.17 17.82
-2 -1 -11 269.69 21.79
-2 -1 -11 276.85 16.03
-2 -1 -11 265.14 15.81
-2 -1 -12 64.2 7.12
-2 -1 -12 59.98 7.05
-2 -1 -12 74.62 8.08
-2 -1 -12 53.83 6.43
-2 -1 -12 69.45 7.62
-2 -1 -12 75.23 7.79
-2 -1 -12 69.76 7.45
-2 -1 -12 58.74 6.95
-2 -1 -13 281.31 16.28
-2 -1 -13 274.63 15.95
-2 -1 -13 257.22 15.35
-2 -1 -13 239.4 14.84
-2 -1 -13 282.82 16.3
-2 -1 -13 268.99 15.97
-2 -1 -13 270.04 15.64
-2 -1 -14 170.09 11.51
-2 -1 -14 172.85 11.79
-2 -1 -14 197.18 12.74
-2 -1 -14 194.97 12.77
-2 -1 -14 213.34 13.11
-2 -1 -14 208 13.03
-2 -1 -14 181.98 11.91
-2 -1 -15 327.36 16.07
-2 -1 -15 355.67 16.65
-2 -1 -15 314.61 15.3
-2 -1 -15 278.7 14.36
-2 -1 -15 282.99 14.74
-2 -1 -15 336.74 16.21
-2 -1 -15 312.64 15.51
-2 -1 -16 7.12 1.83
-2 -1 -16 7.32 1.88
-2 -1 -16 8.22 1.93
-2 -1 -16 5.19 1.55
-2 -1 -16 5.33 1.22
-2 -1 -17 74.81 5.18
-2 -1 -17 79.7 5.26
2 0 -17 107.4 6.91
2 0 -17 113.32 7.37
2 0 -17 112.09 7.17
2 0 -17 110.34 7.33
2 0 -16 1.48 1.04
2 0 -16 -2.58 1.18
2 0 -16 0.43 0.84
2 0 -16 0.05 0.84
2 0 -16 0.83 0.67
2 0 -16 0.78 0.94
2 0 -16 0.24 1.08
2 0 -15 12.62 2.95
2 0 -15 12.91 2.98
2 0 -15 14.34 2.71
2 0 -15 16.02 3.19
2 0 -15 18.2 3.64
2 0 -15 17.66 3.5
2 0 -15 13.26 2.83
2 0 -15 16.16 3.4
2 0 -14 16.94 3.55
2 0 -14 17.36 3.48
2 0 -14 15 3.44
2 0 -14 14.98 3.11
2 0 -14 20.11 3.92
2 0 -14 21.74 4.16
2 0 -14 18.48 3.62
2 0 -14 19.85 3.99
2 0 -14 21.46 4.33
2 0 -13 7.64 2.55
2 0 -13 3.05 1.74
2 0 -13 5.21 2.32
2 0 -13 6.03 2.29
2 0 -13 4.03 1.7
2 0 -13 5.39 2.07
2 0 -13 5.52 2.38
2 0 -13 10.57 3.25
2 0 -13 4.78 2.14
2 0 -13 8.23 2.7
2 0 -12 136.29 10.34
2 0 -12 144.61 11.3
2 0 -12 134.58 10.49
2 0 -12 134.56 10.31
2 0 -12 162.1 11.67
2 0 -12 130.07 10
2 0 -12 131.26 10.23
2 0 -12 144.09 11.09
2 0 -12 147.76 10.99
2 0 -12 118.36 14.59
2 0 -12 146.43 11.13
2 0 -11 12.87 3.1
2 0 -11 15.41 3.36
2 0 -11 15.37 3.22
2 0 -11 18.97 3.8
2 0 -11 16.4 3.37
2 0 -11 16.07 3.31
2 0 -11 13.94 4.02
2 0 -11 10.34 2.67
2 0 -11 14.43 3.46
2 0 -11 19.05 3.87
2 0 -11 12.22 4.37
2 0 -11 10.33 3.13
2 0 -10 39.96 6.21
2 0 -10 46.6 5.74
2 0 -10 49.8 5.87
2 0 -10 45.33 5.51
2 0 -10 47.21 7.05
2 0 -10 46.33 5.48
2 0 -10 42.04 5.18
2 0 -10 50.78 8.24
2 0 -10 51.84 6.16
2 0 -9 40.72 7.15
2 0 -9 47.94 6.42
2 0 -9 45.19 6.3
2 0 -8 133.16 10.39
2 0 -8 123.24 9.47
2 0 -8 134.4 12.09
2 0 -8 119.06 9.64
2 0 -7 612.96 27.59
2 0 -7 623.75 25.07
2 0 -7 626.44 24.64
2 0 -7 542.11 23.39
2 0 -6 565.23 23
2 0 -6 644.31 23.82
2 0 -6 587.73 25.52
2 0 -5 59.45 5.2
2 0 -5 64.75 5.74
2 0 -5 58.56 6.08
2 0 -4 522.12 21.16
2 0 -4 520.79 19.1
-2 0 3 2446.64 64.6
2 0 -3 2372.4 66.59
2 0 -2 1171.58 35.14
2 0 -2 1110.55 33.96
-2 0 2 1203.83 33.63
2 0 -1 8.92 1.67
-2 0 1 8.39 1.38
-2 0 1 5.87 1.28
2 0 0 672.98 22.97
-2 0 0 713.49 23.14
-2 0 0 735.06 22.9
-2 0 -1 2230.89 60.47
-2 0 -1 2130.08 60.8
-2 0 -1 2250.22 60.35
2 0 1 2078.78 60.57
-2 0 -1 2063.03 60.66
-2 0 -2 1.11 1
-2 0 -2 1.14 0.85
-2 0 -2 0.66 0.67
-2 0 -2 1.53 0.94
-2 0 -3 934.93 31.76
-2 0 -3 919.42 28.79
-2 0 -3 920.56 29.89
-2 0 -3 912.09 28.83
-2 0 -3 912.93 29.86
-2 0 -4 544.24 20.47
-2 0 -4 521.08 19.28
-2 0 -4 568.58 19.61
-2 0 -4 539.12 22.27
-2 0 -4 520.17 20.42
-2 0 -5 463.7 19.49
-2 0 -5 467.02 17.99
-2 0 -5 472.81 19.52
-2 0 -5 472.25 21.48
-2 0 -5 501.82 18.39
-2 0 -5 430.15 18.11
-2 0 -6 258.63 13.56
-2 0 -6 306.08 15.56
-2 0 -6 323.19 17.49
-2 0 -6 298.1 15.26
-2 0 -6 288.06 14.03
-2 0 -7 2.63 1.47
-2 0 -7 2.13 1.26
-2 0 -7 1.26 1.09
-2 0 -7 2.03 1.58
-2 0 -7 2.86 1.61
-2 0 -8 84.28 9.48
-2 0 -8 92.76 9.03
-2 0 -8 79.12 7.46
-2 0 -8 82.9 7.68
-2 0 -8 86.24 8.5
-2 0 -9 282.69 19.65
-2 0 -9 286.58 17.8
-2 0 -9 289.7 18.39
-2 0 -10 310.69 20.39
-2 0 -10 335.16 17.18
-2 0 -10 302.53 19.45
-2 0 -10 324.74 17.16
-2 0 -10 331.6 17.06
-2 0 -10 301.14 21.62
-2 0 -10 257.08 15.3
-2 0 -10 287.92 16.34
-2 0 -10 265.76 15.04
-2 0 -10 316.79 16.68
-2 0 -10 285.78 15.52
-2 0 -11 24.99 4.19
-2 0 -11 22.85 3.95
-2 0 -11 24.7 4.61
-2 0 -11 27.2 4.7
-2 0 -11 24.06 4.41
-2 0 -11 23.29 6.02
-2 0 -11 27.83 4.76
-2 0 -11 25.78 4.4
-2 0 -11 19.84 3.68
-2 0 -12 191.01 12.59
-2 0 -12 202.02 13.51
-2 0 -12 202.87 13.49
-2 0 -12 185.78 12.59
-2 0 -12 196.67 13.6
-2 0 -12 214.33 13.94
-2 0 -12 225.35 14.44
-2 0 -12 205.24 13.72
-2 0 -12 174.1 12.31
-2 0 -13 1111.9 40.66
-2 0 -13 1144.45 40.59
-2 0 -13 1082.64 39.14
-2 0 -13 1123.67 40.8
-2 0 -13 1052.31 39.35
-2 0 -13 1151.13 41.14
-2 0 -13 1124.15 41.08
-2 0 -13 1173.41 41.45
-2 0 -14 9.22 2.89
-2 0 -14 6.05 2.08
-2 0 -14 8.16 2.65
-2 0 -14 2.71 1.33
-2 0 -14 6.33 2.14
-2 0 -14 7.33 2.36
-2 0 -14 6.42 2.27
-2 0 -15 2.67 1.74
-2 0 -15 3.61 1.5
-2 0 -15 3.52 1.48
-2 0 -15 5.18 1.7
-2 0 -15 3.67 1.58
-2 0 -15 2.12 1.4
-2 0 -15 5.12 1.73
-2 0 -16 135.55 8.52
-2 0 -16 127.21 8.28
-2 0 -16 126.06 8.23
-2 0 -16 126.12 8.11
-2 0 -16 113.85 7.81
-2 0 -16 118.26 7.9
-2 0 -17 313.17 12.54
-2 0 -17 313.85 12.47
-2 0 -17 330.35 12.7
2 1 -17 6.86 1.6
2 1 -17 8.84 1.95
2 1 -17 5.7 1.43
2 1 -17 7.49 1.74
2 1 -17 7.88 1.7
2 1 -16 120.05 8.69
2 1 -16 118.76 8.41
2 1 -16 124.41 8.62
2 1 -16 129.82 8.76
2 1 -16 117.23 8.3
2 1 -16 117.33 8.38
2 1 -15 142.47 10.34
2 1 -15 116.67 8.69
2 1 -15 145.91 10.19
2 1 -15 147.37 10.24
2 1 -15 122.34 9.35
2 1 -15 135.14 9.97
2 1 -15 145.6 10.31
2 1 -14 97.44 8.89
2 1 -14 93.29 8.24
2 1 -14 118.39 9.47
2 1 -14 108.35 9.05
2 1 -14 91.45 8.09
2 1 -14 107.63 9.37
2 1 -14 117.64 9.48
2 1 -14 107.93 9.17
2 1 -14 109.75 9.2
2 1 -13 37.01 5.49
2 1 -13 34.43 5.08
2 1 -13 35.54 5.08
2 1 -13 30.72 4.56
2 1 -13 34.06 4.98
2 1 -13 37.16 5.43
2 1 -13 32.83 5.27
2 1 -13 39.03 5.64
2 1 -13 43.17 5.97
2 1 -13 29.46 4.82
2 1 -12 33.27 6.56
2 1 -12 50.53 6.16
2 1 -12 46.64 6.13
2 1 -12 50.89 6.33
2 1 -12 39.18 7.13
2 1 -12 56.1 6.58
2 1 -12 59.85 6.94
2 1 -12 55.46 6.46
2 1 -12 45.83 5.82
2 1 -12 38.13 7.89
2 1 -12 62.81 6.91
2 1 -12 56.96 6.48
2 1 -11 85.03 8.01
2 1 -11 83.5 7.97
2 1 -11 90.28 8.49
2 1 -11 96.57 8.39
2 1 -11 94.5 12.05
2 1 -11 74.1 9.44
2 1 -11 71.16 7.39
2 1 -11 79.84 9.82
2 1 -11 86.64 7.92
2 1 -11 78.52 7.5
2 1 -11 87.98 8.35
2 1 -11 84.99 8.21
2 1 -10 68.83 6.92
2 1 -10 73.66 7.31
2 1 -10 73.63 7.15
2 1 -10 77.53 7.49
2 1 -10 75.91 9.12
2 1 -10 68.9 8.57
2 1 -10 74.02 7.36
2 1 -10 79.55 10.44
2 1 -10 67.3 6.68
2 1 -10 73.12 8.65
2 1 -9 550.95 25.99
2 1 -9 571.28 26.95
2 1 -9 530.28 26.22
2 1 -9 577.69 29.67
2 1 -8 0.49 1.69
2 1 -8 -0.36 1.17
2 1 -8 1.68 1.16
2 1 -8 0.7 1.16
2 1 -7 310.98 17.83
2 1 -7 276.31 14.95
2 1 -7 289.78 15.57
2 1 -6 1460.52 46.59
2 1 -6 1456.8 49.26
2 1 -6 1402.26 46.24
2 1 -5 310.58 15.62
2 1 -5 317.13 14.24
2 1 -5 299.79 14.21
2 1 -4 3503.02 102.27
2 1 -4 3252.74 99.6
-2 1 4 3661.23 96.53
2 1 -4 3872.47 100.6
-2 1 3 4039 103.05
2 1 -3 3802.1 105.53
2 1 -2 5203.35 147.59
-2 1 2 5190.37 146.86
-2 1 2 5845.3 146.8
2 1 -2 5703.17 148.44
2 1 -2 5625.07 149.4
-2 1 1 9678.34 254.31
-2 1 1 9651.45 253.77
-2 1 1 9516.28 254.08
2 1 -1 9999 255.04
2 1 -1 9278.79 253.87
-2 1 0 572.47 18.81
-2 1 0 573.35 19.1
-2 1 0 584.91 18.91
2 1 0 568.45 18.37
-2 1 -1 4030.43 108.77
-2 1 -1 4057.83 108.46
-2 1 -1 4040.51 109.22
2 1 1 3870.76 107.63
-2 1 -2 5342.13 141.53
-2 1 -2 4890.45 140.48
-2 1 -2 5226.36 142.06
-2 1 -2 5337.46 140.98
2 1 2 5338.07 140.98
-2 1 -3 16.02 2.31
-2 1 -3 14.49 2.44
-2 1 -3 13.99 2.45
-2 1 -3 12.65 2.18
-2 1 -3 12.15 2.16
-2 1 -4 1369.14 40.6
-2 1 -4 1262.79 42.07
-2 1 -4 1344.5 41.39
-2 1 -4 1286.71 41.47
-2 1 -4 1318.15 43.27
-2 1 -4 1296.21 41.96
-2 1 -5 250.95 13.13
-2 1 -5 254.57 12.74
-2 1 -5 237.4 13.54
-2 1 -5 276.32 13.56
-2 1 -5 259.97 14.43
-2 1 -5 253.85 13.4
-2 1 -5 252.88 12.18
-2 1 -6 142.01 9.76
-2 1 -6 151.26 10.48
-2 1 -6 158.33 9.55
-2 1 -6 154.6 9.95
-2 1 -6 155.66 10.53
-2 1 -6 142.53 10.98
-2 1 -6 159.28 10.78
-2 1 -7 68.17 7.44
-2 1 -7 71.01 7.42
-2 1 -7 62.97 6.54
-2 1 -7 65.36 6.72
-2 1 -7 65.7 7.2
-2 1 -7 67.93 8.03
-2 1 -8 495.63 25.38
-2 1 -8 467.88 21.91
-2 1 -8 459.87 23.17
-2 1 -8 469.9 23.43
-2 1 -8 527.33 24.43
-2 1 -8 437.82 21.75
-2 1 -9 205.19 13.95
-2 1 -9 230.46 16.18
-2 1 -9 212.57 15.43
-2 1 -9 202.5 14.33
-2 1 -9 228.06 16
-2 1 -9 232.16 17.32
-2 1 -10 127.31 10.21
-2 1 -10 131.82 10.13
-2 1 -10 119.5 9.68
-2 1 -10 95.13 8.45
-2 1 -10 118.26 9.36
-2 1 -10 114.21 11.75
-2 1 -10 127.15 13.37
-2 1 -10 132.14 10.17
-2 1 -10 144.04 10.56
-2 1 -10 126.99 12.43
-2 1 -10 119.61 9.38
-2 1 -10 113.86 9.07
-2 1 -10 113.42 11.02
-2 1 -11 288.15 15.94
-2 1 -11 322.82 17.56
-2 1 -11 278 16.06
-2 1 -11 248.11 19.49
-2 1 -11 215.8 17.82
-2 1 -11 293.13 16.56
-2 1 -11 277.2 16.19
-2 1 -11 283.35 16.18
-2 1 -11 274.32 15.59
-2 1 -11 304.82 16.09
-2 1 -11 241.55 20.58
-2 1 -12 60.28 6.88
-2 1 -12 74.67 7.54
-2 1 -12 71.4 7.96
-2 1 -12 76.51 8.01
-2 1 -12 63.46 7.23
-2 1 -12 67.49 7.32
-2 1 -12 65.81 7.42
-2 1 -12 63.83 6.94
-2 1 -13 296.28 16.44
-2 1 -13 256.5 15.43
-2 1 -13 271.69 15.36
-2 1 -13 248.87 15.19
-2 1 -13 277.57 16.04
-2 1 -13 280.29 16.43
-2 1 -13 236.63 14.25
-2 1 -13 255.45 15.12
-2 1 -14 202.2 12.89
-2 1 -14 222.55 13.77
-2 1 -14 190.45 12.56
-2 1 -14 196.49 12.75
-2 1 -14 210.82 13.06
-2 1 -14 188.92 12.11
-2 1 -14 171.34 11.7
-2 1 -15 358.54 16.53
-2 1 -15 337.8 16.64
-2 1 -15 349.76 16.77
-2 1 -15 345.15 16.7
-2 1 -15 328.01 16.29
-2 1 -15 333.44 16.95
-2 1 -15 308.4 15.63
-2 1 -16 8.93 2.09
-2 1 -16 6.55 1.81
-2 1 -16 9.05 2.07
-2 1 -16 4.42 1.51
-2 1 -16 6.47 1.8
-2 1 -16 7.41 1.88
-2 1 -16 4.18 1.16
-2 1 -17 73.5 4.92
-2 1 -17 63.88 4.63
-2 1 -17 69.92 4.8
-2 1 -17 65.5 4.6
2 2 -17 42.85 4.09
2 2 -17 39.66 3.91
2 2 -17 40.93 3.94
2 2 -17 34.22 3.51
2 2 -17 28.23 3.1
2 2 -17 36.63 3.65
2 2 -16 72.99 6.29
2 2 -16 68.28 6.05
2 2 -16 67.07 6.21
2 2 -16 75.62 6.35
2 2 -16 68.48 5.99
2 2 -16 84.12 6.71
2 2 -15 37.75 5.04
2 2 -15 29.3 4.07
2 2 -15 32.46 4.8
2 2 -15 32.38 4.59
2 2 -15 31.41 4.54
2 2 -15 34.63 4.69
2 2 -15 27.54 4.26
2 2 -14 65.04 7.09
2 2 -14 62.79 7.14
2 2 -14 53.59 6.17
2 2 -14 58.19 6.48
2 2 -14 65.33 7
2 2 -14 62.27 6.8
2 2 -14 63.02 6.84
2 2 -14 61.84 6.92
2 2 -13 421.78 20.81
2 2 -13 446.71 21.66
2 2 -13 449.76 21.2
2 2 -13 387.44 19.74
2 2 -13 439.31 21.31
2 2 -13 434.03 21.65
2 2 -13 456.54 21.48
2 2 -13 424.01 20.68
2 2 -12 65.39 7.04
2 2 -12 51.28 6.2
2 2 -12 65.05 7.07
2 2 -12 69.48 7.52
2 2 -12 58.68 6.85
2 2 -12 63.15 7.17
2 2 -12 65.06 7.15
2 2 -12 74.74 7.75
2 2 -11 257.26 14.76
2 2 -11 275.88 15.21
2 2 -11 212.75 13.59
2 2 -11 229.08 18.41
2 2 -11 211.49 17.64
2 2 -11 260.47 15.04
2 2 -11 257.56 15.18
2 2 -11 211.44 13.16
2 2 -11 243.17 14.61
2 2 -11 243.4 14.11
2 2 -11 222.16 17.78
2 2 -11 205.27 18.42
2 2 -11 272.08 15.39
2 2 -10 213.81 13.22
2 2 -10 197.89 16.34
2 2 -10 212.73 13.01
2 2 -10 187.1 15.55
2 2 -10 195.08 12.6
2 2 -10 195.23 16.87
2 2 -10 194.01 15.36
2 2 -10 213.1 12.63
2 2 -10 216.24 13.19
2 2 -10 226.07 13.18
2 2 -9 132.53 11.93
2 2 -9 135.71 12.51
2 2 -9 133.95 12.82
2 2 -9 143.8 12.08
2 2 -8 91.39 9.01
2 2 -8 68.41 8.44
2 2 -8 68.99 7.55
2 2 -8 80.5 8.95
2 2 -7 168.9 11.87
2 2 -7 163.26 11.31
2 2 -7 167.29 12.94
2 2 -6 2909.74 89.55
2 2 -6 3054.2 92.55
2 2 -5 1180.98 41.12
2 2 -5 1270.58 40.4
2 2 -5 1192.17 40.46
2 2 -4 2190.19 62.71
2 2 -4 2295.21 63.76
-2 2 3 2002.1 56.27
-2 2 3 2017.17 57.66
2 2 -3 2030.81 60.86
-2 2 2 308.64 11.27
-2 2 2 310.23 12.05
2 2 -2 307.11 13.86
2 2 -2 314.88 12.84
-2 2 1 1802.38 50.71
-2 2 1 1721.33 49.86
-2 2 1 1706.02 50.12
2 2 -1 1784.87 50.77
-2 2 0 4544.09 115.37
-2 2 0 4672.76 115.3
-2 2 0 4469.55 115.21
-2 2 0 4676.8 116.78
2 2 0 4369.68 114.86
-2 2 -1 199.24 9.56
-2 2 -1 193.88 9.23
2 2 1 166.85 6.78
-2 2 -1 197.18 9.46
-2 2 -1 179.23 7.67
-2 2 -1 197.22 9.88
-2 2 -2 575.18 20.35
-2 2 -2 585.51 21.16
-2 2 -2 568.59 20.75
-2 2 -2 551.25 19.22
-2 2 -2 590.38 21.36
2 2 2 527.72 17.76
-2 2 -3 1561.59 48.89
-2 2 -3 1580.64 48.34
-2 2 -3 1578.09 47.31
-2 2 -3 1629 47.76
2 2 3 1501.93 45.69
-2 2 -3 1594.34 49.15
-2 2 -4 1424.52 44.57
-2 2 -4 1327.34 44.03
-2 2 -4 1284.71 42.05
-2 2 -4 1374.67 43.58
-2 2 -4 1348.64 42.8
-2 2 -5 683.17 26.65
-2 2 -5 650.47 25.5
-2 2 -5 669.68 26.51
-2 2 -5 649.17 24.45
-2 2 -5 663.83 25.74
-2 2 -5 676.96 26.64
-2 2 -6 49.35 6.12
-2 2 -6 46.96 5.5
-2 2 -6 46.14 5.87
-2 2 -6 48.6 5.98
-2 2 -6 39 4.47
-2 2 -6 45.72 5.91
-2 2 -6 42.4 5.51
-2 2 -7 18.92 3.9
-2 2 -7 25.87 4.46
-2 2 -7 24.69 4.59
-2 2 -7 22.02 4.07
-2 2 -7 25.26 4.67
-2 2 -7 19.55 3.96
-2 2 -7 16.84 2.97
-2 2 -8 149.72 12.05
-2 2 -8 145.7 12.1
-2 2 -8 145.64 11.47
-2 2 -8 170.54 13.59
-2 2 -8 168.23 13.06
-2 2 -8 154.16 12.56
-2 2 -9 114.81 9.27
-2 2 -9 132.24 10.12
-2 2 -9 127.35 9.81
-2 2 -9 120.99 10.79
-2 2 -9 137.11 12.33
-2 2 -9 129.01 12
-2 2 -9 129.88 9.64
-2 2 -9 138.62 13.05
-2 2 -9 108.4 11.05
-2 2 -9 136.63 10.04
-2 2 -9 126.01 9.64
-2 2 -9 125.86 11.59
-2 2 -10 185.13 12.36
-2 2 -10 193.86 12.98
-2 2 -10 177.38 11.94
-2 2 -10 174.65 15.13
-2 2 -10 161.29 14.1
-2 2 -10 188.06 12.26
-2 2 -10 179.79 11.98
-2 2 -10 182.38 12.31
-2 2 -10 187.36 12.31
-2 2 -10 152.95 14.27
-2 2 -10 160.72 14.59
-2 2 -11 59.67 6.94
-2 2 -11 63.76 6.97
-2 2 -11 44.27 7.43
-2 2 -11 44.02 7.7
-2 2 -11 63.22 7.07
-2 2 -11 58.41 6.6
-2 2 -11 60.6 6.76
-2 2 -11 57.28 8.87
-2 2 -11 60.09 6.88
-2 2 -11 65.14 7.02
-2 2 -11 62.19 6.98
-2 2 -12 123.46 10.15
-2 2 -12 117.78 10.13
-2 2 -12 123.1 10.09
-2 2 -12 120.82 9.99
-2 2 -12 122.66 10.28
-2 2 -12 121.7 9.87
-2 2 -12 125.97 10.25
-2 2 -12 133.8 10.96
-2 2 -13 153.96 11.67
-2 2 -13 148.73 11.14
-2 2 -13 160.59 11.22
-2 2 -13 149.3 11.23
-2 2 -13 151.58 10.94
-2 2 -13 147.84 11.21
-2 2 -13 142.75 10.92
-2 2 -13 153.5 11.18
-2 2 -14 247.31 14.05
-2 2 -14 242.48 14.4
-2 2 -14 210.67 13.28
-2 2 -14 219.9 13.35
-2 2 -14 225.04 13.22
-2 2 -14 229.66 13.32
-2 2 -14 229.64 13.14
-2 2 -14 237.16 13.74
-2 2 -14 212.76 13.2
-2 2 -15 9.04 2.8
-2 2 -15 14.22 2.81
-2 2 -15 10.54 2.65
-2 2 -15 11.58 2.47
-2 2 -15 14.51 2.84
-2 2 -15 10.05 2.3
-2 2 -15 9.63 2.1
-2 2 -15 9.35 2.48
-2 2 -16 25.31 3.35
-2 2 -16 27.32 3.55
-2 2 -16 26.65 3.38
-2 2 -16 21.11 3.02
-2 2 -16 25.45 3.24
-2 2 -16 30.19 3.68
-2 2 -16 21.65 3.07
2 3 -17 46.23 3.95
2 3 -17 43.43 3.85
2 3 -17 45.61 3.93
2 3 -16 72.04 5.53
2 3 -16 100.59 7.33
2 3 -16 96.78 6.92
2 3 -16 101.68 7.22
2 3 -16 97.26 7.01
2 3 -16 92.43 6.61
2 3 -16 93.94 6.91
2 3 -15 78.81 6.74
2 3 -15 89.48 7.42
2 3 -15 91.4 7.62
2 3 -15 93.36 7.89
2 3 -15 94.72 7.72
2 3 -15 83.46 7.2
2 3 -15 82.14 7.29
2 3 -15 79.88 6.99
2 3 -14 0.86 1.06
2 3 -14 0.36 1.05
2 3 -14 0.86 0.96
2 3 -14 -0.16 1.12
2 3 -14 -1.82 1.2
2 3 -14 2.07 1.51
2 3 -14 1.83 1.53
2 3 -13 18.64 3.68
2 3 -13 25.49 4.4
2 3 -13 21.05 3.85
2 3 -13 27.28 4.75
2 3 -13 23.6 4.33
2 3 -13 25.92 4.58
2 3 -13 24.74 4.48
2 3 -12 850.51 33.37
2 3 -12 814.1 33.33
2 3 -12 831.07 32.33
2 3 -12 781.11 31.15
2 3 -12 874.66 33.04
2 3 -12 818.25 32.77
2 3 -12 833.62 32.95
2 3 -12 834.63 32.82
2 3 -11 235.89 14.2
2 3 -11 238.06 14.47
2 3 -11 196.08 17.9
2 3 -11 231.96 14.63
2 3 -11 246.7 14.23
2 3 -11 236.07 14.27
2 3 -11 193.92 17.33
2 3 -11 230.23 14.09
2 3 -11 203.79 17.66
2 3 -10 14.53 3.24
2 3 -10 21.58 3.87
2 3 -10 20.82 5.64
2 3 -10 25.69 4.32
2 3 -10 22.64 3.97
2 3 -10 22.77 4.06
2 3 -10 15.65 4.41
2 3 -10 18.6 4.89
2 3 -10 19.74 3.74
2 3 -9 242.47 18.26
2 3 -9 240.31 16.89
2 3 -9 228.14 16.97
2 3 -9 229.54 13.26
2 3 -9 236.62 16.84
2 3 -9 236.55 13.15
2 3 -9 231.06 13.48
2 3 -9 221.38 13.03
2 3 -8 207.04 15
2 3 -8 204.47 15.63
2 3 -8 195.7 14.52
2 3 -8 188.21 13.98
2 3 -7 271.4 16.34
2 3 -7 240.36 16.5
2 3 -7 242.85 15.31
2 3 -7 241.02 15.56
2 3 -6 164.22 11.74
2 3 -6 159.55 11.36
2 3 -6 181 12.2
2 3 -5 253.72 14.14
2 3 -5 252.58 13.99
2 3 -5 263.73 14.29
-2 3 4 105.98 6.09
2 3 -4 111.28 7.96
2 3 -4 115.52 8.38
2 3 -4 109.87 8.31
-2 3 3 262.29 11.04
2 3 -3 262.77 13.12
2 3 -3 269.74 12.73
2 3 -2 1837.54 53.44
-2 3 2 1831.26 52.79
-2 3 2 1724.05 49.82
-2 3 2 1740.55 51.2
2 3 -2 1844.02 55.57
-2 3 1 321.74 13.76
-2 3 1 295.57 12.89
-2 3 1 300.29 12.43
2 3 -1 337.27 13.51
-2 3 1 302.68 14.38
-2 3 0 108.75 7.57
-2 3 0 101.01 6.89
-2 3 0 98.1 6.67
-2 3 0 97.33 6.41
2 3 0 92.3 5.76
-2 3 -1 1028.11 34.01
-2 3 -1 1029.27 33.79
-2 3 -1 1038.67 33.82
-2 3 -1 1104.73 35
-2 3 -2 827.92 29.12
-2 3 -2 837.4 29.81
-2 3 -2 815.51 29.68
-2 3 -2 894.46 30.47
-2 3 -2 810.98 27.16
-2 3 -3 698.66 26.29
-2 3 -3 708.03 25.67
-2 3 -3 682.16 26.73
-2 3 -3 650.38 24.14
-2 3 -3 673.17 26.46
-2 3 -4 2826.85 85.58
-2 3 -4 2958.39 84.97
-2 3 -4 2874.37 86.74
-2 3 -4 2761.75 83.98
-2 3 -4 3132.93 87.73
-2 3 -4 2872.01 86.64
-2 3 -5 273.77 15.16
-2 3 -5 275.02 15.83
-2 3 -5 272.48 14.28
-2 3 -5 273.63 14.63
-2 3 -5 277.54 15.9
-2 3 -5 279.17 15.83
-2 3 -6 554.87 25.64
-2 3 -6 541.21 23.37
-2 3 -6 560.77 25.87
-2 3 -6 570.79 24.77
-2 3 -6 582.43 25.28
-2 3 -6 616.66 26.95
-2 3 -7 495.04 24.27
-2 3 -7 479.95 24.24
-2 3 -7 473.15 23.04
-2 3 -7 455.93 22.79
-2 3 -7 483.16 24.42
-2 3 -7 424.68 20.61
-2 3 -8 214.95 13.81
-2 3 -8 236.15 16.22
-2 3 -8 220.39 15.4
-2 3 -8 247.45 16.92
-2 3 -8 265.01 17.7
-2 3 -8 254.03 17.2
-2 3 -9 57.6 6.47
-2 3 -9 60.57 8.68
-2 3 -9 72.93 7.43
-2 3 -9 61.51 6.86
-2 3 -9 61.02 6.61
-2 3 -9 54.6 7.63
-2 3 -9 47.69 7.46
-2 3 -9 55.79 8.26
-2 3 -9 65.99 7.1
-2 3 -9 76.5 7.35
-2 3 -9 64.13 8.7
-2 3 -10 354.98 23.92
-2 3 -10 408.06 19.77
-2 3 -10 398.82 20.01
-2 3 -10 390.94 19.77
-2 3 -10 379.27 24.82
-2 3 -10 348.55 23.17
-2 3 -10 404.43 19.57
-2 3 -10 451.62 20.28
-2 3 -10 318.39 21.27
-2 3 -10 382.09 19.34
-2 3 -10 413.1 20.1
-2 3 -10 377.15 24.09
-2 3 -11 321.2 17.96
-2 3 -11 342.25 18.06
-2 3 -11 342.92 18.36
-2 3 -11 331.38 17.74
-2 3 -11 344.9 18.36
-2 3 -11 328.6 17.94
-2 3 -11 341.64 18.1
-2 3 -11 351.21 18.19
-2 3 -12 86.79 8.43
-2 3 -12 79.31 8.04
-2 3 -12 80.27 7.99
-2 3 -12 75.53 7.49
-2 3 -12 84.38 8.24
-2 3 -12 98.1 8.75
-2 3 -12 90.86 8.36
-2 3 -12 84.08 8.16
-2 3 -12 93.38 8.63
-2 3 -13 301.75 16.57
-2 3 -13 274.43 15.73
-2 3 -13 281.79 15.78
-2 3 -13 267.69 15.59
-2 3 -13 268.83 15
-2 3 -13 279.46 15.7
-2 3 -13 301.33 16.33
-2 3 -13 298.27 15.94
-2 3 -13 307.45 16.27
-2 3 -14 4.29 1.52
-2 3 -14 3.84 1.8
-2 3 -14 0.26 1.23
-2 3 -14 3.43 1.62
-2 3 -14 3.88 1.88
-2 3 -14 1.94 1.06
-2 3 -14 1.92 1.36
-2 3 -14 5.58 1.96
-2 3 -15 18.4 3.03
-2 3 -15 11.93 2.26
-2 3 -15 23.03 3.61
-2 3 -15 14.67 2.69
-2 3 -15 17.83 2.9
-2 3 -15 11.84 2.41
-2 3 -15 19.21 3.14
-2 3 -15 14.67 2.73
-2 3 -16 58.76 4.51
-2 3 -16 91.56 6.24
-2 3 -16 61.99 4.63
-2 3 -16 59.98 4.56
-2 3 -16 76.52 5.44
-2 3 -16 62.84 4.9
-2 3 -16 83.07 5.78
-2 3 -16 86.3 5.77
2 4 -16 52.56 4.64
2 4 -16 41.75 3.73
2 4 -16 57.99 4.9
2 4 -16 57.21 4.68
2 4 -16 59.35 4.93
2 4 -16 45.59 4.11
2 4 -16 46.7 4.06
2 4 -16 55.48 4.87
2 4 -15 28.83 4.02
2 4 -15 27.93 3.64
2 4 -15 36.46 4.51
2 4 -15 33.82 4.26
2 4 -15 34.07 4.04
2 4 -15 36.04 4.23
2 4 -15 32.89 4.33
2 4 -15 32.4 4.17
2 4 -14 258.8 14.47
2 4 -14 251.07 13.58
2 4 -14 261.12 14.29
2 4 -14 221.82 13.05
2 4 -14 266.19 14.48
2 4 -14 237.28 13.9
2 4 -14 269.82 14.45
2 4 -13 100.18 8.96
2 4 -13 109.65 9.17
2 4 -13 101.79 8.94
2 4 -13 105.81 9.18
2 4 -13 94.31 7.97
2 4 -13 98.78 8.49
2 4 -13 109.6 9.17
2 4 -13 100.39 8.4
2 4 -12 582.19 25.27
2 4 -12 565.73 24.55
2 4 -12 541.65 25.29
2 4 -12 583.77 25.54
2 4 -12 593.21 26.11
2 4 -12 545.58 24.57
2 4 -12 573.06 25.29
2 4 -11 141.87 10.83
2 4 -11 148.23 11.47
2 4 -11 151.5 11.24
2 4 -11 137.85 10.47
2 4 -11 137.76 10.71
2 4 -11 161.17 11.61
2 4 -10 37.42 7.09
2 4 -10 24.17 5.56
2 4 -10 29.81 4.66
2 4 -10 33.68 7.52
2 4 -10 42.36 5.63
2 4 -10 38.35 7.22
2 4 -10 37.98 5.22
2 4 -10 44.41 5.7
2 4 -10 36.29 5.07
2 4 -10 38.94 5.21
2 4 -9 14.91 3.47
2 4 -9 18.68 4.66
2 4 -9 17.39 3.45
2 4 -9 17.09 3.63
2 4 -9 15.45 4.81
2 4 -9 18.86 4.8
2 4 -9 19.24 4.8
2 4 -9 22.61 3.92
2 4 -9 20.16 3.86
2 4 -8 152.44 13.25
2 4 -8 160.25 14.58
2 4 -8 168.41 14.38
2 4 -8 155.11 13.43
2 4 -8 145.74 10.4
2 4 -8 153.21 10.54
2 4 -7 21.87 4.66
2 4 -7 20.51 4.71
2 4 -7 18.06 4.34
2 4 -6 120.58 10.48
2 4 -6 121.59 10.72
2 4 -5 108.82 9.34
2 4 -5 112.65 9.61
-2 4 4 475.57 19.01
2 4 -4 533.72 22.95
2 4 -4 532.18 22.91
-2 4 3 244.4 12.23
2 4 -3 236.71 13.18
2 4 -3 228.29 13.71
-2 4 2 758.03 27.64
-2 4 2 728.44 25.81
2 4 -2 758.83 29.69
2 4 -2 716 27.06
-2 4 2 819.77 29.09
-2 4 1 848.59 29.87
-2 4 1 802.43 29.26
2 4 -1 758.63 27.31
-2 4 1 785.86 28.16
2 4 -1 872 32.03
-2 4 1 738.41 25.96
-2 4 0 341.81 16.19
-2 4 0 325.79 15.85
-2 4 0 304.2 15.21
-2 4 0 332.91 14.72
2 4 0 283.21 13.06
-2 4 -1 962.59 33.14
-2 4 -1 928.7 32.62
-2 4 -1 907.48 32.04
-2 4 -1 941.96 32.76
-2 4 -2 1686.66 54.58
-2 4 -2 1733.05 54.13
-2 4 -2 1541.05 50.1
-2 4 -2 1761.5 54.7
-2 4 -2 1751.81 54.84
-2 4 -3 457.84 21.76
-2 4 -3 463.04 21.47
-2 4 -3 466.72 20.89
-2 4 -3 479.77 22.13
-2 4 -3 431.61 18.78
-2 4 -3 479.83 21.92
-2 4 -4 22.13 3.79
-2 4 -4 23.11 4.05
-2 4 -4 20.54 3.9
-2 4 -4 27.44 4.77
-2 4 -4 30.49 4.9
-2 4 -4 26.84 4.66
-2 4 -5 33.42 5.1
-2 4 -5 37.17 5.88
-2 4 -5 28.98 4.84
-2 4 -5 37.13 5.77
-2 4 -5 28.09 4.69
-2 4 -5 29.24 5.07
-2 4 -6 362.56 20.59
-2 4 -6 384.92 20.69
-2 4 -6 375.12 21.25
-2 4 -6 365.65 19.29
-2 4 -6 392.39 21.47
-2 4 -6 338.15 19.26
-2 4 -7 181.22 14.33
-2 4 -7 161.84 13.06
-2 4 -7 176.21 14.27
-2 4 -7 168.12 12.59
-2 4 -7 161.18 13.24
-2 4 -7 202.97 15.48
-2 4 -8 177.02 14.96
-2 4 -8 143.68 10.51
-2 4 -8 143.65 11.83
-2 4 -8 154.63 13.89
-2 4 -8 158.52 13.64
-2 4 -8 148.49 10.74
-2 4 -8 149.37 13.2
-2 4 -8 174.78 11.99
-2 4 -8 163 14.56
-2 4 -9 115.11 9.81
-2 4 -9 92.2 8.58
-2 4 -9 117.07 9.35
-2 4 -9 104.72 11.56
-2 4 -9 95.86 11.22
-2 4 -9 119.91 10.08
-2 4 -9 112.95 12.62
-2 4 -9 119.04 12.81
-2 4 -9 132.95 13.67
-2 4 -9 91.19 8.55
-2 4 -10 602.22 25.4
-2 4 -10 497.85 23.59
-2 4 -10 625.19 26.03
-2 4 -10 408.38 27.59
-2 4 -10 421.04 27.12
-2 4 -10 560.9 24.11
-2 4 -10 536.94 23.86
-2 4 -10 608.57 25.37
-2 4 -10 544.19 24.24
-2 4 -11 63.45 7.27
-2 4 -11 78.38 7.9
-2 4 -11 70.52 7.42
-2 4 -11 70.41 7.42
-2 4 -11 67.6 7.26
-2 4 -11 66.38 7.04
-2 4 -11 67.39 7.25
-2 4 -11 78.65 7.95
-2 4 -12 111.93 9.62
-2 4 -12 103.74 8.83
-2 4 -12 112.04 9.22
-2 4 -12 101.26 8.9
-2 4 -12 106.74 9.29
-2 4 -12 106.34 9.16
-2 4 -12 106.24 9.14
-2 4 -12 94.95 8.47
-2 4 -12 121.69 9.62
-2 4 -13 3.92 1.63
-2 4 -13 4.67 2.06
-2 4 -13 4.41 1.65
-2 4 -13 4.32 1.95
-2 4 -13 2.44 1.24
-2 4 -13 2.5 1.27
-2 4 -13 2.52 1.04
-2 4 -13 2.56 1.58
-2 4 -13 2.7 1.59
-2 4 -14 4.46 1.85
-2 4 -14 3.92 1.33
-2 4 -14 3.98 1.66
-2 4 -14 6.41 1.97
-2 4 -14 6.95 2.32
-2 4 -14 4.48 1.73
-2 4 -14 4.62 1.66
-2 4 -14 5.4 2.06
-2 4 -15 22.25 3.31
-2 4 -15 21.55 2.96
-2 4 -15 29.19 3.71
-2 4 -15 24.21 3.24
-2 4 -15 24.43 3.17
-2 4 -15 26.42 3.43
-2 4 -16 2.5 0.94
-2 4 -16 2.3 0.9
-2 4 -16 1.49 0.76
-2 4 -16 2.48 0.87
2 5 -16 64.16 4.63
2 5 -16 61.2 4.62
2 5 -15 52.24 4.71
2 5 -15 49.38 4.8
2 5 -15 49.59 4.83
2 5 -15 47.29 4.43
2 5 -15 48.65 4.74
2 5 -15 36.16 3.86
2 5 -15 50.29 4.87
2 5 -14 243.75 13.21
2 5 -14 229.83 12.59
2 5 -14 227.15 12.21
2 5 -14 207.93 11.77
2 5 -14 207.28 11.31
2 5 -14 244.42 13.07
2 5 -14 226.44 12.47
2 5 -13 89.66 7.92
2 5 -13 89.92 7.82
2 5 -13 80.27 7.74
2 5 -13 91.95 7.74
2 5 -13 101.79 8.39
2 5 -13 82.78 7.27
2 5 -13 96.11 8.18
2 5 -12 44.47 5.71
2 5 -12 39.62 5.73
2 5 -12 43.12 5.44
2 5 -12 47.34 5.93
2 5 -12 50.31 6.29
2 5 -12 38.47 5.38
2 5 -11 3 1.41
2 5 -11 3.99 1.59
2 5 -11 1.69 1.26
2 5 -11 3.76 1.6
2 5 -11 4.94 2.09
2 5 -10 359.04 18.6
2 5 -10 341.31 17.45
2 5 -10 355.83 18.23
2 5 -10 358.23 18.81
2 5 -9 126.41 13.65
2 5 -9 117.7 13.68
2 5 -9 112.93 12.69
2 5 -9 134.59 10
2 5 -9 149.62 10.88
2 5 -9 132.13 14.77
2 5 -9 146.73 10.9
2 5 -8 112.86 12.12
2 5 -8 103.61 11.56
2 5 -8 103.32 12.67
2 5 -8 90.82 11.64
2 5 -8 103.6 8.78
2 5 -8 101.48 8.75
2 5 -8 91.51 8.04
2 5 -7 77.07 9.46
2 5 -7 94.03 11.3
2 5 -7 98.66 10.92
2 5 -7 73.68 7.17
2 5 -6 207.78 15.61
2 5 -6 190.79 14.73
2 5 -6 199.31 16.39
2 5 -5 127.15 11.19
2 5 -5 130.38 11.53
2 5 -4 229.71 15.18
2 5 -4 231.73 15.05
-2 5 3 485.53 21.6
2 5 -3 459.09 21.79
2 5 -3 485.32 23.6
-2 5 3 503.35 22.52
2 5 -2 -1.48 1.62
2 5 -2 1.97 1.23
-2 5 2 -0.14 1.16
-2 5 2 3.7 1.32
-2 5 1 291.77 15.68
-2 5 1 308.83 16.94
-2 5 1 283.83 15.34
2 5 -1 298.48 17.97
2 5 0 68.34 8.27
-2 5 0 60.19 6.88
-2 5 0 56.48 6.38
-2 5 0 53.02 6.42
-2 5 -1 202.3 13.52
-2 5 -1 225.45 14.2
-2 5 -1 214.36 13.18
-2 5 -1 196.42 13.04
-2 5 -1 228.44 14.38
-2 5 -2 279.34 16.94
-2 5 -2 308.45 17.66
-2 5 -2 283.53 16.64
-2 5 -2 309.76 17.38
-2 5 -2 299.07 16.93
-2 5 -3 173.99 13.02
-2 5 -3 159.46 12.04
-2 5 -3 177.92 13.17
-2 5 -3 177.11 13.18
-2 5 -3 166.86 12.48
-2 5 -4 440.94 22.17
-2 5 -4 462.56 23.87
-2 5 -4 449.54 23.19
-2 5 -4 454.71 22.88
-2 5 -4 437.24 23.17
-2 5 -5 526.09 26.42
-2 5 -5 560.96 26.21
-2 5 -5 549.62 27.56
-2 5 -5 551.18 26.88
-2 5 -5 518.89 26.74
-2 5 -5 466.23 23.66
-2 5 -6 196.14 15.74
-2 5 -6 186.84 14.89
-2 5 -6 217.24 15.27
-2 5 -6 211.27 16.33
-2 5 -6 172.87 13.68
-2 5 -6 211.49 15.89
-2 5 -7 56.01 8.69
-2 5 -7 58.54 8.34
-2 5 -7 50.58 5.98
-2 5 -7 41.67 7.31
-2 5 -7 56.18 7.79
-2 5 -7 45.85 7.15
-2 5 -7 54.52 6.57
-2 5 -7 44.57 7.46
-2 5 -8 188.87 12.92
-2 5 -8 177.16 15.96
-2 5 -8 186.32 16.02
-2 5 -8 177.39 16.25
-2 5 -8 169.43 14.1
-2 5 -8 164.37 11.56
-2 5 -8 136.76 13.59
-2 5 -8 161.42 15.05
-2 5 -9 780.32 31.04
-2 5 -9 763.4 29.16
-2 5 -9 762.35 30.54
-2 5 -10 156.87 11.54
-2 5 -10 161.16 11.94
-2 5 -10 136.52 10.48
-2 5 -10 144.32 11.27
-2 5 -10 140.2 10.66
-2 5 -11 403.86 20.3
-2 5 -11 418.33 20.27
-2 5 -11 413.41 20.52
-2 5 -11 355.62 18.82
-2 5 -11 415.73 20.23
-2 5 -11 408.24 19.6
-2 5 -12 27.4 4.35
-2 5 -12 28.23 4.25
-2 5 -12 20.48 3.98
-2 5 -12 28.02 4.49
-2 5 -12 21 3.9
-2 5 -12 14.1 3.16
-2 5 -12 21.07 3.7
-2 5 -13 36.13 4.71
-2 5 -13 25.23 4.09
-2 5 -13 21.13 3.71
-2 5 -13 25.49 3.72
-2 5 -13 26.59 4.06
-2 5 -13 30.54 4.25
-2 5 -13 30.9 4.27
-2 5 -14 42.87 4.74
-2 5 -14 34.29 3.84
-2 5 -14 36.79 4.07
-2 5 -14 37.18 4.36
-2 5 -14 44.89 4.71
-2 5 -14 41.44 4.51
-2 5 -15 22.22 3.03
-2 5 -15 15.83 2.43
-2 5 -15 20.91 2.72
-2 5 -15 19.09 2.61
-2 5 -15 19.93 2.64
2 6 -15 43.08 3.68
2 6 -15 50.46 4.33
2 6 -15 48.97 4.07
2 6 -15 52.93 4.39
2 6 -14 12.15 2.4
2 6 -14 10.41 2.13
2 6 -14 9.76 2.2
2 6 -14 11.41 2.31
2 6 -14 13.21 2.57
2 6 -14 9.08 2.09
2 6 -13 53.22 5.39
2 6 -13 52.23 5.36
2 6 -13 48.79 5.55
2 6 -13 56.95 6
2 6 -13 58.94 5.85
2 6 -13 52.4 5.38
2 6 -12 5.25 1.84
2 6 -12 4.79 1.72
2 6 -12 11.48 2.6
2 6 -12 5.98 2.14
2 6 -12 5.64 2.37
2 6 -11 4.51 2.44
2 6 -11 2.9 1.6
2 6 -11 3.27 1.48
2 6 -11 7.8 2.41
2 6 -11 5.58 2.16
2 6 -10 11.85 2.73
2 6 -10 13.09 3.24
2 6 -10 11.79 3.16
2 6 -10 10.16 2.94
2 6 -9 230.21 14.47
2 6 -9 256.82 14.81
2 6 -9 208.59 13.12
2 6 -8 42.29 7.8
2 6 -8 51.32 6.31
2 6 -8 47.48 5.92
2 6 -7 153.94 14.77
2 6 -7 167.04 16.28
2 6 -7 178.29 11.9
2 6 -7 170.96 16.83
2 6 -7 151.86 14.73
2 6 -6 19.27 5.05
2 6 -6 21.14 5.31
2 6 -6 14.49 4.18
2 6 -5 205.84 16.28
2 6 -5 205.82 15.9
2 6 -5 202.29 16.95
2 6 -4 112.9 11.51
2 6 -4 123.34 12.47
2 6 -4 115.03 10.78
2 6 -3 84.26 9.56
-2 6 2 495.35 24.67
2 6 -2 485.41 25.62
-2 6 1 51.11 6.99
2 6 -1 53.27 7.51
2 6 0 95.64 10.5
-2 6 0 97.19 10.03
-2 6 0 104.32 10.03
-2 6 -1 65.36 7.71
-2 6 -1 82.55 9.24
-2 6 -1 91.59 9.76
2 6 1 89.23 10.2
-2 6 -2 19.13 4.16
-2 6 -2 23.54 5.16
-2 6 -2 22.05 4.69
-2 6 -3 161.86 13.86
-2 6 -3 163.9 13.42
-2 6 -3 174.01 14.25
-2 6 -3 155.96 13.4
-2 6 -4 176.16 14.89
-2 6 -4 190.37 15.46
-2 6 -4 167.69 13.94
-2 6 -4 185.26 15.37
-2 6 -5 290.02 20.48
-2 6 -5 309.9 20.93
-2 6 -5 322.31 20.48
-2 6 -5 332.03 21.96
-2 6 -6 118.94 12.02
-2 6 -6 101.1 11.87
-2 6 -6 95.04 8.79
-2 6 -6 100.8 11.72
-2 6 -6 85.23 10.93
-2 6 -7 102.44 11.44
-2 6 -7 89.16 11.16
-2 6 -7 97.16 8.33
-2 6 -7 93.26 8.71
-2 6 -7 79.84 10.77
-2 6 -7 80.39 11.08
-2 6 -8 619.44 27.91
-2 6 -8 625.04 25.82
-2 6 -8 600.59 26.69
-2 6 -9 76.09 8.12
-2 6 -9 66.56 7.23
-2 6 -9 72.06 7.62
-2 6 -9 81.41 8.12
-2 6 -10 116.24 10
-2 6 -10 108.7 9.02
-2 6 -10 119.3 9.71
-2 6 -10 128.1 9.59
-2 6 -10 113.43 9.55
-2 6 -11 69.22 7.02
-2 6 -11 67.63 7.05
-2 6 -11 59.15 6.25
-2 6 -11 65.29 6.7
-2 6 -11 69.48 6.77
-2 6 -12 37.17 4.18
-2 6 -12 41.36 5.2
-2 6 -12 40.26 4.95
-2 6 -12 38.07 4.85
-2 6 -12 49.54 5.48
-2 6 -12 38.12 4.74
-2 6 -12 39.13 4.79
-2 6 -13 197.61 11.3
-2 6 -13 203.57 11.11
-2 6 -13 203.54 11.09
-2 6 -13 197.88 10.84
-2 6 -13 199.17 10.89
-2 6 -14 93.64 6.24
-2 6 -14 77.49 5.64
-2 6 -14 78.5 5.56
-2 6 -14 77.52 5.56
-2 6 -14 92.39 6.15
-2 6 -14 89.41 6.3
2 7 -14 51.6 4.41
2 7 -14 56.69 4.32
2 7 -14 56.66 4.53
2 7 -13 107.84 7.44
2 7 -13 108.54 7.19
2 7 -13 110.85 7.58
2 7 -13 98.37 6.87
2 7 -13 93.33 6.5
2 7 -12 157.02 10.16
2 7 -12 157.96 9.68
2 7 -12 177.95 10.21
2 7 -12 159.02 9.92
2 7 -12 167.01 10.5
2 7 -12 153.59 9.6
2 7 -11 39.37 4.83
2 7 -11 38.18 4.95
2 7 -11 43.87 5.53
2 7 -11 42.43 5.09
2 7 -10 4.26 1.89
2 7 -10 8.62 3.02
2 7 -10 8.34 2.75
2 7 -10 6.37 2.31
2 7 -9 134.18 9.85
2 7 -9 119.31 9.78
2 7 -8 297.21 16.47
2 7 -7 104.65 9.05
2 7 -6 269.24 15.36
2 7 -5 145.12 14.85
2 7 -5 187.8 16.74
2 7 -5 182.61 16.94
2 7 -4 1.69 1.67
2 7 -4 0.69 1.95
2 7 -3 185.1 15.76
2 7 -3 155.11 14.11
2 7 -2 85.05 10.43
-2 7 2 96.73 10.61
2 7 -1 113.55 12.07
-2 7 1 138.17 12.97
2 7 0 2.24 2.76
-2 7 0 1.81 2.08
-2 7 -1 297.51 20.43
2 7 1 293.63 20.46
-2 7 -2 347.82 22.3
-2 7 -2 336.93 22.25
2 7 2 273.77 20.11
-2 7 -3 197.6 16.56
-2 7 -3 211.01 17.43
-2 7 -4 115.19 12.83
-2 7 -4 117.35 12.33
-2 7 -4 81.26 10.46
-2 7 -5 168.82 15.88
-2 7 -5 126.23 13.62
-2 7 -5 168.72 15.26
-2 7 -6 852.29 32.52
-2 7 -7 14.79 3.38
-2 7 -7 19.11 3.62
-2 7 -8 70.51 7.76
-2 7 -8 66.78 6.97
-2 7 -9 153.99 11.37
-2 7 -9 130.47 9.88
-2 7 -9 145.14 10.39
-2 7 -9 164.37 11.04
-2 7 -10 34.88 5.02
-2 7 -10 34.52 4.68
-2 7 -10 31.66 4.37
-2 7 -10 32.89 4.82
-2 7 -10 40.35 5.08
-2 7 -11 241.3 12.76
-2 7 -11 232.13 13.16
-2 7 -11 251.11 13.09
-2 7 -11 254.97 13.31
-2 7 -11 254.07 13.46
-2 7 -11 212.17 11.94
-2 7 -12 74.07 5.58
-2 7 -12 83.9 6.71
-2 7 -12 89.46 6.63
-2 7 -12 83.3 6.58
-2 7 -12 94.77 7
-2 7 -13 27.22 3.24
-2 7 -13 26.28 3.19
-2 7 -13 25.27 3.07
-2 7 -13 30.6 3.35
2 8 -12 93.83 6.34
2 8 -12 111.18 7.22
2 8 -12 101.11 6.62
2 8 -12 101.71 6.67
2 8 -11 87.96 6.71
2 8 -11 90.41 6.87
2 8 -11 89.21 7.16
2 8 -11 87.85 6.85
2 8 -10 13.53 2.74
2 8 -10 8.07 2.23
2 8 -10 9.75 2.32
2 8 -9 65.78 6.4
2 8 -9 69.78 7.12
2 8 -9 58.97 6.26
2 8 -8 33.6 5.03
2 8 -8 26 4.23
2 8 -7 9.53 2.63
-2 8 -6 69.16 7.53
-2 8 -7 119.78 9.78
-2 8 -8 17.46 3.58
-2 8 -8 15.23 3.15
-2 8 -9 173.52 11.01
-2 8 -9 179.71 11.19
-2 8 -10 48.8 5.1
-2 8 -10 58.82 5.57
-2 8 -10 52.6 5.27
-2 8 -11 35.88 3.66
-2 8 -11 35.89 3.98
-2 8 -11 34.28 3.79
-2 8 -11 37.59 4.03
-2 8 -11 42.23 4.32
-2 8 -12 120.82 6.8
-2 8 -12 131.31 7.29
-2 8 -12 127.22 7.14
2 9 -11 18.31 2.39
2 9 -11 20.18 2.53
2 9 -10 50.7 4.5
2 9 -10 39.55 3.98
2 9 -10 53.35 4.72
2 9 -9 0.47 0.8
2 9 -9 1.06 1.08
2 9 -8 34.34 4.25
2 9 -8 21.32 3.2
2 9 -7 40.02 4.71
-2 9 -8 45.22 4.43
-2 9 -8 57.33 5.41
-2 9 -9 32.67 3.4
-2 9 -9 40.91 4.25
-2 9 -9 36.5 4.03
-2 9 -10 40.16 3.69
-2 9 -10 40.97 3.9
-2 9 -10 35.65 3.51
2 10 -9 39.69 3.77
2 10 -8 14.02 2.04
2 10 -8 16.06 2.31
2 10 -7 27.49 3.12
2 10 -7 27.27 3.24
2 10 -6 131.22 7.76
2 10 -6 112.95 7.11
-2 10 -6 14.35 2.4
-2 10 -7 5.38 1.37
-2 10 -7 6.14 1.52
-3 -11 3 25.37 2.89
-3 -11 2 8.01 1.74
-3 -11 1 72.57 5.15
-3 -11 1 53.07 4.27
-3 -11 0 54.15 4.4
-3 -11 0 54.06 4.28
-3 -11 -1 89.79 5.69
-3 -11 -1 85.83 5.55
-3 -11 -2 40.77 3.58
-3 -11 -2 40.8 3.57
-3 -11 -3 30.54 2.86
-3 -11 -3 24.33 2.63
-3 -10 7 69.94 5.01
-3 -10 6 48 4.72
-3 -10 5 25.89 3.81
-3 -10 5 28.92 3.8
-3 -10 4 159.51 10.01
-3 -10 4 168.59 10.48
-3 -10 3 29.53 4.13
-3 -10 3 34.64 4.48
-3 -10 2 32.72 4.38
-3 -10 2 31.22 4.24
-3 -10 1 118.18 8.52
-3 -10 1 116.8 8.64
-3 -10 0 120.56 8.43
-3 -10 0 98.12 7.83
-3 -10 -1 138.44 8.99
-3 -10 -1 139.43 9.22
-3 -10 -2 0.88 0.96
-3 -10 -2 3.92 1.51
-3 -10 -3 151.68 9.06
-3 -10 -3 154.95 9.28
-3 -10 -4 70.84 5.44
-3 -10 -4 66.91 5.53
-3 -10 -5 18.95 2.69
-3 -10 -5 15.69 2.45
-3 -10 -6 128.09 7.36
-3 -10 -6 138.46 7.24
-3 -10 -7 45.86 3.83
3 -9 -10 16.52 2.47
3 -9 -9 6.36 1.73
3 -9 -8 45.86 4.88
-3 -9 8 38.97 4.52
-3 -9 8 29.39 3.98
-3 -9 7 69.2 6.67
-3 -9 7 62.94 6.4
3 -9 -7 72.02 6.5
3 -9 -6 117.87 8.88
-3 -9 6 111.7 9.15
-3 -9 6 97.31 8.57
-3 -9 5 55.11 6.42
3 -9 -5 64.06 6.52
-3 -9 5 56.36 6.43
3 -9 -4 134.93 9.95
-3 -9 4 120.06 9.89
-3 -9 4 133.75 10.34
-3 -9 3 191.55 13.04
-3 -9 3 197.55 13.3
3 -9 -3 208.24 13.23
-3 -9 2 23.68 4.15
-3 -9 2 19.17 3.92
-3 -9 1 35.78 5.06
-3 -9 1 35.75 5.27
-3 -9 0 154.36 11.05
-3 -9 0 152.34 10.79
-3 -9 -1 25.09 4.12
-3 -9 -1 17.73 3.42
-3 -9 -2 60 6.31
-3 -9 -2 72 7.03
-3 -9 -3 13.89 2.81
-3 -9 -3 16.33 3.21
-3 -9 -4 10.43 2.58
-3 -9 -4 10.04 2.28
-3 -9 -5 3.12 1.1
-3 -9 -5 6.55 1.99
-3 -9 -6 229.99 11.72
-3 -9 -6 185.06 10.26
-3 -9 -7 130.04 7.47
-3 -9 -7 117.42 7.67
-3 -9 -8 41.29 4.43
-3 -9 -8 45.45 4.34
-3 -9 -9 13.23 2.29
3 -8 -12 82.42 5.42
3 -8 -12 68.08 4.89
3 -8 -11 79.53 6.09
3 -8 -11 66.72 5.53
3 -8 -10 66.04 6
-3 -8 10 55.59 5.63
3 -8 -10 66.56 6.01
-3 -8 9 127.55 9.57
3 -8 -9 159.59 10.25
3 -8 -9 165.5 10.55
-3 -8 9 136.12 10.36
-3 -8 8 28 4.53
3 -8 -8 26.11 4.12
3 -8 -8 22.7 3.95
-3 -8 8 20.38 4.07
-3 -8 7 13.51 3.4
3 -8 -7 25.93 4.34
-3 -8 7 22.79 4.4
3 -8 -7 20.36 4.02
3 -8 -6 138.01 10.37
-3 -8 6 126.32 10.8
-3 -8 6 133.18 11.31
3 -8 -6 131.67 10.52
-3 -8 5 3.87 1.99
3 -8 -5 4.74 1.83
3 -8 -5 4.61 2.32
-3 -8 5 2.96 2.2
-3 -8 4 171.62 12.8
3 -8 -4 187.77 12.7
-3 -8 4 148.41 12.1
3 -8 -4 181.7 12.8
3 -8 -3 133.04 9.34
-3 -8 3 108.89 9.87
3 -8 -3 105.91 9.35
-3 -8 3 94.34 9.04
-3 -8 2 59.78 6.94
-3 -8 2 62.19 7.22
3 -8 -2 72.01 6.65
3 -8 -2 72.1 7.56
3 -8 -1 114.44 8.45
3 -8 -1 130.4 10.51
-3 -8 1 124.6 10.12
-3 -8 1 120.41 10.28
-3 -8 0 44.15 5.92
-3 -8 0 44.08 6
-3 -8 -1 29.77 4.79
-3 -8 -1 27.33 4.74
-3 -8 -2 649.85 27.61
-3 -8 -2 669.67 28.06
-3 -8 -3 73.49 7.51
-3 -8 -3 75.74 7.76
-3 -8 -4 152.91 10.86
-3 -8 -4 164.86 11.43
-3 -8 -5 188.91 11.86
-3 -8 -5 209.6 13.89
-3 -8 -5 199.19 12.73
-3 -8 -6 89.51 7.4
-3 -8 -6 105.21 8.46
-3 -8 -6 93.88 8.81
-3 -8 -7 79.06 6.53
-3 -8 -7 99.93 8.85
-3 -8 -7 96.64 7.76
-3 -8 -8 226.68 13.5
-3 -8 -8 224.46 12.34
-3 -8 -9 7.67 2.19
-3 -8 -9 12.16 2.56
-3 -8 -10 24.19 3.46
-3 -8 -11 55.32 4.72
3 -7 -13 41.81 3.81
3 -7 -13 49.2 4.3
3 -7 -12 107.47 7.42
3 -7 -12 103.89 7.4
3 -7 -11 124.85 8.79
-3 -7 11 118.46 9.32
3 -7 -11 123.59 8.8
-3 -7 10 6.23 1.96
3 -7 -10 6.44 2.19
3 -7 -10 7.01 2.7
-3 -7 10 5.78 2.31
-3 -7 9 108.75 10.35
-3 -7 9 105.29 9.78
3 -7 -9 120.79 9.77
3 -7 -9 112 9
3 -7 -8 62.8 7.03
-3 -7 8 51.05 7.17
-3 -7 8 54.34 7.34
3 -7 -8 48.68 5.92
-3 -7 7 339.86 20.09
3 -7 -7 341.07 18.48
-3 -7 7 368.01 20.85
3 -7 -7 317.03 17.32
-3 -7 6 9.58 3.29
3 -7 -6 5.85 2.07
3 -7 -6 4.53 2.85
-3 -7 6 7.88 2.68
3 -7 -5 352.58 18.99
3 -7 -5 349.6 18.54
-3 -7 5 347.45 20.2
-3 -7 5 368.1 20.7
3 -7 -4 7.99 2.17
-3 -7 4 6.8 2.54
3 -7 -4 6.06 1.92
3 -7 -4 5.6 1.93
-3 -7 4 4.86 1.94
3 -7 -3 58.09 6.06
-3 -7 3 51.9 6.6
-3 -7 3 53.84 6.91
3 -7 -3 50.74 6.24
3 -7 -3 40.98 5.66
3 -7 -3 34.91 6.63
3 -7 -3 51.14 6.35
3 -7 -2 65.46 6.25
-3 -7 2 50.75 6.5
3 -7 -2 67.57 7.3
-3 -7 2 42.14 7.14
3 -7 -2 56.78 6.68
3 -7 -2 51.15 8.07
3 -7 -2 50.56 6.29
-3 -7 2 52.21 6.58
3 -7 -2 59.13 7.04
3 -7 -1 228.13 12.74
-3 -7 1 241.67 15.04
-3 -7 1 198.63 16.11
3 -7 -1 284.73 19.79
3 -7 -1 252.51 15.41
-3 -7 1 251.41 15.24
3 -7 0 17.61 3.78
-3 -7 0 14.65 3.4
-3 -7 0 8.22 3.12
-3 -7 0 15.74 3.55
3 -7 0 9.7 2.67
3 -7 0 21.19 5.73
3 -7 1 147.15 15.24
3 -7 1 142.32 10.9
-3 -7 -1 151.15 13.73
-3 -7 -1 145.28 11
-3 -7 -1 151.32 11.2
3 -7 2 152.86 15.57
3 -7 2 140.49 10.66
-3 -7 -2 143.02 10.81
-3 -7 -2 133.13 10.46
-3 -7 -3 166.56 11.78
3 -7 3 175.47 17.16
3 -7 3 145.19 11.14
-3 -7 -3 180.58 12.3
-3 -7 -4 163.61 11.63
-3 -7 -4 180.8 13.12
3 -7 4 155.68 11.41
-3 -7 -4 191.76 12.65
3 -7 4 164.09 11.6
-3 -7 -5 335.18 18.7
-3 -7 -5 309.63 16.58
-3 -7 -5 277.71 15.5
3 -7 5 258.57 15.6
3 -7 5 258.98 15.45
-3 -7 -6 31.25 4.53
3 -7 6 27.19 4.63
-3 -7 -6 36.31 5.74
-3 -7 -6 35.69 5.12
-3 -7 -7 21.37 3.46
-3 -7 -7 23.5 4.45
-3 -7 -7 17.74 3.76
-3 -7 -7 24.96 4.65
-3 -7 -8 56.6 6.74
-3 -7 -8 62.47 6.44
-3 -7 -8 53.64 6.67
-3 -7 -9 84.28 7.98
-3 -7 -9 81.13 7.84
-3 -7 -9 82.85 7.15
-3 -7 -10 21.84 3.73
-3 -7 -10 26.64 3.77
-3 -7 -11 64.06 5.94
-3 -7 -12 93.68 6.56
-3 -7 -13 7.77 1.53
3 -6 -14 70.42 5.34
3 -6 -13 26.71 3.62
3 -6 -13 30.11 3.63
-3 -6 13 28.47 3.86
3 -6 -13 36.59 4.36
3 -6 -12 46.62 5.23
3 -6 -12 42.02 4.87
3 -6 -12 44.98 5.43
3 -6 -11 160.18 11.58
3 -6 -11 160.47 10.63
3 -6 -11 154.09 10.71
3 -6 -10 51.47 5.98
3 -6 -10 47.61 6.56
3 -6 -10 50.97 6.18
-3 -6 10 51.89 6.84
3 -6 -9 114.21 9.37
3 -6 -9 108.78 9.43
-3 -6 9 122.4 11.37
3 -6 -9 107.05 10.23
-3 -6 8 696.9 31.18
3 -6 -8 615.95 26.16
3 -6 -8 544.95 26.55
3 -6 -8 607.79 26.66
3 -6 -8 648.36 29.45
-3 -6 7 7.6 3.02
3 -6 -7 13.17 3.1
3 -6 -7 16.17 3.76
3 -6 -7 11.98 3.4
3 -6 -7 11.64 3.05
3 -6 -6 419.84 20.28
3 -6 -6 389.8 21.37
-3 -6 6 446.11 23.48
3 -6 -6 429.15 22.36
3 -6 -6 391.64 20.27
-3 -6 5 6.29 2.07
3 -6 -5 11.36 2.87
3 -6 -5 6.33 1.94
3 -6 -5 6.72 2.23
3 -6 -4 60.29 6.32
3 -6 -4 45.65 5.81
-3 -6 4 44.73 6.32
3 -6 -4 41.07 6.51
3 -6 -4 55.02 6.2
-3 -6 4 45.24 7.29
3 -6 -4 46.28 5.99
-3 -6 4 46.86 6.36
3 -6 -4 34.24 5.12
3 -6 -3 23.2 3.79
3 -6 -3 15.48 3.53
3 -6 -3 26.27 4.94
-3 -6 3 18.25 4.47
3 -6 -3 31.22 4.66
3 -6 -3 12.08 2.98
3 -6 -3 25.05 4.23
-3 -6 3 24.79 4.48
-3 -6 3 25.35 4.43
3 -6 -2 91.02 7.36
-3 -6 2 106.48 9.14
3 -6 -2 114.22 10.75
3 -6 -2 96.4 8.66
-3 -6 2 107.74 9.31
3 -6 -2 114.31 9.37
3 -6 -2 89.17 8.4
3 -6 -2 116.85 9.32
-3 -6 2 106.39 10.36
-3 -6 1 48.27 6.87
-3 -6 1 41.75 5.6
3 -6 -1 52.06 6.18
-3 -6 1 39.54 5.36
3 -6 -1 34.38 5.1
3 -6 -1 46.34 7.05
3 -6 0 419.33 20.75
3 -6 0 564.25 23.78
-3 -6 0 480.34 23.6
3 -6 0 539.83 27.77
3 -6 0 386.11 19.79
-3 -6 0 413.43 20.54
-3 -6 0 412.37 20.37
3 -6 1 170.63 12.28
-3 -6 -1 183.8 13.77
3 -6 1 145.43 10.92
3 -6 1 126.3 9.85
-3 -6 -1 160.78 11.18
3 -6 1 172.33 15.08
-3 -6 -1 148.84 10.9
3 -6 1 142.25 10.62
3 -6 2 412.02 20.55
-3 -6 -2 439.92 20.61
3 -6 2 391.57 19.66
3 -6 2 395.33 19.85
-3 -6 -2 437.99 20.63
3 -6 3 169.61 11.69
-3 -6 -3 196.15 12.61
3 -6 3 205.42 17.33
-3 -6 -3 174.27 11.75
3 -6 3 175.08 11.87
3 -6 3 193.32 15.3
-3 -6 -4 231.38 13.98
-3 -6 -4 250.23 15.71
3 -6 4 240.63 14.61
3 -6 4 242.2 14.56
-3 -6 -4 274.66 15.41
3 -6 4 229.89 13.99
3 -6 4 251.1 18.4
-3 -6 -5 471.1 22.54
3 -6 5 386.15 19.8
3 -6 5 406.88 19.99
3 -6 5 468.64 28.62
-3 -6 -5 439.21 20.5
3 -6 5 368.06 19.54
-3 -6 -5 373.55 18.72
3 -6 5 403.03 24.93
-3 -6 -6 78.11 7.25
-3 -6 -6 118.4 10.39
-3 -6 -6 99.67 8.61
3 -6 6 98.57 8.87
3 -6 6 102.13 13.32
-3 -6 -6 101.12 9.38
3 -6 6 94.83 8.74
3 -6 7 29.38 4.66
-3 -6 -7 35.91 4.97
3 -6 7 32.33 5.02
-3 -6 -7 40.36 5.92
-3 -6 -7 35.32 5.54
-3 -6 -8 136.99 11.09
-3 -6 -8 126.17 10.63
-3 -6 -8 115.09 8.93
3 -6 8 121.54 10.12
-3 -6 -8 135.44 9.9
-3 -6 -9 58.54 6.87
-3 -6 -9 62.28 6.3
-3 -6 -9 55.1 6.78
3 -6 9 57.21 6.57
-3 -6 -9 47.87 5.5
-3 -6 -10 113.1 9.38
-3 -6 -10 129.43 9.13
-3 -6 -10 110.27 9.41
-3 -6 -10 96.91 7.93
-3 -6 -11 29.33 4.45
-3 -6 -11 20.45 3.21
-3 -6 -11 32.52 4.7
-3 -6 -12 142.52 9.47
-3 -6 -12 160.77 10.09
-3 -6 -13 19.6 2.95
-3 -6 -14 14.88 2.11
3 -5 -15 21.79 2.8
3 -5 -15 29.34 3.42
3 -5 -14 38.02 4.29
3 -5 -14 41.45 4.73
3 -5 -13 100.86 8.32
3 -5 -13 96.67 8.14
3 -5 -13 97.98 7.8
3 -5 -12 70.33 6.65
3 -5 -12 59.69 6.87
3 -5 -12 67.76 7.29
3 -5 -12 68.43 6.77
-3 -5 11 40.96 5.9
3 -5 -11 46.17 5.98
3 -5 -11 47.18 5.7
3 -5 -11 40.24 5.77
3 -5 -11 44.48 5.71
3 -5 -11 44.16 5.91
3 -5 -10 179.11 12.31
3 -5 -10 185.05 12.14
3 -5 -10 184.61 12.75
3 -5 -10 190.26 13.64
3 -5 -10 207.97 14.06
3 -5 -9 37.89 5.18
3 -5 -9 44.56 6.45
3 -5 -9 37.38 5.68
3 -5 -9 43.44 5.82
3 -5 -9 47.52 5.91
3 -5 -9 48.36 6.54
3 -5 -8 784.31 30.22
3 -5 -8 811.78 32.94
3 -5 -8 712.39 30
3 -5 -8 723.87 29.76
3 -5 -8 809.35 32.76
3 -5 -8 697.81 31.06
3 -5 -7 636.27 25.64
3 -5 -7 664.09 27.87
3 -5 -7 648.4 28.19
3 -5 -7 547.85 24.87
3 -5 -7 547.76 26.86
3 -5 -7 553.23 26.45
3 -5 -6 388.82 18.53
3 -5 -6 391.13 20.3
3 -5 -6 311.53 16.99
3 -5 -6 318.06 18.85
3 -5 -6 342.49 19.07
3 -5 -6 382.01 19.64
3 -5 -5 15.15 3.44
3 -5 -5 6.92 2.3
-3 -5 5 18.55 4.4
3 -5 -5 10.25 2.62
3 -5 -4 142.61 11.57
-3 -5 4 149.67 12.08
3 -5 -4 149.54 11.18
3 -5 -3 65.17 7.58
3 -5 -3 75.43 7.64
-3 -5 3 67.63 7.69
3 -5 -2 280.54 16.15
3 -5 -2 297.21 17.76
-3 -5 2 296.75 16.89
3 -5 -1 235.35 15.57
3 -5 -1 226.06 15.03
-3 -5 1 201.06 13.31
-3 -5 0 43.34 5.82
3 -5 0 50.31 6.88
3 -5 0 44.99 6.62
-3 -5 -1 85.16 8.21
3 -5 1 76.26 8.97
3 -5 1 87.98 9.31
3 -5 2 249 17.45
3 -5 2 264.47 17.09
3 -5 3 224.56 16.87
3 -5 3 233.03 16.48
3 -5 4 141.1 12.81
3 -5 4 149.28 13.81
-3 -5 -5 213.36 13.81
-3 -5 -5 201.84 12.53
3 -5 5 198.66 12.69
3 -5 5 199.8 13.01
3 -5 5 201.58 13.02
3 -5 5 212.51 17.46
3 -5 5 249.97 17.68
-3 -5 -6 562.62 25.18
3 -5 6 654.42 33.94
3 -5 6 503.25 23.5
3 -5 6 519.75 23.79
-3 -5 -6 566.02 23.53
3 -5 6 507.97 23.56
-3 -5 -6 505.59 24.02
3 -5 6 593.01 30.44
-3 -5 -7 106.97 9.47
3 -5 7 95.59 11.64
3 -5 7 95.95 12.78
-3 -5 -7 94.59 8.94
3 -5 7 90.83 8.43
3 -5 7 89.51 8.49
-3 -5 -7 99.58 8.21
3 -5 7 77.5 7.72
-3 -5 -8 46.84 6.31
3 -5 8 41.2 5.42
3 -5 8 47.71 6.13
-3 -5 -8 49.78 5.57
-3 -5 -8 52.96 6.57
3 -5 8 45.57 8.3
-3 -5 -9 425.59 20.74
-3 -5 -9 413.6 18.48
3 -5 9 364.55 18.95
-3 -5 -9 332.16 17.04
-3 -5 -9 393.03 19.94
3 -5 9 306.41 17.04
-3 -5 -10 228.1 14.19
-3 -5 -10 185.91 12.03
-3 -5 -10 228.43 13.04
-3 -5 -10 234.34 14.51
3 -5 10 210.66 13.44
-3 -5 -11 179.98 12.06
-3 -5 -11 141.99 10.03
-3 -5 -11 151.14 10.96
-3 -5 -11 180.57 12.19
-3 -5 -12 70.65 7.02
-3 -5 -12 67.22 6.63
-3 -5 -12 71.95 6.55
-3 -5 -12 71.7 7.01
-3 -5 -13 39.41 4.72
-3 -5 -13 39.41 4.69
-3 -5 -13 37.36 4.42
-3 -5 -14 14.7 2.48
3 -4 -16 121.89 6.78
3 -4 -16 137.73 7.64
3 -4 -15 24.49 3.53
3 -4 -15 17.47 2.73
3 -4 -15 17.68 3.01
3 -4 -14 30.84 4.4
3 -4 -14 26.75 3.99
3 -4 -14 24.74 3.74
3 -4 -14 32.72 4.52
3 -4 -13 33.1 4.84
3 -4 -13 28.49 4.34
3 -4 -13 34.24 5.01
3 -4 -13 31.53 4.8
3 -4 -13 26.9 4.25
3 -4 -12 62.37 6.96
3 -4 -12 63.83 6.97
3 -4 -12 56.7 6.37
3 -4 -12 62.45 7.06
3 -4 -12 63.02 7.18
3 -4 -11 267.61 15.94
3 -4 -11 279.54 15.4
3 -4 -11 297.89 17.02
3 -4 -11 270.19 16.16
3 -4 -11 295.12 16.14
3 -4 -11 297.08 16.56
3 -4 -11 301.47 17.33
3 -4 -10 606.43 25.57
3 -4 -10 657.48 28.13
3 -4 -10 618.87 26.74
3 -4 -10 588.45 25.73
3 -4 -10 601.64 26.23
3 -4 -10 525.39 34.29
3 -4 -10 643.21 27.57
3 -4 -10 611.79 27.29
3 -4 -9 285.7 15.57
3 -4 -9 305.98 17.34
3 -4 -9 278.97 17.12
3 -4 -9 294.07 16.15
3 -4 -9 255.73 16.51
3 -4 -9 272.44 15.45
3 -4 -9 273.32 22.19
3 -4 -9 274.28 15.99
3 -4 -9 313.26 17.33
3 -4 -8 189 13.89
3 -4 -8 215.14 12.96
3 -4 -8 219.48 14.27
3 -4 -8 224.59 14.5
3 -4 -8 194.09 12.41
3 -4 -8 205.51 13.23
3 -4 -8 207.21 13.02
3 -4 -8 235.55 19.36
3 -4 -8 244.81 14.74
3 -4 -7 3.35 1.3
3 -4 -7 4.1 1.11
3 -4 -7 5.4 2.4
3 -4 -7 5.39 2.07
-3 -4 6 35.83 5.52
3 -4 -6 38.49 6.73
3 -4 -5 10.24 2.85
-3 -4 5 11.19 2.96
3 -4 -5 14.6 3.99
3 -4 -4 181.15 12.64
-3 -4 4 171.99 11.71
3 -4 -4 168.8 13.12
3 -4 -3 435.07 20.82
3 -4 -3 409.68 18.3
-3 -4 3 385.69 18.82
3 -4 -3 407.36 20.46
3 -4 -2 305.91 15.34
-3 -4 2 331.77 16.37
3 -4 -2 327.12 17.68
3 -4 -2 289.39 15.74
3 -4 -1 16.98 3.69
-3 -4 1 13.42 2.84
3 -4 -1 11.54 2.68
-3 -4 0 946.59 34.23
3 -4 0 1008.76 36.89
3 -4 0 1056.92 38.19
3 -4 1 210.43 13.53
-3 -4 -1 198.85 11.73
3 -4 1 215.64 13.92
3 -4 2 349.98 18.72
3 -4 2 350.96 19.07
3 -4 3 818.35 34.42
3 -4 3 847.84 34.02
3 -4 4 60.13 7.84
3 -4 4 69 8
3 -4 5 244.97 17.13
3 -4 5 249.34 16.83
3 -4 6 595.49 26.17
3 -4 6 607.06 25.81
-3 -4 -7 108.18 9.15
3 -4 7 100.02 8.73
-3 -4 -7 96.68 7.84
3 -4 7 96.02 8.46
3 -4 7 79.09 7.59
-3 -4 -7 109.42 9.22
3 -4 7 124.04 12.37
-3 -4 -8 116.3 9.88
-3 -4 -8 128.88 10.31
3 -4 8 132.7 13.53
3 -4 8 103.42 9.09
3 -4 8 90.65 8.31
-3 -4 -8 119.01 8.73
3 -4 8 119.4 9.67
-3 -4 -9 242.16 15.01
-3 -4 -9 254.14 15.35
-3 -4 -9 265.45 15.83
-3 -4 -9 198.82 12.58
3 -4 9 247.04 19.86
-3 -4 -9 244.77 13.57
3 -4 9 248.47 14.84
-3 -4 -10 157.54 11.77
-3 -4 -10 134.26 10.6
-3 -4 -10 150.92 11.52
3 -4 10 132.99 10.62
-3 -4 -10 144.25 10.2
-3 -4 -10 116.08 9.32
-3 -4 -10 141.82 11.26
-3 -4 -11 88.48 8.58
-3 -4 -11 76.73 7.49
-3 -4 -11 84.56 8.37
-3 -4 -11 71.27 7.17
-3 -4 -11 77.71 7.75
3 -4 11 81.94 7.96
-3 -4 -11 86.7 8.43
-3 -4 -12 153.22 11.01
-3 -4 -12 177.49 12.03
-3 -4 -12 152.77 10.65
-3 -4 -12 187.95 12.3
-3 -4 -12 142.49 10.21
-3 -4 -12 148.97 10.75
-3 -4 -13 6.28 2.17
-3 -4 -13 8.75 2.32
-3 -4 -13 12.79 2.79
-3 -4 -13 11.02 2.53
-3 -4 -13 13.54 2.61
-3 -4 -13 10.16 2.51
-3 -4 -14 35.11 3.9
-3 -4 -14 44.6 4.8
-3 -4 -14 35.43 4.01
-3 -4 -14 41.81 4.45
-3 -4 -14 54.57 5.46
-3 -4 -14 45.78 4.69
-3 -4 -15 40.59 3.67
-3 -4 -15 37.27 3.55
-3 -4 -15 34.38 3.36
3 -3 -16 11.02 2.19
3 -3 -16 8.97 1.81
3 -3 -16 9.69 2.19
3 -3 -15 100.62 7.57
3 -3 -15 110.28 8.02
3 -3 -15 111.25 8.24
3 -3 -15 114.23 8.68
3 -3 -15 109.56 8.31
3 -3 -14 360.49 18.2
3 -3 -14 358.11 17.74
3 -3 -14 360.95 17.74
3 -3 -14 321.92 16.61
3 -3 -14 356.81 17.32
3 -3 -13 660.81 27.29
3 -3 -13 612.42 26.56
3 -3 -13 686.96 28.02
3 -3 -13 691.47 28.31
3 -3 -13 699.44 28.86
3 -3 -12 8.08 2.87
3 -3 -12 5.19 2.39
3 -3 -12 4.03 1.93
3 -3 -12 2.75 1.11
3 -3 -12 1.05 0.86
3 -3 -12 3.2 1.91
3 -3 -12 1.51 1.48
3 -3 -12 4.59 1.95
3 -3 -11 85.3 8.47
3 -3 -11 80.2 7.99
3 -3 -11 75.04 7.57
3 -3 -11 79.82 8.03
3 -3 -11 68.78 7.27
3 -3 -11 76.08 7.56
3 -3 -11 77.47 7.71
3 -3 -11 80.11 8.04
3 -3 -11 85.99 8.34
3 -3 -10 120.18 10.13
3 -3 -10 111.02 9.71
3 -3 -10 119.44 9.45
3 -3 -10 100.07 8.99
3 -3 -10 113.42 9.42
3 -3 -10 103.69 13.36
3 -3 -10 116.72 9.64
3 -3 -10 113.66 9.79
3 -3 -10 115.07 9.3
3 -3 -10 122.59 10.04
3 -3 -9 69.83 7.49
3 -3 -9 62.91 7.19
3 -3 -9 61.52 7.16
3 -3 -9 65.06 6.77
3 -3 -9 62.3 6.49
3 -3 -9 72.43 10.13
3 -3 -9 67.08 6.89
3 -3 -9 68.47 7.12
3 -3 -9 65.58 6.96
3 -3 -9 72.49 7.36
3 -3 -8 202.77 13.04
3 -3 -8 231.02 18.07
3 -3 -8 188.13 11.87
3 -3 -8 241.97 14.01
3 -3 -7 1500.68 56.98
-3 -3 6 167.26 11.57
3 -3 -6 178.22 14.24
3 -3 -5 586.77 25.55
-3 -3 5 598.69 24.07
3 -3 -5 639.64 28.67
3 -3 -4 359.38 17.4
-3 -3 4 329.36 15.33
3 -3 -4 320.13 18.01
3 -3 -3 877.23 30.34
-3 -3 3 939.77 31.47
3 -3 -3 950.49 33.66
3 -3 -3 897.78 34.27
3 -3 -2 488.47 19.47
-3 -3 2 524.73 20.21
3 -3 -2 492.91 21.83
-3 -3 1 1308.58 42.12
3 -3 -1 1385.28 43.45
3 -3 -1 1451.94 46.08
-3 -3 0 2423.37 69.85
3 -3 0 2446.12 71.97
3 -3 0 2396.08 74.01
-3 -3 -1 112.46 7.41
3 -3 1 98.61 7.86
3 -3 1 94.67 7.96
3 -3 2 233.84 13.44
3 -3 2 232.86 13.44
3 -3 3 102.9 8.71
3 -3 4 321.09 17.59
3 -3 5 279.8 16.81
3 -3 6 10.7 3.24
3 -3 7 118.28 11.41
-3 -3 -8 340.63 17.78
3 -3 8 428.76 24.23
-3 -3 -8 378.9 19.29
3 -3 8 316.38 17.44
3 -3 8 392.54 18.91
-3 -3 -8 361.42 18.3
-3 -3 -8 433.64 19.97
-3 -3 -9 385.44 19.67
-3 -3 -9 340.85 18.01
3 -3 9 359.88 18.44
-3 -3 -9 372.86 19.04
-3 -3 -9 368.94 18.81
3 -3 9 389.29 24.34
-3 -3 -10 600.79 26.74
-3 -3 -10 624.27 26.51
-3 -3 -10 609.8 26.42
-3 -3 -10 540.59 24.34
-3 -3 -10 633.85 27.37
-3 -3 -10 613.22 26.74
3 -3 10 543.19 25.3
-3 -3 -11 42.11 6.08
-3 -3 -11 52.26 6.41
-3 -3 -11 45.5 6.17
-3 -3 -11 54.87 6.78
-3 -3 -11 46.21 6.07
3 -3 11 49.84 6.32
-3 -3 -11 48.17 6.01
-3 -3 -12 42.69 5.86
-3 -3 -12 35.28 5.15
-3 -3 -12 36.29 5.11
-3 -3 -12 41.18 5.63
-3 -3 -12 40.65 5.72
-3 -3 -12 41.67 5.86
3 -3 12 41.3 5.58
-3 -3 -13 108.21 8.97
-3 -3 -13 99.56 8.39
-3 -3 -13 93.77 8.2
-3 -3 -13 96.08 8.28
-3 -3 -13 102.7 8.87
-3 -3 -13 87.34 7.74
-3 -3 -14 120.86 8.7
-3 -3 -14 128.76 8.94
-3 -3 -14 141.28 9.36
-3 -3 -14 120.55 8.2
-3 -3 -14 121.63 8.72
-3 -3 -14 130.39 9.31
-3 -3 -15 10.97 2.3
-3 -3 -15 7.07 1.64
-3 -3 -15 10.88 2.13
-3 -3 -15 11.17 2.24
-3 -3 -15 12.06 2.33
3 -2 -17 2.36 1.11
3 -2 -17 3.23 1.09
3 -2 -16 3.87 1.55
3 -2 -16 1.32 0.81
3 -2 -16 3.21 1
3 -2 -16 2.5 1.48
3 -2 -15 4.62 1.68
3 -2 -15 2.54 1.09
3 -2 -15 3.79 1.6
3 -2 -15 3.77 1.61
3 -2 -15 3.8 1.68
3 -2 -14 260.76 15.05
3 -2 -14 230.92 13.56
3 -2 -14 254.2 14.38
3 -2 -14 232.75 13.49
3 -2 -14 251.77 14.08
3 -2 -14 260.12 14.83
3 -2 -14 217.08 13.31
3 -2 -13 118.75 9.78
3 -2 -13 110.37 9.03
3 -2 -13 115.7 9.3
3 -2 -13 120.61 9.55
3 -2 -13 118.38 9.6
3 -2 -13 119.91 9.8
3 -2 -13 121.18 10.16
3 -2 -13 132.13 10.18
3 -2 -13 126.36 10.26
3 -2 -12 62.31 7.06
3 -2 -12 54.08 6.3
3 -2 -12 66.69 7.04
3 -2 -12 62.13 6.72
3 -2 -12 56.24 6.64
3 -2 -12 60.08 6.83
3 -2 -12 65.06 7.28
3 -2 -12 61.21 7.23
3 -2 -12 51.76 6.48
3 -2 -11 10.06 2.96
3 -2 -11 13.97 3.36
3 -2 -11 9.76 3.78
3 -2 -11 13.92 3.12
3 -2 -11 8.33 2.51
3 -2 -11 14.01 3.24
3 -2 -11 15.21 3.37
3 -2 -11 14.76 3.4
3 -2 -11 8.42 2.65
3 -2 -11 12.92 3.03
3 -2 -10 532.16 23.6
3 -2 -10 534.28 24.38
3 -2 -10 607.89 25.71
3 -2 -10 529.21 23.55
3 -2 -10 584.02 24.69
3 -2 -10 574.11 32.55
3 -2 -10 623.72 25.64
3 -2 -10 557.43 24.51
3 -2 -10 594.06 25.63
3 -2 -10 538.61 23.76
3 -2 -9 206.79 13.1
3 -2 -9 221.76 13.92
3 -2 -9 225.04 13.13
3 -2 -9 187.55 11.98
3 -2 -9 261.81 14.43
3 -2 -9 233.04 18.35
3 -2 -9 198.84 12.33
3 -2 -9 219.65 13.19
3 -2 -9 224.4 13.94
3 -2 -8 403.5 24.11
3 -2 -7 -0.68 1.7
3 -2 -6 590.76 27.65
3 -2 -5 142.33 9.98
-3 -2 5 149.73 8.77
3 -2 -5 159.35 11.78
3 -2 -4 1287.12 44.16
-3 -2 4 1214.63 38.78
-3 -2 3 867.31 28.19
3 -2 -3 902.06 32.96
3 -2 -3 938.2 32.27
3 -2 -2 442.68 18.4
3 -2 -2 396.26 14.45
-3 -2 2 407.91 14.81
-3 -2 1 1464.64 43.4
3 -2 -1 1506.62 44.6
3 -2 0 1633.37 49.27
3 -2 0 1489.78 46.09
-3 -2 0 1612.19 49.11
-3 -2 0 1544.88 45.38
3 -2 1 981.28 33.68
-3 -2 -1 1057.32 34.09
3 -2 1 969.04 31.93
-3 -2 -1 936.37 29.86
3 -2 2 1017 35.21
-3 -2 -2 976.32 31.67
-3 -2 -3 1655.11 50.29
3 -2 3 1633.19 51.01
-3 -2 -3 1499.46 47.13
-3 -2 -4 64.15 5.49
-3 -2 -4 67.4 6.46
-3 -2 -4 71.35 6.72
-3 -2 -4 72.28 6.32
3 -2 4 64.96 6.76
3 -2 5 948.83 35.08
-3 -2 -5 841.61 32.56
-3 -2 -5 1028.94 34.06
-3 -2 -5 942.74 32.32
-3 -2 -5 843.55 31.47
-3 -2 -6 56.07 6.56
3 -2 6 54.09 6.82
-3 -2 -6 67.52 6.95
-3 -2 -6 55.79 5.97
-3 -2 -7 16.03 3.37
-3 -2 -7 12.08 2.9
3 -2 7 12.11 3.31
-3 -2 -8 206.02 14.21
-3 -2 -8 191.17 12.57
3 -2 8 223.69 16.2
-3 -2 -9 38.07 5.18
-3 -2 -9 51.75 6.27
3 -2 9 40.7 5.51
-3 -2 -9 52.17 6.24
-3 -2 -9 48.77 6.12
3 -2 9 51.35 8
-3 -2 -9 52.18 6.36
-3 -2 -10 194.48 13.01
-3 -2 -10 161.07 11.89
3 -2 10 151.8 11.41
-3 -2 -10 170.18 12.35
3 -2 10 174.49 16.12
-3 -2 -10 169.74 12.28
-3 -2 -10 147.64 11.01
-3 -2 -11 617.85 27.29
-3 -2 -11 574.76 26.67
-3 -2 -11 630.21 27.27
-3 -2 -11 599.61 26.83
-3 -2 -11 615.59 26.77
3 -2 11 567.82 26.15
-3 -2 -11 644.7 27.62
-3 -2 -12 128.5 10.61
-3 -2 -12 148.7 11.17
-3 -2 -12 160.56 11.67
-3 -2 -12 145.4 11.34
-3 -2 -12 151.21 11.45
3 -2 12 138.35 10.84
-3 -2 -12 158.55 11.8
-3 -2 -13 0.64 1.09
-3 -2 -13 0.17 0.83
-3 -2 -13 4.01 1.64
-3 -2 -13 3.68 1.9
-3 -2 -13 3.77 2.05
-3 -2 -13 4.04 1.97
-3 -2 -14 35.36 4.53
-3 -2 -14 47.15 5.6
-3 -2 -14 29.47 4.12
-3 -2 -14 40.98 5.08
-3 -2 -14 43.19 5.21
-3 -2 -14 38.3 4.98
-3 -2 -15 59.84 5.62
-3 -2 -15 57.12 5.43
-3 -2 -15 62.61 5.69
-3 -2 -15 57.36 5.36
-3 -2 -15 39.94 4.2
-3 -2 -16 190.11 9.47
-3 -2 -16 198.19 9.64
-3 -2 -16 196.93 9.61
3 -1 -17 61.26 4.84
3 -1 -17 63.62 5.08
3 -1 -17 64.54 5.04
3 -1 -16 25.68 3.78
3 -1 -16 22.71 3.27
3 -1 -16 20.08 3.01
3 -1 -16 22.41 3.37
3 -1 -16 25.38 3.66
3 -1 -15 58.76 6.25
3 -1 -15 53.86 5.68
3 -1 -15 50.09 5.33
3 -1 -15 53.63 5.8
3 -1 -15 52.9 5.77
3 -1 -15 53.84 5.8
3 -1 -15 59.42 6.22
3 -1 -14 61.82 6.34
3 -1 -14 56.1 6.19
3 -1 -14 71.2 7.09
3 -1 -14 72.04 7.3
3 -1 -14 69.78 6.9
3 -1 -14 66.23 6.89
3 -1 -14 67.64 7.24
3 -1 -14 64.66 6.96
3 -1 -14 70.69 7.23
3 -1 -13 630.44 27.44
3 -1 -13 637.77 27.6
3 -1 -13 662 27.04
3 -1 -13 577.15 25.43
3 -1 -13 619.89 26.36
3 -1 -13 660.97 27.61
3 -1 -13 620.23 26.55
3 -1 -13 696.18 28.31
3 -1 -13 625.79 26.35
3 -1 -12 331.8 17.85
3 -1 -12 317.9 17.21
3 -1 -12 384.93 19.33
3 -1 -12 341.68 17.97
3 -1 -12 355.51 19
3 -1 -12 329.4 17.64
3 -1 -12 359.45 18.88
3 -1 -12 362.35 18.89
3 -1 -12 386.02 18.79
3 -1 -11 51.66 6.33
3 -1 -11 53.86 6.36
3 -1 -11 56.29 6.17
3 -1 -11 54.72 6.24
3 -1 -11 52.79 6.2
3 -1 -11 57.19 6.34
3 -1 -11 65.12 6.97
3 -1 -11 55.84 9.69
3 -1 -11 58.25 6.77
3 -1 -11 60.18 6.84
3 -1 -10 240.83 14.3
3 -1 -10 245.61 14.25
3 -1 -10 185.72 12.12
3 -1 -10 257.36 14.67
3 -1 -10 243.03 14.1
3 -1 -10 228.28 18.94
3 -1 -10 207.31 12.85
3 -1 -10 211.99 12.9
3 -1 -10 231.41 13.44
3 -1 -10 210.68 16.33
3 -1 -10 247.93 14.65
3 -1 -9 117.82 12.6
3 -1 -9 106.79 10.64
3 -1 -8 49.9 6.9
3 -1 -8 45.59 7.29
3 -1 -7 341.81 18.44
3 -1 -7 310.23 19.22
3 -1 -6 107.18 9.98
3 -1 -6 131.58 9.85
3 -1 -5 444.11 19.43
3 -1 -5 439.76 16.97
3 -1 -5 466.58 20.68
3 -1 -5 493.59 22.17
3 -1 -4 608.51 22.13
3 -1 -4 541.94 18.12
3 -1 -4 593.16 23.71
3 -1 -3 2761.15 66.69
3 -1 -3 2211.93 60.08
-3 -1 3 2572.65 64.87
3 -1 -2 394.49 15.66
-3 -1 2 383.87 14.65
3 -1 -1 796.47 24.34
-3 -1 1 734.33 22.5
-3 -1 0 1322.33 38.57
-3 -1 0 1251.21 38.45
-3 -1 0 1268.27 38.22
3 -1 0 1335.78 40.05
-3 -1 -1 3687.97 106.14
-3 -1 -1 3892.53 106.86
-3 -1 -1 3709.99 107.32
-3 -1 -1 4049.21 106.75
3 -1 1 3856.9 108
-3 -1 -2 509.38 19.71
3 -1 2 484.13 20.01
-3 -1 -2 534.89 19.07
-3 -1 -2 471.99 18.8
-3 -1 -2 516.04 19.42
-3 -1 -3 97.28 6.74
-3 -1 -3 84.36 6.71
-3 -1 -3 102.02 7.46
3 -1 3 99.14 7.65
-3 -1 -3 100.78 7.11
-3 -1 -4 647.81 25.28
-3 -1 -4 638.72 25.22
-3 -1 -4 723.08 25.27
-3 -1 -4 669.94 24.09
3 -1 4 677.29 26.5
-3 -1 -5 549.8 22.57
-3 -1 -5 524.58 20.4
-3 -1 -5 534.37 21.32
-3 -1 -5 491.28 21.74
3 -1 5 509.8 22.85
-3 -1 -6 290.05 15.38
-3 -1 -6 272.63 15.48
-3 -1 -6 279.15 15.58
3 -1 6 283.51 16.31
-3 -1 -6 271.17 13.47
3 -1 7 384.4 20.52
-3 -1 -7 348.19 18.66
-3 -1 -7 327.57 18.6
-3 -1 -7 353.91 17.85
-3 -1 -8 501.86 24.63
3 -1 8 512.33 26.45
-3 -1 -8 480 24.63
-3 -1 -9 11.48 2.84
-3 -1 -9 12.81 3.81
3 -1 9 9.97 3.14
-3 -1 -9 13.42 3.05
-3 -1 -9 16.29 3.69
3 -1 9 10.96 2.84
-3 -1 -9 13.18 3.43
-3 -1 -9 11.6 3.59
3 -1 10 5.76 3.52
3 -1 10 0.87 1.25
-3 -1 -10 3.83 2.27
-3 -1 -10 4.99 1.79
-3 -1 -10 4.2 2.12
-3 -1 -10 2.69 1.82
-3 -1 -10 4.97 1.88
-3 -1 -10 4.22 1.92
-3 -1 -11 -0.77 0.95
-3 -1 -11 1.99 1.47
3 -1 11 -0.81 1.34
-3 -1 -11 -0.33 1.16
-3 -1 -11 -0.57 1.41
-3 -1 -11 0.26 1.14
-3 -1 -11 2.25 1.28
-3 -1 -12 132.75 10.81
-3 -1 -12 163.59 12.1
-3 -1 -12 176.26 12.47
-3 -1 -12 150.27 11.48
-3 -1 -12 158.07 11.71
-3 -1 -12 159.76 11.53
-3 -1 -12 147.72 11.05
-3 -1 -13 62.19 6.67
-3 -1 -13 80.68 7.99
-3 -1 -13 67.27 7.16
-3 -1 -13 71.99 7.15
-3 -1 -13 69.08 7.01
-3 -1 -13 70.66 7.33
-3 -1 -13 77.84 7.86
-3 -1 -14 283.85 15.6
-3 -1 -14 306.53 15.85
-3 -1 -14 281.21 14.53
-3 -1 -14 305.97 15.97
-3 -1 -14 277.31 14.43
-3 -1 -14 272.59 14.94
-3 -1 -15 59.75 5.78
-3 -1 -15 48.6 5.2
-3 -1 -15 44.59 4.58
-3 -1 -15 53.19 5.46
-3 -1 -15 51.44 5.07
-3 -1 -16 4.87 1.39
-3 -1 -16 4.07 1.41
-3 -1 -16 1.42 0.66
3 0 -17 2.81 1.04
3 0 -17 0.61 0.49
3 0 -17 1.6 0.57
3 0 -17 2.88 0.99
3 0 -17 2.84 1.29
3 0 -16 5.63 1.5
3 0 -16 7.11 1.73
3 0 -16 3.65 1.3
3 0 -16 3.79 1.38
3 0 -16 3.27 1.38
3 0 -16 3.12 1.24
3 0 -15 2.77 1.36
3 0 -15 1.62 1.11
3 0 -15 4.46 1.63
3 0 -15 4.64 1.82
3 0 -15 4.63 1.9
3 0 -15 5.15 1.85
3 0 -15 0.6 1.02
3 0 -14 13.65 3.05
3 0 -14 15.97 3.66
3 0 -14 20.38 3.74
3 0 -14 11.9 2.78
3 0 -14 16.03 3.42
3 0 -14 15.47 3.31
3 0 -14 11.26 2.78
3 0 -14 12.57 3.19
3 0 -13 0.73 1.7
3 0 -13 -0.31 1.64
3 0 -13 1.29 1.28
3 0 -13 1.08 1.44
3 0 -13 0.47 1.63
3 0 -13 -1.23 1.31
3 0 -13 0.56 1.4
3 0 -13 0.26 1.36
3 0 -12 38 5.3
3 0 -12 31.71 5.16
3 0 -12 36.46 5.49
3 0 -12 40.21 5.68
3 0 -12 41.93 5.46
3 0 -12 41.5 5.59
3 0 -12 38.82 5.54
3 0 -12 37.98 5.46
3 0 -11 26.61 5.77
3 0 -11 27.63 4.56
3 0 -11 21.81 4.09
3 0 -11 17.83 3.67
3 0 -11 22.62 4.08
3 0 -11 23.52 4.06
3 0 -11 30.93 4.75
3 0 -11 25.99 4.28
3 0 -11 19.3 5.64
3 0 -11 21.95 4.02
3 0 -11 29.65 4.92
3 0 -10 1.63 2.2
3 0 -10 8.34 2.29
3 0 -10 5.41 1.84
3 0 -10 3.5 1.61
3 0 -10 2.48 1.17
3 0 -10 4.83 2.23
3 0 -10 5.25 1.94
3 0 -10 2.4 1.28
3 0 -10 2.93 1.61
3 0 -10 3.18 2.01
3 0 -10 4.49 1.91
3 0 -10 5.37 1.83
3 0 -9 271.79 16.5
3 0 -9 299.25 20.74
3 0 -9 261.72 17.26
3 0 -8 842.57 34.01
3 0 -8 806.38 32.2
3 0 -8 858.42 37.57
3 0 -7 44.85 5.3
3 0 -7 58.27 7.63
3 0 -7 54.21 6.44
3 0 -6 4.74 2.1
3 0 -6 1.61 0.95
3 0 -6 2.11 1.5
3 0 -5 8.62 2.35
3 0 -5 7.73 1.91
3 0 -5 8.5 2.45
3 0 -4 130.53 8.68
3 0 -4 151.1 10.37
3 0 -4 122.54 7.48
-3 0 4 141.03 7.91
3 0 -4 158.83 9.52
3 0 -3 0.63 1.11
3 0 -3 0.46 0.62
-3 0 3 1.69 0.8
3 0 -3 -0.1 0.4
3 0 -2 465.81 17.92
3 0 -2 427.72 16.61
-3 0 2 444.88 16.01
3 0 -1 303.47 13.45
-3 0 1 273.47 11.96
-3 0 1 311.12 12.07
-3 0 0 266.66 11.53
3 0 0 256.72 12.02
-3 0 0 253.6 11.69
-3 0 0 283.31 11.4
-3 0 0 237.49 11.56
-3 0 -1 58.82 5.01
-3 0 -1 56.16 4.66
-3 0 -1 64.09 4.77
-3 0 -1 62.04 5.25
3 0 1 59.89 5.15
-3 0 -2 470.73 18.14
-3 0 -2 491.06 19.1
-3 0 -2 508.98 17.89
-3 0 -2 449.71 18.51
3 0 2 443.31 18.6
-3 0 -3 167.96 9.42
-3 0 -3 186.02 9.55
-3 0 -3 156.4 9.74
3 0 3 167.42 10.1
-3 0 -3 180.29 10.38
-3 0 -4 1769.34 55.75
-3 0 -4 1921.02 57.89
3 0 4 1749.4 57.33
-3 0 -4 1749.81 57.18
-3 0 -5 1660.09 53.43
-3 0 -5 1608.22 55.16
3 0 5 1645.35 55.47
-3 0 -5 1668.2 55.2
-3 0 -6 0.03 0.99
3 0 6 2.17 1.53
-3 0 -6 -1.05 1.58
-3 0 -6 0.49 1.36
-3 0 -6 0.18 1.6
-3 0 -6 1.37 1.18
-3 0 -7 130.48 10.05
-3 0 -7 169.12 12.43
-3 0 -7 136.42 9.49
-3 0 -7 170.35 11.64
-3 0 -7 160.83 12.35
3 0 7 164.9 12.8
-3 0 -8 154.38 11.82
-3 0 -8 150.28 12.51
-3 0 -8 134.29 12.06
3 0 8 167.76 13.77
-3 0 -9 104.7 8.94
-3 0 -9 121.48 9.83
-3 0 -9 135.33 12.51
-3 0 -9 131.05 9.98
-3 0 -9 128.32 10.02
-3 0 -9 122.54 9.8
-3 0 -9 114.61 9.56
-3 0 -9 137.03 12.76
3 0 9 139.17 13.47
-3 0 -10 404.5 20.24
-3 0 -10 373.57 19.39
-3 0 -10 417.87 20.52
-3 0 -10 370.86 23.69
-3 0 -10 444.21 21
-3 0 -10 423.42 20.66
-3 0 -10 361.13 18.63
3 0 10 462.81 27.52
-3 0 -10 435.4 20.86
-3 0 -10 382.09 24.3
-3 0 -11 1.81 2.05
-3 0 -11 0.57 0.98
-3 0 -11 1.37 0.9
-3 0 -11 1.33 1.16
-3 0 -11 0.04 1.37
-3 0 -11 0.45 1.28
-3 0 -11 -0.87 1.51
-3 0 -11 -0.24 0.87
-3 0 -12 131.21 10.74
-3 0 -12 147.16 11.25
-3 0 -12 146.89 11.04
-3 0 -12 143.52 11.09
-3 0 -12 152.43 11.1
-3 0 -12 118.28 9.98
-3 0 -12 143.1 11.17
-3 0 -12 130.21 9.93
-3 0 -13 8.26 2.56
-3 0 -13 4.14 1.98
-3 0 -13 2.98 1.85
-3 0 -13 3.41 1.44
-3 0 -13 4.1 1.79
-3 0 -13 4.91 2.09
-3 0 -13 3.11 1.61
-3 0 -14 142.02 10.3
-3 0 -14 120.05 8.95
-3 0 -14 129.11 9.16
-3 0 -14 139.82 9.99
-3 0 -14 141.27 10.19
-3 0 -14 125.23 9.41
-3 0 -14 140.65 10.15
-3 0 -15 56.8 5.46
-3 0 -15 65.08 6.1
-3 0 -15 67.77 6.22
-3 0 -15 71.31 6.39
-3 0 -15 62.24 5.48
-3 0 -15 65.09 5.92
-3 0 -16 18.15 2.71
-3 0 -16 18.25 2.73
-3 0 -16 12.95 2
-3 0 -16 19.25 2.81
-3 0 -16 13.73 2.19
3 1 -17 58.09 4.6
3 1 -17 67.35 5.14
3 1 -17 59.09 4.76
3 1 -17 56.1 4.64
3 1 -16 22.37 3.39
3 1 -16 23.29 3.17
3 1 -16 22.63 3.56
3 1 -16 22.85 3.3
3 1 -16 24.94 3.55
3 1 -16 24.18 3.53
3 1 -16 25.85 3.66
3 1 -15 57.9 6.07
3 1 -15 57.8 6.26
3 1 -15 54.21 5.63
3 1 -15 57.14 6.12
3 1 -15 51.76 5.6
3 1 -15 55.56 6.1
3 1 -15 60.39 6.2
3 1 -14 65.08 7.03
3 1 -14 66.99 6.9
3 1 -14 54.08 6.21
3 1 -14 70.65 7.05
3 1 -14 65.14 6.9
3 1 -14 66.24 7.13
3 1 -14 73.54 7.28
3 1 -14 65.19 7.05
3 1 -13 652.48 27.39
3 1 -13 639.95 27.92
3 1 -13 624.03 27.4
3 1 -13 639.17 27.38
3 1 -13 639.72 27.35
3 1 -13 657.8 27.13
3 1 -13 699.82 28.85
3 1 -13 672.9 27.97
3 1 -12 360.7 19.25
3 1 -12 398.12 19.83
3 1 -12 369.83 19.13
3 1 -12 360.54 19.35
3 1 -12 414.7 19.63
3 1 -12 397.86 19.83
3 1 -12 356.51 18.68
3 1 -12 382.2 19.92
3 1 -11 51.54 8.28
3 1 -11 59.46 6.83
3 1 -11 53.45 9.27
3 1 -11 61.91 6.99
3 1 -11 62.07 6.75
3 1 -11 62.15 6.83
3 1 -11 64.42 6.96
3 1 -11 60.54 6.64
3 1 -11 59.22 6.94
3 1 -10 237.82 13.56
3 1 -10 225.2 13.8
3 1 -10 268.05 14.69
3 1 -10 198.32 12.96
3 1 -10 216.62 13.14
3 1 -10 220.44 16.27
3 1 -10 216.85 13.61
3 1 -10 243.26 14.01
3 1 -10 229.67 13.67
3 1 -10 217.72 18.44
3 1 -10 252.46 14.52
3 1 -10 226.54 16.97
3 1 -9 108.27 10.79
3 1 -9 114.24 10.5
3 1 -9 115.67 12.29
3 1 -9 105.08 10.39
3 1 -8 51.24 6.5
3 1 -8 47.95 7.49
3 1 -8 51.62 6.77
3 1 -7 284.82 15.97
3 1 -7 301.32 16.54
3 1 -7 290.61 18.19
3 1 -6 108.3 8.44
3 1 -6 105.85 9.59
3 1 -6 107.19 8.63
3 1 -5 474 20.09
-3 1 5 512.12 17.9
3 1 -5 476.89 22.15
3 1 -5 487.56 20.74
-3 1 4 619.38 20.18
3 1 -4 634.18 23.43
3 1 -3 2392.21 76.7
3 1 -3 2578.14 77.55
-3 1 3 2880.55 75.18
3 1 -3 2839.98 78.24
3 1 -2 385.46 15.94
-3 1 2 386.75 15.01
3 1 -2 412.23 17.05
3 1 -1 791.61 26.52
-3 1 1 788.01 26.56
-3 1 1 810.22 25.98
-3 1 1 771.82 25.99
-3 1 0 1254.32 41.56
-3 1 0 1411.57 41.83
-3 1 0 1242.02 40.47
-3 1 0 1440.91 41.31
3 1 0 1352.26 41.01
-3 1 -1 4155.68 109.14
-3 1 -1 3824.69 108.91
-3 1 -1 3585.79 107
3 1 1 3725.91 107.21
-3 1 -1 4227.22 108.46
-3 1 -2 519.15 19.18
-3 1 -2 514.62 19.94
-3 1 -2 481.66 19.78
-3 1 -2 459.13 18.4
3 1 2 472.54 18.58
-3 1 -3 99.42 7.54
-3 1 -3 83.57 6.59
3 1 3 102.22 7.32
-3 1 -3 95.72 7.56
-3 1 -3 101.97 7.21
-3 1 -4 674.42 24.99
-3 1 -4 663.77 26.1
-3 1 -4 651.1 26.17
-3 1 -4 647.06 24.57
3 1 4 645.01 25.1
-3 1 -5 526.12 23.24
-3 1 -5 554.38 22.17
-3 1 -5 524.42 23.42
-3 1 -5 526.07 21.95
3 1 5 515.4 22.59
-3 1 -6 259.16 15.48
3 1 6 283.05 16.23
-3 1 -6 291 16.56
-3 1 -6 282.59 16.41
-3 1 -6 317.23 16.44
-3 1 -6 289.33 15.81
-3 1 -7 320.92 18.24
-3 1 -7 370.84 20.19
-3 1 -7 393.87 19.29
-3 1 -7 349.69 18.72
-3 1 -7 363.71 20.1
3 1 7 392.65 20.93
-3 1 -8 419.49 22.62
-3 1 -8 489.45 25.3
-3 1 -8 516.12 25.64
3 1 8 552.81 27.21
-3 1 -8 461.71 23.29
-3 1 -9 11.59 3.14
3 1 9 10.54 3.88
-3 1 -9 10.53 2.77
-3 1 -9 10.13 3.37
-3 1 -9 12.73 3.1
-3 1 -9 13.67 3.17
-3 1 -9 10.81 2.96
-3 1 -9 11.55 3.59
-3 1 -9 10.44 2.76
-3 1 -9 7.93 2.26
-3 1 -9 13.82 3.88
-3 1 -10 4.35 1.53
-3 1 -10 5.14 1.8
3 1 10 1.81 1.99
-3 1 -10 5.08 1.67
-3 1 -10 12.76 4.04
-3 1 -10 3.43 1.84
-3 1 -10 3.32 1.65
-3 1 -10 3.93 1.92
-3 1 -10 4.28 2.37
-3 1 -10 8.73 3.8
-3 1 -11 2.25 1.56
-3 1 -11 3 1.93
-3 1 -11 0.07 0.97
-3 1 -11 1.61 1.9
-3 1 -11 1.98 1.35
-3 1 -11 1.16 1.27
-3 1 -11 -0.35 1.4
-3 1 -11 -0.26 1.97
-3 1 -12 159.86 11.79
-3 1 -12 164.83 11.83
-3 1 -12 132.84 10.45
-3 1 -12 161.46 11.73
-3 1 -12 165.48 12.07
-3 1 -12 160.77 11.76
-3 1 -12 151.94 11.12
-3 1 -12 145.91 10.63
-3 1 -13 61.99 6.92
-3 1 -13 74.25 7.62
-3 1 -13 70.04 7.06
-3 1 -13 67.74 7.23
-3 1 -13 67.67 6.95
-3 1 -13 60.13 6.34
-3 1 -13 74.45 7.68
-3 1 -13 81.59 7.98
-3 1 -13 69.83 6.94
-3 1 -14 285.99 15.42
-3 1 -14 292.36 15.48
-3 1 -14 288.59 15.52
-3 1 -14 262 14.11
-3 1 -14 291.55 15.51
-3 1 -14 295.3 15.68
-3 1 -15 54.27 5.5
-3 1 -15 55.41 5.54
-3 1 -15 57.23 5.69
-3 1 -15 53.3 5.13
-3 1 -15 53.53 5.5
-3 1 -15 60.78 5.9
-3 1 -16 1.24 0.67
-3 1 -16 2.21 0.96
-3 1 -16 3.69 1.25
-3 1 -16 1.7 0.73
-3 1 -16 4.92 1.46
-3 1 -16 3 1.17
3 2 -17 4.37 1.15
3 2 -17 4.66 1.45
3 2 -17 2.58 0.97
3 2 -17 4.51 1.26
3 2 -17 3.14 1.09
3 2 -16 0.51 0.65
3 2 -16 3.53 1.35
3 2 -16 3.21 1.28
3 2 -16 1.33 0.95
3 2 -16 1.47 0.96
3 2 -16 2.7 1.18
3 2 -15 2.31 1.33
3 2 -15 2.88 1.19
3 2 -15 3.69 1.52
3 2 -15 4.69 1.62
3 2 -15 2.51 1.42
3 2 -15 6.17 2.17
3 2 -15 4.22 1.35
3 2 -15 4.14 1.63
3 2 -14 250.99 14.8
3 2 -14 235.43 13.66
3 2 -14 217.47 13.56
3 2 -14 252.28 14.23
3 2 -14 225.76 13.11
3 2 -14 247.39 14.43
3 2 -14 251.17 14.36
3 2 -14 238.15 14.1
3 2 -13 129.55 10.25
3 2 -13 121.39 10.25
3 2 -13 143.04 10.56
3 2 -13 129.87 9.98
3 2 -13 132.26 10.37
3 2 -13 114.1 9.86
3 2 -13 124.56 9.92
3 2 -13 142.87 10.82
3 2 -12 59.93 7.06
3 2 -12 62.17 7
3 2 -12 61.96 7.02
3 2 -12 58.1 6.44
3 2 -12 61.9 7.14
3 2 -12 66.98 7.17
3 2 -12 61.84 7.07
3 2 -12 58.33 6.8
3 2 -11 5.29 2.07
3 2 -11 14.76 3.26
3 2 -11 13.1 3.35
3 2 -11 14.45 3.1
3 2 -11 14.12 3.16
3 2 -11 11.71 4.39
3 2 -11 11.91 3.26
3 2 -11 10.57 3.66
3 2 -11 11.37 3
3 2 -11 14.16 3.45
3 2 -11 12.85 2.94
3 2 -10 637.54 25.54
3 2 -10 538.82 29.99
3 2 -10 608.23 25.11
3 2 -10 510.09 28.66
3 2 -10 548.37 29.34
3 2 -10 574.62 24.31
3 2 -10 617.25 25.6
3 2 -10 552.57 24.78
3 2 -10 519.04 30.47
3 2 -10 558.55 24.57
3 2 -10 586.12 24.48
3 2 -10 573.21 24.55
3 2 -9 261.19 13.95
3 2 -9 222.81 17.02
3 2 -9 246.83 17.23
3 2 -9 229.5 13.23
3 2 -9 211.63 15.87
3 2 -9 237.77 13.74
3 2 -9 217.65 12.88
3 2 -9 220.67 17.67
3 2 -9 243.73 13.71
3 2 -8 401.03 21.71
3 2 -8 370.97 22.67
3 2 -8 372.35 20.74
3 2 -7 1.07 1.24
3 2 -7 0.88 1.45
3 2 -7 0.4 1.43
3 2 -6 616.18 25.66
3 2 -6 558.39 26.13
3 2 -6 570.33 25.01
3 2 -5 154.16 10.46
3 2 -5 144.75 11.02
3 2 -5 168.24 10.89
-3 2 4 1544.24 42.97
3 2 -4 1417.06 46.45
-3 2 3 914.52 29.88
-3 2 3 943.97 29.5
3 2 -3 867.62 32.35
3 2 -3 976.32 32.41
-3 2 2 451.05 15.92
-3 2 2 430.54 16.46
3 2 -2 440.94 17.62
-3 2 1 1687.97 48.41
-3 2 1 1696.77 49.04
-3 2 1 1689.47 48.83
3 2 -1 1671.41 50.29
3 2 0 1566.11 48.04
-3 2 0 1800.8 50.93
-3 2 0 1673.17 50.33
-3 2 0 1614.47 51.55
-3 2 0 1763.9 51.49
-3 2 -1 1074.23 35.02
-3 2 -1 1094.75 34.27
-3 2 -1 1067.05 34.28
-3 2 -1 1019.1 35.29
3 2 1 966.86 31.66
-3 2 -2 1011.92 35.5
-3 2 -2 1048.24 35.53
-3 2 -2 1113.61 34.78
-3 2 -2 1070.96 34.82
3 2 2 957.27 31.91
3 2 3 1545.93 49.37
-3 2 -3 1659.28 52.81
-3 2 -3 1829.48 52.16
-3 2 -3 1733.88 52.19
-3 2 -3 1531.85 52.59
-3 2 -4 62.13 6.64
-3 2 -4 78.06 7.33
-3 2 -4 64.68 6.19
-3 2 -4 69.79 6.6
-3 2 -4 60.97 5.97
3 2 4 58.09 5.48
-3 2 -5 966.99 36.18
-3 2 -5 975.5 34.58
-3 2 -5 888.35 34.44
-3 2 -5 965.93 35.3
-3 2 -5 951.47 36.21
3 2 5 970.62 34.16
-3 2 -6 55.76 6.98
-3 2 -6 57.69 7.13
-3 2 -6 58.04 6.56
-3 2 -6 52.02 6.45
-3 2 -6 57.64 6.74
-3 2 -6 61.81 7.33
3 2 6 59.46 6.74
-3 2 -7 11.4 2.98
3 2 7 15.85 3.84
-3 2 -7 12.03 3.32
-3 2 -7 13.83 3.63
-3 2 -7 12.05 3.39
-3 2 -7 10.12 2.98
-3 2 -8 204.4 15.18
-3 2 -8 213.22 13.71
-3 2 -8 193.14 12.63
-3 2 -8 211.71 15.77
-3 2 -8 199.91 12.45
-3 2 -8 190.75 14.21
3 2 8 239.47 16.6
-3 2 -8 205.7 12.89
-3 2 -8 214.51 13.22
-3 2 -8 206.69 15.62
-3 2 -9 44.55 5.71
-3 2 -9 39.39 6.56
-3 2 -9 37.21 6.27
-3 2 -9 54.15 6.61
-3 2 -9 43.92 5.83
-3 2 -9 53.47 8.07
-3 2 -9 57.8 6.63
-3 2 -9 51.65 7.91
-3 2 -9 52.58 6.2
-3 2 -9 40.26 5.3
-3 2 -9 42.88 5.52
-3 2 -10 164.46 11.73
-3 2 -10 168 11.91
-3 2 -10 153.13 14.77
-3 2 -10 147.52 14.59
-3 2 -10 127.08 12.97
-3 2 -10 164.71 11.61
-3 2 -10 136.64 10.45
-3 2 -10 174.24 12.12
-3 2 -10 152.88 11.88
-3 2 -10 153.03 11.2
-3 2 -11 572.57 25.74
-3 2 -11 607.36 26.22
-3 2 -11 606.85 27.26
-3 2 -11 599.13 26.46
-3 2 -11 649.34 26.94
-3 2 -11 592.96 26.34
-3 2 -11 601.12 26.59
-3 2 -11 582.43 25.48
-3 2 -12 150.78 11.64
-3 2 -12 155.11 11.46
-3 2 -12 146.19 11.16
-3 2 -12 155.71 11.63
-3 2 -12 141.59 10.82
-3 2 -12 151.53 11.32
-3 2 -12 147.38 10.92
-3 2 -12 145.53 10.76
-3 2 -13 2.34 1.36
-3 2 -13 2.71 1.08
-3 2 -13 -1.6 1.03
-3 2 -13 2.08 1.43
-3 2 -13 1.69 1.54
-3 2 -13 1.56 1.28
-3 2 -13 1.25 0.94
-3 2 -13 2.58 1.14
-3 2 -14 36.54 4.9
-3 2 -14 39.39 5.15
-3 2 -14 36.85 4.85
-3 2 -14 43.4 5.22
-3 2 -14 38.79 4.75
-3 2 -14 39.44 4.74
-3 2 -14 43.28 5.22
-3 2 -14 32.4 4.14
-3 2 -14 40.49 4.89
-3 2 -15 54.55 5.41
-3 2 -15 54.85 5.36
-3 2 -15 53.36 4.94
-3 2 -15 59.26 5.53
-3 2 -15 52 5.17
-3 2 -15 62.27 5.64
-3 2 -15 43.61 4.45
-3 2 -16 178.19 9.12
-3 2 -16 178.32 9.19
-3 2 -16 202.16 9.5
-3 2 -16 190.38 9.3
-3 2 -16 200.04 9.58
3 3 -16 9.57 2.03
3 3 -16 7.78 1.56
3 3 -16 8.57 1.89
3 3 -16 10.42 1.86
3 3 -16 8.13 1.72
3 3 -16 15.96 2.66
3 3 -16 8.87 2.04
3 3 -16 11.3 2.18
3 3 -15 100.36 8.06
3 3 -15 115.35 8
3 3 -15 108.43 7.69
3 3 -15 101.8 7.98
3 3 -15 111.01 8.05
3 3 -15 115.25 8.36
3 3 -15 122.99 8.75
3 3 -15 115.43 8.37
3 3 -14 349.36 17.83
3 3 -14 354.67 17.13
3 3 -14 350.33 17.73
3 3 -14 332.79 16.93
3 3 -14 362.87 17.71
3 3 -14 354.73 16.86
3 3 -14 377.85 18.19
3 3 -14 348.81 17.62
3 3 -13 686.42 28.73
3 3 -13 728.89 28.36
3 3 -13 630.2 26.77
3 3 -13 686.12 28.71
3 3 -13 651.16 27.58
3 3 -13 729.28 28.8
3 3 -13 733.72 29.01
3 3 -13 689.68 28.41
3 3 -12 1.93 1.11
3 3 -12 3.64 2.56
3 3 -12 5.28 2.28
3 3 -12 4.88 1.7
3 3 -12 3.55 1.7
3 3 -12 2.38 1.51
3 3 -12 2.43 1.3
3 3 -12 3.37 1.83
3 3 -11 77.91 7.98
3 3 -11 83.83 7.83
3 3 -11 71.91 7.39
3 3 -11 81.83 8.22
3 3 -11 82.35 7.93
3 3 -11 74 7.67
3 3 -11 75.42 7.61
3 3 -11 87.92 8.15
3 3 -10 111.21 9.6
3 3 -10 134.5 10.08
3 3 -10 110.63 12.8
3 3 -10 127.45 9.79
3 3 -10 121.67 9.92
3 3 -10 141.73 10.66
3 3 -10 111.19 12.41
3 3 -10 112.25 9.39
3 3 -10 123.23 9.75
3 3 -10 111.38 12.56
3 3 -10 129.83 10.14
3 3 -10 121.74 9.55
3 3 -9 76.24 7.02
3 3 -9 60 8.97
3 3 -9 66.16 6.9
3 3 -9 64.09 8.82
3 3 -9 70.75 7
3 3 -9 73.67 7.22
3 3 -9 71.28 9.26
3 3 -9 60.41 6.32
3 3 -8 228.44 16.51
3 3 -8 225.89 12.49
3 3 -8 219.27 13.1
3 3 -8 206.68 16.31
3 3 -8 232.07 16.47
3 3 -7 1393.79 50.5
3 3 -7 1331.69 50.74
3 3 -7 1389.61 50.48
3 3 -6 164.85 12.22
3 3 -6 160.78 12.38
3 3 -6 179.13 12.88
3 3 -5 598.05 25.73
3 3 -5 562.89 25.47
3 3 -5 637.88 26.56
-3 3 4 278.61 13.02
3 3 -4 292.59 16.23
3 3 -4 340.4 16.91
3 3 -4 318.28 16.37
-3 3 3 829.68 27.84
-3 3 3 908.22 30.2
3 3 -3 902.93 32.97
3 3 -3 866.08 31.71
-3 3 2 481.89 19.34
-3 3 2 546.93 20.85
-3 3 2 525.13 19.61
3 3 -2 522.02 21.5
-3 3 1 1325.15 42.16
-3 3 1 1299.05 45.1
-3 3 1 1293 42.12
-3 3 1 1420.79 43.18
3 3 -1 1355.77 44
-3 3 0 2546.65 73.12
-3 3 0 2370.23 73.3
-3 3 0 2452.36 72.81
-3 3 0 2535.47 75.53
-3 3 -1 91.15 7.34
-3 3 -1 98.02 7.86
-3 3 -1 95.08 7.49
-3 3 -1 102.64 8.4
-3 3 -2 224.92 12.29
-3 3 -2 242.18 13.62
-3 3 -2 228.81 12.75
-3 3 -2 197.72 10.32
-3 3 -2 238.14 13.74
-3 3 -3 93.33 8.35
-3 3 -3 89.11 7.55
-3 3 -3 105.76 8.42
-3 3 -3 85.14 6.79
-3 3 -3 89.98 8.48
-3 3 -4 327.13 17.79
-3 3 -4 311.24 16.09
-3 3 -4 313.09 16.7
-3 3 -4 296.18 15.41
-3 3 -4 338.88 18.28
-3 3 -5 262.51 15.22
-3 3 -5 286.72 17.02
-3 3 -5 267.37 15.05
-3 3 -5 277.63 16.06
-3 3 -5 279.56 17.09
-3 3 -5 278.29 17.16
-3 3 -6 12.52 3.54
-3 3 -6 11.56 3.23
-3 3 -6 12.99 3.48
-3 3 -6 8.88 2.6
-3 3 -6 5.59 1.17
-3 3 -6 10.67 3.18
-3 3 -7 101.47 10.53
-3 3 -7 80.14 9.32
-3 3 -7 89.57 8.65
-3 3 -7 72.32 8.77
-3 3 -7 84.37 9.11
-3 3 -7 103.61 10.63
-3 3 -8 416.31 24.4
-3 3 -8 409.88 20.29
-3 3 -8 418.34 24.18
-3 3 -8 377.22 21.2
-3 3 -8 481.85 20.96
-3 3 -8 394.86 22.56
-3 3 -8 380.78 22.79
-3 3 -8 425.61 20.27
-3 3 -8 431.92 20.64
-3 3 -8 403.31 24.19
-3 3 -9 364.6 18.95
-3 3 -9 376.32 19.69
-3 3 -9 367.11 19.24
-3 3 -9 388.67 24.11
-3 3 -9 412.88 19.39
-3 3 -9 399.26 19.8
-3 3 -9 344.54 23.22
-3 3 -9 321.97 21.2
-3 3 -9 390.07 19.5
-3 3 -9 341.86 22.86
-3 3 -10 606.63 26.22
-3 3 -10 590.75 25.89
-3 3 -10 624.03 27.04
-3 3 -10 601.44 26.26
-3 3 -10 536.07 31.33
-3 3 -10 640.38 26.48
-3 3 -10 669.06 26.46
-3 3 -11 50.43 6.52
-3 3 -11 49.31 6.47
-3 3 -11 53.46 6.43
-3 3 -11 48.7 6.25
-3 3 -11 51.39 6.42
-3 3 -11 48.47 6.07
-3 3 -11 44.55 5.99
-3 3 -12 36.42 5.11
-3 3 -12 33.31 5
-3 3 -12 42.74 5.85
-3 3 -12 38.08 5.37
-3 3 -12 37.12 5.15
-3 3 -12 34.45 5.23
-3 3 -12 32.41 4.87
-3 3 -12 39.94 5.4
-3 3 -13 105.15 8.86
-3 3 -13 90.61 8.21
-3 3 -13 102.06 8.46
-3 3 -13 112 9.04
-3 3 -13 113.1 9.14
-3 3 -13 98.92 8.4
-3 3 -13 96.45 8.05
-3 3 -13 95.24 8.13
-3 3 -14 136.09 9.11
-3 3 -14 144.43 9.82
-3 3 -14 126.86 9.07
-3 3 -14 136.41 9.45
-3 3 -14 124.02 9
-3 3 -14 134.9 9.37
-3 3 -14 128.7 8.78
-3 3 -14 127.95 8.65
-3 3 -14 134.96 9.12
-3 3 -15 10.91 2.04
-3 3 -15 9.46 2.14
-3 3 -15 12.1 2.18
-3 3 -15 10.51 2.19
-3 3 -15 12.75 2.37
-3 3 -15 13.4 2.61
-3 3 -15 11.88 2.38
-3 3 -15 10.11 1.97
-3 3 -16 13.39 2.02
-3 3 -16 14.48 2.07
3 4 -16 128.71 7.04
3 4 -16 117.62 6.98
3 4 -16 152 8.07
3 4 -16 152.51 8.15
3 4 -16 122 7.02
3 4 -15 24.01 3.49
3 4 -15 14.97 2.44
3 4 -15 18.69 3.15
3 4 -15 18.72 2.86
3 4 -15 18.41 2.85
3 4 -15 25.09 3.64
3 4 -15 24.64 3.39
3 4 -14 29.94 4.22
3 4 -14 28.15 3.97
3 4 -14 26.31 3.73
3 4 -14 25.83 4.15
3 4 -14 25.1 3.66
3 4 -14 30.72 4.4
3 4 -14 32.3 4.63
3 4 -14 28.59 4.11
3 4 -13 34.36 4.77
3 4 -13 34.68 4.89
3 4 -13 30.25 4.43
3 4 -13 36.08 5.3
3 4 -13 30.27 4.32
3 4 -13 28.01 4.56
3 4 -13 37.9 5.15
3 4 -13 34.82 4.95
3 4 -12 72.71 7.31
3 4 -12 64.93 7.02
3 4 -12 69.34 7.37
3 4 -12 61.78 6.73
3 4 -12 78.06 7.93
3 4 -12 58.2 6.41
3 4 -12 66.25 7.49
3 4 -12 67.75 7.18
3 4 -11 288.51 16.11
3 4 -11 323.93 17.24
3 4 -11 310.03 16.64
3 4 -11 326.54 17.87
3 4 -11 322.89 17.6
3 4 -11 277.93 16.35
3 4 -11 309.93 17.17
3 4 -11 307.27 16.86
3 4 -10 534.35 33.28
3 4 -10 518.9 31.52
3 4 -10 673.78 27.95
3 4 -10 643.38 26.32
3 4 -10 666.5 27.48
3 4 -10 687.77 27.9
3 4 -10 640.62 26.58
3 4 -9 297.86 15.53
3 4 -9 269.05 20.09
3 4 -9 304.33 16.7
3 4 -9 243.85 19.1
3 4 -9 261.29 20.72
3 4 -9 316.27 16.6
3 4 -9 314.19 16.7
3 4 -9 278.42 20.55
3 4 -9 253.33 14.75
3 4 -8 212.09 16.6
3 4 -8 214.02 12.49
3 4 -8 206.66 17.37
3 4 -8 207.93 12.97
3 4 -8 222.92 13.35
3 4 -8 216.75 17.12
3 4 -7 5.79 2.82
3 4 -7 4.31 2.12
3 4 -7 4.32 1.49
3 4 -6 32.91 5.57
3 4 -6 36.94 6.24
3 4 -5 12.6 3.34
3 4 -5 12.05 3.33
3 4 -4 155.71 11.24
3 4 -4 173.84 12.37
3 4 -4 180.69 12.69
-3 4 3 402.02 17.94
3 4 -3 388.19 19.18
3 4 -3 381.15 20.01
-3 4 2 296.08 15.08
-3 4 2 267.3 13.54
3 4 -2 343.8 18.37
-3 4 2 328.28 17.72
3 4 -2 276.81 15.24
3 4 -1 19.15 3.54
-3 4 1 12.08 2.39
-3 4 1 12.5 3.05
-3 4 1 19.46 3.79
-3 4 1 14.26 2.88
-3 4 0 915.27 33.81
-3 4 0 896.28 33.54
-3 4 0 1021.28 37
-3 4 0 924.73 33.37
-3 4 -1 192.82 12.16
-3 4 -1 185.98 12.11
-3 4 -1 188.41 12.2
-3 4 -1 197.55 13.45
-3 4 -2 337.91 17.24
-3 4 -2 339.44 18.12
-3 4 -2 328.67 17.55
-3 4 -2 342.01 18.97
-3 4 -3 745.89 30.11
-3 4 -3 782.4 32.51
-3 4 -3 747.53 31.18
-3 4 -3 832.36 33.58
-3 4 -4 64.2 7.86
-3 4 -4 68.97 8.35
-3 4 -4 67.68 8.03
-3 4 -4 60.38 6.8
-3 4 -4 66.98 7.54
-3 4 -4 50.81 6.03
-3 4 -5 228.99 16.26
-3 4 -5 240.29 16.52
-3 4 -5 234.66 14.72
-3 4 -5 225.36 15.19
-3 4 -5 205.12 13.85
-3 4 -5 248.06 17.04
-3 4 -6 682.52 32.01
-3 4 -6 701.8 32.28
-3 4 -6 656.22 29.18
-3 4 -6 663.96 30.3
-3 4 -6 609.39 28.75
-3 4 -6 706.4 32.91
-3 4 -7 111.88 11.92
-3 4 -7 99.7 8.98
-3 4 -7 114.61 11.93
-3 4 -7 96.68 9.73
-3 4 -7 116.58 9.37
-3 4 -7 119.87 9.46
-3 4 -7 111.49 11.1
-3 4 -7 99.15 10.29
-3 4 -7 112.09 11.91
-3 4 -8 108.01 12.08
-3 4 -8 101.05 9.16
-3 4 -8 112.91 12.34
-3 4 -8 88.88 9.74
-3 4 -8 138.4 10.17
-3 4 -8 92.86 10.77
-3 4 -8 119.05 12.05
-3 4 -8 123.43 10.15
-3 4 -8 121.19 13.01
-3 4 -8 125.54 9.98
-3 4 -9 272.74 15.79
-3 4 -9 239.12 14.76
-3 4 -9 170.32 15.81
-3 4 -9 222.52 18.58
-3 4 -9 258.19 15.13
-3 4 -9 247.8 14.6
-3 4 -9 201.11 16.92
-3 4 -9 222.41 19.01
-3 4 -9 254.2 15.36
-3 4 -9 222.64 18.73
-3 4 -10 137.97 11
-3 4 -10 133.62 10.7
-3 4 -10 148.18 11.2
-3 4 -10 162.91 11.81
-3 4 -10 145.78 11.1
-3 4 -10 135.93 10.61
-3 4 -11 89.78 8.43
-3 4 -11 76.43 7.96
-3 4 -11 87.84 8.3
-3 4 -11 87.72 8.21
-3 4 -11 71.54 7.58
-3 4 -11 84.47 8.06
-3 4 -11 80.78 7.76
-3 4 -12 161.01 11.44
-3 4 -12 149.4 10.86
-3 4 -12 158.31 11.01
-3 4 -12 175.95 11.6
-3 4 -12 171.39 11.43
-3 4 -12 130.6 9.69
-3 4 -12 170.72 11.49
-3 4 -12 174.4 11.69
-3 4 -12 171.74 11.21
-3 4 -13 11.2 2.39
-3 4 -13 13.22 2.98
-3 4 -13 9.72 2.62
-3 4 -13 7.81 2.52
-3 4 -13 11.78 2.77
-3 4 -13 14.52 2.94
-3 4 -13 10.76 2.8
-3 4 -13 12.56 2.76
-3 4 -13 11.21 2.59
-3 4 -14 46.01 4.98
-3 4 -14 41.98 4.48
-3 4 -14 43.73 4.64
-3 4 -14 48.59 4.93
-3 4 -14 40.8 4.44
-3 4 -14 41.82 4.68
-3 4 -14 41.79 4.47
-3 4 -14 41.65 4.59
-3 4 -15 44.57 4.2
-3 4 -15 34.05 3.54
-3 4 -15 47.06 4.27
-3 4 -15 35.53 3.41
-3 4 -15 34.8 3.39
-3 4 -15 37.19 3.57
3 5 -15 28 3.26
3 5 -15 28.11 3.53
3 5 -15 32.34 3.64
3 5 -15 28.92 3.53
3 5 -15 21.69 2.67
3 5 -14 46.96 4.91
3 5 -14 33.7 4.06
3 5 -14 48.32 5.31
3 5 -14 45.44 5.09
3 5 -14 41.57 4.7
3 5 -14 39.09 4.39
3 5 -13 104.22 8.17
3 5 -13 102.56 8.62
3 5 -13 96.34 7.87
3 5 -13 108.36 8.82
3 5 -13 101.2 8.32
3 5 -13 92.83 7.66
3 5 -12 76.21 7.48
3 5 -12 72.28 7.71
3 5 -12 79.66 7.67
3 5 -12 67.83 6.93
3 5 -12 64.83 6.6
3 5 -12 73.28 7.29
3 5 -12 69.38 7.29
3 5 -11 48.03 6.01
3 5 -11 48.25 5.86
3 5 -11 45.72 5.98
3 5 -11 44.43 5.72
3 5 -11 41.63 5.88
3 5 -11 42.4 5.53
3 5 -10 192.13 12.68
3 5 -10 204.63 13.59
3 5 -10 196.55 12.94
3 5 -10 192.77 13.13
3 5 -9 47.37 6.24
3 5 -9 40.23 5.58
3 5 -9 45.84 5.89
3 5 -9 54.75 6.59
3 5 -8 667.32 34.49
3 5 -8 748.83 28.64
3 5 -8 669.74 36.9
3 5 -8 712.59 29.03
3 5 -8 712.79 36.71
3 5 -8 733.58 29.4
3 5 -7 520.21 28.92
3 5 -7 553.53 31.66
3 5 -7 628.9 32.12
3 5 -7 580.44 24.61
3 5 -6 346.95 21.09
3 5 -6 312.37 16.48
3 5 -5 8.19 2.96
3 5 -5 5.91 2.52
-3 5 4 153.89 12.52
3 5 -4 137.17 11.63
3 5 -4 143.27 12.37
-3 5 3 68.99 7.1
3 5 -3 64.19 7.47
-3 5 3 73.77 8.27
3 5 -3 68.54 8.37
-3 5 2 288.25 16.49
-3 5 2 290.39 17.78
3 5 -2 300.42 18.95
-3 5 1 193.29 12.74
-3 5 1 212.18 13.84
3 5 -1 217.75 16.19
-3 5 1 219.73 15.21
-3 5 0 37.13 6.16
-3 5 0 44.76 5.95
-3 5 0 43.46 5.91
-3 5 -1 62.68 7.27
-3 5 -1 72.1 7.71
-3 5 -1 73.13 8.11
-3 5 -1 68.44 8.37
-3 5 -2 214.21 14.4
-3 5 -2 244.21 15.84
-3 5 -2 214.31 14.91
-3 5 -2 230.49 16.24
-3 5 -3 207.62 15.45
-3 5 -3 187.8 13.43
-3 5 -3 202.48 15
-3 5 -3 193.85 14.32
-3 5 -3 197.84 15.15
-3 5 -4 126.28 11.01
-3 5 -4 135.92 12.45
-3 5 -4 124.36 11.62
-3 5 -4 136.7 12.62
-3 5 -4 128.22 12.34
-3 5 -5 229.79 17.21
-3 5 -5 210.72 16.54
-3 5 -5 205.67 14.9
-3 5 -5 215.03 15.87
-3 5 -5 213.84 16.66
-3 5 -5 193.7 12.57
-3 5 -6 531.43 29.18
-3 5 -6 564.86 29.79
-3 5 -6 529.14 26.91
-3 5 -6 512.99 27.48
-3 5 -6 506.68 23.18
-3 5 -6 566.56 29.97
-3 5 -7 82.21 10.73
-3 5 -7 91.17 11.46
-3 5 -7 77.35 9.3
-3 5 -7 96.43 8.49
-3 5 -7 97.5 8.8
-3 5 -7 88.97 10.69
-3 5 -7 101.59 9.36
-3 5 -7 92.88 11.49
-3 5 -8 48.06 6.44
-3 5 -8 36.91 6.81
-3 5 -8 35.61 7.42
-3 5 -8 47.72 6.03
-3 5 -8 48.74 8.54
-3 5 -8 23.58 4.56
-3 5 -8 41.57 5.69
-3 5 -9 452.23 21.91
-3 5 -9 408.65 21.11
-3 5 -9 407.49 20.11
-3 5 -9 401.31 20.25
-3 5 -10 222.45 14.22
-3 5 -10 236.7 14.65
-3 5 -10 230.31 13.9
-3 5 -10 202.71 13.25
-3 5 -10 214.53 13.82
-3 5 -10 207.52 13.08
-3 5 -11 183.62 12.23
-3 5 -11 191.55 12.38
-3 5 -11 176 11.76
-3 5 -11 162.11 11.27
-3 5 -11 176.17 12.18
-3 5 -11 177.36 11.55
-3 5 -12 76.55 7.08
-3 5 -12 64.04 6.54
-3 5 -12 75.28 7.21
-3 5 -12 64.73 6.45
-3 5 -12 64.47 6.3
-3 5 -12 79.98 7.26
-3 5 -12 72.03 6.62
-3 5 -12 63.66 6.45
-3 5 -13 38.26 4.82
-3 5 -13 35.37 4.26
-3 5 -13 28.39 3.74
-3 5 -13 36.76 4.64
-3 5 -13 38.95 4.58
-3 5 -13 34.89 4.33
-3 5 -13 38.34 4.22
-3 5 -13 34.22 4.26
-3 5 -14 14.98 2.6
-3 5 -14 13.26 2.26
-3 5 -14 15.18 2.42
-3 5 -14 13.32 2.43
-3 5 -14 16.78 2.57
-3 5 -15 13.04 1.93
3 6 -14 82.12 5.97
3 6 -14 69.15 5.38
3 6 -14 78.99 6.21
3 6 -14 71.13 5.57
3 6 -14 79.5 6.14
3 6 -13 41.97 4.89
3 6 -13 35.2 4.28
3 6 -13 40.02 4.57
3 6 -13 35.03 4.54
3 6 -13 36.84 4.36
3 6 -12 45.12 5.28
3 6 -12 46.14 5.46
3 6 -12 45.71 5.64
3 6 -12 52.88 5.77
3 6 -12 47.3 5.64
3 6 -11 181.02 11.66
3 6 -11 190.81 12.55
3 6 -11 174.22 11.89
3 6 -11 187.74 11.96
3 6 -11 163.63 11.26
3 6 -10 58.67 6.55
3 6 -10 61.55 7
3 6 -10 53.6 6.23
3 6 -10 49.73 6.21
3 6 -9 109.93 9.15
3 6 -9 113.51 9.38
3 6 -9 124.33 10.55
3 6 -9 109.34 9.5
3 6 -8 594.6 25.24
3 6 -8 637.57 27.58
3 6 -8 585.88 25.88
3 6 -7 10.51 3.57
3 6 -7 8.83 3.87
3 6 -7 7.9 3.3
3 6 -7 11.61 2.85
3 6 -6 357.38 23.52
3 6 -6 369.85 25.32
3 6 -6 340.06 23.02
3 6 -5 7.48 3.03
3 6 -4 43.14 7.53
3 6 -3 22.36 5.28
-3 6 2 104.36 10.19
3 6 -2 97.42 11.09
-3 6 1 41.51 6.55
3 6 -1 52.19 8.24
-3 6 0 437.99 23.57
-3 6 0 483.78 24.94
-3 6 0 411.07 23.07
3 6 0 523.91 28.64
-3 6 -1 158.13 13.54
3 6 1 204.23 17.13
-3 6 -1 162.59 13.5
-3 6 -1 176.6 14.12
-3 6 -1 166.65 13.82
-3 6 -2 415.24 24.19
-3 6 -2 437 23.98
-3 6 -2 471.4 25.24
-3 6 -2 457.17 25.08
-3 6 -3 175.92 15.22
-3 6 -3 189.61 14.6
-3 6 -3 192.17 15.36
-3 6 -3 167.91 14.55
-3 6 -4 236.56 18.49
-3 6 -4 249.73 17.54
-3 6 -4 274.02 19.52
-3 6 -4 247.81 18.22
-3 6 -4 244.6 18.22
-3 6 -5 395.5 25.13
-3 6 -5 395.31 25
-3 6 -5 413.87 23.71
-3 6 -5 369.44 18.76
-3 6 -5 410.17 24.57
-3 6 -5 334.96 22.88
-3 6 -6 93.41 11.74
-3 6 -6 91.5 10.58
-3 6 -6 79.45 10.66
-3 6 -6 85.65 10.82
-3 6 -6 90.44 8.4
-3 6 -6 74.65 10.03
-3 6 -7 33.76 5.24
-3 6 -7 22.31 4.18
-3 6 -7 27.77 4.73
-3 6 -8 129.13 9.81
-3 6 -8 104.22 9.11
-3 6 -8 129.99 10.65
-3 6 -9 57.2 6.93
-3 6 -9 52.52 6.33
-3 6 -9 64.53 6.91
-3 6 -9 53.94 6.63
-3 6 -10 111.86 9.51
-3 6 -10 118.01 9.21
-3 6 -10 106.9 9.31
-3 6 -10 119.17 9.47
-3 6 -10 120.38 9.21
-3 6 -11 24.4 4.17
-3 6 -11 25.95 3.93
-3 6 -11 29.99 4.4
-3 6 -11 26.78 4.2
-3 6 -11 23.42 3.91
-3 6 -11 23.1 3.91
-3 6 -12 154.99 10.03
-3 6 -12 159.54 9.91
-3 6 -12 147.28 9.21
-3 6 -12 146.07 9.57
-3 6 -12 158.27 10
-3 6 -12 134.02 8.94
-3 6 -12 159.84 9.52
-3 6 -13 20.98 2.97
-3 6 -13 19.76 3.04
-3 6 -13 18.33 2.63
-3 6 -13 16.06 2.71
-3 6 -13 20.49 2.94
-3 6 -13 22.84 3.11
-3 6 -13 17.96 2.65
-3 6 -14 15.8 2.25
-3 6 -14 14.5 2.06
-3 6 -14 17.54 2.23
3 7 -13 50.2 4.54
3 7 -13 45.31 4.31
3 7 -13 45.05 4.62
3 7 -13 45.81 4.42
3 7 -12 103.6 7.43
3 7 -12 108.74 7.75
3 7 -12 108.39 8.12
3 7 -12 102.09 7.4
3 7 -12 105.46 7.75
3 7 -11 124.37 9.01
3 7 -11 126.81 9.6
3 7 -11 128.37 9.09
3 7 -11 125.79 9.3
3 7 -10 3.87 1.51
3 7 -10 5.31 2.25
3 7 -10 6.43 2.26
3 7 -9 104.77 8.62
3 7 -9 97.29 9.06
3 7 -9 97.88 8.61
3 7 -8 50.81 5.95
3 7 -8 55.57 6.99
3 7 -8 54.97 6.4
3 7 -7 317.01 17.8
3 7 -7 285.49 15.6
3 7 -6 8.41 2.73
3 7 -4 4.15 2.81
3 7 -4 6.85 3.48
3 7 -3 35.81 6.84
3 7 -3 47.08 8.22
3 7 -2 46.84 8.43
-3 7 1 235.04 17.65
3 7 -1 230.95 18.98
-3 7 0 17.41 4.58
3 7 0 9.47 3.57
-3 7 -1 152.67 14.13
3 7 1 123.44 13.93
-3 7 -2 143.27 13.74
-3 7 -2 111.18 12.36
3 7 2 135.93 15.08
-3 7 -3 108.46 12.07
-3 7 -3 157.05 14.45
-3 7 -3 142.75 14.16
3 7 3 128.35 14.81
-3 7 -5 276.84 16.21
-3 7 -6 30.24 4.84
-3 7 -6 33.08 4.93
-3 7 -7 15.48 3.6
-3 7 -7 17.59 3.72
-3 7 -8 50.81 6.66
-3 7 -8 43.62 5.47
-3 7 -8 49.54 6.02
-3 7 -8 47.06 5.89
-3 7 -9 78.82 7.85
-3 7 -9 70.75 6.76
-3 7 -9 63.44 6.56
-3 7 -9 68.16 6.83
-3 7 -9 81.24 7.61
-3 7 -10 24.76 3.77
-3 7 -10 28.92 4.37
-3 7 -10 19.23 3.13
-3 7 -10 22.33 3.6
-3 7 -10 17.22 3.2
-3 7 -10 22.8 3.87
-3 7 -11 53.06 5.18
-3 7 -11 46.55 4.32
-3 7 -11 63.44 6.04
-3 7 -11 41.94 4.37
-3 7 -11 60.06 5.48
-3 7 -11 66.92 6.04
-3 7 -11 68.18 5.83
-3 7 -11 56.63 5.45
-3 7 -12 87.39 6.52
-3 7 -12 90.09 6.28
-3 7 -12 75.89 5.61
-3 7 -12 91.3 6.19
-3 7 -12 92.51 6.48
-3 7 -12 91.22 6.32
-3 7 -13 7.53 1.49
-3 7 -13 7.45 1.51
3 8 -12 74.01 5.25
3 8 -12 74.31 5.42
3 8 -12 73.48 5.46
3 8 -11 62.53 5.42
3 8 -11 65.57 5.6
3 8 -11 66.04 5.85
3 8 -11 55.88 5.01
3 8 -10 61.79 5.69
3 8 -10 64.29 5.95
3 8 -10 61.44 6.13
3 8 -10 58.27 5.58
3 8 -9 145.07 9.69
3 8 -9 160.67 10.8
3 8 -8 26.84 4.01
3 8 -8 23.32 3.94
3 8 -7 17.65 3.42
3 8 -7 18.54 3.51
3 8 -6 118.84 9.06
-3 8 -6 86.6 7.8
-3 8 -7 78.99 7.9
-3 8 -7 84.05 7.18
-3 8 -8 195.54 12.03
-3 8 -8 178.23 10.46
-3 8 -9 8.52 2.04
-3 8 -9 8.39 2.37
-3 8 -9 5.92 1.98
-3 8 -10 16.91 2.81
-3 8 -10 19.23 3.05
-3 8 -10 18.75 3
-3 8 -11 48.01 4.25
-3 8 -11 49.75 4.28
-3 8 -11 42.57 4.04
-3 8 -11 49.52 4.32
3 9 -10 10.28 1.84
3 9 -10 12.1 2.17
3 9 -9 6.9 1.59
3 9 -9 6.64 1.77
3 9 -8 41.68 4.46
3 9 -8 43.56 4.81
3 9 -7 58.78 5.56
3 9 -7 69.36 6.38
3 9 -6 88.37 7.06
-3 9 -5 3.61 1.65
-3 9 -6 173.08 10.64
-3 9 -7 77.05 6.25
-3 9 -7 78.22 6.1
-3 9 -8 28.3 3.49
-3 9 -8 32.72 3.59
-3 9 -8 39.27 4.36
-3 9 -9 13.05 2.19
-3 9 -9 8.96 1.65
-3 9 -10 29.51 2.92
3 10 -8 28.64 3.6
-3 10 -6 96.87 6.38
-3 10 -7 28.93 3
-4 -10 6 93.07 6.21
-4 -10 6 117.86 7.09
-4 -10 5 57.89 5.23
-4 -10 5 59.42 5.17
-4 -10 4 144.8 8.99
-4 -10 4 142.87 8.99
-4 -10 3 6.35 1.92
-4 -10 3 5.9 1.86
-4 -10 2 16.17 2.89
-4 -10 2 9.24 2.13
-4 -10 1 50.01 5.08
-4 -10 1 59.06 5.69
-4 -10 0 99.87 7.45
-4 -10 0 112.04 7.98
-4 -10 -1 6.6 1.86
-4 -10 -1 9.95 2.21
-4 -10 -2 46.8 4.46
-4 -10 -2 44.9 4.6
-4 -10 -3 102.92 6.6
-4 -10 -3 111.99 7.22
-4 -10 -4 42.12 3.72
-4 -10 -4 51.9 4.44
-4 -10 -5 63.57 4.72
-4 -10 -6 27.45 2.8
-4 -9 9 3.38 1.14
-4 -9 9 3.62 1.06
-4 -9 8 0.7 0.83
-4 -9 8 4.24 1.35
4 -9 -7 9.44 2.16
-4 -9 7 7.32 1.78
-4 -9 7 5.81 1.6
4 -9 -6 147.15 9.51
-4 -9 6 144.69 10.18
-4 -9 6 131.88 9.7
-4 -9 5 85.02 7.73
-4 -9 5 78.79 7.54
-4 -9 4 52.96 6.13
-4 -9 4 46.32 5.82
-4 -9 3 27.94 4.4
-4 -9 3 28.07 4.55
-4 -9 2 1.15 1.16
-4 -9 2 4.56 1.7
-4 -9 1 5.01 1.91
-4 -9 1 2.03 0.93
-4 -9 0 78.21 7.45
-4 -9 0 72.11 7.28
-4 -9 -1 37.59 4.89
-4 -9 -1 30.65 4.44
-4 -9 -2 36.14 4.64
-4 -9 -2 35.28 4.73
-4 -9 -3 24 3.57
-4 -9 -3 26.86 4.02
-4 -9 -4 62.42 5.63
-4 -9 -4 71.98 6.29
-4 -9 -5 57.54 4.91
-4 -9 -5 69.71 5.9
-4 -9 -6 59.64 5.21
-4 -9 -7 105.54 6.73
-4 -9 -8 10.57 1.9
-4 -8 10 16.97 2.7
4 -8 -10 20.19 2.96
4 -8 -10 13.91 2.4
-4 -8 10 17.67 3
4 -8 -9 65.48 5.97
4 -8 -9 60.02 5.5
-4 -8 9 50.96 5.61
-4 -8 9 59.88 6.2
-4 -8 8 23.71 4.16
-4 -8 8 21 3.94
4 -8 -8 19.74 3.28
4 -8 -8 20.41 3.26
4 -8 -7 131.44 9.4
-4 -8 7 109.81 9.64
4 -8 -7 122.02 8.94
-4 -8 7 120.9 10.22
4 -8 -6 84.02 7.64
-4 -8 6 84.14 8.59
-4 -8 6 81.76 8.33
-4 -8 5 62 7.38
4 -8 -5 66.74 6.82
-4 -8 5 71.97 8.05
4 -8 -4 23.33 4.11
-4 -8 4 21.12 4.3
-4 -8 4 25.83 4.56
-4 -8 3 122.59 10.4
-4 -8 3 134.88 11.25
4 -8 -3 135.4 10.37
-4 -8 2 179.36 12.77
-4 -8 2 178.9 13.01
-4 -8 1 90.25 8.63
-4 -8 1 89.64 8.61
-4 -8 0 57.82 6.7
-4 -8 0 59.27 6.81
4 -8 0 54.5 6.69
-4 -8 -1 74.45 7.53
-4 -8 -1 74.35 7.58
4 -8 1 72.12 7.85
-4 -8 -2 125.2 9.89
-4 -8 -2 128.54 10.07
4 -8 2 127.67 10.47
-4 -8 -3 125.84 9.6
-4 -8 -3 130.24 9.96
4 -8 3 115.34 9.82
-4 -8 -4 105.7 8.42
-4 -8 -4 125.89 9.55
-4 -8 -5 120.23 8.55
-4 -8 -5 138.07 9.71
-4 -8 -6 13.48 3
-4 -8 -6 13.36 2.77
-4 -8 -7 115.05 8.94
-4 -8 -7 133.13 8.71
-4 -8 -8 91.15 7.42
-4 -8 -8 95.91 6.94
-4 -8 -9 25.33 3.57
-4 -8 -9 29.8 3.49
-4 -8 -10 5.88 1.53
-4 -7 12 26.26 3.37
4 -7 -12 26.67 3.13
4 -7 -12 20.61 2.72
4 -7 -11 22.28 3.25
-4 -7 11 23.2 3.41
4 -7 -11 23.81 3.33
-4 -7 11 25.03 4.11
-4 -7 10 45.64 5.72
4 -7 -10 43.5 5.08
4 -7 -10 40.71 4.84
-4 -7 10 48.1 6.06
4 -7 -9 45.86 5.47
-4 -7 9 46.73 6.39
4 -7 -9 46.01 5.29
-4 -7 9 38.97 5.85
4 -7 -8 119.44 9.34
-4 -7 8 117.71 10.63
-4 -7 8 123.96 11.2
4 -7 -8 106.6 8.81
4 -7 -7 6.39 2.36
-4 -7 7 12.56 3.8
4 -7 -7 15.35 3.36
-4 -7 7 16.59 4.09
4 -7 -7 16.49 3.62
-4 -7 6 105.63 10.69
4 -7 -6 115.01 9.45
4 -7 -6 111.87 10.34
4 -7 -6 98.6 8.57
-4 -7 6 114.29 10.81
4 -7 -5 558.37 24.55
4 -7 -5 490.34 24.73
-4 -7 5 553.58 26.87
4 -7 -5 546.15 23.87
-4 -7 5 582.01 27.24
-4 -7 4 64.91 7.82
-4 -7 4 67.04 8.17
4 -7 -4 69.19 7.34
4 -7 -4 57.53 7.06
4 -7 -4 64.81 6.84
4 -7 -3 69.77 7.48
4 -7 -3 61.05 7.36
-4 -7 3 71.88 8.11
-4 -7 3 64.72 7.69
-4 -7 2 240.7 15.69
4 -7 -2 273.6 15.85
4 -7 -2 223.05 15.35
4 -7 -2 232.16 15.35
-4 -7 2 242.12 15.6
-4 -7 1 267.72 16.32
4 -7 -1 270.67 16.93
-4 -7 1 275 16.45
4 -7 -1 274.14 16.88
-4 -7 0 9.92 3.08
4 -7 0 7.49 2.27
4 -7 0 11.18 2.94
4 -7 0 9.87 2.94
-4 -7 0 7.35 2.61
-4 -7 -1 35.56 5.36
4 -7 1 37.01 5.45
-4 -7 -1 41.61 5.72
4 -7 1 37.53 5.47
-4 -7 -2 35.08 5.19
4 -7 2 34.58 5.35
-4 -7 -2 45.22 6
4 -7 2 39.05 5.55
-4 -7 -3 5.19 1.64
4 -7 3 6.23 1.94
4 -7 3 5.11 1.84
-4 -7 -3 4.07 1.79
-4 -7 -4 295.69 16.32
4 -7 4 315.63 17.57
-4 -7 -4 347.91 17.85
4 -7 4 307.17 17.33
-4 -7 -5 12.32 2.86
-4 -7 -5 17.44 4.04
4 -7 5 14.03 3.47
-4 -7 -5 15.51 3.32
4 -7 5 14.43 3.39
-4 -7 -6 76.72 8.22
4 -7 6 71.29 7.75
4 -7 6 70.28 7.3
-4 -7 -6 78.77 7.44
-4 -7 -7 22.05 4.33
-4 -7 -7 18.68 3.44
-4 -7 -8 153.75 11.3
-4 -7 -8 147.49 9.76
-4 -7 -8 142.41 10.49
-4 -7 -9 12.28 2.82
-4 -7 -9 9.94 2.21
-4 -7 -9 11.32 2.65
-4 -7 -10 6.57 1.95
-4 -7 -11 104.05 7.25
-4 -7 -12 73.44 5.15
4 -6 -13 0.32 0.68
-4 -6 13 0.67 0.94
4 -6 -12 91.62 6.79
4 -6 -12 84.39 6.64
-4 -6 12 77.69 6.79
-4 -6 12 86.86 7.65
4 -6 -12 90.77 7.58
4 -6 -11 37.89 4.69
-4 -6 11 36.81 5.27
4 -6 -11 41.64 4.93
4 -6 -11 50.24 5.75
-4 -6 10 184.52 13.37
4 -6 -10 182.83 11.53
4 -6 -10 150.09 11.21
4 -6 -10 172.44 12.09
4 -6 -10 147.31 10.39
4 -6 -9 492.23 22.16
4 -6 -9 438.36 21.16
4 -6 -9 479.62 23.5
-4 -6 9 542.56 26.42
4 -6 -9 511.81 23.89
-4 -6 8 319.34 19.63
4 -6 -8 283.92 15.94
4 -6 -8 291.79 17.86
4 -6 -8 249.78 14.79
4 -6 -8 269.35 17.12
4 -6 -8 273.33 16.84
4 -6 -7 510.97 23.4
4 -6 -7 505.98 25.77
-4 -6 7 533.72 27.23
4 -6 -7 506.65 22.68
4 -6 -7 545.78 26.55
4 -6 -7 491.72 24.43
4 -6 -6 64.65 7.08
4 -6 -6 60.25 7.62
4 -6 -6 48.91 5.86
-4 -6 6 60.01 7.94
4 -6 -6 48.43 7.07
4 -6 -5 61.85 6.51
-4 -6 5 72.47 8.34
4 -6 -5 73.22 7.49
4 -6 -5 69.68 8.42
4 -6 -5 61.82 7.59
-4 -6 5 78.76 9.12
-4 -6 4 27.91 5.11
4 -6 -4 28.65 4.36
4 -6 -4 28.49 5.31
4 -6 -4 18.04 3.88
4 -6 -4 26.51 4.34
4 -6 -4 28.17 4.89
-4 -6 4 28.49 5.43
-4 -6 3 17.15 3.95
4 -6 -3 27.73 4.68
4 -6 -3 19.45 4.02
-4 -6 3 28.35 4.91
4 -6 -3 24.44 4.25
4 -6 -3 16.15 3.57
4 -6 -3 21.66 3.98
-4 -6 2 472.09 22.98
4 -6 -2 463.13 25.94
4 -6 -2 454.47 22.17
4 -6 -2 449.7 22.23
4 -6 -2 459.99 22.89
4 -6 -2 425.63 22
-4 -6 2 466.24 22.74
4 -6 -1 80.11 9.94
-4 -6 1 70.68 7.71
-4 -6 1 79.71 7.96
4 -6 -1 101.02 9.23
4 -6 -1 70.95 7.77
4 -6 -1 86.38 8.77
4 -6 -1 66.41 7.19
4 -6 -1 74.45 7.92
-4 -6 0 4.55 2.14
4 -6 0 1.88 1.67
4 -6 0 4.4 1.92
4 -6 0 5.68 2.31
-4 -6 0 4.72 1.81
4 -6 0 2.97 1.77
4 -6 1 394.3 24.12
4 -6 1 330.33 18.31
4 -6 1 340.48 18.37
-4 -6 -1 335.52 17.9
4 -6 1 361.25 18.85
-4 -6 -1 330.19 17.81
4 -6 1 315.28 17.78
-4 -6 -2 61.5 6.88
4 -6 2 87 11.07
4 -6 2 84.42 8.47
4 -6 2 81.21 8.22
-4 -6 -2 79.86 7.98
4 -6 2 79.24 8.12
4 -6 2 77.91 7.96
-4 -6 -3 250.56 14.77
4 -6 3 252.74 20.23
4 -6 3 282.51 16.33
4 -6 3 228.37 14.59
-4 -6 -3 297.54 16.24
4 -6 3 268.13 15.9
4 -6 3 276.51 20.65
-4 -6 -4 249.68 14.81
-4 -6 -4 306.88 18.05
4 -6 4 251.48 20.83
4 -6 4 280.39 16.57
4 -6 4 279.69 21.36
-4 -6 -4 318.01 16.87
4 -6 4 287.65 16.69
4 -6 4 287.91 16.54
-4 -6 -5 103.86 9.96
4 -6 5 96.77 8.94
4 -6 5 94.13 8.85
-4 -6 -5 108.99 9.2
4 -6 5 96.08 9.1
4 -6 5 88.47 11.58
-4 -6 -6 137.01 11.52
4 -6 6 112.43 10.1
4 -6 6 116.13 9.93
-4 -6 -6 124.63 9.72
4 -6 6 125.06 10.23
-4 -6 -7 90.98 9.11
-4 -6 -7 81.1 7.52
4 -6 7 78.59 7.86
-4 -6 -7 79.73 8.61
4 -6 7 85.43 8.51
-4 -6 -8 112.26 9.97
-4 -6 -8 112.1 8.57
4 -6 8 98.46 8.67
-4 -6 -8 115.85 10.09
4 -6 8 114.81 9.69
-4 -6 -9 25.35 4.5
-4 -6 -9 23.76 3.75
-4 -6 -9 26.5 4.49
4 -6 9 29.66 4.49
-4 -6 -10 9.92 2.65
-4 -6 -10 14.17 2.71
-4 -6 -10 10.18 2.67
-4 -6 -11 45.31 5.18
-4 -6 -11 53.73 5.74
-4 -6 -12 72.35 5.96
-4 -6 -12 85.16 6.59
-4 -6 -13 88.25 5.78
4 -5 -14 4.27 1.34
4 -5 -14 5.11 1.78
4 -5 -13 281.56 13.63
4 -5 -13 309.33 15.23
-4 -5 12 50.53 5.98
4 -5 -12 51.44 5.94
4 -5 -12 44.66 5.13
4 -5 -11 39.84 5.09
4 -5 -11 36.55 5.24
4 -5 -11 31.92 5.18
4 -5 -11 39.18 5.4
4 -5 -11 36.59 4.79
4 -5 -10 37.46 5.17
4 -5 -10 35.95 5.49
4 -5 -10 32.64 5.15
4 -5 -10 35.6 5.46
4 -5 -10 31.59 4.5
4 -5 -10 33.46 5.39
4 -5 -9 331.61 17.4
4 -5 -9 335.89 18.9
4 -5 -9 329.6 19.31
4 -5 -9 316.2 16.67
4 -5 -9 309.52 18.69
4 -5 -9 329.97 18.26
4 -5 -8 41.18 5.6
4 -5 -8 28.02 4.34
4 -5 -8 37.68 6
4 -5 -8 34.67 5.63
4 -5 -8 32.28 5.47
4 -5 -8 29.28 5.27
4 -5 -7 252.2 14.66
4 -5 -7 223.2 15.65
4 -5 -7 181.42 12.09
4 -5 -7 257.52 16.74
4 -5 -7 209.07 14.63
4 -5 -7 226.27 14.43
4 -5 -6 69.24 7.23
4 -5 -6 71.56 8.32
4 -5 -6 45.88 5.54
4 -5 -6 53.6 6.9
4 -5 -6 60.37 6.88
4 -5 -6 70.08 8.29
4 -5 -5 165.76 14.32
4 -5 -5 200.01 14.04
4 -5 -5 162.09 12.44
4 -5 -5 199.3 14.24
4 -5 -5 177.99 12.36
4 -5 -5 208.27 12.99
4 -5 -4 -1.52 1.06
4 -5 -4 -0.26 1.09
4 -5 -4 -1.52 1.6
4 -5 -4 0.12 1.48
4 -5 -4 -0.66 1.48
4 -5 -4 2.35 1.8
4 -5 -4 0.2 0.83
-4 -5 3 601.54 27.03
4 -5 -3 746.89 32.15
4 -5 -3 699.36 27.15
4 -5 -3 579.85 26.11
4 -5 -3 584.81 26.58
4 -5 -3 537.26 25.94
4 -5 -2 331.68 20.57
4 -5 -2 320.12 17.22
4 -5 -1 23.92 5.16
4 -5 0 17.68 4.55
4 -5 1 112.95 10.97
4 -5 1 85.94 7.99
4 -5 1 87.96 8.31
4 -5 1 128.48 12.5
4 -5 2 110.52 11.3
4 -5 2 81.5 7.7
4 -5 2 86.41 8.14
4 -5 2 89.11 8.3
-4 -5 -2 91.39 8.13
4 -5 2 83.94 8.03
4 -5 2 118.17 12.35
4 -5 2 90.69 8.55
4 -5 3 250.82 14.8
4 -5 3 305.78 20.48
4 -5 3 236.7 14.87
4 -5 3 310.35 20.13
4 -5 3 231.71 14.38
4 -5 3 246.48 14.87
-4 -5 -3 232.13 13.9
4 -5 3 207.08 13.49
-4 -5 -4 46.39 5.7
-4 -5 -4 45.04 6.33
4 -5 4 49.69 8.19
4 -5 4 54.1 8.3
4 -5 4 42.15 5.79
4 -5 4 35.98 5.26
4 -5 4 45.26 5.94
4 -5 4 38.38 5.39
4 -5 4 47.04 6.15
4 -5 5 11.68 3.13
4 -5 5 10.66 2.74
4 -5 5 12.88 4.19
4 -5 5 16.8 4.93
-4 -5 -5 14.84 3.33
4 -5 5 14.74 3.43
-4 -5 -5 13.71 2.97
4 -5 5 14.25 3.51
-4 -5 -5 13.89 3.67
-4 -5 -6 282.8 15.49
-4 -5 -6 319.49 18.3
4 -5 6 296.51 22.4
4 -5 6 296.56 16.82
-4 -5 -6 301.71 17.44
4 -5 6 282.15 16.55
4 -5 6 297.44 17.05
4 -5 6 334.08 23
-4 -5 -7 128.21 10.84
-4 -5 -7 127.31 10.76
4 -5 7 101.36 9.17
-4 -5 -7 114.08 8.84
4 -5 7 115.19 10
4 -5 7 103.82 9.23
-4 -5 -8 129.18 10.93
-4 -5 -8 131.72 9.37
4 -5 8 111.31 9.52
-4 -5 -8 141.12 11.35
4 -5 8 141.32 10.94
-4 -5 -9 46.23 6.2
-4 -5 -9 46.03 6.19
-4 -5 -9 49.91 5.37
4 -5 9 35.69 5.21
4 -5 9 38.23 5.1
4 -5 10 17.49 3.68
-4 -5 -10 16.75 3.03
-4 -5 -10 14.33 3.32
-4 -5 -10 18.43 3.8
-4 -5 -11 35.83 4.94
4 -5 11 35.77 4.81
-4 -5 -11 34.31 4.91
-4 -5 -12 117.59 8.66
-4 -5 -12 119.84 8.78
-4 -5 -13 206.22 10.87
-4 -5 -13 195.3 10.58
-4 -5 -14 8.25 1.59
4 -4 -16 85.01 5.44
4 -4 -15 20.01 3.05
4 -4 -14 27.02 4.01
4 -4 -14 23.33 3.19
4 -4 -14 24.69 3.72
4 -4 -13 167.96 11.47
4 -4 -13 147.34 9.99
4 -4 -13 172.55 11.23
4 -4 -13 151 9.73
4 -4 -12 150.7 11.02
4 -4 -12 166.03 10.63
4 -4 -12 147.11 10.93
4 -4 -12 169.87 11.76
4 -4 -12 174.23 12.14
4 -4 -11 238.71 14.98
4 -4 -11 235.21 13.57
4 -4 -11 231.56 14.67
4 -4 -11 228.94 13.96
4 -4 -11 224.66 14.41
4 -4 -11 235.44 14.62
4 -4 -10 251.09 14.66
4 -4 -10 262.09 16.06
4 -4 -10 274.11 16.6
4 -4 -10 243.04 14.91
4 -4 -10 234.54 13.91
4 -4 -10 258.99 16.15
4 -4 -10 262.25 15.56
4 -4 -9 112.39 9.2
4 -4 -9 98.34 9.36
4 -4 -9 99.98 9.78
4 -4 -9 110.85 10.36
4 -4 -9 83.65 7.8
4 -4 -9 86.08 12.72
4 -4 -9 98.56 9.19
4 -4 -9 103.38 9.19
4 -4 -8 423.6 20.41
4 -4 -8 465.34 22.76
4 -4 -8 347.23 25.88
4 -4 -8 410.29 21.08
4 -4 -8 385.39 20.72
4 -4 -8 454.05 23.08
4 -4 -8 420.15 20.73
4 -4 -7 0.81 1.12
4 -4 -7 -0.68 1.39
4 -4 -7 -0.74 1.49
4 -4 -7 -1.38 0.93
4 -4 -7 -0.04 1.9
4 -4 -7 0.42 1.2
4 -4 -7 -0.99 1.38
4 -4 -6 394.45 19.12
4 -4 -6 385.61 19.42
4 -4 -6 380.18 22.21
4 -4 -6 401.89 20.71
4 -4 -6 385.37 24.99
4 -4 -6 359.57 19.37
4 -4 -6 402.86 20.83
4 -4 -6 339.05 18.19
4 -4 -5 112.36 10.88
4 -4 -5 115.67 12.37
4 -4 -4 373.69 21.41
4 -4 -4 395.04 23.13
4 -4 -3 80.69 8.83
4 -4 -3 62.99 8.17
4 -4 -2 173.1 13.35
4 -4 -1 569.94 27.34
4 -4 0 1240.22 44.82
4 -4 0 1394.26 49.73
4 -4 1 29.26 5.3
4 -4 1 24.12 4.45
4 -4 2 57.61 7.27
4 -4 2 66.47 8.19
4 -4 3 26.72 5.32
4 -4 3 19.82 4.41
4 -4 4 94.31 10.4
4 -4 4 106.31 10.98
4 -4 5 591.26 28.89
4 -4 5 451.85 21.27
-4 -4 -5 417.68 20.95
4 -4 5 447.75 21.36
4 -4 5 428.02 20.92
4 -4 5 559.37 27.7
4 -4 5 437.33 21.35
4 -4 6 45.96 7.53
4 -4 6 49.68 8.13
-4 -4 -6 37.94 4.83
4 -4 6 40.49 5.55
4 -4 6 39.82 5.51
4 -4 6 39.48 5.43
4 -4 6 44.6 5.93
-4 -4 -6 43.58 5.83
-4 -4 -7 267.85 14.49
4 -4 7 319.72 22.64
4 -4 7 305.17 16.86
-4 -4 -7 330.68 17.74
4 -4 7 278.55 16.01
4 -4 7 286.7 16.32
4 -4 7 335.79 22.41
-4 -4 -8 365.7 19.3
4 -4 8 363.99 24.43
4 -4 8 326.19 24.52
-4 -4 -8 384.9 19.68
4 -4 8 345.19 18.37
4 -4 8 355.33 18.6
4 -4 8 317.73 17.47
-4 -4 -9 42.69 5.85
4 -4 9 35.44 5.15
-4 -4 -9 54.56 6.68
-4 -4 -10 120.31 9.96
-4 -4 -10 108.26 9.53
4 -4 10 94.56 8.76
-4 -4 -11 29.91 4.71
4 -4 11 28.01 4.61
-4 -4 -11 30.83 4.91
-4 -4 -12 123.4 9.52
-4 -4 -12 125.16 9.52
4 -4 12 125.57 9.47
-4 -4 -13 9.23 2.25
-4 -4 -13 11.96 2.7
-4 -4 -14 23.05 3.12
-4 -4 -14 26.83 3.37
4 -3 -16 2.69 1.14
4 -3 -16 1.51 1
4 -3 -15 112.27 8.05
4 -3 -15 115.13 7.9
4 -3 -14 33.36 4.04
4 -3 -14 43.51 5.35
4 -3 -14 32.02 4.18
4 -3 -14 38.1 4.84
4 -3 -14 34.13 4.42
4 -3 -14 40.33 5.02
4 -3 -13 17.81 3.39
4 -3 -13 16.24 3.26
4 -3 -13 22.28 4.13
4 -3 -13 12.68 2.72
4 -3 -13 19.49 3.63
4 -3 -13 22.55 4.08
4 -3 -13 20.28 3.77
4 -3 -12 227.48 14.41
4 -3 -12 215.1 13.61
4 -3 -12 208.3 13.17
4 -3 -12 222.92 13.01
4 -3 -12 241.92 14.38
4 -3 -12 199.88 13.53
4 -3 -12 232.19 13.96
4 -3 -12 232.71 14.35
4 -3 -11 28.39 4.74
4 -3 -11 30 4.72
4 -3 -11 31.59 4.88
4 -3 -11 23.46 4.02
4 -3 -11 35.34 5.23
4 -3 -11 29.76 4.88
4 -3 -11 29.08 4.88
4 -3 -11 39.43 5.46
4 -3 -10 104.64 9.53
4 -3 -10 108.07 9.34
4 -3 -10 120.05 10.29
4 -3 -10 95.87 8.68
4 -3 -10 110.81 9.58
4 -3 -10 95.88 8.35
4 -3 -10 90.16 12.87
4 -3 -10 113.19 10.08
4 -3 -10 105 9.22
4 -3 -9 386.57 20.05
4 -3 -9 344.76 18.48
4 -3 -9 359.14 18.74
4 -3 -9 321.15 17.39
4 -3 -9 322.16 24.55
4 -3 -9 322.47 17.62
4 -3 -9 387.2 20.05
4 -3 -9 354.43 18.38
4 -3 -8 833.73 33
4 -3 -8 905.52 33.55
4 -3 -8 966.21 35.27
4 -3 -8 834.83 32.53
4 -3 -8 943.02 35.45
4 -3 -8 753.23 31.56
4 -3 -8 904.6 42.85
4 -3 -8 807.79 32.96
4 -3 -7 732.07 29.53
4 -3 -7 788.88 31.21
4 -3 -7 816.2 31.87
4 -3 -7 709.1 28.72
4 -3 -7 848.13 39.21
4 -3 -7 694.14 28.85
4 -3 -6 319.09 19.11
4 -3 -6 355.04 22.35
4 -3 -5 39.53 5.91
4 -3 -5 32.77 6.07
4 -3 -4 86.74 8.75
4 -3 -4 81.97 9.11
4 -3 -3 1697.93 54.35
4 -3 -3 1424.32 53.21
4 -3 -2 364.29 18.75
4 -3 -2 291.42 17.46
4 -3 -1 1870.24 61.73
4 -3 0 894.89 32.37
4 -3 0 1040.85 37.28
4 -3 1 1339.79 45.1
4 -3 1 1160.44 40.97
4 -3 2 199.81 12.8
4 -3 2 235.09 14.73
4 -3 3 201.65 13.56
4 -3 3 210.18 14.18
4 -3 4 330.06 19.11
4 -3 5 407.89 22.37
-4 -3 -6 297.94 16.41
4 -3 6 348.19 20.69
4 -3 6 311.66 16.26
4 -3 6 285.44 16.4
4 -3 7 99.64 11.05
4 -3 7 73.8 7.52
4 -3 7 72.78 7.3
-4 -3 -7 101.32 8.8
4 -3 7 88.9 8.3
4 -3 7 92.98 8.84
4 -3 8 69.65 7.4
4 -3 8 78.37 7.85
4 -3 8 91.22 11.09
-4 -3 -8 91.95 8.62
-4 -3 -9 218.8 13.83
-4 -3 -9 228.6 14.77
4 -3 9 211.49 13.84
-4 -3 -9 239.19 14.58
-4 -3 -9 229.38 14.6
-4 -3 -10 20.8 4.21
4 -3 10 28.71 4.79
-4 -3 -10 28.24 4.51
-4 -3 -10 34.53 5.27
-4 -3 -10 23.16 4.4
-4 -3 -10 23.96 4.44
-4 -3 -11 7 2.37
4 -3 11 10.36 3.13
-4 -3 -11 10.23 2.69
-4 -3 -11 12.81 3.05
-4 -3 -11 6.89 2.31
-4 -3 -11 11.5 3.18
-4 -3 -12 67.84 7.18
-4 -3 -12 72.32 7.01
-4 -3 -12 83.61 7.8
-4 -3 -12 71.05 7.36
-4 -3 -12 65.96 6.85
4 -3 12 66.97 7.09
-4 -3 -13 17.79 3.39
-4 -3 -13 13.72 2.87
-4 -3 -13 13.57 2.83
-4 -3 -13 14.17 2.8
-4 -3 -13 14.8 3.11
-4 -3 -14 3.11 1.09
-4 -3 -14 1.47 0.85
-4 -3 -14 2.86 0.88
-4 -3 -14 3.53 1.21
-4 -3 -15 11.1 2.12
4 -2 -16 51.35 4.87
4 -2 -16 55.23 4.92
4 -2 -15 2.93 1.72
4 -2 -15 1.2 0.91
4 -2 -15 0.6 0.69
4 -2 -15 2.25 1.18
4 -2 -15 1.09 0.79
4 -2 -14 239.5 13.74
4 -2 -14 255.89 14.3
4 -2 -14 225.36 12.93
4 -2 -14 236.7 13.5
4 -2 -14 213.8 12.04
4 -2 -14 254.22 13.9
4 -2 -14 253.6 14.1
4 -2 -13 152.98 11.28
4 -2 -13 145.6 10.65
4 -2 -13 138.78 10.12
4 -2 -13 155.19 11.1
4 -2 -13 148.92 11.13
4 -2 -13 145.85 10.02
4 -2 -13 153 10.88
4 -2 -13 167.01 11.53
4 -2 -12 104.29 9.24
4 -2 -12 89.22 8.35
4 -2 -12 81.57 7.89
4 -2 -12 100.32 9.18
4 -2 -12 78.83 7.67
4 -2 -12 85.3 7.71
4 -2 -12 97.67 8.89
4 -2 -12 109.37 9.38
4 -2 -11 44.58 5.99
4 -2 -11 45.06 5.96
4 -2 -11 46.43 6.21
4 -2 -11 38.14 5.23
4 -2 -11 44.03 5.37
4 -2 -11 50.54 6.07
4 -2 -11 50.47 6.34
4 -2 -11 53.73 6.5
4 -2 -10 20.81 6.3
4 -2 -10 18.22 3.69
4 -2 -10 15.13 3.47
4 -2 -10 10.06 3
4 -2 -10 6.4 2.25
4 -2 -10 8.61 2.55
4 -2 -10 14.28 3.35
4 -2 -10 13.21 3.29
4 -2 -9 24.27 4.28
4 -2 -9 24.9 4.37
4 -2 -9 27.07 6.63
4 -2 -9 18.12 3.52
4 -2 -9 21.97 3.79
4 -2 -9 20.34 3.82
4 -2 -9 23.63 4.35
4 -2 -9 23.96 4.27
4 -2 -8 934.3 34.93
4 -2 -8 939.51 34.99
4 -2 -8 998.37 44.17
4 -2 -8 861.29 33.34
4 -2 -8 914.99 34.63
4 -2 -8 1001.08 36.11
4 -2 -8 907.9 34.34
4 -2 -7 831.52 38.57
4 -2 -6 337.18 18.8
4 -2 -6 385.67 22.36
4 -2 -5 36.31 5.27
4 -2 -5 38.98 6.31
4 -2 -4 995.16 35.94
4 -2 -4 870.34 36.61
4 -2 -3 215.81 13.38
4 -2 -2 3.8 1.57
-4 -2 1 79.81 7.5
-4 -2 1 78 6.24
4 -2 -1 94.75 8.09
-4 -2 0 172.77 9.84
-4 -2 0 178.29 11.66
4 -2 0 198.02 12.18
-4 -2 -1 810.6 30.07
-4 -2 -1 748.29 26.35
4 -2 1 844.12 30.62
-4 -2 -2 387.19 18.78
-4 -2 -2 379.26 16.52
4 -2 2 397.34 19.31
-4 -2 -3 164.53 10.08
-4 -2 -3 177.43 11.82
4 -2 3 182.32 12.39
4 -2 4 368.94 19.33
-4 -2 -4 377.97 18.58
4 -2 5 19.3 4.11
-4 -2 -5 15.08 3.54
-4 -2 -6 924.56 37.24
-4 -2 -6 941.45 35.83
4 -2 6 949.41 38.82
-4 -2 -7 71.01 8.25
4 -2 7 67.93 6.88
4 -2 7 85.95 9.72
-4 -2 -7 75.5 7.51
4 -2 7 64.75 7.21
4 -2 8 13.04 3.36
4 -2 8 12.96 4.36
-4 -2 -8 7.66 2.76
-4 -2 -8 9.62 2.65
-4 -2 -8 9.6 2.71
-4 -2 -8 10.4 2.74
4 -2 8 9.3 2.67
-4 -2 -9 86.3 8.35
4 -2 9 65.52 7.4
-4 -2 -9 91.63 8.81
-4 -2 -9 76.02 7.81
-4 -2 -9 81.21 8.1
4 -2 9 82.93 10.91
-4 -2 -10 465.36 22.55
-4 -2 -10 463.12 22.57
-4 -2 -10 481.24 23.06
-4 -2 -10 487.22 23.46
4 -2 10 475.76 22.86
-4 -2 -11 116.5 9.91
-4 -2 -11 115.43 9.92
-4 -2 -11 127.77 10.5
4 -2 11 121.62 10.2
-4 -2 -11 132.21 10.64
-4 -2 -12 112.06 9.6
-4 -2 -12 105.84 9.15
-4 -2 -12 100.39 9.09
-4 -2 -12 107.32 9.22
-4 -2 -12 99.06 8.79
4 -2 12 100.15 9.01
4 -2 13 32.45 4.51
-4 -2 -13 30.96 4.6
-4 -2 -13 36.79 4.97
-4 -2 -13 36.37 4.82
-4 -2 -13 35.77 4.97
-4 -2 -13 31.39 4.5
-4 -2 -14 37.89 4.5
-4 -2 -14 42.83 4.88
-4 -2 -14 34.14 4.28
-4 -2 -14 40.46 4.64
-4 -2 -14 36.92 4.6
-4 -2 -15 18.77 2.74
-4 -2 -15 18.36 2.73
-4 -2 -15 20.78 2.83
-4 -2 -15 22.34 2.96
4 -1 -17 105.87 6.29
4 -1 -17 100.57 6.05
4 -1 -16 47.48 4.57
4 -1 -16 58.75 5.14
4 -1 -16 42.48 4.36
4 -1 -16 56.11 5.19
4 -1 -16 50.41 4.88
4 -1 -15 247.2 13.34
4 -1 -15 207.94 11.81
4 -1 -15 224.39 12.65
4 -1 -15 247.52 12.89
4 -1 -15 222.1 12.72
4 -1 -15 234.81 12.8
4 -1 -14 142.17 10.34
4 -1 -14 136.12 9.88
4 -1 -14 144.98 10.67
4 -1 -14 145.77 10.16
4 -1 -14 155.82 10.78
4 -1 -14 132.05 9.08
4 -1 -14 161.85 10.81
4 -1 -13 67.91 7.24
4 -1 -13 65.61 7.17
4 -1 -13 61.79 6.36
4 -1 -13 67.81 7.47
4 -1 -13 69.19 7.04
4 -1 -13 70.55 7.47
4 -1 -13 79.32 7.69
4 -1 -12 227.42 14.38
4 -1 -12 230.87 14.34
4 -1 -12 215.64 13.64
4 -1 -12 241.1 15.16
4 -1 -12 222.36 14.2
4 -1 -12 249.59 14.83
4 -1 -11 344.74 18.53
4 -1 -11 305.12 17.21
4 -1 -11 334.45 17.72
4 -1 -11 309.58 17.24
4 -1 -11 306.01 16.72
4 -1 -11 333.35 17.64
4 -1 -10 151.59 11.15
4 -1 -10 162.55 11.58
4 -1 -10 122.68 10.31
4 -1 -10 137.95 15.34
4 -1 -10 148.02 10.71
4 -1 -10 157.06 11.23
4 -1 -10 146.97 11.33
4 -1 -10 167.56 11.57
4 -1 -9 399.74 19.89
4 -1 -9 463.03 20.77
4 -1 -9 366.01 19.55
4 -1 -9 436.6 27.61
4 -1 -9 440.15 20.37
4 -1 -9 412.77 19.57
4 -1 -9 470.99 21.37
4 -1 -9 432.63 20.36
4 -1 -8 438.61 26.44
4 -1 -7 92.68 10.52
4 -1 -6 193.61 14.84
4 -1 -5 667.69 27.93
4 -1 -5 716.89 31.01
4 -1 -4 927.07 34.43
4 -1 -4 934.68 37.25
4 -1 -3 359.23 17.56
-4 -1 3 338.4 15.88
4 -1 -2 1126.71 37.07
-4 -1 2 923.38 33.64
-4 -1 1 132.88 8.68
-4 -1 1 127.55 8.71
4 -1 -1 151 10.16
-4 -1 0 669.49 25.77
-4 -1 0 709.59 25.78
-4 -1 0 729.77 26.67
-4 -1 -1 603.4 23.48
-4 -1 -1 609.49 23
-4 -1 -1 623.08 23.98
4 -1 1 643.73 25.42
-4 -1 -2 1392.32 44.92
-4 -1 -2 1426.6 46.27
-4 -1 -2 1334.87 43.85
-4 -1 -2 1328.48 44.96
4 -1 2 1478.69 47.33
-4 -1 -3 734.24 27.77
-4 -1 -3 787.77 29.63
-4 -1 -3 727.6 27.11
-4 -1 -3 709.56 28.25
4 -1 3 769.07 29.96
-4 -1 -4 1439.1 47.9
-4 -1 -4 1397.48 45.15
-4 -1 -4 1415.66 45.83
-4 -1 -4 1258.89 46.07
4 -1 4 1390.61 48.32
-4 -1 -5 163.05 11.81
-4 -1 -5 146.12 10.35
4 -1 5 145.88 11.71
-4 -1 -5 126.11 10.33
-4 -1 -5 138.06 10.46
-4 -1 -6 234.32 15.63
-4 -1 -6 235.45 13.84
-4 -1 -6 195.75 14.09
4 -1 6 239.44 16.18
-4 -1 -6 245.3 14.61
-4 -1 -7 422.56 21.84
-4 -1 -7 408.36 22.52
-4 -1 -7 380.11 21.68
4 -1 7 443.47 24.29
-4 -1 -8 197.32 12.99
-4 -1 -8 157.46 13.64
-4 -1 -8 178.74 14.55
-4 -1 -8 162.63 11.64
-4 -1 -8 181.22 12.17
-4 -1 -8 182.02 12.34
4 -1 8 165.12 11.67
-4 -1 -9 431.15 20.91
-4 -1 -9 328.96 22.43
-4 -1 -9 422.93 20.39
-4 -1 -9 294.7 21.05
-4 -1 -9 407.48 20.45
-4 -1 -9 400.24 19.97
4 -1 9 374.4 19.5
4 -1 9 431.04 26.49
4 -1 10 29.01 4.96
-4 -1 -10 31.01 5.13
-4 -1 -10 33.94 5.3
-4 -1 -10 29.21 5.19
-4 -1 -10 33.68 5.19
4 -1 11 402.74 20.96
-4 -1 -11 456.86 22.13
-4 -1 -11 433.44 21.59
-4 -1 -11 440.99 21.75
-4 -1 -11 434.93 21.76
-4 -1 -12 172.71 12.28
-4 -1 -12 192.68 13.08
-4 -1 -12 195.03 12.9
-4 -1 -12 207.56 13.29
-4 -1 -12 187.34 12.9
4 -1 12 167.4 12.08
-4 -1 -13 76.35 7.33
-4 -1 -13 97.85 8.44
-4 -1 -13 82.9 7.82
-4 -1 -13 78.02 7.47
-4 -1 -13 91.22 8.14
-4 -1 -14 1.91 1.16
-4 -1 -14 3.8 1.63
-4 -1 -14 1.04 0.9
-4 -1 -14 1.35 0.7
-4 -1 -14 0.37 1.21
-4 -1 -15 116.85 7.65
-4 -1 -15 98.67 6.93
-4 -1 -15 103.42 7.15
-4 -1 -15 98.21 6.71
4 0 -17 5.86 1.43
4 0 -17 4.8 1.24
4 0 -16 10.94 2.12
4 0 -16 9.81 2.09
4 0 -16 9.29 2.04
4 0 -16 10.51 2.2
4 0 -16 7.81 1.95
4 0 -16 9.1 2.05
4 0 -15 8.27 2.21
4 0 -15 11.38 2.76
4 0 -15 6.44 2.1
4 0 -15 10.27 2.4
4 0 -15 13.04 2.95
4 0 -15 8.7 2.44
4 0 -14 208.41 12.87
4 0 -14 227.74 13.58
4 0 -14 228.04 13.32
4 0 -14 212.96 13.01
4 0 -14 208.75 12.78
4 0 -14 211.47 13.31
4 0 -13 63.68 6.85
4 0 -13 63.68 7
4 0 -13 71.71 7.45
4 0 -13 65.94 7.01
4 0 -13 69.82 7.29
4 0 -13 76.34 7.9
4 0 -13 75.61 7.58
4 0 -12 10.25 2.72
4 0 -12 13.11 3.41
4 0 -12 5.38 2.18
4 0 -12 9.56 2.65
4 0 -12 11.3 3.09
4 0 -12 11.69 3.34
4 0 -12 7.54 2.32
4 0 -11 76.61 7.88
4 0 -11 90.31 8.51
4 0 -11 85.59 8.38
4 0 -11 71.78 11.24
4 0 -11 55.14 8.72
4 0 -11 80.82 7.81
4 0 -11 80.88 7.95
4 0 -11 87.04 8.44
4 0 -11 85.15 8.14
4 0 -10 23.27 4.28
4 0 -10 18.64 3.79
4 0 -10 20.52 4.01
4 0 -10 17.58 3.78
4 0 -10 19.63 3.8
4 0 -10 16.49 4.74
4 0 -10 17.54 5.27
4 0 -10 15.39 3.33
4 0 -10 22.18 4.22
4 0 -10 19.79 3.94
4 0 -9 441.78 21.2
4 0 -9 435.62 20.75
4 0 -9 483.92 22.37
4 0 -9 479.67 29.01
4 0 -9 459.62 21.12
4 0 -9 481.36 26.79
4 0 -9 498.17 21.65
4 0 -9 505.02 22.55
4 0 -9 470.74 21.31
4 0 -8 244.57 18.6
4 0 -8 249.41 17.36
4 0 -7 3.1 2.18
4 0 -7 1.53 2.21
4 0 -6 105.77 8.18
4 0 -6 131.86 11.72
4 0 -6 119.04 10.58
4 0 -5 9.87 2.86
4 0 -5 8.86 2.48
4 0 -5 7.07 1.8
4 0 -5 10.3 3.45
4 0 -4 320.36 14.66
-4 0 4 346.11 15.43
4 0 -3 2174.94 65.06
-4 0 3 2073.2 61.7
4 0 -3 2065.34 62.02
4 0 -2 2.93 1.46
-4 0 2 4.54 1.49
-4 0 1 434.25 18.28
-4 0 1 467.62 18.08
-4 0 0 255.23 11.9
-4 0 0 250.67 13.32
4 0 0 278.85 14.14
-4 0 0 250.42 12.48
-4 0 -1 375.22 17.49
-4 0 -1 375.55 15.73
-4 0 -1 385.19 16.71
-4 0 -1 373.44 17.46
4 0 1 406.67 18.18
-4 0 -2 957.34 34.03
-4 0 -2 950.92 31.58
-4 0 -2 942.88 32.7
-4 0 -2 874.24 33.26
4 0 2 957.21 34.1
4 0 3 16.78 3.35
-4 0 -3 17.15 3.61
-4 0 -3 15.2 2.94
-4 0 -3 14.4 3.15
-4 0 -3 12.85 2.61
4 0 4 495.09 23.39
-4 0 -4 549.5 24.29
-4 0 -4 539.97 22.68
-4 0 -4 574.17 22.09
-4 0 -4 510.31 23.86
4 0 5 31.42 5.4
-4 0 -5 42.15 5.64
-4 0 -5 48.93 6.42
-4 0 -5 46.82 6.31
-4 0 -5 33.38 4.85
-4 0 -6 179.82 13.07
-4 0 -6 237.95 15.66
-4 0 -6 247.01 14.82
4 0 6 216.24 15.31
-4 0 -6 238.86 13.66
-4 0 -6 203.66 14.76
-4 0 -7 127.39 11.75
-4 0 -7 112.34 10.6
-4 0 -7 99.87 8.9
-4 0 -7 99.31 10.44
4 0 7 115.26 11.51
-4 0 -8 173.63 14
-4 0 -8 157.88 11.52
-4 0 -8 167.19 11.92
-4 0 -8 153.99 11.15
-4 0 -8 175.81 14.86
-4 0 -8 142.23 10.66
-4 0 -8 142 10.72
-4 0 -8 158.19 13.99
4 0 8 136.83 10.69
4 0 8 177.56 15.43
-4 0 -9 8.48 2.66
4 0 9 5.77 3.44
-4 0 -9 3.48 2.46
-4 0 -9 10.92 3.05
-4 0 -9 8.96 2.49
-4 0 -9 5.81 2.09
-4 0 -9 9.43 2.89
4 0 9 5.25 2.49
-4 0 -9 13.08 3.9
4 0 10 55.57 6.66
4 0 10 60.07 10.01
-4 0 -10 68.63 7.56
-4 0 -10 75.36 7.71
-4 0 -10 64.51 7.16
-4 0 -10 42.92 7.62
-4 0 -10 58.15 6.91
-4 0 -10 57.99 6.9
-4 0 -10 37.62 7.41
-4 0 -11 6.78 2.45
-4 0 -11 6.9 2.75
-4 0 -11 5.33 2.01
-4 0 -11 4.18 1.6
-4 0 -11 5.9 2.41
-4 0 -12 328.15 17.71
-4 0 -12 300.45 16.91
-4 0 -12 295.66 16.5
-4 0 -12 324.55 17.62
-4 0 -12 282.79 16.42
-4 0 -13 74.39 7.42
-4 0 -13 71.58 7.12
-4 0 -13 75.63 7.41
-4 0 -13 63.23 6.48
-4 0 -13 65.44 6.72
-4 0 -13 53.77 5.92
-4 0 -14 18.66 3.4
-4 0 -14 18.07 3.28
-4 0 -14 18.64 3.31
-4 0 -14 14.47 2.7
-4 0 -14 16.54 2.99
-4 0 -15 153.93 8.94
-4 0 -15 149.33 8.78
-4 0 -15 148.1 8.83
-4 0 -16 2.64 1.07
-4 0 -16 1.29 0.62
-4 0 -16 1.76 0.9
4 1 -17 96.17 5.73
4 1 -16 53.37 5.12
4 1 -16 49.97 4.6
4 1 -16 56.93 5.14
4 1 -16 55.26 5.08
4 1 -16 55.37 5.04
4 1 -16 54.8 4.99
4 1 -15 233.62 13.04
4 1 -15 232.35 12.55
4 1 -15 237.47 13.09
4 1 -15 224.6 12.63
4 1 -15 234.64 12.83
4 1 -15 229.21 12.63
4 1 -14 133.66 10.1
4 1 -14 147.16 10.19
4 1 -14 134.48 9.97
4 1 -14 122.72 9.66
4 1 -14 144.29 10.28
4 1 -14 147.92 10.55
4 1 -14 141.99 10.21
4 1 -13 67.89 7.18
4 1 -13 64.94 7.15
4 1 -13 59.08 6.9
4 1 -13 68.15 7.06
4 1 -13 68.54 7.05
4 1 -13 70.52 7.51
4 1 -13 71.27 7.27
4 1 -12 218.09 13.77
4 1 -12 228.81 14.45
4 1 -12 257.47 15.06
4 1 -12 236.18 14.06
4 1 -12 228.56 14.63
4 1 -12 229.33 14.33
4 1 -12 240.8 14.83
4 1 -12 226.35 14.15
4 1 -11 301.61 16.45
4 1 -11 307.42 17.18
4 1 -11 345.86 17.85
4 1 -11 323.03 16.98
4 1 -11 323.82 17.7
4 1 -11 312.2 16.99
4 1 -11 320.73 17.45
4 1 -11 305.03 16.74
4 1 -10 142.61 10.79
4 1 -10 167.7 11.47
4 1 -10 143.42 10.74
4 1 -10 140.27 10.88
4 1 -10 137.3 14.94
4 1 -10 142.44 10.65
4 1 -10 144.9 10.5
4 1 -10 125.27 13.43
4 1 -10 141.81 10.75
4 1 -10 155.01 10.86
4 1 -9 382.02 19.27
4 1 -9 425.78 19.81
4 1 -9 436.7 20.47
4 1 -9 392.01 19.32
4 1 -9 524.97 21.39
4 1 -9 392.78 19.32
4 1 -9 387.43 25.99
4 1 -9 444.31 19.9
4 1 -9 408.16 24.34
4 1 -9 451.6 20.54
4 1 -9 357.1 18.47
4 1 -8 427.34 22.3
4 1 -8 456.05 26.09
4 1 -8 417.64 23.48
4 1 -7 80.33 8.14
4 1 -7 81.22 9.68
4 1 -7 83.57 9.21
4 1 -6 183.78 12.21
4 1 -6 182.4 14.15
4 1 -6 195.77 13.66
4 1 -5 631.34 26.22
4 1 -5 672.29 30.29
-4 1 5 706.27 24.77
4 1 -5 702.76 28.68
4 1 -4 772.89 30.8
-4 1 4 866.07 28.32
4 1 -4 919.24 33.02
4 1 -4 821.36 30.78
4 1 -3 347.41 16.75
-4 1 3 365.54 14.97
4 1 -3 378.27 18.02
4 1 -3 359.59 17.14
4 1 -2 1032.26 35.83
-4 1 2 998.15 34.18
4 1 -1 139.63 9.29
-4 1 1 141.17 9.8
-4 1 1 169.81 9.35
-4 1 1 153.05 9.05
-4 1 0 781.95 29.07
-4 1 0 830.3 28.66
-4 1 0 840.16 28.21
-4 1 0 736.42 29.09
4 1 0 761.8 28.5
-4 1 -1 731.85 25.9
-4 1 -1 671.87 26.14
-4 1 -1 681.38 24.8
4 1 1 659.37 25.35
-4 1 -2 1575.62 47.93
-4 1 -2 1546.49 49.23
-4 1 -2 1498.74 46.76
-4 1 -2 1328.12 47.81
4 1 2 1395.13 47.07
-4 1 -3 809.79 29.55
-4 1 -3 804.34 30.59
-4 1 -3 796.47 28.68
-4 1 -3 714.92 29.74
4 1 3 704.29 28.49
-4 1 -4 1422.31 46.78
-4 1 -4 1372.98 48.07
-4 1 -4 1495.83 46.56
-4 1 -4 1307.07 47.59
4 1 4 1238.45 45.56
-4 1 -5 158.37 11.5
4 1 5 158.01 11.68
-4 1 -5 153.1 12
-4 1 -5 137.1 11.68
-4 1 -6 204.02 14.69
-4 1 -6 234.63 15.02
-4 1 -6 234.98 16.23
-4 1 -6 208.5 15.38
4 1 6 231.63 15.55
-4 1 -7 351.92 20.84
-4 1 -7 385.33 21.75
4 1 7 422.19 23.36
-4 1 -7 413.9 23.07
-4 1 -7 384.26 22.83
-4 1 -7 434.96 21.97
-4 1 -8 155.92 13.38
-4 1 -8 152.43 11.35
-4 1 -8 173.51 14.28
-4 1 -8 190.82 12.75
-4 1 -8 187.18 12.61
-4 1 -8 204.62 16.13
-4 1 -8 189.4 12.19
4 1 8 210.66 16.64
-4 1 -8 203.11 13.22
-4 1 -8 169.25 14.9
-4 1 -8 190.96 12.87
-4 1 -9 405.58 20.33
-4 1 -9 358.31 19
-4 1 -9 412.69 20.43
-4 1 -9 316.43 21.28
-4 1 -9 427.82 20.93
-4 1 -9 365.59 24.15
-4 1 -9 420.44 19.95
4 1 9 376.06 24.88
-4 1 -9 357.99 24.06
-4 1 -9 410.99 20.51
-4 1 -10 34.33 5.28
-4 1 -10 25.26 4.52
-4 1 -10 28.13 4.73
-4 1 -10 32.12 5.23
-4 1 -10 29.39 5.01
-4 1 -10 28.07 4.66
-4 1 -11 426.33 21.04
-4 1 -11 427.11 21.27
-4 1 -11 444.19 21.46
-4 1 -11 420.65 20.6
-4 1 -11 442.14 21.45
-4 1 -11 457.26 22.03
-4 1 -11 397.75 20.53
-4 1 -12 197.67 12.65
-4 1 -12 179.63 12.56
-4 1 -12 209.64 13.35
-4 1 -12 177.94 11.92
-4 1 -12 190.19 12.8
-4 1 -12 195.67 13.01
-4 1 -12 161.48 11.64
-4 1 -13 91.6 7.82
-4 1 -13 88.01 7.95
-4 1 -13 80.13 7.17
-4 1 -13 81.74 7.67
-4 1 -13 81.78 7.58
-4 1 -13 87.55 7.85
-4 1 -13 73.61 6.89
-4 1 -14 4.13 1.6
-4 1 -14 1.77 1.47
-4 1 -14 3.6 1.5
-4 1 -14 2.03 1.16
-4 1 -14 0.96 0.93
-4 1 -15 104.96 7.22
-4 1 -15 104.45 7.24
-4 1 -15 114.67 7.44
-4 1 -15 98.22 6.78
-4 1 -16 69.82 4.69
-4 1 -16 64.06 4.52
-4 1 -16 70.25 4.68
4 2 -16 52.39 4.7
4 2 -16 54.11 4.81
4 2 -16 49.91 4.51
4 2 -16 56.91 5.03
4 2 -16 52.39 4.95
4 2 -16 51.33 4.67
4 2 -15 0.89 0.79
4 2 -15 2.07 1.41
4 2 -15 1.4 1.18
4 2 -15 0.65 0.72
4 2 -15 2.84 1.37
4 2 -15 0.14 1.3
4 2 -15 0.98 0.76
4 2 -14 251.43 14.26
4 2 -14 272.3 14.32
4 2 -14 235.55 13.91
4 2 -14 260.61 14.19
4 2 -14 262.37 14.28
4 2 -14 244.22 14.09
4 2 -14 249.38 14.03
4 2 -13 159.51 11.5
4 2 -13 183.43 11.9
4 2 -13 167.34 11
4 2 -13 162.15 11.7
4 2 -13 168.39 11.48
4 2 -13 166.6 11.48
4 2 -13 168.23 11.8
4 2 -13 153.28 11.11
4 2 -12 101.95 9.12
4 2 -12 111.88 9.36
4 2 -12 89.84 8.34
4 2 -12 93.84 8.95
4 2 -12 97.96 8.76
4 2 -12 104.74 9.05
4 2 -12 102.8 9.12
4 2 -12 110.75 9.22
4 2 -11 48.84 6.19
4 2 -11 49.48 6.01
4 2 -11 42.54 5.65
4 2 -11 51.02 6.43
4 2 -11 49.89 6.19
4 2 -11 50.17 6.26
4 2 -11 57.03 6.6
4 2 -11 51.06 6.08
4 2 -10 11.73 4.52
4 2 -10 8.85 2.54
4 2 -10 16.98 3.52
4 2 -10 15.38 3.46
4 2 -10 17.1 4.41
4 2 -10 13.25 3.18
4 2 -10 13.29 4.63
4 2 -10 14.93 3.41
4 2 -10 15.25 3.4
4 2 -10 11.95 4.2
4 2 -10 14.41 3.21
4 2 -10 13.31 3.32
4 2 -10 12.05 2.74
4 2 -9 21.56 3.8
4 2 -9 18.16 3.52
4 2 -9 18.19 4.89
4 2 -9 20.43 3.64
4 2 -9 23.77 4.25
4 2 -9 20.29 3.88
4 2 -9 21.32 3.97
4 2 -9 23.78 5.12
4 2 -9 21.32 3.81
4 2 -9 15.92 4.88
4 2 -9 23.25 4.18
4 2 -9 21.03 3.72
4 2 -8 965.56 39.61
4 2 -8 940.21 33.76
4 2 -8 929.55 34.34
4 2 -8 912.66 41.36
4 2 -8 868.69 34.01
4 2 -8 883.27 33.58
4 2 -8 896.1 38.85
4 2 -8 885.62 33.92
4 2 -7 817.81 33.56
4 2 -7 704.33 34.28
4 2 -7 742.24 33.24
4 2 -6 360.19 19.53
4 2 -6 360.96 21.2
4 2 -6 389.24 20.64
4 2 -5 34.84 5.18
4 2 -5 33.91 5.81
4 2 -5 41.31 5.93
-4 2 4 995.73 31.52
4 2 -4 956.69 36.34
-4 2 3 200.85 11.12
-4 2 3 239.24 11.72
4 2 -3 206.53 13.12
4 2 -3 213.04 13.33
-4 2 2 5.48 1.52
4 2 -2 2.96 1.68
4 2 -2 4.44 1.61
-4 2 2 6.1 1.94
4 2 -1 73.5 6.08
-4 2 1 97.13 7.32
-4 2 1 100.44 7.79
-4 2 1 89.04 7.24
-4 2 1 92.42 8.06
4 2 0 189.38 10.26
-4 2 0 209.42 11.6
-4 2 0 203.62 11.97
-4 2 0 171.88 10.92
-4 2 0 181.8 11.88
-4 2 -1 904.22 31.18
-4 2 -1 888 32.3
-4 2 -1 800.28 30.54
-4 2 -1 806.13 31.62
4 2 1 798.42 28.72
-4 2 -2 427.46 20.15
-4 2 -2 396.54 18.54
-4 2 -2 373.24 19.35
-4 2 -2 438.82 19.31
4 2 2 379.28 17.03
-4 2 -3 187.09 12.82
-4 2 -3 191.41 12.14
-4 2 -3 181.29 12.79
-4 2 -3 203.03 12.49
4 2 3 177.9 10.94
-4 2 -4 382.79 19.13
-4 2 -4 398.23 20.8
-4 2 -4 393.94 20.89
-4 2 -4 403.89 19.69
4 2 4 355.75 17.71
-4 2 -5 12.63 3.25
-4 2 -5 11.01 3.14
-4 2 -5 18.08 4.37
-4 2 -6 865.47 37.78
-4 2 -6 923.68 38.73
-4 2 -6 943.13 38.34
-4 2 -6 908.73 36.45
-4 2 -6 885.84 36.38
-4 2 -7 67.1 8.82
-4 2 -7 76.17 9.34
-4 2 -7 71.84 7.52
-4 2 -7 70.18 7.36
-4 2 -7 75.94 7.44
-4 2 -7 81.4 7.92
-4 2 -7 80.18 9.89
-4 2 -7 76.23 8.8
-4 2 -8 11.11 2.98
-4 2 -8 8.11 3.29
-4 2 -8 9.6 2.73
-4 2 -8 5.86 2.72
-4 2 -8 10.61 3.07
-4 2 -8 10.83 3.11
-4 2 -8 10.07 4.1
-4 2 -8 9.74 2.79
-4 2 -8 11.26 3.09
-4 2 -8 11.37 3.75
-4 2 -9 62.76 8.89
-4 2 -9 65.5 8.99
-4 2 -9 83.89 8.46
-4 2 -9 82.24 8.24
-4 2 -9 84.67 8.52
-4 2 -9 75.7 10.28
-4 2 -9 86.23 8.29
-4 2 -9 83.58 8.39
-4 2 -9 64.75 9.63
-4 2 -9 80.05 8.05
-4 2 -9 63.93 6.6
-4 2 -10 495.08 23.43
-4 2 -10 473.15 22.71
-4 2 -10 447.65 22.01
-4 2 -10 515.75 23.01
-4 2 -10 513.66 23.55
-4 2 -10 485.76 22.91
-4 2 -10 409.34 20.34
-4 2 -11 130.62 10.46
-4 2 -11 119.71 9.97
-4 2 -11 132.98 10.37
-4 2 -11 114.86 9.61
-4 2 -11 124.87 10.41
-4 2 -11 127.47 10.45
-4 2 -11 107.33 9.27
-4 2 -11 124.12 9.84
-4 2 -11 107.76 9
-4 2 -12 106.48 9.1
-4 2 -12 89.58 8
-4 2 -12 104.01 9.03
-4 2 -12 97.46 8.47
-4 2 -12 98.41 8.28
-4 2 -12 113.28 9.32
-4 2 -12 102.29 8.95
-4 2 -12 106.49 9.13
-4 2 -13 37.12 4.95
-4 2 -13 31.74 4.57
-4 2 -13 32.58 4.59
-4 2 -13 37.43 4.95
-4 2 -13 39.12 5.22
-4 2 -13 35.24 4.62
-4 2 -14 41.85 4.73
-4 2 -14 40.76 4.73
-4 2 -14 38.81 4.67
-4 2 -14 36.1 4.23
-4 2 -14 41.07 4.76
-4 2 -14 41.42 4.77
-4 2 -15 19.8 2.73
-4 2 -15 18.34 2.81
-4 2 -15 19.99 2.87
-4 2 -15 19.32 2.78
-4 2 -15 19.9 2.81
4 3 -16 2.96 1.03
4 3 -16 2.79 0.9
4 3 -16 4.53 1.43
4 3 -16 3.05 1.05
4 3 -15 96.86 7.01
4 3 -15 102.81 7.33
4 3 -15 107.51 7.72
4 3 -15 116.26 8.09
4 3 -15 101.6 7.08
4 3 -15 113.84 7.95
4 3 -15 105.27 7.37
4 3 -14 34.98 4.53
4 3 -14 45.7 5.18
4 3 -14 40.23 4.65
4 3 -14 37.81 5.05
4 3 -14 39.84 4.72
4 3 -14 35.66 4.71
4 3 -14 49.43 5.56
4 3 -14 35.18 4.51
4 3 -13 20.27 3.76
4 3 -13 19.21 3.5
4 3 -13 23.39 3.75
4 3 -13 18.67 3.79
4 3 -13 21.36 3.62
4 3 -13 21.85 3.95
4 3 -13 24.99 4.21
4 3 -13 17.34 3.25
4 3 -12 254.49 14.94
4 3 -12 233.03 14.29
4 3 -12 261.07 14.7
4 3 -12 235.17 14.07
4 3 -12 231.34 14.75
4 3 -12 224.65 13.81
4 3 -12 245.71 14.89
4 3 -12 245.5 14.35
4 3 -11 26.38 4.62
4 3 -11 31.55 4.89
4 3 -11 27.46 4.39
4 3 -11 41.08 5.73
4 3 -11 30.87 4.68
4 3 -11 37.97 5.53
4 3 -11 30.93 4.82
4 3 -11 29.97 4.56
4 3 -10 84.39 11.55
4 3 -10 87.15 11.33
4 3 -10 113.6 9.34
4 3 -10 107.66 9.49
4 3 -10 131.88 10.43
4 3 -10 115.22 9.3
4 3 -10 120.94 9.77
4 3 -10 120.72 9.93
4 3 -10 99.8 8.65
4 3 -9 381.66 18.24
4 3 -9 328.68 22.49
4 3 -9 304.33 22.67
4 3 -9 352.67 17.83
4 3 -9 359.72 18.55
4 3 -9 376.93 19.16
4 3 -9 376.39 18.79
4 3 -9 322.26 22.61
4 3 -9 369.02 18.71
4 3 -8 849.49 38.39
4 3 -8 915.28 32.27
4 3 -8 881.36 32
4 3 -8 852.5 32.88
4 3 -8 742.24 38.01
4 3 -8 830.35 32.21
4 3 -8 804.96 38.1
4 3 -8 853.8 32.46
4 3 -7 807.54 35.07
4 3 -7 767.99 35.04
4 3 -7 766.33 28.71
4 3 -7 769.19 30.07
4 3 -7 705.16 34.6
4 3 -6 344.58 19.87
4 3 -6 337.68 20.68
4 3 -6 344.67 20.71
4 3 -5 37.76 5.77
4 3 -5 34.36 5.84
4 3 -5 30.27 5.3
-4 3 4 89.86 7.05
4 3 -4 101.87 9.6
4 3 -4 73.12 8.01
-4 3 3 1419.15 47.91
-4 3 3 1492.54 46.61
4 3 -3 1507.28 52
4 3 -3 1498.32 51.96
-4 3 2 333.13 15.71
-4 3 2 306.21 16.11
4 3 -2 312.93 17.77
-4 3 2 349.31 18.85
4 3 -2 349.18 19.31
-4 3 1 1832.99 56.75
-4 3 1 1759.03 56.99
-4 3 1 1798.34 57.23
-4 3 1 1767.39 60.09
-4 3 0 969.8 35.44
-4 3 0 1022 36.75
-4 3 0 985.72 35.89
-4 3 0 987.36 38.05
-4 3 -1 1182.13 45.09
-4 3 -1 1360.22 46.06
-4 3 -1 1275.5 43.95
-4 3 -1 1274.38 43.71
-4 3 -2 247.73 15.3
-4 3 -2 228.47 13.86
-4 3 -2 229.45 14.09
-4 3 -2 226.29 14.93
-4 3 -3 212.73 14.65
-4 3 -3 220.69 14.87
-4 3 -3 207.25 13.46
-4 3 -3 204.36 13.72
-4 3 -4 312.59 19.36
-4 3 -4 323.83 19.33
-4 3 -4 325.96 18.28
-4 3 -4 326.25 18.18
-4 3 -5 366.25 20.43
-4 3 -5 400.94 22.3
-4 3 -5 357.33 20.07
-4 3 -5 377.49 22.06
-4 3 -6 359.66 22.02
-4 3 -6 337.73 17.86
-4 3 -6 327.89 17.2
-4 3 -6 340.28 21.23
-4 3 -6 335.26 19.54
-4 3 -6 361.2 21.81
-4 3 -6 320.45 19.66
-4 3 -7 87.28 10.58
-4 3 -7 99.49 9.01
-4 3 -7 105.4 9.17
-4 3 -7 100.61 11.2
-4 3 -7 128.65 12.06
-4 3 -7 102.44 8.88
-4 3 -7 86.08 8.14
-4 3 -7 78 9.57
-4 3 -7 97.84 11.23
-4 3 -8 61.65 9.27
-4 3 -8 86.77 8.49
-4 3 -8 86.7 10.84
-4 3 -8 81.22 10.48
-4 3 -8 87.63 8.39
-4 3 -8 89.75 8.21
-4 3 -8 102.9 11.44
-4 3 -8 85.25 8.38
-4 3 -8 72.63 7.55
-4 3 -8 80.51 9.63
-4 3 -9 214.18 13.91
-4 3 -9 274.6 16.36
-4 3 -9 245.67 15.09
-4 3 -9 261.22 15.64
-4 3 -9 252.97 14.76
-4 3 -9 251.22 15.08
-4 3 -9 238.79 14.13
-4 3 -10 27.27 4.4
-4 3 -10 27.17 4.92
-4 3 -10 21.97 4.48
-4 3 -10 30.58 4.92
-4 3 -10 27.5 4.68
-4 3 -10 22.76 4.24
-4 3 -10 22.39 4.04
-4 3 -11 4.42 1.76
-4 3 -11 11.07 2.83
-4 3 -11 4.9 2.17
-4 3 -11 9.57 2.82
-4 3 -11 8.24 2.98
-4 3 -11 8.41 2.65
-4 3 -11 7.51 2.62
-4 3 -12 64.52 6.92
-4 3 -12 65.93 6.94
-4 3 -12 76.57 7.5
-4 3 -12 69.57 7.12
-4 3 -12 70.79 7.05
-4 3 -12 74.19 7.24
-4 3 -12 68.12 6.79
-4 3 -13 14.12 2.96
-4 3 -13 14.94 3.17
-4 3 -13 14.48 3.09
-4 3 -13 11.89 2.8
-4 3 -13 15.32 2.89
-4 3 -13 13.55 2.87
-4 3 -13 13.74 2.75
-4 3 -13 12.96 2.64
-4 3 -14 3.23 1.21
-4 3 -14 3.4 1.26
-4 3 -14 3.43 1.35
-4 3 -14 3.24 1.15
-4 3 -14 4.12 1.45
-4 3 -14 1.93 1.17
-4 3 -14 3.29 1.19
-4 3 -15 14.03 2.16
-4 3 -15 12.23 1.95
-4 3 -15 10.33 1.86
-4 3 -15 9.8 1.79
-4 3 -15 9.89 1.88
4 4 -16 85.23 5.58
4 4 -16 94.07 5.71
4 4 -15 25.89 3.25
4 4 -15 29.43 3.71
4 4 -15 26.92 3.49
4 4 -15 18.26 2.89
4 4 -14 23.32 3.42
4 4 -14 23.14 3.6
4 4 -14 26.02 3.62
4 4 -14 30.9 4.42
4 4 -14 32.41 4.39
4 4 -14 29.01 4.1
4 4 -14 22.36 3.22
4 4 -13 186.78 11.42
4 4 -13 190.77 12.15
4 4 -13 175.54 11.07
4 4 -13 187.9 12.18
4 4 -13 185.21 11.83
4 4 -13 154.99 10.35
4 4 -12 182.87 11.79
4 4 -12 169.19 11.47
4 4 -12 183.29 12.48
4 4 -12 147.82 10.52
4 4 -12 186.26 12.23
4 4 -12 172.78 12.09
4 4 -12 157.35 10.82
4 4 -11 256.1 14.91
4 4 -11 273.02 15.49
4 4 -11 263.22 15.83
4 4 -11 246.88 15.02
4 4 -11 273.85 15.78
4 4 -11 274.46 16.05
4 4 -10 269.65 15.42
4 4 -10 277.69 15.74
4 4 -10 264.1 16.17
4 4 -10 307.26 17.04
4 4 -10 265.76 15.85
4 4 -10 293.67 16.65
4 4 -9 110.05 9.02
4 4 -9 76.89 10.73
4 4 -9 78.3 11.46
4 4 -9 109.8 9.05
4 4 -9 114.82 9.86
4 4 -9 111.84 9.43
4 4 -9 95.55 12.3
4 4 -9 107.1 9.33
4 4 -8 361.44 23.95
4 4 -8 417.17 19.39
4 4 -8 416.71 19.48
4 4 -8 408.14 20.7
4 4 -8 396.42 19.85
4 4 -8 416.15 26.17
4 4 -8 417.43 20.19
4 4 -7 0.88 1.5
4 4 -7 -0.39 1.33
4 4 -7 1.57 1.69
4 4 -7 3.17 2.54
4 4 -7 0.1 1.23
4 4 -7 0.15 0.83
4 4 -6 382.35 22.24
4 4 -6 348.35 16.88
4 4 -6 380.68 19.07
4 4 -6 409.08 23.95
4 4 -5 110.59 10.79
4 4 -5 108.09 11.16
4 4 -4 322.5 19.71
4 4 -4 342.05 20.32
4 4 -4 371.46 20.92
-4 4 3 55.19 6.49
-4 4 3 63.65 8.26
4 4 -3 66.75 8.01
4 4 -3 66.11 8.33
-4 4 2 157.18 10.86
4 4 -2 181.98 13.42
-4 4 2 159.52 11.71
-4 4 2 199.88 14.62
4 4 -2 193.84 14.86
-4 4 1 501.58 22.86
-4 4 1 511.4 25.98
-4 4 1 441.1 21.38
-4 4 0 1258.13 44.41
-4 4 0 1283.86 44.77
-4 4 0 1360.93 48.21
-4 4 -1 27.73 4.83
-4 4 -1 28.8 5.34
-4 4 -1 23.48 4.73
-4 4 -1 29.19 4.93
-4 4 -2 68.98 8.2
-4 4 -2 66.05 7.48
-4 4 -2 67.25 7.77
-4 4 -2 57.02 7.94
-4 4 -3 17.6 4.48
-4 4 -3 24.85 4.63
-4 4 -3 18.42 4.24
-4 4 -3 22.66 5.05
-4 4 -4 90.55 10.17
-4 4 -4 80.63 8.68
-4 4 -4 84.04 9.07
-4 4 -4 87.11 10.22
-4 4 -5 500.72 27.46
-4 4 -5 452.58 22.09
-4 4 -5 539.41 27.92
-4 4 -5 488.15 24.8
-4 4 -5 464.41 24.74
-4 4 -5 535.96 28.59
-4 4 -6 41.22 7.5
-4 4 -6 53.1 6.35
-4 4 -6 38.96 5.51
-4 4 -6 51.24 8.06
-4 4 -6 37.19 4.99
-4 4 -6 43.62 6.66
-4 4 -6 46.07 7.89
-4 4 -6 37.58 6.41
-4 4 -7 320.43 22.49
-4 4 -7 337.63 18.24
-4 4 -7 330.77 22.55
-4 4 -7 303.56 20.19
-4 4 -7 375.94 17.79
-4 4 -7 278.2 19.77
-4 4 -7 286.79 16.4
-4 4 -7 334.91 17.97
-4 4 -7 334.9 23.04
-4 4 -8 393.62 19.94
-4 4 -8 377.19 19.54
-4 4 -8 337.35 23.62
-4 4 -8 306.06 21.19
-4 4 -8 379.43 19.12
-4 4 -8 289.89 21.25
-4 4 -8 397.37 19.6
-4 4 -9 50.62 6.6
-4 4 -9 49.59 6.46
-4 4 -9 49.54 6.48
-4 4 -9 46.93 6.28
-4 4 -9 48.89 6.26
-4 4 -9 46.67 6.16
-4 4 -10 106.61 9.58
-4 4 -10 108.92 9.45
-4 4 -10 106.41 9.22
-4 4 -10 109.82 9.44
-4 4 -10 113.16 9.71
-4 4 -10 96.36 8.5
-4 4 -11 28.58 4.3
-4 4 -11 28.84 4.56
-4 4 -11 31.46 4.91
-4 4 -11 28.65 4.56
-4 4 -11 37.68 5.2
-4 4 -11 34.54 5.05
-4 4 -11 28.88 4.74
-4 4 -12 124.52 9.32
-4 4 -12 116.01 9.01
-4 4 -12 125.58 9.23
-4 4 -12 118.88 9.12
-4 4 -12 130.99 9.48
-4 4 -12 120.53 9.06
-4 4 -12 130.67 9.23
-4 4 -12 128.98 8.94
-4 4 -13 10.07 2.41
-4 4 -13 5.91 1.86
-4 4 -13 9.78 2.5
-4 4 -13 7.43 2.05
-4 4 -13 10.05 2.37
-4 4 -13 9.33 2.11
-4 4 -13 9.66 2.21
-4 4 -13 11.32 2.4
-4 4 -14 27.12 3.22
-4 4 -14 21.74 3.01
-4 4 -14 22.37 2.88
-4 4 -14 26.09 3.2
-4 4 -14 23.12 3.11
-4 4 -14 21.86 2.99
-4 4 -14 21.64 2.76
-4 4 -14 18.91 2.53
4 5 -15 60.85 4.63
4 5 -15 63.67 5.05
4 5 -15 54.27 4.42
4 5 -15 60.51 4.87
4 5 -14 2.15 1.14
4 5 -14 4.45 1.44
4 5 -14 2.27 1.17
4 5 -14 4.49 1.65
4 5 -14 3.21 1.26
4 5 -14 2.93 1.36
4 5 -13 346.41 16.07
4 5 -13 331.48 15.97
4 5 -13 343.56 16.84
4 5 -13 323.61 15.82
4 5 -13 336.6 16.56
4 5 -12 56.96 6.03
4 5 -12 54.3 6.11
4 5 -12 56.58 6.51
4 5 -12 47.74 5.35
4 5 -12 51.87 5.89
4 5 -12 52.02 6.01
4 5 -11 43.44 5.61
4 5 -11 39.55 5.36
4 5 -11 40.86 5.86
4 5 -11 51.78 7.14
4 5 -11 42.07 5.63
4 5 -11 43.84 5.9
4 5 -10 39.95 5.35
4 5 -10 30.18 4.86
4 5 -10 37.68 5.69
4 5 -10 30.23 4.87
4 5 -10 36.16 5.39
4 5 -9 324.52 17.3
4 5 -9 318.86 17.15
4 5 -9 346.12 18.82
4 5 -9 314.67 17.36
4 5 -9 338 18.12
4 5 -8 24.6 4.08
4 5 -8 31.79 5.35
4 5 -8 28.53 4.74
4 5 -7 196.08 17.15
4 5 -7 232.97 13.4
4 5 -7 219.9 14.42
4 5 -7 201.21 17.93
4 5 -7 204.23 13.45
4 5 -6 46.27 8.12
4 5 -6 61.09 6.35
4 5 -6 69 7.49
4 5 -6 55.35 8.38
4 5 -5 183.91 15.13
4 5 -5 145.77 10.05
4 5 -5 153.49 11.43
-4 5 5 181.62 15.14
4 5 -5 160.18 14.35
4 5 -4 0.9 0.93
-4 5 4 -0.29 1.18
4 5 -4 -0.01 1.41
-4 5 3 713.15 32.58
4 5 -3 659.53 31.72
-4 5 2 271.63 17.5
-4 5 2 316.24 20.37
4 5 -2 305.16 20.37
4 5 -1 23.78 5.57
-4 5 1 21.51 4.66
-4 5 1 24.22 5.54
-4 5 0 14.46 3.39
-4 5 0 18.84 4.23
-4 5 0 22.62 5.35
-4 5 -1 104.19 10.23
-4 5 -1 102.26 10.24
-4 5 -1 118.45 12.05
-4 5 -2 88.45 9.56
-4 5 -2 105.96 10.92
-4 5 -2 99.72 10.38
-4 5 -2 120.32 12.22
-4 5 -3 275.07 19.76
-4 5 -3 298.84 19.74
-4 5 -3 252.29 17.05
-4 5 -3 252.56 17.67
-4 5 -4 45.23 7.92
-4 5 -4 40.1 5.59
-4 5 -4 50.98 7.9
-4 5 -4 46.02 7.3
-4 5 -4 41.3 6.59
-4 5 -4 51.97 8.48
-4 5 -4 36.08 4.56
-4 5 -5 11.53 2.67
-4 5 -5 11.18 3.9
-4 5 -5 10.88 2.93
-4 5 -5 16.57 4.82
-4 5 -5 9.14 3.61
-4 5 -5 13.37 3.27
-4 5 -5 16.31 4.86
-4 5 -6 292 21.95
-4 5 -6 266.45 20.72
-4 5 -6 307.11 17.32
-4 5 -6 310.5 22.12
-4 5 -6 287.23 19.74
-4 5 -6 324.14 17.15
-4 5 -6 259.29 19.38
-4 5 -7 124.11 10.32
-4 5 -7 116.75 10.15
-4 5 -7 132.27 10.13
-4 5 -8 136.62 10.8
-4 5 -8 148.83 10.84
-4 5 -8 154.27 11.34
-4 5 -8 147.48 11.65
-4 5 -9 40.54 5.9
-4 5 -9 39.04 5.49
-4 5 -9 43.54 5.86
-4 5 -9 37.53 5.53
-4 5 -9 47.53 6.36
-4 5 -10 18.59 3.65
-4 5 -10 21.61 3.98
-4 5 -10 20.48 3.71
-4 5 -10 15.38 3.38
-4 5 -10 16.41 3.51
-4 5 -10 21.88 4.05
-4 5 -11 32.67 4.54
-4 5 -11 37.57 4.96
-4 5 -11 33.15 4.45
-4 5 -11 36.68 4.84
-4 5 -11 39.83 5.04
-4 5 -11 30.38 4.62
-4 5 -11 35.24 4.74
-4 5 -12 124.41 8.77
-4 5 -12 97.96 7.36
-4 5 -12 116.64 8.31
-4 5 -12 126.06 8.63
-4 5 -12 105.15 7.87
-4 5 -12 121.95 8.73
-4 5 -12 127.67 8.58
-4 5 -12 93.4 6.97
-4 5 -12 110.87 7.79
-4 5 -13 200.37 10.53
-4 5 -13 190.21 10.07
-4 5 -13 187.57 10.08
-4 5 -13 201.98 10.56
-4 5 -13 165.51 9.31
-4 5 -13 186.42 9.83
-4 5 -13 174.82 9.42
-4 5 -14 9.68 1.8
-4 5 -14 12.87 2.06
4 6 -14 46.17 4.05
4 6 -14 47.13 4.1
4 6 -14 45.54 4.01
4 6 -14 45.12 4.31
4 6 -14 46.11 4.13
4 6 -13 0.34 0.78
4 6 -13 -1.09 0.86
4 6 -13 0.52 0.76
4 6 -13 -0.13 0.92
4 6 -13 -0.12 0.66
4 6 -12 101.75 7.85
4 6 -12 101.09 7.79
4 6 -12 100.65 8.13
4 6 -12 86.81 7.1
4 6 -12 90.05 7.57
4 6 -12 88.16 7.05
4 6 -11 42.53 5.21
4 6 -11 44.43 5.4
4 6 -11 44.8 5.82
4 6 -11 38.8 4.84
4 6 -11 38.25 4.99
4 6 -10 177.24 11.8
4 6 -10 185.89 12.06
4 6 -10 187.48 12.83
4 6 -10 160.15 11.54
4 6 -9 522.57 23.09
4 6 -9 536.55 23.4
4 6 -9 530.21 24.54
4 6 -9 483.03 22.92
4 6 -8 293.41 15.9
4 6 -8 285.39 16.03
4 6 -8 280.05 16.9
4 6 -8 259.54 15.55
4 6 -7 481.62 21.95
4 6 -7 516.78 24.34
4 6 -6 51.38 5.99
4 6 -6 59.57 6.95
4 6 -5 50.66 5.86
4 6 -5 69.65 7.51
4 6 -5 55.06 8.74
4 6 -4 14.12 4.28
4 6 -3 22.4 5.85
-4 6 2 442.29 24.72
-4 6 2 418.51 25.47
4 6 -2 498.9 28.64
-4 6 1 76.34 9.94
-4 6 1 82.73 9.7
4 6 -1 95.8 12
-4 6 0 2.65 2.27
-4 6 0 4.54 2.6
4 6 0 4.16 2.48
-4 6 -1 330.16 22.33
-4 6 -1 358.6 22.03
-4 6 -1 306.51 20.66
-4 6 -2 71.49 9.96
-4 6 -2 83.03 9.94
-4 6 -2 84.56 10.18
-4 6 -2 71.47 10.2
-4 6 -3 250.31 19.55
-4 6 -3 279.76 19.15
-4 6 -3 267.87 19.34
-4 6 -3 248.55 19.75
-4 6 -4 228.04 19.07
-4 6 -4 235.76 19.3
-4 6 -4 255.65 18.49
-4 6 -4 259.05 19.27
-4 6 -5 108.3 9.68
-4 6 -6 118.34 9.94
-4 6 -7 87.79 8.1
-4 6 -7 90.18 8.99
-4 6 -7 82.2 8.24
-4 6 -8 112.21 9.73
-4 6 -8 112.84 9.37
-4 6 -8 122.62 10.24
-4 6 -9 27.87 4.71
-4 6 -9 32.37 5.04
-4 6 -9 24.89 4.18
-4 6 -9 25.96 4.25
-4 6 -9 28.2 4.44
-4 6 -10 7.73 2.14
-4 6 -10 10.6 2.79
-4 6 -10 10.13 2.65
-4 6 -10 11.78 2.86
-4 6 -10 8.63 2.13
-4 6 -10 12.31 2.8
-4 6 -11 48.9 5.26
-4 6 -11 48.89 5.25
-4 6 -11 51.08 5.49
-4 6 -11 50.3 5.29
-4 6 -11 39.7 4.48
-4 6 -11 54.89 5.64
-4 6 -11 37.49 4.51
-4 6 -12 62.22 5.11
-4 6 -12 81.85 6.33
-4 6 -12 73.85 5.81
-4 6 -12 81.6 6.32
-4 6 -12 82.27 6.28
-4 6 -12 81.08 6.19
-4 6 -12 68.47 5.55
-4 6 -13 84.19 5.55
-4 6 -13 82.44 5.61
-4 6 -13 82.92 5.52
-4 6 -13 84 5.5
-4 6 -13 72.37 4.92
4 7 -13 8.09 1.73
4 7 -13 5.52 1.39
4 7 -13 6.37 1.46
4 7 -13 5.98 1.61
4 7 -12 30.76 3.64
4 7 -12 26.36 3.46
4 7 -12 28.51 3.74
4 7 -12 27.35 3.41
4 7 -12 25.68 3.31
4 7 -11 25.05 3.67
4 7 -11 23.55 3.46
4 7 -11 26.51 4.07
4 7 -11 26.51 3.7
4 7 -10 44.44 5.17
4 7 -10 43.26 5.19
4 7 -10 44.29 5.48
4 7 -10 35.54 4.74
4 7 -9 45.76 5.49
4 7 -9 55.36 6.09
4 7 -9 55.66 6.49
4 7 -8 108.79 8.8
4 7 -8 129.05 9.87
4 7 -8 114.34 9.98
4 7 -7 7.38 2.21
4 7 -7 17.17 3.57
4 7 -7 14.71 3.69
4 7 -6 97.43 8.33
-4 7 -4 323.71 17.38
-4 7 -5 12.11 3.1
-4 7 -6 70.13 7.35
-4 7 -6 57.21 6.93
-4 7 -7 17.39 3.64
-4 7 -7 26.02 4.24
-4 7 -7 16.77 3.36
-4 7 -8 146.06 11.11
-4 7 -8 149.48 10.38
-4 7 -8 137.43 10.18
-4 7 -9 12.59 2.83
-4 7 -9 13.25 3.04
-4 7 -9 11.52 2.63
-4 7 -9 10.54 2.48
-4 7 -9 10.61 2.6
-4 7 -10 6.55 1.83
-4 7 -10 7.52 2.11
-4 7 -10 5.18 1.62
-4 7 -10 8.02 2.07
-4 7 -10 8.23 2.18
-4 7 -10 9.65 2.33
-4 7 -11 97.84 6.91
-4 7 -11 87.1 6.22
-4 7 -11 93.12 6.5
-4 7 -11 101.5 6.71
-4 7 -11 92.9 6.39
-4 7 -11 103.25 6.97
-4 7 -11 86.28 6.24
-4 7 -12 68.87 5.03
-4 7 -12 69.81 4.93
-4 7 -12 65.99 4.64
4 8 -11 35.16 3.95
4 8 -11 33.66 3.55
4 8 -11 30.37 3.52
4 8 -11 29.82 3.45
4 8 -11 33.38 3.59
4 8 -10 17.91 2.76
4 8 -10 23.36 3.47
4 8 -10 18.87 3.15
4 8 -9 51.55 5.33
4 8 -9 59.58 5.96
4 8 -9 52.36 5.55
4 8 -8 18.4 3.44
4 8 -8 25.37 4.05
4 8 -8 20.01 3.56
4 8 -7 105.14 8.23
4 8 -7 131.84 9.71
4 8 -6 93.59 8.24
4 8 -5 64.11 6.79
-4 8 -6 12.41 2.76
-4 8 -6 14.78 3.17
-4 8 -7 129.55 9.59
-4 8 -7 121.88 8.71
-4 8 -7 99.95 7.71
-4 8 -8 83.09 7.08
-4 8 -8 71.78 5.83
-4 8 -8 90.75 6.78
-4 8 -8 68.8 5.86
-4 8 -8 96.6 7.42
-4 8 -9 20.71 3.04
-4 8 -9 22.84 3.4
-4 8 -9 17.2 2.5
-4 8 -9 21.28 2.94
-4 8 -9 24.59 3.42
-4 8 -10 5.22 1.45
-4 8 -10 6.99 1.74
-4 8 -10 2.52 0.96
-4 8 -10 7.45 1.69
4 9 -10 86.24 5.43
4 9 -9 4.34 1.38
4 9 -9 2.51 1.1
4 9 -8 2.62 1.16
4 9 -8 2.22 1
4 9 -7 8.13 2.15
4 9 -7 7.49 1.91
4 9 -6 131.5 8.92
4 9 -6 125 8.49
-4 9 -4 62.69 5.79
-4 9 -5 59.74 5.39
-4 9 -6 63.14 5.87
-4 9 -6 57.34 5.11
-4 9 -7 87.12 6.46
-4 9 -7 86.14 6.14
-4 9 -7 98.46 6.79
-4 9 -8 10.77 2.02
-4 9 -8 5.77 1.42
-4 9 -8 7.29 1.56
-4 9 -9 7.13 1.48
4 10 -7 9.92 1.86
4 10 -6 132.68 7.77
4 10 -5 73.36 5.86
4 10 -4 135.14 8.31
4 10 -3 5.54 1.85
-4 10 -6 16.06 2.22
-5 -10 5 5.88 1.36
-5 -10 5 6.32 1.39
-5 -10 4 3.62 1.15
-5 -10 4 4.19 1.2
-5 -10 3 38.45 3.83
-5 -10 3 50.14 4.44
-5 -10 2 60.93 5.07
-5 -10 2 61.67 5.2
-5 -10 1 52.26 4.67
-5 -10 1 56.55 4.99
-5 -10 0 26.12 3.18
-5 -10 0 31.18 3.62
-5 -10 -1 1.77 0.88
-5 -10 -1 2.75 1.01
-5 -10 -2 131.92 7.16
-5 -10 -2 176.79 8.67
-5 -10 -3 1.04 0.64
-5 -10 -4 13.9 1.94
-5 -9 8 89.8 5.87
-5 -9 8 83.9 5.68
-5 -9 7 38.79 4.05
-5 -9 7 30.06 3.62
-5 -9 6 5.81 1.49
-5 -9 6 3.26 1.42
-5 -9 5 248.63 13.07
-5 -9 5 250.02 13.22
-5 -9 4 18.49 3.28
-5 -9 4 14.18 3.03
-5 -9 3 21.68 3.69
-5 -9 3 22.82 3.77
-5 -9 2 34.69 4.66
-5 -9 2 36.9 4.97
-5 -9 1 148.52 10.26
-5 -9 1 159.2 10.67
-5 -9 0 1.77 1.25
-5 -9 0 3.29 2.27
-5 -9 -1 108.59 8.25
-5 -9 -1 139.86 9.55
-5 -9 -2 83.65 6.63
-5 -9 -2 90.07 7.23
-5 -9 -3 23.93 3.14
-5 -9 -3 30.74 4.06
-5 -9 -4 25.54 3.41
-5 -9 -5 1.8 0.83
-5 -9 -6 9.83 1.83
-5 -8 10 10.65 1.89
-5 -8 10 14.26 2.37
-5 -8 9 122.56 8.1
-5 -8 9 111.62 7.66
-5 -8 8 19.15 3.36
-5 -8 8 18.62 3.3
-5 -8 7 45.39 5.5
-5 -8 7 39.34 5.04
-5 -8 6 78.44 7.6
-5 -8 6 76.55 7.42
-5 -8 5 208.88 13.39
-5 -8 5 206.67 13.47
-5 -8 4 126.29 10.29
-5 -8 4 132.43 10.64
-5 -8 3 -0.52 1.83
-5 -8 3 2.54 1.84
-5 -8 2 98.11 9.12
-5 -8 2 106.93 9.49
-5 -8 1 23.92 4.31
-5 -8 1 19.08 3.85
5 -8 -1 18.96 4.08
-5 -8 0 20.97 3.99
-5 -8 0 23.96 4.29
5 -8 0 19.13 4
-5 -8 -1 122.5 9.6
5 -8 1 129.16 10.58
-5 -8 -1 122.68 9.7
-5 -8 -2 117.86 9.05
-5 -8 -2 128.98 9.89
5 -8 2 128.75 10.49
-5 -8 -3 19.42 3.33
-5 -8 -3 23.1 3.88
5 -8 3 25.65 4.4
-5 -8 -4 35.2 4.2
-5 -8 -4 47.65 5.42
5 -8 4 46.14 5.87
-5 -8 -5 65.61 6.12
-5 -8 -6 4.28 1.49
-5 -8 -7 41.41 4.17
-5 -8 -8 13.38 2.21
-5 -8 -8 13.33 2.1
-5 -7 12 37.72 3.63
-5 -7 11 22.75 3.11
-5 -7 11 23.04 3.28
-5 -7 10 18.73 3.32
-5 -7 10 17.41 3.16
-5 -7 9 61.22 6.75
5 -7 -9 60.06 5.88
-5 -7 9 53.46 5.98
-5 -7 8 48.45 6.21
5 -7 -8 40.22 5.09
-5 -7 8 30.61 4.78
-5 -7 7 334.48 18.44
5 -7 -7 305.03 16.05
-5 -7 7 285.9 16.98
-5 -7 6 250.69 16.01
5 -7 -6 250.42 14.33
5 -7 -6 208.87 14.23
-5 -7 6 231.38 15.21
-5 -7 5 70.31 8.16
5 -7 -5 70.53 7.26
-5 -7 5 72.28 8.35
5 -7 -5 56.56 7.17
-5 -7 4 251.25 16.45
5 -7 -4 247.25 14.63
-5 -7 4 243.12 15.99
5 -7 -4 240.11 16.21
-5 -7 3 207.65 14.74
-5 -7 3 201.35 14.4
5 -7 -3 207.86 15.04
-5 -7 2 336 19.2
5 -7 -2 337.82 20.02
-5 -7 2 353.89 19.3
5 -7 -2 321.91 18.44
-5 -7 1 312.35 17.8
5 -7 -1 345.41 19.67
5 -7 -1 282.29 17.06
-5 -7 1 297.08 17.37
5 -7 -1 304.66 18.09
-5 -7 0 300.72 17.42
5 -7 0 314.15 18.79
5 -7 0 334.44 18.8
-5 -7 0 328.33 17.93
5 -7 0 340.52 19.39
-5 -7 -1 54.28 6.49
5 -7 1 51.53 6.91
5 -7 1 51.77 6.86
-5 -7 -1 50.52 6.28
5 -7 1 65.33 7.85
-5 -7 -2 142.56 10.62
5 -7 2 172.63 12.93
-5 -7 -2 150.09 11.27
5 -7 2 183.14 13.4
-5 -7 -3 16.95 3.46
5 -7 3 18.48 4.14
-5 -7 -3 23.61 4.19
5 -7 3 22.01 4.55
-5 -7 -4 248.1 14.54
5 -7 4 260.71 15.99
5 -7 4 262.63 15.86
-5 -7 -5 149.48 10.45
5 -7 5 155.8 11.64
5 -7 5 145.86 11.46
-5 -7 -6 74.8 7.43
-5 -7 -6 76.73 6.85
5 -7 6 69.36 7.21
5 -7 6 92.02 8.61
-5 -7 -7 13.64 3.03
-5 -7 -7 11.96 2.51
5 -7 7 15.02 3.27
-5 -7 -8 26.78 4.18
-5 -7 -8 23.18 3.24
-5 -7 -9 34.57 4.39
-5 -7 -10 50.63 4.85
-5 -7 -11 15.56 2.24
-5 -6 13 27.01 3.28
-5 -6 12 52.8 5.08
-5 -6 12 57.56 5.53
-5 -6 11 89.59 7.72
5 -6 -11 74.24 6.78
-5 -6 11 95.28 8.02
5 -6 -10 8.63 2.17
5 -6 -10 6.32 2.12
-5 -6 10 8.99 2.7
-5 -6 9 4.35 2.16
5 -6 -9 1.54 1.08
5 -6 -9 1.28 1.43
-5 -6 8 460.45 23.74
5 -6 -8 466.69 21.47
5 -6 -8 460.54 23.37
5 -6 -8 445.18 22.88
-5 -6 7 21.27 4.41
5 -6 -7 17.46 3.79
5 -6 -7 16.38 4.3
-5 -6 7 16.19 3.97
5 -6 -7 16.83 4.09
-5 -6 6 91.14 9.64
5 -6 -6 88.44 8.54
5 -6 -6 93.81 9.78
5 -6 -6 92.27 9.41
-5 -6 6 97.89 9.9
-5 -6 5 274.82 17.81
5 -6 -5 286.08 16.45
5 -6 -5 285.33 18.32
5 -6 -5 253.16 16.73
5 -6 -5 265.18 17.66
-5 -6 5 316.79 19.02
-5 -6 4 144.79 12.64
5 -6 -4 140.11 10.98
5 -6 -4 132.03 11.61
5 -6 -4 138.04 12.02
5 -6 -4 142.5 12.35
-5 -6 4 150.52 12.47
-5 -6 3 283.51 18.06
5 -6 -3 296.8 16.85
5 -6 -3 284.91 17.2
5 -6 -3 294.39 18.34
5 -6 -3 271.68 18.07
-5 -6 3 296.11 17.96
-5 -6 2 571.32 26.94
5 -6 -2 515.88 30.34
5 -6 -2 581.17 26.14
-5 -6 2 574.05 26.32
5 -6 -2 556.35 26.99
5 -6 -2 581.69 27.99
5 -6 -2 556.66 26.43
-5 -6 1 65.47 7.71
5 -6 -1 60.39 9.68
5 -6 -1 77.18 8.54
5 -6 -1 79.23 8.77
5 -6 -1 80.26 8.59
-5 -6 1 74.15 7.96
5 -6 -1 80.68 8.72
5 -6 0 269.93 20.93
-5 -6 0 226.06 14.71
5 -6 0 237.25 15.62
5 -6 0 249.69 16.23
5 -6 0 251.14 16.25
-5 -6 0 262.28 15.52
5 -6 0 259.15 16.62
5 -6 0 231.93 15.6
5 -6 1 290.2 22.42
-5 -6 -1 242.19 15.31
5 -6 1 319.83 18.73
5 -6 1 280.84 17.3
5 -6 1 310.13 18.41
-5 -6 -1 310.71 17.02
5 -6 1 321.62 18.67
-5 -6 -2 44.03 5.67
5 -6 2 56.35 9.5
5 -6 2 46.75 6.43
5 -6 2 52.29 7.06
-5 -6 -2 47.26 6.04
5 -6 2 54.27 7.17
5 -6 2 52.67 6.97
5 -6 3 464.85 22.85
5 -6 3 405.99 21.64
5 -6 3 457.95 23.09
5 -6 3 475.06 23.54
-5 -6 -3 412.09 20.75
5 -6 3 449.41 23.33
5 -6 4 76.14 8.26
-5 -6 -4 77.71 7.75
5 -6 4 91.49 9.25
5 -6 4 94.54 9.36
-5 -6 -5 304.39 17.87
5 -6 5 284.74 16.97
-5 -6 -5 299.7 16.16
5 -6 5 274.4 17.04
5 -6 5 318.66 18.57
-5 -6 -6 65.33 7.64
5 -6 6 60.96 7.43
5 -6 6 58.67 6.88
-5 -6 -6 58.14 6.19
5 -6 6 65.84 7.49
5 -6 7 34.04 5.15
-5 -6 -7 36.83 5.58
5 -6 7 37.1 5.52
-5 -6 -7 28.32 4.12
-5 -6 -7 32.97 5.13
-5 -6 -8 42.6 5.84
5 -6 8 31.74 4.61
-5 -6 -8 34.2 4.31
-5 -6 -8 40.33 5.52
5 -6 8 37.65 5.28
-5 -6 -9 50.3 6.01
-5 -6 -9 47.78 5.76
5 -6 9 50.41 5.94
-5 -6 -10 7.32 2.34
-5 -6 -10 5.85 2
-5 -6 -11 26.39 3.59
-5 -6 -11 27.8 3.68
-5 -6 -12 65.39 5.02
-5 -5 14 38.84 4
-5 -5 13 95.38 6.98
5 -5 -13 112.28 7.7
5 -5 -12 56.81 5.73
-5 -5 12 61.78 6.31
5 -5 -12 55.73 5.81
5 -5 -12 64.3 6.29
5 -5 -11 131.48 10.18
5 -5 -11 135.23 10.14
5 -5 -11 161.86 10.88
5 -5 -10 67.72 6.67
5 -5 -10 50.14 6.46
5 -5 -10 59.56 7.13
5 -5 -10 51.56 6.07
5 -5 -10 56.99 6.61
5 -5 -9 161.78 11.31
5 -5 -9 168.96 12.49
5 -5 -9 157.68 12.3
5 -5 -9 147.34 11.28
5 -5 -9 140.62 11.14
5 -5 -8 86.83 8.31
5 -5 -8 91.26 9.46
5 -5 -8 81.08 8.42
5 -5 -8 93.06 9.54
5 -5 -8 79.88 8.18
5 -5 -7 68.53 7.52
5 -5 -7 66.74 8
5 -5 -7 53.36 7.17
5 -5 -7 65.09 8.02
5 -5 -7 67.67 7.78
5 -5 -7 61.54 7.1
5 -5 -6 87.2 8.45
5 -5 -6 76.9 8.68
5 -5 -6 59.72 7.43
5 -5 -6 67.76 8.25
5 -5 -6 83.96 9.42
5 -5 -6 69.09 7.61
5 -5 -5 73.89 7.78
5 -5 -5 57.56 7.38
5 -5 -5 49.48 8.5
5 -5 -5 56.07 7.41
5 -5 -5 70.83 8.29
5 -5 -5 58.6 7.67
5 -5 -4 48.7 6.38
5 -5 -4 46.16 6.41
5 -5 -4 41.14 7.61
5 -5 -4 47.93 6.76
5 -5 -4 38.96 6.34
5 -5 -4 45.29 6.96
5 -5 -4 47.39 6.53
-5 -5 3 262.86 16.78
5 -5 -3 262.48 15.75
5 -5 -3 255.16 19.11
5 -5 -3 222.65 14.83
5 -5 -3 222.62 15.66
5 -5 -3 236.87 16.11
5 -5 -3 236.96 16.46
-5 -5 3 264.99 16.28
5 -5 -3 238.3 15.44
5 -5 -2 554.44 29.79
-5 -5 2 465.5 23.45
5 -5 -2 475.03 22.72
5 -5 -2 454.35 23.62
5 -5 -2 487.19 24.04
5 -5 -2 487.79 24.47
5 -5 -2 406.23 21.91
-5 -5 2 499.25 23.24
5 -5 -2 430.85 22.5
-5 -5 1 31.22 5.04
5 -5 -1 33.31 5.57
5 -5 -1 31.54 6.5
5 -5 -1 35.85 5.46
5 -5 -1 42.52 6.15
-5 -5 1 35.54 5.26
5 -5 -1 32.81 5.54
5 -5 -1 39.6 6.11
5 -5 -1 37.99 5.79
5 -5 -1 36.4 5.72
-5 -5 0 111.54 9.73
5 -5 0 142.41 11.15
5 -5 0 146.9 11.71
5 -5 0 156.09 12.07
-5 -5 0 124.64 10.16
5 -5 0 147.71 11.82
5 -5 0 134.45 11.38
5 -5 1 142.79 11.17
5 -5 1 153.17 11.72
5 -5 1 163.54 12.54
-5 -5 -1 127.66 10.28
5 -5 1 173.93 12.89
-5 -5 -1 116.86 9.76
5 -5 1 140.92 11.77
5 -5 2 179.97 12.75
5 -5 2 206.19 14.14
5 -5 2 204.26 14.2
-5 -5 -2 180.49 12.44
5 -5 2 208.5 14.33
5 -5 2 182.51 13.08
5 -5 2 221.61 14.9
5 -5 3 826.71 34.46
5 -5 3 868.02 35.47
5 -5 3 931.5 36.25
5 -5 3 915.37 35.9
-5 -5 -3 813.88 32.78
5 -5 3 1013.17 44.59
5 -5 3 880.36 35.92
-5 -5 -4 191.12 13.88
5 -5 4 196.74 13.65
5 -5 4 202.09 13.8
-5 -5 -4 191.8 12.46
5 -5 4 206.57 14.32
5 -5 4 198.19 13.87
5 -5 4 216.3 18.74
5 -5 4 195.46 13.91
-5 -5 -5 785.75 32.56
5 -5 5 700.05 30.3
-5 -5 -5 680.67 28.18
5 -5 5 739.56 31.11
5 -5 5 786.07 32.21
5 -5 5 697.77 30.73
-5 -5 -6 176.08 13.27
5 -5 6 145.44 11.44
-5 -5 -6 143.5 10.18
-5 -5 -6 160.99 12.29
5 -5 6 148.53 11.7
5 -5 6 165.86 12.6
5 -5 7 188.85 13.41
-5 -5 -7 213.54 14.57
5 -5 7 188.12 13.04
-5 -5 -7 165.16 10.74
5 -5 7 186.69 12.87
-5 -5 -7 214.86 14.28
-5 -5 -8 151.5 12.01
5 -5 8 136.52 10.54
-5 -5 -8 145.36 11.52
5 -5 8 145.7 11.14
-5 -5 -9 89.77 8.69
5 -5 9 81.39 7.61
-5 -5 -9 103.34 9.29
5 -5 9 88.3 8.18
-5 -5 -10 38.65 5.32
-5 -5 -10 41.25 5.43
5 -5 10 39.37 5.15
-5 -5 -11 95.78 7.86
-5 -5 -11 116.7 8.64
5 -5 11 114.54 8.55
-5 -5 -12 13.9 2.44
-5 -5 -12 15.37 2.7
-5 -5 -13 13.74 2.15
-5 -5 -13 16.38 2.37
5 -4 -15 5.2 1.54
-5 -4 14 91.97 6.61
5 -4 -14 93.75 6.44
5 -4 -13 100.33 7.67
5 -4 -13 102.64 7.88
5 -4 -13 120.8 8.72
5 -4 -12 289.19 15.73
5 -4 -12 254.34 14.54
5 -4 -12 279.27 14.66
5 -4 -12 262.07 14.88
5 -4 -12 300.7 15.67
5 -4 -11 89.56 8.46
5 -4 -11 83.29 8.11
5 -4 -11 73.48 7.75
5 -4 -11 76.76 7.58
5 -4 -11 88.38 8.2
5 -4 -10 168.97 12.4
5 -4 -10 192.86 13.12
5 -4 -10 185.59 13.13
5 -4 -10 173.49 12.33
5 -4 -10 192.74 12.91
5 -4 -9 614.61 26.09
5 -4 -9 572.64 26.37
5 -4 -9 651.81 27.88
5 -4 -9 585.05 26.56
5 -4 -9 591.41 27.48
5 -4 -9 605.15 26.51
5 -4 -8 243.84 14.83
5 -4 -8 215.45 14.38
5 -4 -8 256.06 16.13
5 -4 -8 252.8 16.31
5 -4 -8 226.4 14.87
5 -4 -8 231.09 14.53
5 -4 -7 845.88 31.91
5 -4 -7 740.79 30.72
5 -4 -7 852.06 33.08
5 -4 -7 648.28 30.32
5 -4 -7 779.09 32.39
5 -4 -7 615.89 37.11
5 -4 -7 766.86 32.43
5 -4 -7 749.91 31.35
5 -4 -7 720.41 30.11
5 -4 -6 81.19 11.5
5 -4 -6 110.24 9.54
5 -4 -6 83.45 10.68
5 -4 -6 112.01 9.93
5 -4 -6 92.23 9.49
5 -4 -6 106.14 10
5 -4 -6 97.98 9.79
5 -4 -6 107.66 10.19
5 -4 -6 102.19 9.34
5 -4 -6 81.75 8.19
5 -4 -5 168.44 11.94
5 -4 -5 159.66 14.28
5 -4 -5 146.59 11.52
5 -4 -5 140.27 12.01
5 -4 -5 161.44 12.74
5 -4 -5 167.6 13.05
5 -4 -5 136.4 14.41
5 -4 -5 144.14 11.3
5 -4 -5 162.99 12.19
5 -4 -5 137.05 10.59
5 -4 -4 27.3 4.94
5 -4 -4 25.25 5.68
5 -4 -4 18.79 3.71
5 -4 -4 19.91 4.25
5 -4 -4 22.65 4.43
5 -4 -4 26.09 4.72
5 -4 -4 19.38 4.08
5 -4 -4 27.46 4.71
5 -4 -4 25.16 4.33
5 -4 -3 106.46 11.17
5 -4 -3 99.43 8.91
5 -4 -3 74.65 7.97
5 -4 -3 80.47 8.75
5 -4 -3 97.27 9.39
5 -4 -3 84.67 8.97
5 -4 -3 84.44 8.25
5 -4 -2 63.88 8.65
5 -4 -2 51.33 6.32
5 -4 -2 47.49 6.46
5 -4 -2 53.84 7.03
5 -4 -2 51.76 6.34
5 -4 -1 94.99 10.68
5 -4 -1 72.83 7.8
5 -4 0 101.51 10.94
5 -4 0 76.64 7.73
5 -4 1 429.9 21.88
5 -4 1 397.81 20.85
5 -4 1 433.94 20.99
5 -4 1 412.68 21.13
5 -4 1 462.02 22.5
5 -4 1 490.65 23.13
5 -4 2 283.52 16.7
5 -4 2 260.5 15.46
5 -4 2 266.11 16.03
5 -4 2 254.72 15.58
5 -4 2 284.85 16.66
5 -4 2 304.78 17.2
5 -4 3 303.36 17.04
5 -4 3 283.73 16.72
5 -4 3 334.17 17.85
5 -4 3 323.97 17.95
5 -4 3 310.89 17.72
5 -4 3 357.66 22.34
5 -4 3 292.29 17.12
5 -4 4 113.88 10.05
5 -4 4 128.98 10.56
5 -4 4 138.97 10.9
5 -4 4 146.64 11.4
5 -4 4 155.71 14.52
5 -4 4 120.24 10.27
5 -4 5 222.84 14.49
-5 -4 -5 194.9 13.61
5 -4 5 179.79 13.09
5 -4 5 222.46 14.22
5 -4 5 211.01 13.91
5 -4 5 239.61 18.65
5 -4 5 220.47 14.4
5 -4 6 125.68 10.66
5 -4 6 138.47 11.03
-5 -4 -6 162.33 12.2
5 -4 6 151.01 11.68
5 -4 6 156.18 15.13
5 -4 6 150.59 11.84
5 -4 7 1079.55 40.33
5 -4 7 976.7 38.84
-5 -4 -7 1134.03 41.34
5 -4 7 1054.66 39.89
5 -4 7 1075.42 40.98
-5 -4 -8 34.31 5.61
5 -4 8 33.26 5.06
-5 -4 -8 33.51 5.27
5 -4 8 28.11 4.68
5 -4 8 34.96 5.15
-5 -4 -9 91.02 8.9
-5 -4 -9 92 8.8
5 -4 9 86.88 8.41
-5 -4 -10 79.08 7.81
-5 -4 -10 82.14 7.96
5 -4 10 84.25 8.08
-5 -4 -11 22.32 3.88
-5 -4 -11 14.58 3.13
5 -4 11 17.87 3.59
-5 -4 -12 45.41 5.09
5 -4 12 52.32 5.72
-5 -4 -12 50.35 5.34
-5 -4 -13 19.87 2.89
-5 -4 -13 20.22 2.99
-5 -4 -14 102 6.02
5 -3 -15 8.42 1.9
5 -3 -14 8.14 2.11
5 -3 -14 12.62 2.84
5 -3 -14 9.4 2.16
5 -3 -14 9.97 2.34
5 -3 -14 10.9 2.57
5 -3 -13 30.97 4.42
5 -3 -13 33.21 4.7
5 -3 -13 33.4 4.54
5 -3 -13 37.33 4.8
5 -3 -13 23.81 4.1
5 -3 -12 59.66 6.65
5 -3 -12 56.59 6.42
5 -3 -12 55.38 6.32
5 -3 -12 48.9 6.13
5 -3 -12 64.98 6.9
5 -3 -11 483.48 22.88
5 -3 -11 515.83 23.65
5 -3 -11 468.38 22.45
5 -3 -11 478.12 23.12
5 -3 -11 487.95 22.78
5 -3 -10 99.86 9.26
5 -3 -10 110.42 9.67
5 -3 -10 104.63 9.52
5 -3 -10 105.13 9.69
5 -3 -10 102.42 9.18
5 -3 -9 362.91 19.69
5 -3 -9 322.35 18.13
5 -3 -9 369.48 19.11
5 -3 -9 323.25 18.2
5 -3 -9 350.31 18.33
5 -3 -8 90.04 8.46
5 -3 -8 93.28 9.02
5 -3 -8 91.21 8.84
5 -3 -8 85.01 8.61
5 -3 -8 90.5 8.95
5 -3 -8 89.43 12.61
5 -3 -8 101.36 9.49
5 -3 -8 95.13 8.94
5 -3 -8 87.76 8.33
5 -3 -7 884.79 35.22
5 -3 -7 958 36.02
5 -3 -7 938.63 36.42
5 -3 -7 866.87 35.95
5 -3 -7 928.55 36.69
5 -3 -7 847.73 43.53
5 -3 -7 947.21 35.83
5 -3 -7 985.51 37.02
5 -3 -7 929.3 34.8
5 -3 -6 134.04 10.26
5 -3 -6 125.75 12.16
5 -3 -6 129.01 10.15
5 -3 -6 136.83 10.57
5 -3 -6 137.71 11.38
5 -3 -6 134.35 11.24
5 -3 -6 127.92 13.82
5 -3 -6 147.08 11.86
5 -3 -6 141.25 10.67
5 -3 -6 141.52 10.96
5 -3 -6 132.56 9.97
5 -3 -5 93.4 10.11
5 -3 -5 83.62 7.91
5 -3 -5 92.11 8.29
5 -3 -5 101.57 11.6
5 -3 -5 89.97 8.13
5 -3 -5 90.28 8.48
5 -3 -4 225.16 15.92
5 -3 -4 177.82 15.1
5 -3 -3 99.42 10.12
5 -3 -3 84.55 9.86
5 -3 -2 879.27 36.28
5 -3 -2 770.55 35.58
5 -3 -1 112.12 10.69
5 -3 0 93.95 9.77
5 -3 1 1087.19 43.18
5 -3 2 132.5 12.04
5 -3 3 470.86 25.13
5 -3 4 304.09 17.18
5 -3 4 316.24 17.14
5 -3 4 323.44 17.38
5 -3 4 302 17.01
5 -3 4 369.59 21.72
-5 -3 -5 197.48 13.25
5 -3 5 194.74 12.96
5 -3 5 174.88 12.26
5 -3 5 192.63 12.99
5 -3 5 202.8 16.05
5 -3 5 195.73 13.43
5 -3 6 133.32 10.86
5 -3 6 129.91 10.44
-5 -3 -6 154.71 11.63
5 -3 6 140.82 10.91
5 -3 6 157.97 14.37
5 -3 6 145.25 11.68
5 -3 7 6.73 2.5
5 -3 7 1.63 1.77
5 -3 7 8.65 2.54
5 -3 7 7.4 2.7
5 -3 7 4.46 2.21
-5 -3 -7 4.97 1.88
5 -3 8 1.63 1.03
-5 -3 -8 7.2 2.63
5 -3 8 5.15 2.45
5 -3 9 13.56 3.41
5 -3 9 16.78 3.79
-5 -3 -9 19.36 3.99
-5 -3 -10 1007.21 38.1
-5 -3 -10 958.92 36.49
-5 -3 -10 1002.28 37.9
5 -3 10 1088.85 39.35
-5 -3 -11 18.06 3.62
-5 -3 -11 18.12 3.39
-5 -3 -11 19.98 3.75
-5 -3 -11 16.52 3.47
5 -3 11 18.29 3.65
-5 -3 -12 63.32 6.45
-5 -3 -12 56.78 5.73
-5 -3 -12 59.16 5.85
5 -3 12 72.4 7.06
-5 -3 -12 76.55 6.94
-5 -3 -13 31.26 4.11
-5 -3 -13 29.88 3.92
-5 -3 -14 93.99 6.2
-5 -3 -14 92.95 6.33
5 -2 -16 32.31 3.33
5 -2 -15 56.99 5.37
5 -2 -15 51.64 4.85
5 -2 -15 56.61 5.14
5 -2 -15 52.19 5.12
5 -2 -15 58.16 5.31
5 -2 -14 20.34 3.45
5 -2 -14 21.2 3.54
5 -2 -14 26.43 4.05
5 -2 -14 24.19 3.78
5 -2 -14 24.07 3.83
5 -2 -13 19.97 3.67
5 -2 -13 19.26 3.61
5 -2 -13 20.88 3.85
5 -2 -13 17.93 3.4
5 -2 -13 18.48 3.58
5 -2 -12 67.74 7.23
5 -2 -12 78.02 7.7
5 -2 -12 71.26 7.17
5 -2 -12 65.98 7.29
5 -2 -12 69.28 7.31
5 -2 -12 74.68 7.5
5 -2 -11 337.96 18.43
5 -2 -11 351.49 18.67
5 -2 -11 363.49 19.33
5 -2 -11 332.82 17.75
5 -2 -11 351.7 18.58
5 -2 -11 348.73 18.24
5 -2 -10 37.25 5.57
5 -2 -10 30.23 4.79
5 -2 -10 36.98 5.28
5 -2 -10 35.63 5.35
5 -2 -10 33.02 5.16
5 -2 -10 32.68 5.28
5 -2 -10 28.9 4.58
5 -2 -9 358.22 18.55
5 -2 -9 356.2 18.75
5 -2 -9 301.99 17.15
5 -2 -9 317.48 18.11
5 -2 -9 373.71 19.42
5 -2 -9 356.45 26.63
5 -2 -9 333.18 17.5
5 -2 -9 338.4 18.18
5 -2 -9 346.52 17.95
5 -2 -8 164.31 11.77
5 -2 -8 167.42 11.82
5 -2 -8 165.41 11.88
5 -2 -8 149.7 11.65
5 -2 -8 165.47 16.99
5 -2 -8 160.66 11.29
5 -2 -8 179.42 12.53
5 -2 -8 176.4 12.08
5 -2 -8 178.96 12.49
5 -2 -8 183.51 12.01
5 -2 -7 111.15 9.21
5 -2 -7 108.09 9.13
5 -2 -7 113.22 9.29
5 -2 -7 106.79 9.25
5 -2 -7 112.68 9.89
5 -2 -7 126.97 14.02
5 -2 -7 127.86 10.23
5 -2 -7 116.56 9.57
5 -2 -7 107.53 8.93
5 -2 -7 96.63 8.38
5 -2 -6 98.81 10.27
5 -2 -6 116.28 9.2
5 -2 -6 110.29 12.54
5 -2 -6 127.37 9.75
5 -2 -6 110.37 8.88
5 -2 -5 17.53 4.07
5 -2 -5 21.12 5.22
5 -2 -4 410.75 21.71
5 -2 -4 370.69 22.83
5 -2 -3 552.9 26.02
5 -2 -2 1434.31 48.68
-5 -2 2 1228.42 44.01
5 -2 -1 478.6 23.13
-5 -2 1 395.39 20.64
-5 -2 0 421.82 21.44
5 -2 0 525.53 24.77
-5 -2 -1 128.96 10.51
5 -2 1 146.73 12.16
-5 -2 -2 181.51 13.05
5 -2 2 209.16 14.83
-5 -2 -3 491.81 23.97
5 -2 3 492.81 25.48
-5 -2 -4 135.16 11.69
5 -2 4 151.47 12.99
5 -2 5 214.67 14.08
-5 -2 -5 205.5 13.44
5 -2 5 189.18 12.77
5 -2 5 227.23 16.6
-5 -2 -6 68.31 7.06
5 -2 6 77.04 7.88
5 -2 6 73.39 7.42
-5 -2 -6 87.47 8.51
5 -2 6 93.72 8.57
5 -2 6 87.51 10.3
5 -2 6 84.9 8.57
-5 -2 -7 155.02 11.42
5 -2 7 154.4 11.79
-5 -2 -7 182.37 12.69
5 -2 7 154.03 11.41
5 -2 7 173 12.3
5 -2 7 195.96 16.48
5 -2 7 189.65 13.55
5 -2 8 14.88 3.75
5 -2 8 14.73 4.77
-5 -2 -8 14.41 3.34
-5 -2 -8 16.44 3.57
-5 -2 -8 14.8 3.37
5 -2 8 16.18 3.59
-5 -2 -9 205.98 13.6
-5 -2 -9 213.21 14.17
5 -2 9 228.3 14.99
-5 -2 -9 243.67 15.11
-5 -2 -9 219.86 14.14
-5 -2 -10 127.72 10.24
-5 -2 -10 135.32 10.85
-5 -2 -10 131.52 10.48
-5 -2 -10 125.57 10.34
5 -2 10 144.83 11.46
-5 -2 -11 75.84 7.55
-5 -2 -11 81.34 7.81
-5 -2 -11 79.19 7.61
-5 -2 -11 80.1 7.88
5 -2 11 74.81 7.93
-5 -2 -12 22.34 3.94
-5 -2 -12 25.7 4.08
5 -2 12 29.51 4.56
-5 -2 -12 26.57 4.17
-5 -2 -12 25.71 3.95
-5 -2 -12 26.42 4.03
-5 -2 -13 162.66 10.27
-5 -2 -13 163.22 9.96
-5 -2 -13 147.93 9.42
-5 -2 -13 161.77 9.88
-5 -2 -13 165.22 10.36
5 -2 13 163.74 10.15
-5 -2 -14 0.94 0.58
-5 -2 -14 0.97 0.57
-5 -2 -14 2.07 1.09
-5 -2 -14 3.1 1.22
-5 -2 -14 1.76 0.83
5 -1 -16 14.51 2.38
5 -1 -16 15.67 2.41
5 -1 -16 15.7 2.32
5 -1 -16 14.17 2.25
5 -1 -15 79.96 6.56
5 -1 -15 76.17 6.23
5 -1 -15 79.75 6.65
5 -1 -15 73.14 6.21
5 -1 -15 71.17 6.05
5 -1 -14 29.71 4.3
5 -1 -14 22.76 3.74
5 -1 -14 27.89 4.1
5 -1 -14 21.09 3.53
5 -1 -14 25.84 3.97
5 -1 -14 27.26 4
5 -1 -13 43.85 5.43
5 -1 -13 46.45 5.8
5 -1 -13 42.5 5.63
5 -1 -13 41.17 5.29
5 -1 -13 51.65 6.05
5 -1 -13 50.23 5.8
5 -1 -12 182.23 12.46
5 -1 -12 179.27 12.36
5 -1 -12 173.66 12.16
5 -1 -12 187.65 12.46
5 -1 -12 171.63 11.86
5 -1 -12 185.82 12.92
5 -1 -12 172.35 11.88
5 -1 -11 478.37 22.72
5 -1 -11 541.48 23.66
5 -1 -11 480.18 22.69
5 -1 -11 473.57 23
5 -1 -11 468.94 22.25
5 -1 -11 498.58 23.52
5 -1 -11 472.67 22.2
5 -1 -10 154.98 11.54
5 -1 -10 182.4 12.29
5 -1 -10 158.21 11.42
5 -1 -10 150.86 11.65
5 -1 -10 162.46 11.67
5 -1 -10 163.06 11.55
5 -1 -10 177.09 12.46
5 -1 -10 152.83 11.16
5 -1 -9 108.73 9.34
5 -1 -9 121.25 10.06
5 -1 -9 105.58 9.09
5 -1 -9 113 9.96
5 -1 -9 103.18 9.09
5 -1 -9 110.87 9.24
5 -1 -9 108.74 9.24
5 -1 -9 101.31 13.45
5 -1 -9 125.91 10.21
5 -1 -9 105.72 8.95
5 -1 -8 70.42 7.39
5 -1 -8 93.18 8.19
5 -1 -8 80.01 7.83
5 -1 -8 89.45 8.68
5 -1 -8 94.63 12.42
5 -1 -8 70.56 7.35
5 -1 -8 81.63 7.67
5 -1 -8 78.23 7.58
5 -1 -8 79.56 7.77
5 -1 -8 71.75 7.11
5 -1 -7 123.37 9.19
5 -1 -7 102.95 8.71
5 -1 -7 97.22 8.92
5 -1 -7 97.74 8.33
5 -1 -7 104.85 12.37
5 -1 -7 109.48 9.22
5 -1 -7 88.93 8.03
5 -1 -7 118.29 9.42
5 -1 -6 472.15 24.83
5 -1 -6 539.18 29.2
5 -1 -5 94.94 9.39
5 -1 -5 95.82 10.93
5 -1 -4 587.44 27.01
5 -1 -3 221.41 14.37
-5 -1 3 161.59 11.43
5 -1 -2 605.63 26.36
-5 -1 2 562.22 24.56
5 -1 -1 10.92 3.03
-5 -1 1 13.02 2.94
-5 -1 1 9.71 2.6
-5 -1 0 610.18 24.96
-5 -1 0 621.5 26.54
5 -1 0 691.58 29.05
-5 -1 -1 166.45 10.87
-5 -1 -1 176.86 11.69
-5 -1 -1 180.63 12.07
5 -1 1 204.82 14.13
-5 -1 -2 373.55 18.76
-5 -1 -2 386.75 18.12
-5 -1 -2 369.09 19.19
5 -1 2 428.12 21.81
-5 -1 -3 135.65 10.88
-5 -1 -3 121.64 9.99
-5 -1 -3 127.99 9.61
5 -1 3 143.96 12.04
-5 -1 -4 598.12 26.86
-5 -1 -4 679.16 29.77
-5 -1 -4 635.1 26.79
-5 -1 -4 575.89 27.37
5 -1 4 680.47 30.49
-5 -1 -5 188.11 13.19
-5 -1 -5 198.86 14.69
-5 -1 -5 191.09 13.29
-5 -1 -5 169.69 13.32
5 -1 5 173.7 14.39
5 -1 6 212.19 14.55
-5 -1 -6 209.42 15.57
-5 -1 -6 222.67 14.06
-5 -1 -6 267.75 17.07
-5 -1 -6 254.84 17.74
-5 -1 -6 196.58 12.96
-5 -1 -6 289.86 17.43
-5 -1 -6 248.83 14.71
5 -1 6 250.46 14.93
5 -1 6 278.35 18.88
-5 -1 -7 117.07 10.01
-5 -1 -7 133.24 12.19
-5 -1 -7 138.62 13.21
-5 -1 -7 117.91 9.85
-5 -1 -7 116.29 9.63
-5 -1 -7 136.46 10.78
5 -1 7 125.54 10.48
5 -1 7 164.96 15.02
5 -1 7 110.72 10.22
5 -1 8 2.81 2.91
-5 -1 -8 -1.75 1.47
-5 -1 -8 -1.08 2.19
-5 -1 -8 4.06 2.27
-5 -1 -8 0.94 1.17
-5 -1 -8 0.34 0.97
5 -1 8 0.78 1.29
-5 -1 -9 124.9 10.53
-5 -1 -9 113.78 10.06
-5 -1 -9 123.78 10.43
-5 -1 -9 125.48 10.23
5 -1 9 125.34 10.81
-5 -1 -10 466.74 22.9
-5 -1 -10 463.71 22.84
-5 -1 -10 496.5 23.25
-5 -1 -10 467.58 22.56
5 -1 10 507.05 24.1
-5 -1 -11 104.77 9.27
-5 -1 -11 112.12 9.4
-5 -1 -11 99.18 8.9
-5 -1 -11 110.83 9.56
5 -1 11 119.12 10.03
-5 -1 -12 85.69 8
-5 -1 -12 86.49 8.01
-5 -1 -12 90.94 7.91
-5 -1 -12 82.42 7.61
-5 -1 -12 81.63 7.71
5 -1 12 92.56 8.18
-5 -1 -13 94.67 7.68
-5 -1 -13 108.08 8.27
-5 -1 -13 95.27 7.62
-5 -1 -13 103.08 7.97
-5 -1 -13 104.75 8.18
-5 -1 -14 12.94 2.35
-5 -1 -14 15.13 2.62
-5 -1 -14 14.04 2.37
-5 -1 -14 15.94 2.67
-5 -1 -14 16.45 2.69
-5 -1 -15 1.86 0.71
5 0 -16 24.92 3.16
5 0 -16 18.06 2.55
5 0 -16 23.16 2.89
5 0 -16 20.16 2.77
5 0 -16 23.33 2.96
5 0 -15 196.29 11.18
5 0 -15 198.98 11.01
5 0 -15 207.97 11.34
5 0 -15 199.9 11.4
5 0 -15 216.32 11.51
5 0 -15 204.33 11.03
5 0 -14 117.17 8.99
5 0 -14 106.27 8.46
5 0 -14 115.19 8.71
5 0 -14 110.65 8.6
5 0 -14 115.96 8.71
5 0 -14 112.37 8.47
5 0 -13 945.56 35.49
5 0 -13 1016.11 35.94
5 0 -13 906.48 35.14
5 0 -13 962.34 35.29
5 0 -13 1003.65 36.25
5 0 -13 943.03 35.03
5 0 -13 917.35 34.64
5 0 -12 30.03 4.79
5 0 -12 30.53 4.82
5 0 -12 20.48 3.79
5 0 -12 27.21 4.75
5 0 -12 30.6 4.76
5 0 -12 30.13 4.57
5 0 -12 30.84 4.95
5 0 -12 28.89 4.5
5 0 -11 59.47 6.91
5 0 -11 72.9 7.59
5 0 -11 67.75 7.19
5 0 -11 61.13 7.23
5 0 -11 65.16 7.28
5 0 -11 55.82 6.6
5 0 -11 61.87 6.81
5 0 -11 64.28 6.92
5 0 -10 1200.01 44.24
5 0 -10 1294.74 44.6
5 0 -10 1260.27 45.42
5 0 -10 1164.32 56
5 0 -10 1184.47 43.79
5 0 -10 1224.8 44.08
5 0 -10 1230.06 43.74
5 0 -10 1288.36 44.94
5 0 -10 1242.17 43.82
5 0 -9 226.94 14.13
5 0 -9 228.12 14.09
5 0 -9 255.62 14.94
5 0 -9 238.58 14.92
5 0 -9 237.18 20.75
5 0 -9 247.8 14.81
5 0 -9 246.32 14.46
5 0 -9 224.22 13.82
5 0 -9 238.65 14.6
5 0 -9 208.93 13.14
5 0 -8 149.48 10.84
5 0 -8 168.88 11.31
5 0 -8 146.92 10.84
5 0 -8 187.73 11.97
5 0 -8 171.48 11.61
5 0 -8 176.08 12.09
5 0 -8 162.77 16.14
5 0 -8 185.19 12.04
5 0 -8 148.53 10.87
5 0 -8 193.8 12.39
5 0 -8 131.43 9.93
5 0 -7 183.16 11.37
5 0 -7 173.18 11.54
5 0 -7 152.65 11.03
5 0 -7 149.14 14.72
5 0 -7 146.15 10.42
5 0 -7 162.27 11.06
5 0 -6 27.11 5.87
5 0 -5 74.06 8.09
5 0 -5 82.88 10.12
-5 0 5 65.94 6.79
5 0 -4 13.08 3.46
-5 0 4 10.09 2.49
5 0 -3 738.16 29.6
-5 0 3 631.35 25.55
5 0 -2 426.59 20.58
-5 0 2 390.15 17.64
5 0 -2 375.26 18.09
-5 0 1 1832.17 57.97
-5 0 1 1800.92 58.96
-5 0 1 1903.74 61.75
-5 0 0 853.68 32.09
-5 0 0 844.94 30.66
-5 0 0 849.19 33.78
5 0 0 927.22 34.92
-5 0 -1 78.18 7.25
-5 0 -1 72.58 7.68
-5 0 -1 66.76 6.1
5 0 1 78.02 8.02
-5 0 -2 262.86 15.6
-5 0 -2 239.86 15.21
-5 0 -2 227.75 12.93
-5 0 -2 251.03 14.34
5 0 2 250.71 15.74
-5 0 -3 89.29 9.16
-5 0 -3 87.61 9.02
-5 0 -3 86.07 7.47
-5 0 -3 111.98 9.19
5 0 3 93.6 9.38
-5 0 -4 38.56 5.47
5 0 4 35.2 5.94
-5 0 -4 39.5 6.22
-5 0 -4 25.66 3.92
-5 0 -4 36.57 6.1
-5 0 -5 549.32 27.05
-5 0 -5 511.98 23.7
-5 0 -5 517.69 24.54
-5 0 -5 481.03 25.8
5 0 5 483.33 25.69
-5 0 -6 59.71 7.04
-5 0 -6 60.04 8.43
-5 0 -6 70.36 9.07
-5 0 -6 62.52 7.21
-5 0 -6 55.59 6.38
-5 0 -6 48.25 6.05
-5 0 -6 61.66 7.99
5 0 6 58.5 6.98
5 0 6 54.29 8.1
5 0 7 17.5 5.02
-5 0 -7 10.73 3.73
-5 0 -7 12.39 3.4
-5 0 -7 12.13 4.28
-5 0 -7 12.27 3.03
-5 0 -7 8.73 2.84
-5 0 -7 13.62 3.28
-5 0 -7 12.32 3
5 0 7 11.09 2.71
-5 0 -7 10.17 3.93
-5 0 -8 116.48 10.31
-5 0 -8 96.6 12.01
-5 0 -8 120.68 9.82
-5 0 -8 112.36 9.78
-5 0 -8 97.84 8.92
-5 0 -8 103.73 11.93
5 0 8 116.76 10.44
5 0 8 110.19 12.75
-5 0 -8 101.5 11.57
-5 0 -8 121.22 10.37
-5 0 -9 8.89 2.81
-5 0 -9 8.61 2.69
-5 0 -9 7.68 1.8
-5 0 -9 4.95 1.96
-5 0 -9 6.19 2.85
5 0 9 8.88 2.56
-5 0 -10 67.6 7.46
-5 0 -10 65.24 7.23
-5 0 -10 67.19 7.53
-5 0 -10 61.21 6.75
-5 0 -10 53.58 6.71
5 0 10 62.57 7.41
-5 0 -11 71.73 7.68
-5 0 -11 72.81 7.44
-5 0 -11 71.27 7.55
-5 0 -11 64.37 6.78
-5 0 -11 63.48 7.12
5 0 11 73.81 7.71
-5 0 -12 -0.08 0.9
-5 0 -12 0.25 1.01
-5 0 -12 -0.1 1.08
-5 0 -12 -1.95 1.84
-5 0 -12 0.77 0.99
-5 0 -13 219.54 12.56
-5 0 -13 272.82 14.19
-5 0 -13 258.92 13.73
-5 0 -13 260.54 13.89
-5 0 -13 247.72 13.46
-5 0 -14 13.76 2.67
-5 0 -14 10.88 2.12
-5 0 -14 16.35 2.7
-5 0 -14 9.73 1.97
-5 0 -15 33.35 3.31
-5 0 -15 26.78 2.88
-5 0 -15 27.93 3.07
5 1 -16 13.91 2.16
5 1 -16 16.12 2.36
5 1 -16 15.84 2.4
5 1 -16 15.93 2.46
5 1 -16 11.97 1.97
5 1 -15 76.88 6.27
5 1 -15 72.3 6.06
5 1 -15 57.86 5.31
5 1 -15 82.9 6.54
5 1 -15 76.76 6.3
5 1 -15 79.74 6.53
5 1 -15 72.8 6.01
5 1 -14 22.66 3.7
5 1 -14 22.52 3.68
5 1 -14 21.25 3.56
5 1 -14 23.55 3.79
5 1 -14 22.46 3.67
5 1 -14 22.8 3.86
5 1 -14 19.06 3.3
5 1 -13 41.43 5.33
5 1 -13 33.91 4.81
5 1 -13 43.06 5.14
5 1 -13 37.26 5.21
5 1 -13 42.13 5.37
5 1 -13 50.1 6.03
5 1 -13 40.38 5.22
5 1 -13 38.99 4.96
5 1 -12 190.93 12.67
5 1 -12 197.71 12.74
5 1 -12 186.72 12.22
5 1 -12 175.07 12.44
5 1 -12 183.42 12.42
5 1 -12 186.72 12.26
5 1 -12 188.16 12.53
5 1 -12 176.5 11.82
5 1 -11 459.47 22.26
5 1 -11 507.69 22.69
5 1 -11 492.64 22.55
5 1 -11 489.76 23.14
5 1 -11 460.84 21.93
5 1 -11 466.52 22.33
5 1 -11 488.36 22.33
5 1 -11 500.73 22.84
5 1 -11 464 21.66
5 1 -10 149.63 10.94
5 1 -10 154.96 11.41
5 1 -10 186.47 12.02
5 1 -10 168.75 11.94
5 1 -10 160.22 11.44
5 1 -10 152.92 11.57
5 1 -10 160.06 11.51
5 1 -10 162.58 11.7
5 1 -10 160.14 11.65
5 1 -10 144.6 10.65
5 1 -9 101.68 8.89
5 1 -9 96.89 8.81
5 1 -9 126.5 9.69
5 1 -9 127.74 10.01
5 1 -9 114.22 9.68
5 1 -9 104.71 12.34
5 1 -9 107.71 13.54
5 1 -9 107.36 9.07
5 1 -9 114.69 9.44
5 1 -9 114.64 9.5
5 1 -9 116.33 9.6
5 1 -8 78.82 7.63
5 1 -8 91.44 7.92
5 1 -8 87.35 7.96
5 1 -8 86.79 8.28
5 1 -8 71.82 10.34
5 1 -8 79.32 7.75
5 1 -8 75.62 7.54
5 1 -8 84.01 7.78
5 1 -8 77.98 9.98
5 1 -8 76.28 7.64
5 1 -7 89.96 8.25
5 1 -7 121.72 8.93
5 1 -7 113.92 8.89
5 1 -7 100.4 8.7
5 1 -7 112.59 12.52
5 1 -7 109.53 9.08
5 1 -7 96.07 8.24
5 1 -7 103.88 11.15
5 1 -7 92.75 8.29
5 1 -6 537.3 28.94
5 1 -6 514.58 26.69
5 1 -5 83.57 8.2
5 1 -5 107.64 11.58
-5 1 5 90.83 7.8
5 1 -4 501.89 24.01
-5 1 4 544.06 21.65
5 1 -4 515.68 23.21
5 1 -3 193.81 12.74
-5 1 3 194.21 11.21
5 1 -3 184.37 12.4
5 1 -2 545.82 24.18
-5 1 2 540.61 22.83
-5 1 2 572.82 22.55
5 1 -2 543.61 24.78
-5 1 2 594.12 26.52
5 1 -1 12.65 2.92
-5 1 1 12.74 2.83
-5 1 1 15.58 2.99
-5 1 1 11.9 3.26
5 1 0 649.75 27.82
-5 1 0 722.77 26.91
-5 1 0 623.8 28.4
-5 1 0 720.66 27.72
-5 1 -1 200.41 13.66
-5 1 -1 213.66 12.33
-5 1 -1 213.96 13.29
-5 1 -1 187.75 13.36
5 1 1 196.81 13.05
-5 1 -2 425.77 21.79
-5 1 -2 451.53 20.01
-5 1 -2 467.66 21.41
-5 1 -2 381.31 21.16
5 1 2 417.99 21.01
-5 1 -3 137.38 11.71
-5 1 -3 150.69 11.31
-5 1 -3 155.06 10.78
-5 1 -3 135.21 11.68
5 1 3 134.79 11.04
-5 1 -4 712.7 30.04
-5 1 -4 674.68 30.82
-5 1 -4 765 29.7
-5 1 -4 608.89 30.5
5 1 4 630.15 29.15
-5 1 -5 211.45 14.72
-5 1 -5 205.18 15.46
-5 1 -5 207.56 13.95
-5 1 -5 179.48 14.82
5 1 5 166.44 13.56
-5 1 -6 265.02 15.77
-5 1 -6 284.45 19.2
-5 1 -6 254.56 15.14
-5 1 -6 304.27 18.94
-5 1 -6 209.03 13.62
-5 1 -6 282 15.68
-5 1 -6 311.33 17.94
-5 1 -6 243.18 18.36
5 1 6 239.12 15.43
5 1 6 247.37 17.49
-5 1 -7 104.94 11.4
-5 1 -7 148.29 11.51
-5 1 -7 138.24 13.69
-5 1 -7 139.74 13.95
-5 1 -7 145.2 10.72
-5 1 -7 150.81 13.84
-5 1 -7 126.5 11.52
-5 1 -7 145.76 11.14
-5 1 -7 147.85 11.39
-5 1 -7 149.96 11.44
5 1 7 140.53 11.36
-5 1 -8 0.38 0.99
-5 1 -8 1.38 1.72
-5 1 -8 2.71 2.23
-5 1 -8 0.85 1.08
-5 1 -8 1.29 1.22
-5 1 -8 2.59 1.32
5 1 8 -0.74 1.17
-5 1 -8 -1.76 2.12
-5 1 -8 0.17 1.66
-5 1 -9 118 10.23
-5 1 -9 121.32 9.94
-5 1 -9 136.76 10.84
-5 1 -9 116.44 10.19
-5 1 -9 124.07 10.54
5 1 9 109.52 9.94
-5 1 -10 471.07 22.96
-5 1 -10 506.82 23.06
-5 1 -10 499.84 23.39
-5 1 -10 477.57 23.24
-5 1 -10 476.14 22.87
-5 1 -11 108.45 9.31
-5 1 -11 110.4 9.32
-5 1 -11 99.85 8.57
-5 1 -11 111.64 9.5
-5 1 -11 115.16 9.57
-5 1 -11 99.78 8.99
-5 1 -12 97.54 8.35
-5 1 -12 92.76 8.19
-5 1 -12 86.69 7.37
-5 1 -12 92.72 8.21
-5 1 -12 89.73 7.82
-5 1 -12 79.34 7.42
-5 1 -13 114.09 8.37
-5 1 -13 102.11 7.99
-5 1 -13 111.19 8.29
-5 1 -13 100.43 7.63
-5 1 -13 92.46 7.32
-5 1 -14 12.37 2.18
-5 1 -14 16.88 2.75
-5 1 -14 14.16 2.5
-5 1 -14 16.63 2.57
-5 1 -14 15.02 2.66
-5 1 -15 1.05 0.45
-5 1 -15 0.75 0.61
-5 1 -15 1.44 0.64
5 2 -16 31.1 3.18
5 2 -16 32.04 3.47
5 2 -16 34.59 3.51
5 2 -15 58.82 5.33
5 2 -15 47.35 4.48
5 2 -15 55.83 5.04
5 2 -15 50.53 4.85
5 2 -15 52.73 4.79
5 2 -15 60.4 5.48
5 2 -15 48.04 4.51
5 2 -14 24.58 3.57
5 2 -14 21.69 3.52
5 2 -14 22.66 3.39
5 2 -14 19.75 3.55
5 2 -14 21.03 3.34
5 2 -14 28.5 4.04
5 2 -14 24.08 3.82
5 2 -14 21.76 3.44
5 2 -13 23.24 3.89
5 2 -13 19.4 3.35
5 2 -13 18.08 3.32
5 2 -13 16.75 3.51
5 2 -13 24.55 4.02
5 2 -13 23.18 4.18
5 2 -13 21.6 3.87
5 2 -13 17.55 3.25
5 2 -12 59.16 6.45
5 2 -12 66.52 6.9
5 2 -12 76.55 7.33
5 2 -12 72.21 7.15
5 2 -12 69.72 7.42
5 2 -12 70.22 7.14
5 2 -12 76.28 7.49
5 2 -12 66.51 7.15
5 2 -12 67.65 6.87
5 2 -11 347.78 18
5 2 -11 382.85 18.53
5 2 -11 357.35 18.23
5 2 -11 361.34 18.92
5 2 -11 348.19 18.07
5 2 -11 342.49 18.17
5 2 -11 365.98 18.68
5 2 -11 328.33 18.07
5 2 -11 311.05 16.96
5 2 -10 32.26 4.8
5 2 -10 40.9 5.39
5 2 -10 33.67 5.13
5 2 -10 37.74 5.59
5 2 -10 32.07 4.62
5 2 -10 26.98 4.64
5 2 -10 37.48 5.4
5 2 -10 33.76 5.1
5 2 -9 387.18 18.37
5 2 -9 358.13 18.08
5 2 -9 367.08 18.76
5 2 -9 347.81 18.22
5 2 -9 294.22 23.63
5 2 -9 367.17 18.76
5 2 -9 307.3 17.34
5 2 -9 321.92 23.04
5 2 -9 355.08 18.37
5 2 -8 194.54 12.05
5 2 -8 177.13 11.67
5 2 -8 158.32 11.49
5 2 -8 156.9 15.82
5 2 -8 187.64 12.49
5 2 -8 175.89 11.92
5 2 -8 149.55 14.69
5 2 -8 168.19 11.71
5 2 -7 120.04 11.43
5 2 -7 105.2 8.51
5 2 -7 113.61 8.95
5 2 -7 108.73 9.11
5 2 -7 101.97 12.13
5 2 -7 121.24 9.51
5 2 -7 108.21 8.94
5 2 -7 100.34 11.33
5 2 -7 100.83 8.73
5 2 -6 112.27 10.67
5 2 -6 119.73 9.13
5 2 -6 115.76 12.4
5 2 -6 115.78 9.23
5 2 -6 124.22 12.17
5 2 -5 20.58 4.73
5 2 -5 19.38 4.2
5 2 -5 23.43 5.43
-5 2 4 402.32 17.53
5 2 -4 349 19.72
-5 2 3 516.06 21.62
-5 2 3 560.19 21.56
5 2 -3 490.14 24.01
-5 2 2 1348.38 44.63
-5 2 2 1531.42 45.79
5 2 -2 1381.86 49.29
-5 2 2 1380.11 49.27
-5 2 1 500.23 21.07
-5 2 1 456.51 20.52
-5 2 1 437.83 22.61
-5 2 0 475.78 24.62
-5 2 0 532.98 24.84
-5 2 0 557.86 23.68
-5 2 0 539.13 23.76
-5 2 -1 163.59 11.75
-5 2 -1 164.34 12.54
-5 2 -1 165.93 11.61
-5 2 -1 141.86 11.89
-5 2 -2 243.62 14.95
-5 2 -2 238.69 15.89
-5 2 -2 220.34 14.1
-5 2 -3 560.98 25.46
-5 2 -3 535.51 26.71
-5 2 -3 546.29 25.14
-5 2 -3 466.81 25.31
-5 2 -4 154.45 12.49
-5 2 -4 158.37 13.49
-5 2 -4 185.01 13.64
-5 2 -4 134.87 12.63
-5 2 -5 261.93 17.18
-5 2 -5 213.06 13.94
-5 2 -5 253.23 18.15
-5 2 -5 239.29 14.2
-5 2 -5 229.83 13.72
-5 2 -5 239.02 17.86
-5 2 -6 71.55 9.75
-5 2 -6 100.41 10.7
-5 2 -6 88.11 8.6
-5 2 -6 105.53 9.21
-5 2 -6 95.51 11.05
-5 2 -6 104.87 8.67
-5 2 -6 128.94 11.87
-5 2 -6 83.33 10.58
-5 2 -6 97.17 8.76
5 2 6 84.46 8.62
-5 2 -7 173.35 15.5
-5 2 -7 190.73 15.58
-5 2 -7 191.96 13.32
-5 2 -7 194.19 16.72
-5 2 -7 231.49 13.76
-5 2 -7 150.45 13.53
-5 2 -7 176.44 16.18
-5 2 -7 211.68 13.61
-5 2 -7 198.39 13.28
5 2 7 176.47 12.96
-5 2 -8 8.46 3.79
-5 2 -8 13.6 3.23
-5 2 -8 18.24 3.83
-5 2 -8 14.93 3.71
-5 2 -8 8.84 2.67
-5 2 -8 13.49 3.45
-5 2 -8 15.94 4.89
-5 2 -8 17.68 3.71
-5 2 -8 11.21 3.93
-5 2 -8 11.13 4.07
-5 2 -9 222.37 14.38
-5 2 -9 229.96 14.67
-5 2 -9 236.05 14.51
-5 2 -9 241.67 14.84
-5 2 -9 213.76 14.54
-5 2 -9 230.34 14.69
-5 2 -10 117.64 9.96
-5 2 -10 131.49 10.6
-5 2 -10 154.04 11.08
-5 2 -10 129.68 10.33
-5 2 -10 136.03 10.87
-5 2 -10 125.52 10.34
-5 2 -11 76.33 7.46
-5 2 -11 74.89 7.46
-5 2 -11 84.74 8.04
-5 2 -11 66.98 6.98
-5 2 -11 79.06 7.69
-5 2 -11 77.03 7.68
-5 2 -11 77.31 7.54
-5 2 -12 27.94 4.14
-5 2 -12 29.8 4.47
-5 2 -12 24.7 3.96
-5 2 -12 25.67 4.04
-5 2 -12 28.55 4.19
-5 2 -12 23.38 3.95
-5 2 -12 25.12 3.87
-5 2 -13 143.73 9.11
-5 2 -13 169.94 10.21
-5 2 -13 149.74 9.2
-5 2 -13 171.16 10.3
-5 2 -13 162.75 9.98
-5 2 -13 161.8 9.92
-5 2 -14 2.99 1.33
-5 2 -14 3.01 1.48
-5 2 -14 0.7 0.59
-5 2 -14 3.33 1.77
5 3 -15 4.93 1.43
5 3 -15 7.62 2.01
5 3 -15 5.77 1.62
5 3 -15 6.51 1.75
5 3 -14 5.92 1.71
5 3 -14 9.66 2.15
5 3 -14 10.77 2.49
5 3 -14 10.1 2.53
5 3 -14 11.46 2.55
5 3 -13 28.22 4
5 3 -13 34.98 4.67
5 3 -13 31.91 4.34
5 3 -13 35.61 4.88
5 3 -13 37.27 4.92
5 3 -13 39.76 5.15
5 3 -12 61.54 6.53
5 3 -12 60.55 6.45
5 3 -12 61.8 6.44
5 3 -12 62.19 7.04
5 3 -12 45.62 5.42
5 3 -12 65.33 6.88
5 3 -12 66.96 7.15
5 3 -11 497.13 23.12
5 3 -11 543.27 23.26
5 3 -11 528.87 23.24
5 3 -11 503.31 23.7
5 3 -11 483.59 22.52
5 3 -11 513.22 23.64
5 3 -11 527.45 23.9
5 3 -10 101.99 8.78
5 3 -10 100.57 8.75
5 3 -10 94.43 8.92
5 3 -10 92.93 8.63
5 3 -10 96.51 8.96
5 3 -10 103.91 9.26
5 3 -9 342.42 17.49
5 3 -9 345.22 17.83
5 3 -9 333.22 18.4
5 3 -9 355.6 18.38
5 3 -9 348.71 18.39
5 3 -9 321.83 17.9
5 3 -8 88.04 10.76
5 3 -8 87.95 7.95
5 3 -8 99.28 8.47
5 3 -8 88.58 8.63
5 3 -8 68.23 10.56
5 3 -8 96.23 8.92
5 3 -8 89.84 8.42
5 3 -8 80.51 11.15
5 3 -8 90.76 8.58
5 3 -7 856.08 39.23
5 3 -7 928.85 33.13
5 3 -7 926.13 33.49
5 3 -7 964.58 35.42
5 3 -7 794.4 40.47
5 3 -7 918.7 33.85
5 3 -7 817.52 33.16
5 3 -7 908.52 42.34
5 3 -7 843.47 33.38
5 3 -6 128.1 12.27
5 3 -6 120.96 9.07
5 3 -6 156.95 10.54
5 3 -6 143.97 10.84
5 3 -6 119.14 13.08
5 3 -6 137.2 10.4
5 3 -6 145.71 14.02
5 3 -5 102.28 10.45
5 3 -5 82.74 7.55
5 3 -5 101.18 11.44
5 3 -5 95.15 8.11
5 3 -5 101.79 11.32
-5 3 4 188.76 12.03
5 3 -4 169.09 14.67
5 3 -4 188.02 14.62
-5 3 3 109.99 9.23
-5 3 3 112.21 11.3
5 3 -3 100.18 10.62
-5 3 2 895.23 34.52
-5 3 2 873.92 34.07
-5 3 2 871.43 38.28
5 3 -2 938.77 39.47
-5 3 1 109.3 9.6
-5 3 1 112.71 9.72
-5 3 1 98.18 10.36
-5 3 0 83.27 8.39
-5 3 0 74.1 8.42
-5 3 0 76.96 8.16
-5 3 0 77.68 9.09
-5 3 -1 1096.65 40.74
-5 3 -1 1080.72 42.41
-5 3 -1 1017.32 39.9
-5 3 -1 1001.4 41.65
-5 3 -2 136.35 11.53
-5 3 -2 133.59 12.27
-5 3 -2 139.82 11.7
-5 3 -2 142.59 12.62
-5 3 -3 437.65 24.01
-5 3 -3 418.14 23.39
-5 3 -3 446.16 24.81
-5 3 -4 370.13 21.31
-5 3 -4 357.38 18.12
-5 3 -4 364.66 22.76
-5 3 -4 370.67 21.49
-5 3 -4 327.75 16.84
-5 3 -4 355.87 22.15
-5 3 -5 207.53 13.09
-5 3 -5 191.77 15.03
-5 3 -5 206.67 13.73
-5 3 -5 220.64 17.44
-5 3 -5 255.97 17.31
-5 3 -5 201.15 12.64
-5 3 -5 194.18 16.47
5 3 5 213.18 14.19
-5 3 -6 139.89 14.3
-5 3 -6 134.2 12.97
-5 3 -6 150.71 11.57
-5 3 -6 149.09 14.57
-5 3 -6 155 11.29
-5 3 -6 159.19 11.78
-5 3 -6 131.99 13.74
-5 3 -6 162.51 11.66
-5 3 -7 6.15 3.13
-5 3 -7 8.52 2.86
-5 3 -7 8.48 3.24
-5 3 -7 4.99 2.68
-5 3 -7 8.23 2.55
-5 3 -7 9.31 2.96
-5 3 -7 7.76 2.77
-5 3 -7 5.06 2.56
-5 3 -8 4.3 2.19
-5 3 -8 6.23 2.19
-5 3 -8 3.18 1.72
-5 3 -8 5.73 2.17
-5 3 -8 2.74 1.42
-5 3 -9 20.42 4.52
-5 3 -9 14.9 3.46
-5 3 -9 15.14 3.52
-5 3 -9 14.53 3.65
-5 3 -9 15.22 3.37
-5 3 -9 20.48 4.11
-5 3 -10 1057.35 38.83
-5 3 -10 1009.92 38.24
-5 3 -10 1185.85 39.41
-5 3 -10 1052.17 38.52
-5 3 -10 1054.55 38.65
-5 3 -10 905.92 36.71
-5 3 -11 16.44 3.38
-5 3 -11 18.7 3.64
-5 3 -11 20.33 3.67
-5 3 -11 14.5 3.21
-5 3 -11 17.42 3.23
-5 3 -11 14.16 3.01
-5 3 -11 17 3.12
-5 3 -12 66.85 6.41
-5 3 -12 63.42 6.27
-5 3 -12 68.32 6.6
-5 3 -12 65.18 6.16
-5 3 -12 65.44 6.42
-5 3 -12 73.06 6.72
-5 3 -12 53.94 5.4
-5 3 -13 22.25 3.4
-5 3 -13 22.93 3.17
-5 3 -13 26.77 3.62
-5 3 -13 24.39 3.39
-5 3 -13 26.52 3.73
-5 3 -13 31.79 3.97
-5 3 -14 74.04 5.21
-5 3 -14 90.76 6
-5 3 -14 85.93 5.87
-5 3 -14 84.18 5.46
-5 3 -14 92.53 6.04
-5 3 -14 93.45 6.03
5 4 -15 8.84 1.78
5 4 -15 9.24 1.89
5 4 -15 8.15 1.6
5 4 -15 6.74 1.64
5 4 -14 131.37 8.17
5 4 -14 118.5 7.66
5 4 -14 138.39 8.96
5 4 -14 139.15 8.55
5 4 -14 133.45 8.64
5 4 -13 106.71 8.23
5 4 -13 122.29 8.6
5 4 -13 122.57 8.7
5 4 -13 123.99 9.22
5 4 -13 136.19 9.26
5 4 -13 124.92 9.14
5 4 -12 300.01 15.98
5 4 -12 324.97 16.01
5 4 -12 306.5 15.85
5 4 -12 313.87 16.69
5 4 -12 264.17 14.62
5 4 -12 280.91 15.42
5 4 -12 320.11 16.56
5 4 -11 92.82 8.15
5 4 -11 98.18 8.56
5 4 -11 88.03 8.59
5 4 -11 79.32 7.69
5 4 -11 89.89 8.3
5 4 -11 99.52 8.87
5 4 -10 197.41 12.81
5 4 -10 211.3 13.31
5 4 -10 202.82 13.85
5 4 -10 193.79 13.04
5 4 -10 214.6 13.71
5 4 -10 205.1 13.58
5 4 -9 607.03 25.89
5 4 -9 619.57 26.14
5 4 -9 611 27.5
5 4 -9 613.3 26.66
5 4 -9 604.52 26.59
5 4 -9 610.51 26.87
5 4 -8 220.7 13.59
5 4 -8 239.15 14.3
5 4 -8 240.58 15.45
5 4 -8 250.07 15.15
5 4 -8 234.43 14.54
5 4 -8 233.91 14.63
5 4 -7 682 35.7
5 4 -7 758.23 29.23
5 4 -7 770.1 29.99
5 4 -7 820.02 32.3
5 4 -7 744.08 29.91
5 4 -7 683.58 37.93
5 4 -7 679.36 29.46
5 4 -6 99.28 8.64
5 4 -6 77.21 10.03
5 4 -6 76.82 7.2
5 4 -6 100.7 8.68
5 4 -6 92.94 8.86
5 4 -6 81.03 11.15
5 4 -5 144.73 13.67
-5 4 5 150.31 14.58
5 4 -5 145.91 10.47
5 4 -5 132.81 10.75
5 4 -5 135.82 13.9
5 4 -4 14.05 4.06
5 4 -4 24.26 4
5 4 -4 20.72 4.04
5 4 -4 23.69 5.52
-5 4 4 28.64 6.37
-5 4 3 86.75 9.02
-5 4 3 113.88 12.12
5 4 -3 92.89 10.91
-5 4 2 49.73 6.85
-5 4 2 53.2 8.05
5 4 -2 52.84 8.27
-5 4 1 69.67 8.16
-5 4 1 72.91 8.67
-5 4 1 82.4 9.99
5 4 -1 91.14 11.11
-5 4 0 83.02 9.26
-5 4 0 92.26 9.64
-5 4 0 90.61 10.58
-5 4 -1 503.78 25.6
-5 4 -1 522.48 26.98
-5 4 -1 455.63 24.67
-5 4 -1 551.45 28.58
-5 4 -2 302.08 19.15
-5 4 -2 339.39 21.25
-5 4 -2 295.43 18.93
-5 4 -2 344.13 22.02
-5 4 -3 380.15 23.5
-5 4 -3 315.21 20.02
5 4 3 361.99 19.19
-5 4 -3 358.73 23.11
-5 4 -3 333.74 20.82
-5 4 -4 125.87 10.57
-5 4 -4 145.65 14.34
-5 4 -4 128.31 12.35
-5 4 -4 125.56 9.57
-5 4 -4 144.21 14.42
-5 4 -4 123.13 12.14
-5 4 -5 223 18.79
-5 4 -5 237.4 14.86
-5 4 -5 248.59 19.59
-5 4 -5 224.55 17.54
-5 4 -5 248.79 14.6
-5 4 -5 216.61 18.49
-5 4 -5 230.68 13.61
-5 4 -5 199.45 16.52
-5 4 -6 137.99 14.81
-5 4 -6 158.8 12.08
-5 4 -6 159.87 15.74
-5 4 -6 179.9 16.09
-5 4 -6 163.54 11.35
-5 4 -6 160 11.76
-5 4 -6 161.55 15.83
-5 4 -6 148.13 13.99
-5 4 -7 1101.91 41.72
-5 4 -7 1099.43 41.17
-5 4 -7 1137.19 41.48
-5 4 -7 1147.62 40.98
-5 4 -8 29.44 4.9
-5 4 -8 31.34 5.23
-5 4 -8 33.19 5.05
-5 4 -8 37.16 5.39
-5 4 -8 34.16 5.17
-5 4 -9 96.22 9.04
-5 4 -9 96.31 8.8
-5 4 -9 90.91 8.6
-5 4 -9 89.83 8.45
-5 4 -9 91.53 8.66
-5 4 -9 76.41 7.66
-5 4 -9 89.35 8.01
-5 4 -10 90.07 8.19
-5 4 -10 71.03 7.39
-5 4 -10 78.32 7.62
-5 4 -10 77.93 7.61
-5 4 -10 83.6 7.85
-5 4 -10 79.43 6.98
-5 4 -11 12.3 2.58
-5 4 -11 15.98 2.99
-5 4 -11 15.28 3
-5 4 -11 15.7 3.17
-5 4 -11 15.62 3.14
-5 4 -11 15.15 3.12
-5 4 -11 18.36 3.5
-5 4 -12 50.71 5.23
-5 4 -12 48.82 5.19
-5 4 -12 41.63 4.73
-5 4 -12 42.17 4.77
-5 4 -12 46.03 4.97
-5 4 -12 47.7 4.98
-5 4 -12 37.88 4.27
-5 4 -13 16.7 2.62
-5 4 -13 19.08 2.76
-5 4 -13 19.72 2.84
-5 4 -13 20.22 2.87
-5 4 -13 17.38 2.62
-5 4 -13 20.35 2.91
-5 4 -13 13.96 2.16
-5 4 -14 88.8 5.45
-5 4 -14 99.84 5.74
5 5 -14 31.23 3.4
5 5 -14 44.37 4.14
5 5 -14 42.09 3.91
5 5 -14 45.55 4.46
5 5 -14 36.71 3.62
5 5 -14 43.17 4.23
5 5 -13 124.52 8.36
5 5 -13 130.16 8.33
5 5 -13 125.46 8.24
5 5 -13 121.31 8.51
5 5 -13 103.97 7.03
5 5 -13 114.92 7.74
5 5 -13 118.12 8.23
5 5 -12 74.54 6.87
5 5 -12 68.74 6.47
5 5 -12 70.61 6.63
5 5 -12 81.17 7.32
5 5 -12 54.81 5.66
5 5 -12 71.38 6.42
5 5 -12 61.58 6.29
5 5 -11 160.78 10.87
5 5 -11 173.75 11.28
5 5 -11 169.96 11.72
5 5 -11 142.28 10.31
5 5 -11 151.48 10.52
5 5 -11 159.75 11.16
5 5 -10 63.41 6.72
5 5 -10 60.25 6.74
5 5 -10 60.47 7.09
5 5 -10 72.23 7.67
5 5 -10 51.22 6.04
5 5 -10 55.71 6.49
5 5 -9 161.3 11.52
5 5 -9 170.21 11.85
5 5 -9 175.07 12.75
5 5 -9 196.62 13.29
5 5 -9 149.59 11.46
5 5 -8 84.25 8.06
5 5 -8 90.11 8.72
5 5 -8 87.27 8.97
5 5 -8 89.41 8.62
5 5 -7 56.59 6.42
5 5 -7 64.79 7.14
5 5 -7 63.43 7.58
5 5 -6 53.72 9.13
5 5 -6 60.23 6.66
5 5 -6 70.24 7.46
5 5 -6 69.92 7.9
5 5 -6 50.43 8.7
-5 5 6 62.27 9.55
5 5 -5 71.08 7.43
5 5 -5 58.09 6.91
5 5 -5 44.11 7.84
-5 5 5 67.77 9.81
5 5 -4 40.72 5.67
5 5 -4 46.99 8.1
-5 5 4 49.78 8.51
5 5 -3 196.78 12.92
-5 5 3 255.57 19.67
5 5 -3 230.7 18.68
5 5 -2 466.31 22.72
-5 5 2 532.26 30.13
5 5 -2 492.44 29.24
5 5 -1 43.19 6.1
-5 5 1 34.87 7.03
5 5 -1 32.35 7.11
-5 5 1 33.57 6.06
-5 5 0 127.74 12.37
-5 5 0 134.12 12.96
-5 5 0 170.05 15.91
5 5 0 157.25 15.94
-5 5 -1 149.36 13.45
-5 5 -1 142.13 13.34
5 5 1 140.02 11.11
-5 5 -1 167.94 15.74
-5 5 -2 185.29 15.43
-5 5 -2 178.72 15.28
-5 5 -3 954.1 35.85
-5 5 -3 831.21 40.88
-5 5 -3 859.68 39.17
-5 5 -3 938.54 44.07
-5 5 -3 840.5 39.39
-5 5 -4 177.85 17.05
-5 5 -4 213.02 14.1
-5 5 -4 180.25 16.99
-5 5 -4 170.63 15.27
-5 5 -4 205.45 18.52
-5 5 -4 214.84 12.51
-5 5 -4 166.72 15.4
-5 5 -5 754.21 32
-5 5 -5 823.19 31.62
-5 5 -5 772.9 30.26
-5 5 -6 170.84 12.77
-5 5 -6 173.77 12.24
-5 5 -6 176.76 11.74
-5 5 -7 199.76 13.72
-5 5 -7 206.97 13.59
-5 5 -7 215.73 13.18
-5 5 -7 189.66 12.7
-5 5 -8 145.96 11.09
-5 5 -8 138.61 10.57
-5 5 -8 146.44 11.01
-5 5 -8 161.95 11.87
-5 5 -9 87.16 8.2
-5 5 -9 71.03 7.27
-5 5 -9 93.03 8.18
-5 5 -9 73.98 7.4
-5 5 -9 86.69 8.16
-5 5 -9 72.76 7.15
-5 5 -10 41.71 5.24
-5 5 -10 42.6 5.16
-5 5 -10 40.98 5.1
-5 5 -10 43.32 5.17
-5 5 -10 42.15 5.37
-5 5 -10 37.26 4.66
-5 5 -11 91.04 7.42
-5 5 -11 101.95 7.54
-5 5 -11 100.13 7.62
-5 5 -11 108.29 7.88
-5 5 -11 109.58 7.95
-5 5 -11 103.38 7.92
-5 5 -11 98.65 7.47
-5 5 -11 81.97 6.71
-5 5 -12 15.12 2.62
-5 5 -12 12.77 2.33
-5 5 -12 13.34 2.39
-5 5 -12 17.36 2.69
-5 5 -12 18.18 2.9
-5 5 -12 16.55 2.71
-5 5 -12 17.35 2.6
-5 5 -12 12.75 2.16
-5 5 -13 16.47 2.3
-5 5 -13 16.37 2.34
-5 5 -13 13.82 2.13
-5 5 -13 12.7 2.03
5 6 -13 30.88 3.56
5 6 -13 27.89 3.17
5 6 -13 28.64 3.3
5 6 -13 26.49 3.38
5 6 -13 22.91 2.89
5 6 -12 68.25 6.09
5 6 -12 66.9 5.71
5 6 -12 72.52 6.06
5 6 -12 65.86 6.04
5 6 -12 51.71 4.78
5 6 -12 58.07 5.26
5 6 -12 63.84 5.6
5 6 -11 96.13 7.98
5 6 -11 98.15 7.62
5 6 -11 97.61 7.72
5 6 -11 99.97 8.27
5 6 -11 90.93 7.39
5 6 -11 86.47 7.22
5 6 -10 5.07 1.78
5 6 -10 7.4 2.19
5 6 -10 4.56 1.71
5 6 -9 1.48 1.74
5 6 -9 0.54 1.11
5 6 -8 427.37 20.52
5 6 -8 465.62 21.78
5 6 -8 445.84 22.41
5 6 -7 18.54 3.74
5 6 -7 17.41 3.78
5 6 -7 20.89 4.21
5 6 -6 93.35 8.78
5 6 -6 90.08 8.89
5 6 -5 269.16 16.01
5 6 -4 138.45 10.75
5 6 -3 259.76 15.97
5 6 -2 535.33 24.61
-5 6 2 480.29 29.65
5 6 -2 495.21 30.69
-5 6 1 57.43 8.82
-5 6 1 56.33 9.24
5 6 -1 64.47 10.33
-5 6 0 203.05 17.32
5 6 0 242.24 20.75
-5 6 0 224.85 19.2
-5 6 -1 233.69 18.86
5 6 1 298.24 23.89
-5 6 -1 275.77 21.67
-5 6 -3 458.19 22.33
-5 6 -3 410.18 19.37
-5 6 -4 88.3 8.63
-5 6 -4 77.51 7.21
-5 6 -5 290.12 17.21
-5 6 -5 259.91 15.02
-5 6 -6 50.56 6.38
-5 6 -6 59.79 7.07
-5 6 -6 70.41 7.42
-5 6 -7 31.02 4.74
-5 6 -7 37.6 5.29
-5 6 -7 44.82 5.85
-5 6 -7 34.33 5.39
-5 6 -8 28.5 4.77
-5 6 -8 27.63 4.14
-5 6 -8 36.89 4.93
-5 6 -8 32.13 4.7
-5 6 -8 35.71 5.13
-5 6 -9 41.78 5.37
-5 6 -9 48.33 5.33
-5 6 -9 42.89 5.19
-5 6 -9 46.35 5.63
-5 6 -9 34.82 4.64
-5 6 -10 4.58 1.45
-5 6 -10 8.69 2.24
-5 6 -10 7.77 2
-5 6 -10 4.76 1.74
-5 6 -10 6.4 1.68
-5 6 -10 7.55 2.06
-5 6 -11 28.38 3.68
-5 6 -11 21.91 3.18
-5 6 -11 30.13 3.59
-5 6 -11 23.11 2.98
-5 6 -11 25.16 3.41
-5 6 -11 26.1 3.39
-5 6 -11 23.66 3.01
-5 6 -11 20.31 2.62
-5 6 -12 62.52 4.78
-5 6 -12 58.17 4.48
-5 6 -12 59.13 4.55
-5 6 -12 58.08 4.59
-5 6 -12 54.48 4.32
5 7 -12 49.3 4.41
5 7 -12 45.53 3.94
5 7 -12 47.01 4.16
5 7 -12 49.39 4.44
5 7 -12 41.03 3.75
5 7 -11 28.43 3.7
5 7 -11 30.34 3.54
5 7 -11 30.81 3.75
5 7 -11 24.01 3.52
5 7 -11 23.42 3.3
5 7 -10 16.63 3.19
5 7 -10 16.17 2.84
5 7 -10 19.19 3.27
5 7 -10 18.11 3.23
5 7 -10 22.56 3.61
5 7 -9 62.67 6.03
5 7 -9 62.58 6.3
5 7 -9 63.99 6.67
5 7 -8 30.29 4.27
5 7 -8 39.38 5.17
5 7 -8 31.21 4.87
5 7 -7 295.37 16.28
5 7 -7 270.31 15.74
5 7 -6 236.82 14.36
5 7 -5 67.79 7.15
5 7 -4 222.2 14.24
5 7 -4 225.3 13.65
5 7 -3 189.46 12.8
-5 7 -3 17.07 3.48
-5 7 -4 255.8 15.25
-5 7 -5 153.04 11.15
-5 7 -6 80.77 7.68
-5 7 -6 88.34 8.38
-5 7 -6 76.48 7.49
-5 7 -7 12.5 3.17
-5 7 -7 14 3.05
-5 7 -7 16.27 3.33
-5 7 -8 24.98 4.09
-5 7 -8 22.07 3.59
-5 7 -8 22 3.52
-5 7 -8 26.91 4.07
-5 7 -9 35.11 4.26
-5 7 -9 32.43 4.04
-5 7 -9 35.35 4.32
-5 7 -9 27.51 3.48
-5 7 -9 37.91 4.45
-5 7 -9 34.83 4.02
-5 7 -10 47.82 4.57
-5 7 -10 45.22 4.36
-5 7 -10 45.68 4.32
-5 7 -10 49.96 4.63
-5 7 -10 50.21 4.65
-5 7 -10 45.28 4.18
-5 7 -11 15.66 2.23
-5 7 -11 17.78 2.34
5 8 -11 25.82 2.89
5 8 -10 16.4 2.75
5 8 -10 10.82 2.2
5 8 -10 14.77 2.41
5 8 -10 11.13 2.1
5 8 -9 130.68 8.84
5 8 -9 141.24 8.75
5 8 -9 139.25 8.76
5 8 -8 21.24 3.64
5 8 -8 20.99 3.43
5 8 -7 47.36 5.64
5 8 -7 41.21 5.03
5 8 -6 70.64 7.13
5 8 -6 75.89 7.03
5 8 -5 186.51 12.15
5 8 -5 179.27 11.24
5 8 -4 118.69 9.24
5 8 -4 145.75 10.86
5 8 -3 2.9 2.25
5 8 -2 84.72 7.65
-5 8 -3 22.6 3.82
-5 8 -4 45.99 5.29
-5 8 -4 41.38 5.26
-5 8 -5 75.19 7.02
-5 8 -5 65.29 6.37
-5 8 -6 4.54 1.57
-5 8 -6 7.18 2.3
-5 8 -7 44.18 5.15
-5 8 -7 43.69 4.73
-5 8 -7 28.15 3.46
-5 8 -7 34.4 4.05
-5 8 -8 16.09 2.83
-5 8 -8 13.52 2.11
-5 8 -8 17.47 2.83
-5 8 -8 14.54 2.57
-5 8 -8 13.1 2.24
-5 8 -9 100.09 6.46
-5 8 -9 89.81 5.71
-5 8 -9 102.7 6.35
-5 8 -9 97.33 5.95
5 9 -8 99.08 6.5
5 9 -8 98.11 6.5
5 9 -7 34 3.67
5 9 -7 52.67 4.96
5 9 -6 15.02 3.29
5 9 -5 253.35 13.27
5 9 -4 24.17 3.89
5 9 -3 23.92 3.73
5 9 -2 28.5 3.75
-5 9 -4 20.71 3.21
-5 9 -5 0.66 0.77
-5 9 -5 0.68 0.88
-5 9 -6 6.81 2.04
-5 9 -6 4.49 1.34
-5 9 -7 23.98 2.85
-5 9 -7 25.03 2.88
5 10 0 24.62 2.91
-5 10 -2 102.26 5.76
-6 -9 7 87.84 5.21
-6 -9 7 81.28 5.06
-6 -9 6 81.44 5.46
-6 -9 6 91.43 5.78
-6 -9 5 29.63 3.34
-6 -9 5 34.63 3.62
-6 -9 4 21.68 3.02
-6 -9 4 26.09 3.33
-6 -9 3 33.31 3.81
-6 -9 3 29.35 3.67
-6 -9 2 135.34 8.61
-6 -9 2 143.82 9.09
-6 -9 1 8.02 1.99
-6 -9 1 5.86 1.85
-6 -9 0 112.91 7.62
-6 -9 0 150.79 9.01
-6 -9 -1 6.04 1.58
-6 -9 -1 8.7 2.04
-6 -9 -2 316.38 13.79
-6 -9 -3 60.56 4.79
-6 -9 -4 19.16 2.43
-6 -8 9 17.77 2.38
-6 -8 9 16.36 2.32
-6 -8 8 126.86 7.7
-6 -8 8 118.22 7.48
-6 -8 7 8.76 2.03
-6 -8 7 10.5 2.21
-6 -8 6 70.88 6.19
-6 -8 6 77.16 6.5
-6 -8 5 77.31 6.89
-6 -8 5 78.66 7.07
-6 -8 4 -1.99 1.38
-6 -8 4 -0.88 1.62
-6 -8 3 91.02 8.08
-6 -8 3 93.22 8.29
-6 -8 2 76.27 7.37
-6 -8 2 83.05 7.74
-6 -8 1 227.44 13.27
-6 -8 1 240.64 13.7
6 -8 -1 202.06 12.47
-6 -8 0 40.92 5
-6 -8 0 40.71 5.15
6 -8 0 43.23 5.53
-6 -8 -1 64.64 6.16
-6 -8 -1 90.06 7.59
6 -8 1 88.27 8.06
-6 -8 -2 17.33 2.85
-6 -8 -2 23.18 3.65
6 -8 2 27.5 4.54
-6 -8 -3 30.43 3.96
6 -8 3 34.31 4.89
-6 -8 -4 12.38 2.41
6 -8 4 13.37 2.92
-6 -8 -5 45.26 4.23
-6 -8 -6 5.39 1.33
-6 -7 11 5.5 1.29
-6 -7 11 6.84 1.62
-6 -7 10 85.61 6.33
-6 -7 10 81.72 6.11
-6 -7 9 32.13 4.14
-6 -7 9 36.63 4.27
-6 -7 8 12.16 2.61
-6 -7 8 11.68 2.63
-6 -7 7 11.12 2.85
-6 -7 7 4.63 1.78
-6 -7 6 18.51 3.67
6 -7 -6 14.13 3.22
-6 -7 6 16.22 3.4
-6 -7 5 50.48 6.28
6 -7 -5 51.84 6.44
-6 -7 5 53.11 6.54
-6 -7 4 74.64 7.97
6 -7 -4 70.37 8.04
-6 -7 4 68.24 7.54
-6 -7 3 275.33 16.65
6 -7 -3 281.32 17.74
-6 -7 3 274.22 16.33
-6 -7 2 124.57 10.5
6 -7 -2 130.34 11.62
-6 -7 2 135.17 10.71
6 -7 -2 113.88 9.77
-6 -7 1 164.52 11.8
6 -7 -1 163.13 12.88
6 -7 -1 141.44 11.18
-6 -7 1 138.36 10.9
6 -7 -1 159.9 12.13
-6 -7 0 122.21 9.72
6 -7 0 132.96 11.31
6 -7 0 132.42 11.08
-6 -7 0 127.81 10.14
6 -7 0 132.14 11.23
-6 -7 -1 21.78 3.77
6 -7 1 15.73 3.79
-6 -7 -1 15.9 3.34
6 -7 1 16 3.96
-6 -7 -2 56.31 5.89
6 -7 2 80.73 8.53
-6 -7 -2 71.19 7.01
6 -7 2 88 9.02
-6 -7 -3 264.54 14.48
6 -7 3 275.86 16.67
6 -7 3 293.86 17.44
-6 -7 -4 16.52 3.13
6 -7 4 19.6 4.14
6 -7 5 14.56 3.22
-6 -7 -5 14.09 2.64
6 -7 5 15.89 3.59
-6 -7 -6 2.38 1.15
6 -7 6 3.02 1.45
6 -7 6 2.43 1.38
-6 -7 -7 37.87 4.14
-6 -7 -8 15.05 2.53
-6 -7 -9 55.97 4.43
-6 -6 12 30.01 3.27
-6 -6 12 33.2 3.63
-6 -6 11 90.33 6.91
6 -6 -11 78.41 6.28
-6 -6 11 91.07 6.96
-6 -6 10 81.33 7.05
6 -6 -10 64.96 6.34
-6 -6 10 64.58 6.2
-6 -6 9 16.79 3.37
6 -6 -9 16.41 3.11
-6 -6 9 12.04 2.71
-6 -6 8 196.29 12.74
6 -6 -8 191.94 12.66
-6 -6 8 185.21 12.49
-6 -6 7 13.88 3.5
6 -6 -7 15.24 3.71
6 -6 -7 7.12 2.28
-6 -6 7 18.55 3.94
-6 -6 6 1003.68 38.04
6 -6 -6 1005.45 38.05
6 -6 -6 890.79 36.58
6 -6 -6 927.82 37.85
-6 -6 6 991.7 37.96
-6 -6 5 25.61 4.75
6 -6 -5 23.71 4.75
6 -6 -5 21.22 4.49
6 -6 -5 23.24 4.88
-6 -6 5 23.11 4.57
-6 -6 4 150.4 12.59
6 -6 -4 140.76 11.48
6 -6 -4 172.1 13.38
6 -6 -4 157.58 13.22
-6 -6 4 146.86 12.2
-6 -6 3 10.12 3.21
6 -6 -3 8.54 2.77
6 -6 -3 7.14 2.51
6 -6 -3 7.08 2.81
6 -6 -3 7.47 2.3
-6 -6 3 7.93 2.8
-6 -6 2 164.79 12.99
6 -6 -2 184.96 14.24
6 -6 -2 191.05 14.73
-6 -6 2 169.55 12.63
6 -6 -2 168.55 12.86
6 -6 -2 166.31 12.83
-6 -6 1 347.58 19.69
6 -6 -1 394.2 21.77
6 -6 -1 434.38 23.12
6 -6 -1 398.63 21.84
-6 -6 1 364.37 19.58
6 -6 -1 406.84 21.97
-6 -6 0 4.53 2.03
6 -6 0 6.14 2.79
6 -6 0 2.37 1.76
6 -6 0 3.04 2.01
6 -6 0 8.7 3.06
-6 -6 0 3.8 1.64
6 -6 0 8.39 2.92
-6 -6 -1 57.61 6.5
6 -6 1 73.08 8.47
6 -6 1 96.61 10
-6 -6 -1 67.75 7.36
6 -6 1 92.94 9.87
6 -6 1 81.81 9.2
-6 -6 -2 43.39 5.73
6 -6 2 45.42 6.67
6 -6 2 42.57 6.22
6 -6 2 56.56 7.4
6 -6 2 58.35 7.81
6 -6 3 14.49 3.73
6 -6 3 8.18 2.99
6 -6 3 15.33 3.62
-6 -6 -3 8.52 2.55
6 -6 3 15.08 4.21
6 -6 3 9.59 3.11
6 -6 4 4.9 2.42
-6 -6 -4 2.87 1.66
6 -6 4 10.81 2.8
6 -6 4 4.92 2.3
-6 -6 -5 363.09 18.66
6 -6 5 415.98 20.81
-6 -6 -5 363.42 17.58
6 -6 5 434.03 21.43
6 -6 5 480.79 22.75
-6 -6 -6 63.03 6.84
6 -6 6 74.98 7.56
6 -6 6 76.05 7.65
6 -6 6 88.98 8.73
-6 -6 -7 6.63 2.19
6 -6 7 9.01 2.72
6 -6 7 7.33 2.44
-6 -6 -8 21.03 3.65
6 -6 8 17.71 3.08
6 -6 8 21.33 3.72
-6 -6 -9 10.1 2.39
6 -6 9 12.21 2.59
-6 -6 -10 79.35 6.14
-6 -6 -10 60.17 4.91
-6 -6 -11 46.98 3.95
-6 -5 13 11.34 2.08
6 -5 -13 10.56 1.88
-6 -5 13 11.47 2.28
-6 -5 12 137.43 8.94
6 -5 -12 131.77 8.49
6 -5 -12 127.89 8.3
-6 -5 11 541.1 22.33
6 -5 -11 494.11 21.48
6 -5 -11 493.83 21.37
6 -5 -10 102.95 8.78
6 -5 -10 86.96 8.35
6 -5 -9 32.23 5.17
6 -5 -9 40.04 5.75
6 -5 -8 39.97 5.75
6 -5 -8 38.36 5.76
6 -5 -8 44.76 6.34
6 -5 -7 128.25 11
6 -5 -7 114.38 10.1
6 -5 -7 122.46 10.63
6 -5 -7 132.44 11.14
6 -5 -6 162.06 12.61
6 -5 -6 153.39 12.4
6 -5 -6 157.89 12.76
6 -5 -6 158.78 13.02
6 -5 -6 161.57 12.81
6 -5 -5 244.05 15.66
6 -5 -5 255.46 17.13
6 -5 -5 246.51 16.59
6 -5 -5 250.82 17.03
-6 -5 5 241.51 16.39
6 -5 -5 230.01 15.46
-6 -5 4 270.11 17.59
6 -5 -4 251.88 15.88
6 -5 -4 249.38 17.11
6 -5 -4 269.23 17.56
6 -5 -4 270.29 17.98
-6 -5 4 254.73 16.64
6 -5 -4 227.74 15.59
-6 -5 3 279.33 17.76
6 -5 -3 257.9 16.06
6 -5 -3 283.25 18.26
6 -5 -3 281.56 18.01
6 -5 -3 277.57 18.21
-6 -5 3 250.97 16.13
6 -5 -3 239.05 15.7
6 -5 -2 134.32 11.99
-6 -5 2 135.19 11.67
6 -5 -2 123.98 14.38
6 -5 -2 138.49 11.28
6 -5 -2 140.68 12.48
6 -5 -2 157.24 12.86
6 -5 -2 158 13.15
6 -5 -2 142.93 12.13
-6 -5 2 141.7 11.32
6 -5 -2 152.02 12.4
-6 -5 1 54.65 6.9
6 -5 -1 56.29 6.99
6 -5 -1 49.27 9.2
6 -5 -1 49.36 7.03
6 -5 -1 61.61 7.68
6 -5 -1 69.17 8.38
6 -5 -1 66.05 8.34
-6 -5 1 49.46 6.38
6 -5 -1 63.66 8.05
6 -5 -1 57.04 7.65
6 -5 0 211.15 18.81
-6 -5 0 164.68 12.23
6 -5 0 197 14.1
6 -5 0 219.01 15.25
6 -5 0 229.67 16.22
-6 -5 0 191.2 13.02
6 -5 0 221.42 15.93
6 -5 0 223.3 15.89
6 -5 1 364.44 20.17
6 -5 1 366.07 20.87
6 -5 1 420.2 22.81
-6 -5 -1 345.66 18.53
6 -5 1 443.86 23.26
6 -5 1 394.05 22.31
-6 -5 -2 191.2 12.78
6 -5 2 200.53 14.1
6 -5 2 202.1 14.59
6 -5 2 236.66 16.17
6 -5 2 256.01 16.84
6 -5 2 232.7 15.56
6 -5 2 221.17 15.73
6 -5 3 160.79 12.69
6 -5 3 169.05 13.31
-6 -5 -3 139.3 10.53
6 -5 3 187.15 13.97
6 -5 3 194 14.16
6 -5 3 190.06 14.07
-6 -5 -4 247.48 15.66
6 -5 4 283.6 17.24
6 -5 4 269.23 16.95
6 -5 4 303.24 18.07
6 -5 4 310.17 18.52
6 -5 4 271.47 17.39
-6 -5 -5 219.51 14.59
6 -5 5 222.27 14.85
6 -5 5 221.86 14.96
6 -5 5 221.9 15.34
6 -5 5 216.88 14.97
-6 -5 -6 63.04 7.56
6 -5 6 71.32 7.85
6 -5 6 67.46 7.7
6 -5 6 69.47 7.84
-6 -5 -7 22.15 4.56
-6 -5 -7 18.6 3.66
6 -5 7 24.54 4.37
6 -5 7 23.83 4.31
6 -5 7 21.42 4.25
-6 -5 -8 5.9 2.5
-6 -5 -8 7.13 2.47
6 -5 8 8.18 2.45
6 -5 8 5.37 2.22
-6 -5 -9 8.96 2.59
-6 -5 -9 10.17 2.59
6 -5 9 5.69 1.75
6 -5 9 7.8 2.29
-6 -5 -10 69.55 6.57
-6 -5 -10 73.91 6.66
6 -5 10 73.95 6.69
-6 -5 -11 10.62 2.25
-6 -5 -11 10.56 2.19
-6 -5 -12 86.55 5.59
-6 -4 14 17.69 2.39
6 -4 -14 11.91 1.92
-6 -4 13 60.79 5.52
6 -4 -13 52.11 5.07
6 -4 -13 48.87 4.94
6 -4 -13 57.12 5.29
6 -4 -12 69.52 6.52
6 -4 -12 77.67 7.08
6 -4 -12 79.18 6.81
6 -4 -12 86.83 7.2
6 -4 -11 56.76 6.33
6 -4 -11 57.33 6.22
6 -4 -11 56.53 6.38
6 -4 -11 59.43 6.34
6 -4 -10 338.96 17.82
6 -4 -10 317.31 17.01
6 -4 -10 319.1 17.74
6 -4 -10 309.91 16.66
6 -4 -9 205.04 13.52
6 -4 -9 183.06 13.02
6 -4 -9 178.51 12.61
6 -4 -9 176.56 12.22
6 -4 -8 38.32 5.85
6 -4 -8 39.01 5.59
6 -4 -8 35.99 5.49
6 -4 -8 45.48 6.18
6 -4 -8 47.5 6.43
6 -4 -8 38.91 5.73
6 -4 -8 37.7 5.32
6 -4 -7 81.79 8.28
6 -4 -7 83.46 8.79
6 -4 -7 71.34 8.09
6 -4 -7 75.78 8.43
6 -4 -7 75.37 8.21
6 -4 -7 70.33 7.97
6 -4 -7 77.31 7.84
6 -4 -6 199.9 13.58
6 -4 -6 206.14 14.59
6 -4 -6 210.76 14.53
6 -4 -6 205.2 14.77
6 -4 -6 170.87 12.79
6 -4 -6 169.32 12.61
6 -4 -6 175.61 12.3
6 -4 -5 138.44 14.4
6 -4 -5 145.51 11.48
6 -4 -5 140.08 11.36
6 -4 -5 152.58 12.61
6 -4 -5 165.17 13.04
6 -4 -5 154.1 12.88
6 -4 -5 133.55 11.19
6 -4 -4 125.69 13.63
6 -4 -4 113.71 10.09
6 -4 -4 147.98 12.24
6 -4 -4 134.77 11.78
6 -4 -4 141.32 12.37
6 -4 -4 129.1 10.68
6 -4 -3 21.14 4.57
6 -4 -3 15.56 4.63
6 -4 -3 17.14 3.76
6 -4 -3 16.97 4.19
6 -4 -3 13.29 3.66
6 -4 -3 14.98 3.79
6 -4 -3 18.92 4.05
6 -4 -3 15.9 4.15
-6 -4 3 14.48 3.51
6 -4 -3 16.59 3.87
6 -4 -2 354.88 20.89
6 -4 -2 442.56 25.96
6 -4 -2 376.34 19.65
6 -4 -2 380.58 20.79
6 -4 -2 370.63 20.36
6 -4 -2 368.82 20.82
6 -4 -2 396.28 21.45
-6 -4 2 312.63 18.17
6 -4 -2 402.84 21.13
6 -4 -2 362.25 19.77
6 -4 -1 119.81 11.24
6 -4 -1 125.16 13.34
-6 -4 1 98.01 9.21
6 -4 -1 113.36 10.05
6 -4 -1 111.53 10.4
6 -4 -1 119.8 10.44
6 -4 -1 120.33 10.81
6 -4 -1 128.08 11.66
-6 -4 1 86.27 8.42
6 -4 -1 132.58 11.46
6 -4 0 270.79 17.44
6 -4 0 322.66 22
6 -4 0 253.35 15.91
6 -4 0 255.19 16.32
6 -4 0 261.34 16.14
6 -4 0 264.96 16.66
6 -4 0 295.2 18.21
6 -4 0 303.17 18.52
-6 -4 0 206.2 13.67
6 -4 1 102.92 12.32
6 -4 1 103.39 10.19
6 -4 1 83.92 9.04
6 -4 1 79.55 8.39
6 -4 1 93.53 9.4
6 -4 1 97.88 9.82
6 -4 1 104.98 10.45
6 -4 1 90.57 9.24
6 -4 2 208.4 14.83
6 -4 2 191.05 13.87
6 -4 2 193.05 14.15
6 -4 2 210.25 14.96
6 -4 2 227.27 15.44
6 -4 2 213.09 15.07
6 -4 2 241.02 19.4
6 -4 3 295.89 17.93
6 -4 3 289.6 17.83
6 -4 3 292.25 17.85
6 -4 3 311.21 18.72
6 -4 3 337.02 19.39
6 -4 3 332.69 23.24
6 -4 3 304.72 18.23
6 -4 4 9.62 2.88
6 -4 4 9.13 2.74
6 -4 4 7.24 3.07
6 -4 4 8.12 2.5
6 -4 4 8.57 3.11
6 -4 5 667.62 30.05
6 -4 5 691.83 30.31
-6 -4 -5 695.76 29.98
6 -4 5 733.8 31.24
6 -4 5 685.93 30.74
6 -4 6 198.61 14.1
6 -4 6 186.03 13.46
-6 -4 -6 203.38 14.09
6 -4 6 208.65 14.31
6 -4 6 201.44 14.52
6 -4 7 432.44 21.87
6 -4 7 371.03 20.29
-6 -4 -7 421.86 21.45
6 -4 7 399.96 20.84
6 -4 7 398.67 21.8
-6 -4 -8 34.04 5.58
6 -4 8 34.12 5.5
6 -4 8 39.33 5.51
-6 -4 -8 39.38 5.76
6 -4 8 34.37 5.22
-6 -4 -9 28.78 4.81
-6 -4 -9 27.92 4.5
6 -4 9 27.63 4.72
-6 -4 -10 22.39 3.82
-6 -4 -10 24.83 4.2
6 -4 10 27.69 4.49
-6 -4 -11 64.33 6.09
-6 -4 -11 67.1 6.2
6 -4 11 77.28 6.99
-6 -4 -12 60.23 5.13
-6 -4 -12 59.38 5.11
6 -3 -14 38.21 4.1
6 -3 -14 39.54 4.31
6 -3 -14 34.39 3.83
6 -3 -14 42.84 4.21
6 -3 -13 24.52 3.66
6 -3 -13 17.64 3.07
6 -3 -13 20.64 3.44
6 -3 -13 21.88 3.45
6 -3 -12 133.84 9.71
6 -3 -12 117.06 9.33
6 -3 -12 130.24 9.52
6 -3 -12 122.84 9.05
6 -3 -11 8.42 2.45
6 -3 -11 11.72 3.05
6 -3 -11 8.31 2.42
6 -3 -11 11.6 2.99
6 -3 -11 5.3 1.98
6 -3 -10 115.87 9.98
6 -3 -10 140.97 10.86
6 -3 -10 134.35 10.53
6 -3 -10 139.76 11.18
6 -3 -10 121.6 9.86
6 -3 -9 337.66 18.19
6 -3 -9 338 18.41
6 -3 -9 325.19 17.92
6 -3 -9 336.7 18.37
6 -3 -9 311.34 17.48
6 -3 -9 340.09 18.74
6 -3 -9 335.52 18.32
6 -3 -9 312.37 17.18
6 -3 -8 557.02 25.85
6 -3 -8 609.09 26.52
6 -3 -8 594.58 27.17
6 -3 -8 588.08 26.88
6 -3 -8 570.26 26.38
6 -3 -8 567.53 25.8
6 -3 -8 555.88 24.93
6 -3 -7 1.51 1.34
6 -3 -7 2.05 1.21
6 -3 -7 0.4 1.14
6 -3 -7 5.05 2.77
6 -3 -7 -0.34 1.68
6 -3 -7 4.31 1.82
6 -3 -7 -1.42 1.79
6 -3 -7 2.51 1.42
6 -3 -6 598.32 32.63
6 -3 -6 680.09 28.39
6 -3 -6 730.95 30.21
6 -3 -6 710.08 30.56
6 -3 -6 545.94 34.66
6 -3 -6 775.65 31.36
6 -3 -6 673.84 28.74
6 -3 -6 638.9 27.87
6 -3 -6 614.86 26.9
6 -3 -5 329.2 21.64
6 -3 -5 301.36 16.9
6 -3 -5 364.99 19.41
6 -3 -5 340.44 19.01
6 -3 -5 274.52 22.05
6 -3 -5 361.42 19.96
6 -3 -5 305.69 17.27
6 -3 -5 294.84 16.81
6 -3 -5 275 15.99
6 -3 -4 89.6 9.15
6 -3 -4 102.31 11.4
6 -3 -4 92.48 8.68
6 -3 -4 86.85 8.34
6 -3 -4 105.59 9.75
6 -3 -4 107.69 9.72
6 -3 -4 74.63 10.66
6 -3 -4 93.09 9.03
6 -3 -4 108.38 10.18
6 -3 -4 88.98 8.5
6 -3 -3 60.09 7.33
6 -3 -3 59.88 8.56
6 -3 -3 52.76 6.29
6 -3 -3 54.75 6.88
6 -3 -3 66.04 7.41
6 -3 -3 54.72 8.86
6 -3 -3 60.12 7.29
6 -3 -3 57.25 7.32
6 -3 -3 47.46 6.27
6 -3 -3 53.05 6.78
6 -3 -3 55.26 6.54
6 -3 -2 173.31 13.13
6 -3 -2 188.88 15.56
6 -3 -2 161.45 11.71
6 -3 -2 166.23 12.47
6 -3 -2 154.91 11.74
6 -3 -2 167.8 15.64
6 -3 -2 188.12 13.69
6 -3 -2 178.02 13.02
6 -3 -2 191.7 13.42
6 -3 -2 156.16 12.01
6 -3 -1 9.97 3.36
6 -3 -1 14.47 4.32
6 -3 -1 11.87 2.91
6 -3 -1 10.39 2.99
6 -3 -1 7.89 2.63
6 -3 -1 11.85 3.29
6 -3 -1 9.8 2.86
6 -3 -1 8.73 2.87
6 -3 -1 8.8 2.93
6 -3 0 207.11 16.74
6 -3 0 173.37 13.07
6 -3 0 158.94 12.08
6 -3 0 180.51 13.09
6 -3 0 170.96 12.33
6 -3 0 178.19 12.93
6 -3 0 202.06 14.09
6 -3 0 216.15 14.72
6 -3 0 157.26 12.28
6 -3 1 570.87 26.28
6 -3 1 569.63 27.79
6 -3 1 540.58 25.5
6 -3 1 512.41 25.07
6 -3 1 588.92 26.74
6 -3 1 651.56 28.36
6 -3 1 525.71 25.88
6 -3 1 641.48 31.85
6 -3 2 330.53 18.73
6 -3 2 343.41 19.64
6 -3 2 317.94 18.5
6 -3 2 298.97 17.9
6 -3 2 329.52 18.62
6 -3 2 353.55 19.47
6 -3 2 336.68 19.15
6 -3 2 386.08 23.89
6 -3 3 198.11 14.01
6 -3 3 219.03 14.96
6 -3 3 182.72 13.7
6 -3 3 220.44 14.59
6 -3 3 239.8 15.34
6 -3 3 222.93 14.91
6 -3 3 234.53 18.36
6 -3 4 16.13 4.03
6 -3 4 16.09 4.81
6 -3 4 13.36 3.64
6 -3 4 15.21 3.72
-6 -3 -4 15.25 3.69
6 -3 4 18.57 3.97
6 -3 4 16.85 3.87
6 -3 5 84.29 8.77
6 -3 5 87.09 8.77
-6 -3 -5 81.95 8.72
6 -3 5 84.18 8.72
6 -3 5 84.99 11.19
6 -3 5 94.24 9.68
6 -3 6 165.08 12.8
6 -3 6 153.03 12.03
-6 -3 -6 168.11 12.78
6 -3 6 157.26 12.24
6 -3 6 167.67 13.46
6 -3 7 135.71 11.53
6 -3 7 136.73 11.24
-6 -3 -7 128.43 11.09
6 -3 7 142.51 11.32
6 -3 7 134.09 11.95
6 -3 8 136.51 11.41
-6 -3 -8 126.54 10.59
6 -3 8 137.85 11.14
6 -3 8 140 11.18
6 -3 9 177.59 12.36
-6 -3 -9 172.5 12.27
6 -3 9 169.84 12.61
-6 -3 -10 42.67 5.45
-6 -3 -10 45.34 5.62
6 -3 10 60.65 6.96
-6 -3 -11 36.78 4.74
-6 -3 -11 41.17 5.11
6 -3 11 45.72 5.79
-6 -3 -12 6.37 1.75
6 -3 12 10.11 2.46
-6 -3 -12 10.1 2.31
-6 -3 -13 45.05 4.14
-6 -3 -13 50.91 4.38
6 -2 -15 108.67 6.65
6 -2 -15 116.37 7.01
6 -2 -15 108.84 6.65
6 -2 -15 123.24 6.94
6 -2 -14 2.11 1.2
6 -2 -14 2.75 1.33
6 -2 -14 2.2 1.25
6 -2 -14 0.51 0.61
6 -2 -13 36.8 4.72
6 -2 -13 29.54 4.32
6 -2 -13 37.11 4.68
6 -2 -13 31.19 4.46
6 -2 -13 26.62 3.78
6 -2 -12 41 5.23
6 -2 -12 42.87 5.45
6 -2 -12 42.96 5.43
6 -2 -12 40.54 5.44
6 -2 -12 45 5.44
6 -2 -11 199.65 13.06
6 -2 -11 233.15 14.11
6 -2 -11 205.02 13.25
6 -2 -11 222.77 14
6 -2 -11 220.55 13.57
6 -2 -11 192.93 12.55
6 -2 -10 287.17 16.69
6 -2 -10 324.96 17.38
6 -2 -10 313.34 16.95
6 -2 -10 302.13 17.24
6 -2 -10 303.33 17.02
6 -2 -10 304.11 17.59
6 -2 -10 313.57 17.15
6 -2 -10 300.79 16.49
6 -2 -9 455.53 22.35
6 -2 -9 522.45 23.06
6 -2 -9 486.36 23.11
6 -2 -9 469.6 23.15
6 -2 -9 472.46 22.68
6 -2 -9 495.55 23.22
6 -2 -9 461.9 22.27
6 -2 -9 436.22 21.35
6 -2 -8 209.99 14.12
6 -2 -8 240.68 14.73
6 -2 -8 235.13 14.88
6 -2 -8 235.53 15.48
6 -2 -8 235.77 21.84
6 -2 -8 262.98 15.73
6 -2 -8 213.55 14.24
6 -2 -8 223.11 14.24
6 -2 -8 210.72 13.45
6 -2 -7 47.07 6.15
6 -2 -7 53.44 6.45
6 -2 -7 48.35 6.37
6 -2 -7 52.74 6.86
6 -2 -7 51.37 6.66
6 -2 -7 45.65 9.26
6 -2 -7 51.23 6.48
6 -2 -7 51.27 6.22
6 -2 -7 39.65 5.36
6 -2 -6 157.89 11.76
6 -2 -6 169.95 15
6 -2 -6 173.86 11.9
6 -2 -6 212.29 13.62
6 -2 -6 178.25 12.91
6 -2 -6 171.8 17.47
6 -2 -6 194.71 13.62
6 -2 -6 185.04 12.52
6 -2 -6 161.04 11.57
6 -2 -6 138.34 10.5
6 -2 -5 132.8 10.71
6 -2 -5 137.7 13.09
6 -2 -5 141.33 10.36
6 -2 -5 154.04 11.46
6 -2 -5 130.03 10.89
6 -2 -5 128.77 14.41
6 -2 -5 146.65 11.5
6 -2 -5 131.19 10.34
6 -2 -5 123.58 9.83
6 -2 -4 78.4 8.18
6 -2 -4 86.27 10.21
6 -2 -4 79.6 7.45
6 -2 -4 87.77 8.33
6 -2 -4 77.3 8
6 -2 -4 78.18 10.93
6 -2 -4 84.14 8.29
6 -2 -4 101.36 9.24
6 -2 -4 79 7.65
6 -2 -4 83.74 7.95
6 -2 -3 115.78 10.04
6 -2 -3 145.07 12.96
6 -2 -3 111.29 9.49
6 -2 -3 115.16 9.82
6 -2 -3 126.59 10.44
6 -2 -3 128.91 10.48
6 -2 -3 115.1 9.59
6 -2 -3 121.54 9.73
6 -2 -2 22.44 4.9
6 -2 -2 20.44 3.89
6 -2 -2 14.28 3.29
6 -2 -2 19.03 4.14
6 -2 -2 19.04 3.95
6 -2 -1 53.1 7.95
6 -2 -1 51.47 6.49
6 -2 0 646.76 31.06
6 -2 0 521.31 24.69
6 -2 0 522.77 25.21
6 -2 0 577.78 25.61
-6 -2 0 480.14 25.57
6 -2 0 622.12 26.47
6 -2 1 717.99 31.06
6 -2 1 753.95 32.54
6 -2 1 754.68 31.23
-6 -2 -1 727.51 32.7
6 -2 1 839 32.64
6 -2 2 40.68 5.86
6 -2 2 46.24 7.64
6 -2 2 43.26 6.37
6 -2 2 42.17 5.81
6 -2 2 37 5.45
6 -2 2 49.55 6.36
6 -2 2 45.46 6.08
-6 -2 -2 42.53 6.59
6 -2 3 200.72 14.21
6 -2 3 200.44 14.63
6 -2 3 175.97 13.23
6 -2 3 218.93 14.08
6 -2 3 212.61 14.04
-6 -2 -3 193.26 15.01
-6 -2 -3 186.22 13.37
6 -2 3 206.51 13.95
6 -2 3 230.16 17.76
6 -2 4 148.76 12.03
6 -2 4 117.76 10.51
-6 -2 -4 133.12 11.31
6 -2 4 131.75 10.92
-6 -2 -4 138.15 12.9
6 -2 4 134.54 10.94
6 -2 4 130.63 10.89
6 -2 4 143.77 14.19
6 -2 5 170.37 13.47
6 -2 5 176.39 13.19
-6 -2 -5 159.17 14.84
6 -2 5 178.9 12.83
-6 -2 -5 173.06 12.85
6 -2 5 166.91 12.43
6 -2 5 174.29 16.19
6 -2 6 11.4 3.69
6 -2 6 6.82 3.03
6 -2 6 6.96 2.88
-6 -2 -6 10.4 3.09
6 -2 6 8.54 2.84
6 -2 6 7.11 2.6
6 -2 7 22.35 4.75
-6 -2 -7 16.06 3.46
6 -2 7 16.2 4.08
-6 -2 -7 21.03 4.26
6 -2 7 19.53 4.18
6 -2 7 24.17 4.59
-6 -2 -8 2.15 1.87
6 -2 8 4.64 2.28
-6 -2 -8 1.71 1.55
6 -2 8 4.12 1.71
6 -2 8 2.75 1.76
-6 -2 -9 133.93 10.3
-6 -2 -9 129.03 10.51
6 -2 9 152.5 12.1
-6 -2 -10 306.38 16.4
-6 -2 -10 321.21 16.73
-6 -2 -10 339 17.53
6 -2 10 359.46 19.19
-6 -2 -11 98.45 8.44
-6 -2 -11 109 8.35
-6 -2 -11 112.37 8.42
-6 -2 -11 113.92 8.85
6 -2 11 128.74 10.08
-6 -2 -12 27.63 4
-6 -2 -12 33.74 4.06
-6 -2 -12 29.65 3.75
-6 -2 -12 30.1 4.05
6 -2 12 32.53 4.38
-6 -2 -13 33.99 3.77
-6 -2 -13 25.62 3.01
-6 -2 -13 36.67 3.99
6 -1 -15 8.59 1.8
6 -1 -15 9.79 1.96
6 -1 -15 10.64 1.99
6 -1 -15 8.41 1.69
6 -1 -14 17.61 3.15
6 -1 -14 20.86 3.21
6 -1 -14 15.4 2.84
6 -1 -14 18.86 3.17
6 -1 -14 16.69 2.8
6 -1 -13 32.98 4.47
6 -1 -13 26.63 4
6 -1 -13 24.96 3.86
6 -1 -13 33.06 4.46
6 -1 -13 26.76 4.19
6 -1 -13 22.21 3.49
6 -1 -12 61.96 6.56
6 -1 -12 86.8 7.84
6 -1 -12 79.48 7.63
6 -1 -12 71.22 7.28
6 -1 -12 75.25 7.14
6 -1 -12 67.67 6.67
6 -1 -11 125.52 10.14
6 -1 -11 137.9 10.59
6 -1 -11 127.9 10.03
6 -1 -11 127.66 10.42
6 -1 -11 123.36 10.1
6 -1 -11 138.89 10.33
6 -1 -11 117.55 9.39
6 -1 -10 79.44 8
6 -1 -10 85.22 8.16
6 -1 -10 87.04 8.29
6 -1 -10 82.63 8.42
6 -1 -10 81.52 8.14
6 -1 -10 72.85 7.62
6 -1 -10 78.33 7.98
6 -1 -10 78.62 7.64
6 -1 -9 287.28 16.78
6 -1 -9 327.61 17.32
6 -1 -9 311.68 17.4
6 -1 -9 324.18 18.06
6 -1 -9 322.24 17.7
6 -1 -9 293.4 16.59
6 -1 -9 324.29 17.76
6 -1 -9 271.52 15.64
6 -1 -8 22.24 4.34
6 -1 -8 16.22 3.45
6 -1 -8 25.81 4.52
6 -1 -8 20.59 4.16
6 -1 -8 26.9 4.8
6 -1 -8 24.59 6.6
6 -1 -8 21.7 3.96
6 -1 -8 20.54 4.23
6 -1 -8 18.76 3.46
6 -1 -7 397.32 20.92
6 -1 -7 411.12 21.06
6 -1 -7 479.35 21.74
6 -1 -7 480.58 22.26
6 -1 -7 473.03 22.67
6 -1 -7 442.41 29.91
6 -1 -7 496.81 22.94
6 -1 -7 446.9 21.3
6 -1 -7 473.58 22.1
6 -1 -6 33.33 5.17
6 -1 -6 39.04 5.18
6 -1 -6 23.39 4.2
6 -1 -6 32.82 5.23
6 -1 -6 29.68 4.85
6 -1 -6 36.93 5.5
6 -1 -6 30.46 7.27
6 -1 -6 27.43 4.43
6 -1 -6 29.99 4.79
6 -1 -5 231.5 14.27
6 -1 -5 237.06 17.24
6 -1 -5 219.64 13.27
6 -1 -5 258.24 14.85
6 -1 -5 237.34 14.51
6 -1 -5 232.18 19.66
6 -1 -5 231.26 13.87
6 -1 -5 263.23 15.14
6 -1 -5 233.61 14.02
6 -1 -5 222.62 13.72
6 -1 -4 10.11 3.33
6 -1 -4 8.83 2.49
6 -1 -4 7.77 2.46
6 -1 -4 9.6 2.66
6 -1 -4 7.83 3.43
6 -1 -4 8.93 2.53
6 -1 -3 35.32 6.31
-6 -1 3 30.04 5.28
-6 -1 3 36.69 6.08
6 -1 -2 48.76 7.41
-6 -1 2 36.35 5.59
-6 -1 2 46.29 6.73
6 -1 -1 1078.16 41.94
-6 -1 1 975.07 38.9
6 -1 0 125.76 12.09
-6 -1 0 108.2 9.48
-6 -1 0 107.1 10.28
-6 -1 -1 101.87 9.26
-6 -1 -1 117.05 10.67
6 -1 1 133.71 12.57
6 -1 2 140.46 11.47
6 -1 2 148.87 11.24
-6 -1 -2 141.82 11.19
6 -1 2 157.79 11.12
-6 -1 -2 148.59 12.48
6 -1 2 139.49 10.89
6 -1 2 173.62 14.72
6 -1 3 196.51 13.94
6 -1 3 183.34 12.96
-6 -1 -3 188.56 13.55
-6 -1 -3 178.07 12.67
6 -1 3 187.76 12.64
-6 -1 -3 197.64 14.23
6 -1 3 185.9 12.91
6 -1 3 221.81 17.07
6 -1 4 88.94 9.32
-6 -1 -4 63.38 7.17
-6 -1 -4 88.9 9.53
6 -1 4 85.46 8.69
-6 -1 -4 79.34 8.95
6 -1 4 93.13 8.76
-6 -1 -4 92.54 8.92
6 -1 4 88.43 8.82
6 -1 4 103.8 11.79
6 -1 5 35.52 5.84
6 -1 5 25.95 6.27
-6 -1 -5 27.11 4.65
6 -1 5 30 5.25
-6 -1 -5 32.38 5.19
-6 -1 -5 32.75 5.86
-6 -1 -5 31.78 5.92
6 -1 5 31.29 5.11
6 -1 5 33.01 5.3
6 -1 6 96.22 9.94
6 -1 6 104.6 10.01
-6 -1 -6 94.09 8.86
6 -1 6 83.23 8.95
-6 -1 -6 76.08 7.77
-6 -1 -6 91.09 10.43
-6 -1 -6 84.35 10.37
6 -1 6 85.58 8.73
-6 -1 -6 98.19 9.35
6 -1 6 76.9 10.88
6 -1 7 25.88 5.39
-6 -1 -7 20.53 4.05
-6 -1 -7 21.21 4.15
-6 -1 -7 18.11 3.76
6 -1 7 24.86 4.91
-6 -1 -8 180.57 12.72
-6 -1 -8 173.69 12.26
-6 -1 -8 166.82 12.43
6 -1 8 197.12 14.34
6 -1 8 179.47 13.55
-6 -1 -9 16.72 3.58
-6 -1 -9 19.96 3.87
-6 -1 -9 21.78 4.08
-6 -1 -9 18.19 3.8
6 -1 9 26.65 4.94
-6 -1 -10 12.61 3.07
-6 -1 -10 10.97 2.86
-6 -1 -10 12.33 2.9
-6 -1 -10 11.4 2.86
6 -1 10 10.5 3.31
-6 -1 -11 169.98 11.24
-6 -1 -11 166.24 10.83
-6 -1 -11 160.65 10.78
-6 -1 -11 177.16 11.6
6 -1 11 189.98 12.52
-6 -1 -12 31.27 4.25
-6 -1 -12 27.37 3.9
-6 -1 -12 25.88 3.49
-6 -1 -12 19.7 3.2
-6 -1 -12 33.72 4.41
6 -1 12 26.29 3.86
-6 -1 -13 92.1 6.59
-6 -1 -13 96.84 6.7
-6 -1 -13 88.15 6.22
-6 -1 -13 102.19 7.02
-6 -1 -14 25.36 2.77
6 0 -15 23.84 3.07
6 0 -15 15.81 2.45
6 0 -15 22.19 2.98
6 0 -15 21.61 3.01
6 0 -15 14.18 2.27
6 0 -14 11.3 2.49
6 0 -14 11.18 2.3
6 0 -14 11.32 2.42
6 0 -14 10.94 2.26
6 0 -14 9.18 2.3
6 0 -14 11.36 2.33
6 0 -13 9.53 2.45
6 0 -13 9.08 2.34
6 0 -13 7.79 2.5
6 0 -13 14.27 3.12
6 0 -13 11.77 2.66
6 0 -13 12.04 2.67
6 0 -12 35.62 5.06
6 0 -12 37.67 5.14
6 0 -12 36.46 4.88
6 0 -12 32.69 4.77
6 0 -12 38.08 5.19
6 0 -12 37.34 5.1
6 0 -12 28.52 4.16
6 0 -11 5.05 1.94
6 0 -11 3.57 1.2
6 0 -11 2.67 1.66
6 0 -11 2.35 1.63
6 0 -11 -0.08 1.16
6 0 -11 2.07 1.55
6 0 -11 5.18 2.13
6 0 -11 3.02 1.65
6 0 -11 5.32 1.94
6 0 -10 6.79 2.63
6 0 -10 6.99 2.58
6 0 -10 6.9 2.5
6 0 -10 2.4 1.72
6 0 -10 3.23 1.73
6 0 -10 3.8 1.76
6 0 -10 5.1 1.9
6 0 -10 6.01 2.19
6 0 -10 3.85 1.66
6 0 -9 36.98 5.25
6 0 -9 33.95 5.28
6 0 -9 36.37 5.29
6 0 -9 40.64 5.67
6 0 -9 39.73 5.87
6 0 -9 45.52 6.07
6 0 -9 37.32 5.46
6 0 -9 32.16 4.85
6 0 -9 35.66 5.2
6 0 -8 217.32 13.91
6 0 -8 206.17 13.69
6 0 -8 277.63 15.11
6 0 -8 232.92 14.46
6 0 -8 233.62 14.81
6 0 -8 202.21 19.79
6 0 -8 267.62 15.91
6 0 -8 240.1 14.44
6 0 -8 235.81 14.56
6 0 -7 6.27 2.31
6 0 -7 9.87 2.58
6 0 -7 9.13 2.76
6 0 -7 6.84 2.48
6 0 -7 11.59 3.25
6 0 -7 8.17 4.34
6 0 -7 8.42 2.23
6 0 -7 11.33 3.17
6 0 -6 118.2 9.68
6 0 -6 109.24 8.8
6 0 -6 118.09 9.44
6 0 -6 114.82 9.73
6 0 -6 98.34 12.63
6 0 -6 119.88 9.6
6 0 -6 114.37 9.14
6 0 -6 102.72 8.87
6 0 -6 107.81 9.18
6 0 -5 2.33 1.31
6 0 -5 -0.25 1.18
6 0 -5 3.11 1.68
6 0 -5 0.72 0.93
6 0 -5 0.2 0.94
6 0 -5 2.65 1.6
6 0 -5 -0.4 2.01
6 0 -5 2.03 1.3
6 0 -5 1.45 0.8
6 0 -4 131.19 12.33
6 0 -4 117.61 9.26
6 0 -4 124.28 9.84
6 0 -4 143.79 10.33
-6 0 4 121.02 10.42
6 0 -3 43.29 6.76
-6 0 3 37.51 5.67
-6 0 3 44 6.96
6 0 -2 8.21 2.94
-6 0 2 2.52 1.77
-6 0 2 5.89 2.92
6 0 -1 33.45 5.83
-6 0 1 32.19 4.9
-6 0 1 36.08 6.12
6 0 0 114.1 11.11
-6 0 0 100.45 8.76
-6 0 0 96.52 9.35
-6 0 0 105.79 10.54
-6 0 -1 99.63 9.47
-6 0 -1 99.58 8.65
-6 0 -1 96.35 10.15
6 0 1 104.18 10.86
-6 0 -2 59.32 7.28
-6 0 -2 55.95 6.49
-6 0 -2 50.42 7.49
6 0 2 58.81 8.12
6 0 3 218.83 15.19
-6 0 -3 254.66 16.17
-6 0 -3 201.19 13.36
6 0 3 221.85 14.46
-6 0 -3 247.22 14.95
-6 0 -3 230.24 13.88
6 0 3 213.36 13.33
-6 0 -3 224.7 16.83
6 0 3 227.84 14.44
6 0 3 256.12 18.02
6 0 4 8.15 2.89
6 0 4 6.02 2.93
-6 0 -4 8.19 2.85
-6 0 -4 7.77 3.65
-6 0 -4 12.17 3.08
6 0 4 13.87 3.51
-6 0 -4 4.94 1.76
-6 0 -4 10.98 3.11
6 0 4 12.56 2.99
6 0 4 11.36 3.22
-6 0 -4 12.24 4.04
-6 0 -4 13.3 3.78
6 0 5 580.76 28.07
-6 0 -5 699.14 31.48
-6 0 -5 638.63 27.8
-6 0 -5 706.45 33.83
6 0 5 596.97 27.94
-6 0 -5 685.58 29.89
-6 0 -5 551.69 25.54
6 0 5 612.98 27.5
-6 0 -5 605.58 26.91
-6 0 -5 523.48 30.07
6 0 5 678.41 29.66
6 0 5 626.52 32.33
6 0 6 151.85 12.58
-6 0 -6 169.93 14.87
-6 0 -6 147.18 11.8
-6 0 -6 187.6 16.55
-6 0 -6 167.68 13.77
-6 0 -6 167.38 12.03
-6 0 -6 120.22 13.12
6 0 6 169.71 12.81
-6 0 -6 175.66 12.47
6 0 6 183.73 13.79
6 0 6 134.74 14.2
-6 0 -7 6.41 3.31
-6 0 -7 17.1 4.04
-6 0 -7 16.39 3.55
-6 0 -7 14.66 3.26
-6 0 -7 15.95 3.88
6 0 7 18.66 4.19
-6 0 -8 7.36 2.74
-6 0 -8 5.12 2.34
-6 0 -8 3.22 1.57
-6 0 -8 9.28 2.77
6 0 8 6.43 2.1
-6 0 -9 131.58 10.76
-6 0 -9 130.09 10.28
-6 0 -9 128.61 10.37
6 0 9 137.92 11.66
-6 0 -9 140.72 11.13
-6 0 -10 3.88 1.86
-6 0 -10 1.11 1.07
-6 0 -10 1.5 1.67
-6 0 -10 4.67 2
6 0 10 2.49 1.64
-6 0 -11 -0.52 0.92
-6 0 -11 -0.78 0.83
-6 0 -11 2.11 1.24
-6 0 -11 -1.31 1.21
6 0 11 0.2 0.88
-6 0 -12 -0.11 1.03
-6 0 -12 3.04 1.51
-6 0 -12 1.84 0.94
-6 0 -12 2.62 1.08
-6 0 -13 19.6 2.83
-6 0 -13 24.35 3.36
-6 0 -13 16.35 2.6
-6 0 -13 18.26 2.83
-6 0 -13 16.5 2.71
-6 0 -14 173.44 8.39
-6 0 -14 154.52 7.87
6 1 -15 5.33 1.43
6 1 -15 7.9 1.82
6 1 -14 19.4 3.05
6 1 -14 17.5 2.88
6 1 -14 17.42 3
6 1 -14 20.96 3.3
6 1 -14 25.75 3.68
6 1 -13 28.24 4.11
6 1 -13 31.84 4.22
6 1 -13 27.22 3.92
6 1 -13 25.5 4.01
6 1 -13 29.51 4.1
6 1 -13 29.88 4.17
6 1 -12 79.87 7.37
6 1 -12 84.56 7.45
6 1 -12 71.24 6.94
6 1 -12 64.18 6.86
6 1 -12 72.38 6.93
6 1 -12 75.29 7.26
6 1 -12 72.3 7.2
6 1 -11 120.62 9.78
6 1 -11 123.06 9.7
6 1 -11 138.67 10.35
6 1 -11 123.19 10.13
6 1 -11 124.82 10.12
6 1 -11 130.32 10.16
6 1 -11 135.95 10.25
6 1 -11 134.52 10.37
6 1 -10 73.1 7.41
6 1 -10 82.51 7.73
6 1 -10 81.3 8.02
6 1 -10 78.18 8.1
6 1 -10 83.46 8.18
6 1 -10 85.98 8.3
6 1 -10 78.81 7.79
6 1 -10 80.09 8.02
6 1 -9 304.61 16.92
6 1 -9 326.08 17.07
6 1 -9 338.11 17.66
6 1 -9 294.64 17.1
6 1 -9 343.72 18.06
6 1 -9 304.62 17.39
6 1 -9 315.28 17.24
6 1 -9 309.73 17.26
6 1 -8 18.7 3.78
6 1 -8 23.08 4.09
6 1 -8 26.73 4.45
6 1 -8 18.84 3.77
6 1 -8 16.71 3.49
6 1 -8 21.69 4.14
6 1 -8 18.92 6.15
6 1 -8 21.98 4.06
6 1 -8 20.97 4.06
6 1 -7 484.27 22.24
6 1 -7 470.9 21.08
6 1 -7 475 21.56
6 1 -7 444.66 21.71
6 1 -7 438.09 29.15
6 1 -7 519.59 22.73
6 1 -7 417.98 20.66
6 1 -7 435.5 21.2
6 1 -7 418.28 20.95
6 1 -6 29.82 4.72
6 1 -6 29.39 4.37
6 1 -6 31.83 4.75
6 1 -6 30.01 4.84
6 1 -6 36.57 5
6 1 -6 31.48 4.55
6 1 -6 36.3 7.5
6 1 -6 26.45 4.48
6 1 -6 31.91 4.78
6 1 -5 238.1 14.27
6 1 -5 196.94 12.33
6 1 -5 255.64 13.99
6 1 -5 241.24 14.48
6 1 -5 247.97 19.82
6 1 -5 255.32 14.38
6 1 -5 260.58 14.55
6 1 -5 196.05 12.75
6 1 -5 225.07 12.95
6 1 -5 205.25 13.15
6 1 -4 8.94 2.57
6 1 -4 8 3.05
6 1 -4 11.57 2.83
6 1 -4 7.7 2.54
6 1 -4 7.65 2.33
6 1 -4 6.02 2.03
-6 1 4 9.38 2.68
6 1 -3 33.92 5.87
-6 1 3 41.4 5.51
-6 1 3 42.27 7.05
6 1 -2 57.33 7.43
-6 1 2 51.63 6.2
-6 1 2 47.22 7.38
6 1 -1 992.69 39.29
-6 1 1 950.55 37.7
-6 1 1 977.11 36.75
-6 1 1 1059.7 42.71
6 1 0 114.18 10.75
-6 1 0 122.31 10.59
-6 1 0 126.02 9.89
-6 1 0 115.87 11.49
6 1 1 124.06 11.49
-6 1 -1 126.36 10.98
-6 1 -1 122.89 9.93
-6 1 -1 129.84 12.24
-6 1 -2 157.94 13.57
-6 1 -2 153.31 11.4
-6 1 -2 136.77 9.85
-6 1 -2 156.27 13.69
6 1 2 152.76 11.34
-6 1 -2 171.7 13.04
6 1 2 170.44 13.68
6 1 3 192.25 14.02
-6 1 -3 193.83 12.91
-6 1 -3 216.53 16.41
6 1 3 191.15 13.23
-6 1 -3 216.26 14.12
-6 1 -3 181.61 12
6 1 3 183.12 12.19
-6 1 -3 201.21 16.12
6 1 3 220.12 14.28
-6 1 -3 213.66 15.26
6 1 3 192.65 15.29
6 1 4 73.72 8.53
-6 1 -4 87.63 8.8
-6 1 -4 83.98 8.08
-6 1 -4 90.85 10.76
-6 1 -4 76.12 7.35
6 1 4 82.6 8.77
-6 1 -4 83.87 8.86
-6 1 -4 83 7.8
6 1 4 87.19 8.2
-6 1 -4 78.87 10.28
-6 1 -4 95.6 10.33
6 1 4 100.17 9.66
-6 1 -5 31.98 6.2
-6 1 -5 25.03 4.66
-6 1 -5 27.95 4.62
-6 1 -5 27.76 6.28
-6 1 -5 19.76 3.99
-6 1 -5 14.67 3.63
-6 1 -5 25.74 4.64
6 1 5 23.64 4.41
6 1 5 36.18 5.94
-6 1 -5 25.53 6
-6 1 -6 73.93 10.01
-6 1 -6 94.78 9.29
-6 1 -6 84.98 11.52
-6 1 -6 82.36 8.04
-6 1 -6 60.98 8.25
-6 1 -6 92.66 8.83
-6 1 -6 65.4 10.15
-6 1 -6 84.9 8.54
6 1 6 105.87 10.43
-6 1 -6 96.09 11.2
-6 1 -7 23.51 4.58
-6 1 -7 21.83 4.13
-6 1 -7 28.1 4.87
-6 1 -7 22.62 4.28
-6 1 -7 26.46 4.8
6 1 7 27.1 5.31
-6 1 -8 203.97 13.87
-6 1 -8 185.19 12.63
-6 1 -8 187.75 13.16
-6 1 -8 177.91 12.76
-6 1 -8 199.3 13.85
6 1 8 213.67 14.9
-6 1 -9 16.86 3.76
-6 1 -9 16.57 3.57
-6 1 -9 16.04 3.55
-6 1 -9 21.91 4.1
-6 1 -9 20.13 4.23
6 1 9 21.29 4.19
-6 1 -10 10.42 2.92
-6 1 -10 18.01 3.64
-6 1 -10 11.48 2.58
-6 1 -10 13.17 3.22
-6 1 -10 9.3 2.72
6 1 10 6.95 2.33
-6 1 -11 160.76 10.94
-6 1 -11 181.81 11.28
-6 1 -11 153.12 9.84
-6 1 -11 185.75 11.62
-6 1 -11 157 10.32
-6 1 -11 161.91 11.02
-6 1 -12 23.02 3.48
-6 1 -12 28.1 3.9
-6 1 -12 28.64 3.98
-6 1 -12 21.69 3.24
-6 1 -12 25.72 3.68
-6 1 -13 72.33 5.44
-6 1 -13 98.19 6.9
-6 1 -13 92.98 6.52
-6 1 -13 91.17 6.62
-6 1 -13 86.6 6.18
-6 1 -14 24.28 2.8
-6 1 -14 25.61 2.82
6 2 -15 118.15 6.98
6 2 -15 105.06 6.64
6 2 -15 125.71 7.46
6 2 -15 130.18 7.48
6 2 -14 0.31 0.62
6 2 -14 0.91 0.78
6 2 -14 0.05 0.92
6 2 -14 1.2 0.77
6 2 -13 30.75 4.08
6 2 -13 31.86 4.09
6 2 -13 31.72 4.58
6 2 -13 34.52 4.64
6 2 -13 28.69 4.16
6 2 -12 41.91 5.04
6 2 -12 47.06 5.48
6 2 -12 43.98 5.32
6 2 -12 44.95 5.67
6 2 -12 50.15 5.54
6 2 -12 47.92 5.66
6 2 -12 48.79 5.85
6 2 -11 202.21 12.76
6 2 -11 233.26 13.46
6 2 -11 218.91 13.25
6 2 -11 206.49 13.51
6 2 -11 213.76 13.26
6 2 -11 231.17 14.02
6 2 -11 223.25 13.83
6 2 -10 298.34 16.57
6 2 -10 305.01 16.41
6 2 -10 319.6 16.94
6 2 -10 306.98 17.23
6 2 -10 314.76 17.02
6 2 -10 325.91 17.54
6 2 -10 310.72 17.28
6 2 -9 457.89 21.96
6 2 -9 465.37 21.45
6 2 -9 481.01 22.01
6 2 -9 463.53 22.34
6 2 -9 440.42 20.68
6 2 -9 486.45 22.38
6 2 -9 498.89 22.96
6 2 -9 464.67 22.3
6 2 -8 237.89 14.59
6 2 -8 233.69 13.72
6 2 -8 233.1 13.87
6 2 -8 227.03 14.48
6 2 -8 187.31 18.91
6 2 -8 221.51 13.45
6 2 -8 234.17 14.27
6 2 -8 229.92 14.38
6 2 -8 223.88 14.14
6 2 -7 50.57 6.23
6 2 -7 51.35 5.87
6 2 -7 48.97 5.97
6 2 -7 46.71 6.24
6 2 -7 53.1 6.19
6 2 -7 44.83 5.8
6 2 -7 47.23 9.09
6 2 -7 43.62 5.75
6 2 -7 47.9 6.02
6 2 -6 177.64 12.29
6 2 -6 152.26 10.59
6 2 -6 185.01 11.86
6 2 -6 164.4 12.05
6 2 -6 161.86 16.43
6 2 -6 174.61 11.74
6 2 -6 182.09 11.87
6 2 -6 164.36 10.9
6 2 -6 162.66 11.57
6 2 -6 144 10.87
6 2 -5 139.98 10.53
6 2 -5 109.22 8.69
6 2 -5 150.2 10.56
6 2 -5 133.51 10.56
6 2 -5 127.34 14.24
6 2 -5 155.5 10.85
6 2 -5 137.95 10.43
6 2 -5 140.58 10
6 2 -4 84 8.14
6 2 -4 81.41 7.54
6 2 -4 75.09 7.85
6 2 -4 93.38 8.04
6 2 -4 84.33 7.85
-6 2 4 83.47 8.34
6 2 -4 99.47 8.52
-6 2 4 99.33 11.6
6 2 -4 73.92 8.91
6 2 -3 119.89 9.64
6 2 -3 103.68 8.64
6 2 -3 120.36 9.31
-6 2 3 125.63 10.16
6 2 -3 104.64 9.03
6 2 -3 135.09 9.73
-6 2 3 150.85 14.09
6 2 -3 128.42 11.89
6 2 -2 19.64 3.89
6 2 -2 19.8 3.65
6 2 -2 22.11 5.1
-6 2 2 23.97 4.41
6 2 -2 21.89 4.13
-6 2 2 30.27 5.1
-6 2 2 17.05 4.47
6 2 -1 54.08 5.78
-6 2 1 59.19 7.27
-6 2 1 60.68 7.09
-6 2 1 55.55 8.2
-6 2 0 667.48 27.8
-6 2 0 615.64 30.64
-6 2 0 626.75 28.09
-6 2 -1 931.41 39.19
-6 2 -1 982.18 36.28
-6 2 -1 905.67 36.52
6 2 1 797.97 30.97
-6 2 -1 836.19 38.09
6 2 1 835.37 32.92
-6 2 -2 52.81 7.89
-6 2 -2 55.89 6.98
6 2 2 45.05 5.93
-6 2 -2 51.68 7.25
-6 2 -2 42.07 5.09
6 2 2 45.93 5.4
6 2 2 48.46 6.22
-6 2 -2 39 7.07
-6 2 -3 229.7 17.67
-6 2 -3 240.09 15.93
6 2 3 196.01 13.68
-6 2 -3 234.24 16.66
-6 2 -3 200.32 12.51
6 2 3 217.12 13.03
-6 2 -3 212.01 17.18
6 2 3 254.57 15.58
-6 2 -4 136.33 10.89
-6 2 -4 154.43 14.7
-6 2 -4 155.56 12.99
-6 2 -4 134.05 12.61
-6 2 -4 138.65 10.51
6 2 4 136.69 10.42
-6 2 -4 122.21 13.14
6 2 4 170.22 12.87
-6 2 -5 167.12 12.46
-6 2 -5 166.99 16.03
-6 2 -5 183.12 12.18
-6 2 -5 166.3 14.99
-6 2 -5 172.17 14.28
-6 2 -5 171.92 12.43
-6 2 -5 181.6 12.32
-6 2 -5 151.26 15.13
6 2 5 163.17 12.2
6 2 5 220.79 15.09
-6 2 -6 4.48 1.85
-6 2 -6 5.43 2.51
-6 2 -6 4.04 2.39
-6 2 -6 4.61 1.91
-6 2 -6 6.65 2.68
-6 2 -6 5.81 2.95
-6 2 -6 -0.18 3.56
-6 2 -6 8.9 3.17
6 2 6 9.93 3.3
-6 2 -6 7.17 2.89
-6 2 -7 25.42 4.54
-6 2 -7 24.92 4.88
-6 2 -7 15.95 3.55
-6 2 -7 22.57 4.32
6 2 7 22.68 4.74
-6 2 -8 3.4 2.06
-6 2 -8 2.96 1.45
-6 2 -8 8.02 2.45
-6 2 -8 0.27 1.29
-6 2 -8 2.04 1.66
-6 2 -8 1.71 1.79
6 2 8 7.22 2.61
-6 2 -9 128.69 9.89
-6 2 -9 138.56 10.82
-6 2 -9 138.49 10.57
-6 2 -9 147.59 11
-6 2 -9 127.94 10.46
-6 2 -9 146.62 11.24
-6 2 -10 343.33 17.59
-6 2 -10 340.53 17.36
-6 2 -10 361.18 17.88
-6 2 -10 323.52 17.13
-6 2 -10 325.59 17.26
-6 2 -11 108.91 8.58
-6 2 -11 115.66 8.83
-6 2 -11 100.91 7.88
-6 2 -11 124.94 9.16
-6 2 -11 111.75 8.54
-6 2 -11 102.2 8.18
-6 2 -12 27.76 3.79
-6 2 -12 30.72 4.04
-6 2 -12 29.72 3.64
-6 2 -12 32.93 4.15
-6 2 -12 33.2 4.04
-6 2 -12 28.15 3.64
-6 2 -13 29.81 3.48
-6 2 -13 31.31 3.57
-6 2 -13 22.46 2.68
-6 2 -13 27.73 3.37
-6 2 -13 28.63 3.2
6 3 -15 47.5 3.94
6 3 -15 48.33 4.11
6 3 -15 50.21 4.09
6 3 -14 41.89 4.21
6 3 -14 38.19 3.91
6 3 -14 43.8 4.59
6 3 -14 38.57 4.19
6 3 -14 45.21 4.6
6 3 -13 20.04 3.12
6 3 -13 28.11 3.8
6 3 -13 20.35 3.27
6 3 -13 23.26 3.62
6 3 -13 19.99 3.31
6 3 -13 18.6 3.39
6 3 -12 120.34 8.95
6 3 -12 138.42 9.48
6 3 -12 121.93 9.06
6 3 -12 139.3 10.05
6 3 -12 121.66 8.88
6 3 -12 132.54 9.63
6 3 -12 138.09 9.96
6 3 -11 7.96 2.46
6 3 -11 5.81 1.96
6 3 -11 10.19 3.02
6 3 -11 7.56 2.47
6 3 -11 10.04 2.65
6 3 -11 11.4 2.78
6 3 -11 9.05 2.59
6 3 -10 134.93 10.39
6 3 -10 133.28 9.93
6 3 -10 137.44 10.19
6 3 -10 134.22 10.64
6 3 -10 115.53 9.06
6 3 -10 133.33 10.16
6 3 -10 125.79 10.21
6 3 -10 136.56 10.61
6 3 -9 344.7 18.37
6 3 -9 347.54 17.64
6 3 -9 336.56 17.55
6 3 -9 350.87 18.98
6 3 -9 317.87 16.91
6 3 -9 350.65 18.03
6 3 -9 342.48 18.41
6 3 -9 356.73 18.73
6 3 -8 610.57 26.55
6 3 -8 561.99 24.58
6 3 -8 618.49 25.66
6 3 -8 596.56 26.92
6 3 -8 564.53 24.94
6 3 -8 588.32 25.53
6 3 -8 604.52 26.31
6 3 -8 585.14 26.03
6 3 -7 0.58 1.57
6 3 -7 0.64 1.01
6 3 -7 0.14 1.2
6 3 -7 2.89 2.03
6 3 -7 0.83 0.99
6 3 -7 -0.33 2.8
6 3 -7 0.24 1.02
6 3 -7 0.92 1.84
6 3 -6 503.92 29.03
6 3 -6 641.77 27.13
6 3 -6 553.5 24.24
6 3 -6 654.49 26.38
6 3 -6 650.12 27.73
6 3 -6 506.41 32.2
6 3 -6 645.74 26.15
6 3 -5 257.89 19.06
6 3 -5 330.88 17.64
6 3 -5 327.88 16.88
6 3 -5 313.5 17.66
6 3 -5 287.73 22.47
6 3 -5 293.51 16.25
-6 3 5 382.16 25.38
6 3 -4 81.82 8.33
6 3 -4 98.7 8.51
6 3 -4 86.51 8.62
6 3 -4 96.81 8.61
6 3 -4 92.92 8.32
-6 3 4 112.93 12.99
6 3 -4 94.61 10.81
6 3 -3 61.03 7.06
6 3 -3 43.61 5.48
6 3 -3 47.52 6.22
-6 3 3 52.12 6.78
6 3 -3 61.51 6.64
6 3 -3 48.58 5.99
-6 3 3 75.5 10.23
6 3 -3 51.92 8.17
6 3 -2 161.09 12.1
-6 3 2 170.69 13.35
6 3 -2 135.12 10.15
-6 3 2 199.33 13.77
6 3 -2 179.25 11.87
6 3 -2 139.06 10.5
-6 3 2 202.51 16.98
6 3 -2 182.55 16.16
6 3 -1 7.88 2.82
-6 3 1 10.05 3.11
-6 3 1 15.3 4.34
6 3 -1 10.55 2.9
6 3 -1 8.64 3.83
6 3 -1 5.76 1.83
-6 3 1 11.7 4.14
6 3 0 156.29 12.53
-6 3 0 231.44 15.47
6 3 0 182.98 12.13
-6 3 0 205.38 15.04
6 3 0 219.31 12.61
-6 3 0 190.2 16.13
6 3 1 575.52 27.35
-6 3 -1 676.01 32.8
-6 3 -1 679.91 30.09
6 3 1 604.49 25.89
-6 3 -1 631.85 30.24
6 3 1 600.92 25.3
-6 3 -1 586.04 31.25
6 3 1 623.75 27.33
-6 3 -2 375.95 23.81
-6 3 -2 387.58 22.55
-6 3 -2 432.21 22.86
6 3 2 315.55 18.09
6 3 2 332.91 17.47
-6 3 -2 333.03 22.47
6 3 2 394.11 20.22
-6 3 -3 220.59 16.97
-6 3 -3 241.14 19.04
-6 3 -3 273.1 18.16
6 3 3 238.03 14.08
-6 3 -3 223.43 13.48
-6 3 -3 219.63 18.06
6 3 3 256.11 16.52
-6 3 -4 11.77 3.22
-6 3 -4 10.54 4.31
-6 3 -4 13.41 4.2
-6 3 -4 29.42 6.61
-6 3 -4 13.51 2.93
6 3 4 15.59 3.49
6 3 4 18.99 4.48
-6 3 -4 14.05 4.77
-6 3 -5 97.34 9.08
-6 3 -5 83.64 10.46
-6 3 -5 85.56 11.61
-6 3 -5 109.6 8.98
-6 3 -5 90.34 11.13
-6 3 -5 86.77 8.56
-6 3 -5 77.91 10.93
-6 3 -5 91.72 8.59
6 3 5 109.1 10.32
-6 3 -6 172.85 12.53
-6 3 -6 177.19 12.29
-6 3 -6 169.63 12.33
-6 3 -6 166.84 12.17
6 3 6 166.92 13.08
-6 3 -7 141.15 11.25
-6 3 -7 150.23 11.04
-6 3 -7 150.69 11.42
-6 3 -7 147.38 11.34
-6 3 -8 132.75 10.78
-6 3 -8 145.18 11.16
-6 3 -8 139.16 10.78
-6 3 -8 155.02 11.15
-6 3 -8 132.82 10.84
-6 3 -8 145.55 11.1
-6 3 -9 154.4 11.35
-6 3 -9 168.64 11.84
-6 3 -9 175.69 11.95
-6 3 -9 170.46 11.66
-6 3 -9 183.42 12.18
-6 3 -9 163.05 11.54
-6 3 -10 38.38 4.95
-6 3 -10 40.47 5.18
-6 3 -10 48.48 5.81
-6 3 -10 49.43 5.88
-6 3 -10 50.41 5.75
-6 3 -10 38.21 5.03
-6 3 -11 32.37 4.22
-6 3 -11 33.36 4.42
-6 3 -11 41.3 4.8
-6 3 -11 28.19 3.94
-6 3 -11 33.98 4.43
-6 3 -11 40.54 4.82
-6 3 -11 31.77 4.02
-6 3 -12 11.33 2.11
-6 3 -12 10.86 2.16
-6 3 -12 10.59 2.25
-6 3 -12 11.19 2.32
-6 3 -12 10.26 2.16
-6 3 -12 9.99 2.02
-6 3 -13 49.11 4.24
-6 3 -13 44.33 4.02
-6 3 -13 48.23 4.21
-6 3 -13 48.13 4.07
-6 3 -13 43.5 3.64
6 4 -14 23.75 2.94
6 4 -14 21.76 2.71
6 4 -14 24.18 3.11
6 4 -14 21.47 2.7
6 4 -14 25.38 3.14
6 4 -13 51.41 4.96
6 4 -13 59.24 5.29
6 4 -13 62.03 5.46
6 4 -13 60.5 5.73
6 4 -13 47.43 4.47
6 4 -13 59.77 5.28
6 4 -13 56.22 5.39
6 4 -12 82.46 7.08
6 4 -12 79.39 6.75
6 4 -12 94.5 7.52
6 4 -12 90.35 7.77
6 4 -12 75.06 6.54
6 4 -12 78.47 6.73
6 4 -12 83.29 7.18
6 4 -11 62.52 6.53
6 4 -11 63.5 6.37
6 4 -11 65.27 6.55
6 4 -11 65.53 6.9
6 4 -11 52.44 5.44
6 4 -11 54.45 5.9
6 4 -11 64.77 6.42
6 4 -11 63.89 6.57
6 4 -10 344.98 17.92
6 4 -10 304.74 16.38
6 4 -10 352.12 17.36
6 4 -10 358.36 18.58
6 4 -10 317.98 16.31
6 4 -10 336.79 17.24
6 4 -10 321.77 17.01
6 4 -10 322.25 17.29
6 4 -9 198.12 13.22
6 4 -9 187.85 12.24
6 4 -9 200.24 12.67
6 4 -9 198.93 13.66
6 4 -9 193.57 12.46
6 4 -9 185.7 12.46
6 4 -9 182.95 12.42
6 4 -9 180.7 12.52
6 4 -8 35.74 5.49
6 4 -8 39.95 5.35
6 4 -8 47.12 5.87
6 4 -8 41.11 6.24
6 4 -8 34.02 5.25
6 4 -8 37.1 5.37
6 4 -7 77.46 8.27
6 4 -7 78.9 7.57
6 4 -7 81.32 7.96
6 4 -7 79.23 8.51
6 4 -7 75.94 7.67
6 4 -6 200.61 13.77
6 4 -6 200.89 13.12
6 4 -6 195.17 13.76
6 4 -6 177.2 12.42
6 4 -5 117.34 13.1
6 4 -5 156.16 11.94
6 4 -5 148.85 11.34
6 4 -5 134.46 11.34
6 4 -5 137.71 10.95
-6 4 5 180.39 17.52
6 4 -4 140.25 11.07
6 4 -4 127.7 10
6 4 -4 102.44 9.65
6 4 -4 84.53 11.86
6 4 -4 112.79 9.87
-6 4 4 160.28 16.23
6 4 -4 119.21 13.12
6 4 -3 17.58 4.09
6 4 -3 20.08 3.89
6 4 -3 13.29 4.57
6 4 -3 15.25 3.58
-6 4 3 19.61 5.73
6 4 -2 377.66 19.98
-6 4 2 357.49 21.43
6 4 -2 362.79 18.98
6 4 -2 333.85 18
-6 4 2 451.77 27.63
6 4 -2 430.48 27.13
6 4 -1 124.6 10.63
-6 4 1 109.49 11.19
6 4 -1 112.24 9.56
6 4 -1 90.01 8.29
-6 4 1 140.34 14.55
6 4 -1 124.74 14.55
6 4 0 274.41 16.98
-6 4 0 263.27 18.55
6 4 0 276.01 15.86
-6 4 0 302.04 21.79
-6 4 -1 84.35 10.64
-6 4 -1 107.45 11.72
6 4 1 93.32 8.76
-6 4 -1 106.65 12.56
6 4 2 226.73 13.65
-6 4 -2 186 16.08
-6 4 -2 180.89 16.67
-6 4 -2 221.72 18.72
-6 4 -2 218.94 17.17
6 4 2 199.08 13.72
-6 4 -3 329.09 17.87
-6 4 -3 281.32 20.73
-6 4 -3 273.46 21.58
-6 4 -3 297.06 20.67
-6 4 -3 328.97 16.67
-6 4 -3 278.09 22.02
6 4 3 310.85 16.93
-6 4 -4 7 2.62
-6 4 -4 5.6 2.65
-6 4 -4 9.47 2.84
6 4 4 4.23 1.98
6 4 4 8 3.01
-6 4 -5 759.38 31.72
-6 4 -5 782.26 31.15
-6 4 -5 776.35 30.73
6 4 5 761.85 32.72
-6 4 -6 216.5 14.33
-6 4 -6 246.05 14.42
-6 4 -6 212.67 13.91
-6 4 -6 203.56 13.32
-6 4 -7 411.32 21.06
-6 4 -7 447.3 20.85
-6 4 -7 434.61 20.92
-6 4 -7 414.05 20.55
-6 4 -8 31.89 5.24
-6 4 -8 30.8 4.8
-6 4 -8 33.76 4.85
-6 4 -8 30.62 4.93
-6 4 -8 37.27 5.41
-6 4 -8 32.97 4.97
-6 4 -9 24.34 4.21
-6 4 -9 25.33 4.19
-6 4 -9 25.34 4.22
-6 4 -9 24.95 4.07
-6 4 -9 22.07 3.85
-6 4 -9 18.85 3.45
-6 4 -10 16.71 3.2
-6 4 -10 17.28 3.13
-6 4 -10 15.99 3.27
-6 4 -10 19.18 3.27
-6 4 -10 15.84 3.2
-6 4 -10 14.55 2.73
-6 4 -11 58.98 5.46
-6 4 -11 60.13 5.61
-6 4 -11 59.71 5.45
-6 4 -11 70.96 5.97
-6 4 -11 62.59 5.65
-6 4 -11 60.79 5.55
-6 4 -11 55.37 5.06
-6 4 -12 51.54 4.45
-6 4 -12 54.59 4.77
-6 4 -12 57.61 4.83
-6 4 -12 55.27 4.75
-6 4 -12 53.33 4.56
-6 4 -12 58.18 4.88
6 5 -13 11.55 2.13
6 5 -13 11.29 2.08
6 5 -13 12.62 2.24
6 5 -13 11.11 2.3
6 5 -13 9.15 1.74
6 5 -13 11.34 2
6 5 -12 154.01 9.43
6 5 -12 149.89 9.02
6 5 -12 163.45 9.54
6 5 -12 150.38 9.61
6 5 -12 142.26 8.83
6 5 -12 134.46 8.61
6 5 -11 554.3 22.66
6 5 -11 548.43 21.77
6 5 -11 557.17 22.25
6 5 -11 552.61 23
6 5 -11 492.59 20.81
6 5 -11 535.21 21.85
6 5 -11 509.57 21.49
6 5 -10 98.55 8.63
6 5 -10 101.2 8.05
6 5 -10 94.34 8.07
6 5 -10 102.21 8.84
6 5 -10 96.82 7.91
6 5 -10 99.96 8.21
6 5 -10 91.72 7.87
6 5 -9 46.18 5.87
6 5 -9 40.95 5.15
6 5 -9 44.67 5.66
6 5 -9 48.58 6.31
6 5 -9 38.95 5.38
6 5 -8 53.06 6.57
6 5 -8 42.71 5.57
6 5 -8 49.05 6.06
6 5 -8 55.03 7.09
6 5 -8 46.89 6.05
6 5 -7 122.24 10.65
6 5 -7 118.41 9.47
6 5 -7 132.96 10.63
6 5 -7 128.25 10.95
6 5 -7 131.19 10.71
6 5 -6 169.04 12.68
6 5 -6 156.58 11.77
6 5 -6 146.71 11.84
6 5 -6 169.4 12.47
6 5 -5 242 15.61
6 5 -5 224.84 14.31
6 5 -5 199.89 13.91
6 5 -5 226.32 14.77
6 5 -4 255.4 15.91
6 5 -4 228.63 14.45
6 5 -4 233.18 15.05
6 5 -3 261.6 16.11
6 5 -3 229.57 14.22
6 5 -3 226.15 14.69
6 5 -2 150.44 11.85
6 5 -2 137.74 10.81
6 5 -2 143.02 15.8
6 5 -1 59.57 7.57
6 5 -1 61.39 7.07
6 5 -1 61.78 10.53
-6 5 1 41.59 7.47
-6 5 1 59.65 9.85
-6 5 0 162.77 15.33
6 5 0 218.44 14.18
-6 5 0 220.18 19.42
6 5 0 229.22 21.27
6 5 1 395.43 20.62
6 5 2 241.56 14.95
6 5 2 270.46 17.2
-6 5 -3 175.8 12.8
-6 5 -3 175.94 11.87
6 5 3 190.84 12.93
6 5 3 187.82 13.85
-6 5 -4 294.92 17.27
-6 5 -4 293.27 16.19
-6 5 -5 232.97 15.04
-6 5 -5 242.46 14.63
-6 5 -5 219.48 13.69
-6 5 -6 62.9 7.29
-6 5 -6 78.6 7.61
-6 5 -6 59.94 6.85
-6 5 -6 73.42 7.53
-6 5 -7 20.38 4.05
-6 5 -7 24.56 4.08
-6 5 -7 22.5 4.07
-6 5 -7 21.42 4.29
-6 5 -7 17.29 3.58
-6 5 -8 5.55 1.99
-6 5 -8 5.64 2.42
-6 5 -8 3.09 1.66
-6 5 -8 6.74 2.17
-6 5 -8 5.51 1.65
-6 5 -8 7.27 2.37
-6 5 -8 4.81 1.66
-6 5 -9 5.18 1.54
-6 5 -9 8.41 2.18
-6 5 -9 8.45 2.27
-6 5 -9 9.57 2.61
-6 5 -9 8.18 2.27
-6 5 -9 5.66 2.01
-6 5 -10 67.17 6.04
-6 5 -10 60.28 5.67
-6 5 -10 70.57 6.09
-6 5 -10 70.38 6.08
-6 5 -10 74.6 6.35
-6 5 -10 72.59 6.19
-6 5 -11 9.51 2.01
-6 5 -11 7.44 1.62
-6 5 -11 10.99 2.16
-6 5 -11 9.39 1.94
-6 5 -11 6.54 1.61
-6 5 -11 8.83 1.85
-6 5 -11 9.19 1.87
-6 5 -12 85.6 5.42
-6 5 -12 86 5.34
-6 5 -12 85.17 5.45
6 6 -12 33.05 3.67
6 6 -12 30.78 3.3
6 6 -12 34.93 3.66
6 6 -12 29.52 3.52
6 6 -12 31.32 3.43
6 6 -11 99.04 7.27
6 6 -11 88.93 6.45
6 6 -11 93.29 6.89
6 6 -11 93.88 7.21
6 6 -11 87.37 6.42
6 6 -11 93.38 6.9
6 6 -10 82.63 7.18
6 6 -10 71.78 6.08
6 6 -10 78.19 6.68
6 6 -10 72.94 6.9
6 6 -10 72.34 6.44
6 6 -10 72.42 6.48
6 6 -9 15.55 3.53
6 6 -9 13.38 2.76
6 6 -9 19.33 3.64
6 6 -9 17.57 3.46
6 6 -9 12.09 2.61
6 6 -8 200.23 13.22
6 6 -8 188.25 11.53
6 6 -8 213.19 12.9
6 6 -8 200.17 13.04
6 6 -8 210.4 12.8
6 6 -7 15.87 3.8
6 6 -7 16.96 3.58
6 6 -7 15.99 3.64
6 6 -6 1044.59 39.46
6 6 -6 1003.65 37.93
6 6 -6 1021.17 38.33
6 6 -5 18.3 4.01
6 6 -5 17.58 3.8
6 6 -5 20.5 4.75
6 6 -4 137.8 11.17
6 6 -4 130.99 10.28
6 6 -4 146.64 11.67
6 6 -3 6.91 2.39
6 6 -3 10.47 3.12
6 6 -2 174.31 12.66
6 6 -2 167.04 12.13
6 6 -1 400.28 20.59
6 6 0 4.78 1.99
6 6 1 86.65 8.85
-6 6 -2 47.82 6.63
-6 6 -2 45.79 5.5
6 6 2 66.1 7.47
6 6 2 51.84 6.62
-6 6 -3 5.81 2.56
-6 6 -3 7.71 2.75
6 6 3 10.58 3.06
-6 6 -4 3.96 2.22
-6 6 -4 4.9 2.54
-6 6 -4 4.33 1.9
-6 6 -5 407.5 20.83
-6 6 -5 462 21.15
-6 6 -5 418.84 19.97
-6 6 -6 74.02 7.48
-6 6 -6 81.53 7.71
-6 6 -6 86.5 7.65
-6 6 -6 80.18 7.45
-6 6 -7 4.67 1.93
-6 6 -7 6.35 2.21
-6 6 -7 7.22 2.39
-6 6 -7 8.52 2.81
-6 6 -8 15.69 2.98
-6 6 -8 18.22 3.59
-6 6 -8 18.87 3.28
-6 6 -8 19.08 3.47
-6 6 -8 22.24 3.84
-6 6 -8 22.52 3.65
-6 6 -9 11.3 2.15
-6 6 -9 13.06 2.65
-6 6 -9 5.41 1.48
-6 6 -9 11.43 2.41
-6 6 -9 10.93 2.32
-6 6 -9 10.52 2.38
-6 6 -10 74.5 5.69
-6 6 -10 78.95 5.72
-6 6 -10 71.6 5.63
-6 6 -10 68.49 5.33
-6 6 -10 76.51 5.69
-6 6 -11 44.75 3.77
-6 6 -11 46.23 3.83
-6 6 -11 45.61 3.84
-6 6 -11 49.96 3.95
6 7 -11 8.22 1.81
6 7 -11 7.94 1.81
6 7 -11 9.84 1.92
6 7 -10 109.42 7.43
6 7 -10 108.2 7.16
6 7 -10 88.46 6.52
6 7 -10 95.27 6.62
6 7 -10 96.1 6.76
6 7 -9 44.39 4.98
6 7 -9 36.85 4.42
6 7 -9 31.39 4.02
6 7 -9 52.13 5.12
6 7 -9 33.66 4.14
6 7 -9 45.58 4.41
6 7 -8 14.65 3.18
6 7 -8 13.04 2.66
6 7 -8 14.57 2.91
6 7 -7 11.42 2.97
6 7 -7 10.28 2.45
6 7 -7 9.9 2.9
6 7 -6 17.82 3.61
6 7 -6 18.42 3.4
6 7 -6 25.4 4.58
6 7 -5 42.05 5.62
6 7 -5 47.19 5.52
6 7 -5 53.24 6.31
6 7 -4 53.81 6.31
6 7 -4 62.7 7.01
6 7 -3 243.25 14.37
6 7 -3 254.71 15.09
6 7 -2 125.57 9.97
6 7 -2 112.07 9.34
6 7 -1 156.44 11.1
6 7 0 129.2 9.87
-6 7 -1 15.86 3.64
6 7 1 18.55 3.62
-6 7 -2 66.98 6.97
-6 7 -2 77.28 7.06
6 7 2 81.06 7.77
-6 7 -3 261.74 14.91
-6 7 -3 297.48 16.04
-6 7 -3 265.96 14.33
6 7 3 265.08 14.52
-6 7 -4 18.12 3.18
-6 7 -4 21.52 3.88
-6 7 -5 18.32 3.43
-6 7 -5 15.5 3.29
-6 7 -6 0.63 0.95
-6 7 -6 -0.56 1.04
-6 7 -7 43.14 5.11
-6 7 -7 42.91 4.88
-6 7 -7 40.45 4.71
-6 7 -7 43.52 5.05
-6 7 -8 12.12 2.24
-6 7 -8 17.53 2.9
-6 7 -8 17.55 2.88
-6 7 -8 15.25 2.62
-6 7 -8 12.51 2.31
-6 7 -8 15.78 2.77
-6 7 -9 68.8 5.34
-6 7 -9 66.92 5.1
-6 7 -9 67.71 5.03
-6 7 -9 67 5.11
-6 7 -9 52.66 4.22
6 8 -9 21.04 2.83
6 8 -9 22.88 2.76
6 8 -9 23.73 2.91
6 8 -9 18.62 2.52
6 8 -8 154.22 9.05
6 8 -8 129.47 7.87
6 8 -8 151.24 8.74
6 8 -8 148.93 8.68
6 8 -8 152.06 8.28
6 8 -7 9.51 2.26
6 8 -7 8.91 1.95
6 8 -7 9.26 2.31
6 8 -7 9.5 2.32
6 8 -6 82.71 6.84
6 8 -6 83.34 7.04
6 8 -6 71.1 6.53
6 8 -5 70.69 6.35
6 8 -5 82.96 7.23
6 8 -5 78.2 7.02
6 8 -4 0.62 0.96
6 8 -4 -2.63 2.13
6 8 -3 92.35 7.58
6 8 -3 70.21 6.54
6 8 -2 82.07 7.05
6 8 -1 191.43 11.05
6 8 -1 187.08 11.06
-6 8 -1 79.67 6.63
6 8 1 94.04 7.44
-6 8 -2 21.1 3.28
-6 8 -2 25.06 3.86
6 8 2 22.45 3.46
-6 8 -3 35.5 4.59
-6 8 -4 16.19 3.16
-6 8 -4 14.64 2.79
-6 8 -4 12.79 2.67
-6 8 -5 53.11 5.12
-6 8 -5 43.47 4.46
-6 8 -5 41.55 4.5
-6 8 -6 6.29 1.92
-6 8 -6 8.39 1.95
-6 8 -6 5.47 1.46
-6 8 -6 4.83 1.44
-6 8 -6 4.9 1.46
-6 8 -7 91.79 6.41
-6 8 -7 93.97 6.24
-6 8 -7 85.96 5.69
-6 8 -8 46.04 3.82
-6 8 -8 41.9 3.56
6 9 -6 110.46 6.63
6 9 -6 122.59 6.92
6 9 -5 39.8 3.97
6 9 -5 28.55 3.19
6 9 -4 24.52 3.11
6 9 -3 22.39 2.98
6 9 -3 25.24 3.13
-6 9 2 106.91 6.37
-6 9 1 4.68 1.37
6 9 -1 19.18 3.37
-6 9 0 89.54 6.18
6 9 0 123.27 7.34
6 9 1 6.46 1.44
-6 9 -3 63 5.09
-6 9 -4 18.99 2.61
-6 9 -5 5.64 1.34
-7 -9 3 37.94 3.31
-7 -9 2 120.99 6.54
-7 -9 1 17.61 2.27
-7 -8 7 3.67 1.1
-7 -8 7 2.39 0.82
-7 -8 6 1.39 0.67
-7 -8 6 1.13 0.63
-7 -8 5 21.67 2.93
-7 -8 5 20.8 2.97
-7 -8 4 24.37 3.24
-7 -8 4 25.39 3.45
-7 -8 3 75.42 6.06
-7 -8 3 76.87 6.27
-7 -8 2 42.86 4.49
-7 -8 2 41.76 4.54
-7 -8 1 253.76 12.3
-7 -8 1 280.75 13.39
-7 -8 0 6.31 1.69
-7 -8 0 7.03 1.78
7 -8 0 6.1 1.97
-7 -8 -1 13.16 2.31
7 -8 1 15.97 2.87
-7 -8 -2 93.92 6.27
7 -8 2 118.98 8.08
-7 -8 -3 19.95 2.41
-7 -7 9 44.37 3.99
-7 -7 9 43.74 4.07
-7 -7 8 12.36 2.19
-7 -7 8 13.92 2.33
-7 -7 7 32.4 3.89
-7 -7 7 29.49 3.77
-7 -7 6 125.26 8.62
7 -7 -6 117.55 8.63
-7 -7 6 144.7 9.26
-7 -7 5 71.63 6.67
7 -7 -5 71.45 6.93
-7 -7 5 87.32 7.42
-7 -7 4 128.46 9.48
7 -7 -4 142.97 10.55
-7 -7 4 128.17 9.38
-7 -7 3 109.75 8.86
-7 -7 3 125.75 9.4
-7 -7 2 102.61 8.32
7 -7 -2 118.95 10.01
-7 -7 2 103.94 8.33
7 -7 -2 96.51 7.9
-7 -7 1 121.2 8.87
7 -7 -1 150.93 11.19
7 -7 -1 125.25 9.39
-7 -7 1 120.59 8.97
7 -7 -1 126.78 9.62
-7 -7 0 35.17 4.29
7 -7 0 47.01 5.79
-7 -7 0 40.07 4.9
7 -7 0 47.32 5.77
7 -7 1 94.41 8.62
-7 -7 -1 92.35 7.36
7 -7 1 106.76 9.07
7 -7 2 81.96 7.89
-7 -7 -2 69.71 6.09
7 -7 2 89.89 8.26
7 -7 3 13.8 3.13
-7 -7 -3 10.67 2.23
7 -7 3 9.36 2.66
7 -7 4 5.62 1.95
7 -7 5 5.4 1.7
7 -7 6 24.57 3.45
-7 -6 11 12.38 2
-7 -6 11 11.1 1.98
-7 -6 10 14.4 2.5
-7 -6 10 12.03 2.26
-7 -6 9 50.5 5.03
7 -6 -9 45.88 5
-7 -6 9 47.43 4.98
-7 -6 8 35.92 4.53
7 -6 -8 45.54 5.13
7 -6 -8 36.79 4.41
-7 -6 8 31.09 4.27
-7 -6 7 58.13 6.13
7 -6 -7 59.08 6.28
7 -6 -7 49.08 5.58
7 -6 -7 63.16 6.45
-7 -6 7 57.81 6.31
-7 -6 6 292.08 15.88
7 -6 -6 289.7 15.81
7 -6 -6 284.9 15.67
7 -6 -6 297.58 16.4
-7 -6 6 300.07 16.01
-7 -6 5 301.62 16.92
7 -6 -5 316 16.87
7 -6 -5 304.45 17.16
7 -6 -5 323.27 17.94
-7 -6 5 304.55 16.6
-7 -6 4 147.03 11.53
7 -6 -4 168.1 12.46
7 -6 -4 176.76 13.1
-7 -6 4 146.76 11.15
-7 -6 3 11.49 3.08
7 -6 -3 12.61 3.27
7 -6 -3 9.21 3.32
-7 -6 3 6.62 2.31
7 -6 -3 8.06 2.59
-7 -6 2 225.1 14.16
7 -6 -2 238.68 15.55
7 -6 -2 254.69 16.36
7 -6 -2 223.84 14.32
-7 -6 2 210.71 13.38
7 -6 -2 225.01 14.27
-7 -6 1 102.29 8.67
7 -6 -1 113.62 10.22
7 -6 -1 119.8 10.63
7 -6 -1 113.94 10.21
-7 -6 1 94.05 8.29
7 -6 -1 107.4 9.77
7 -6 -1 117.39 10.47
7 -6 0 6.15 2.15
7 -6 0 10.27 3.11
7 -6 0 6.35 2.71
-7 -6 0 6 1.88
7 -6 0 7.65 2.81
7 -6 1 85.83 8.8
7 -6 1 92.53 9.31
-7 -6 -1 72.37 6.94
7 -6 1 97.72 9.62
7 -6 1 83.8 8.99
7 -6 2 92.16 8.99
7 -6 2 105.51 9.97
-7 -6 -2 77.58 6.98
7 -6 2 117.18 10.41
7 -6 2 98.98 9.68
7 -6 3 77.39 8.16
7 -6 3 72.35 7.86
7 -6 4 63.48 7.02
7 -6 4 68.03 7.26
7 -6 4 61.29 6.71
7 -6 5 108.84 8.88
7 -6 5 99.32 8.56
7 -6 5 98.24 8.41
7 -6 6 30.21 4.31
7 -6 6 29.4 4.21
-7 -6 -7 9.68 2.11
7 -6 7 10.77 2.41
7 -6 7 11.76 2.55
-7 -6 -8 54.52 4.73
7 -6 8 66.11 5.61
-7 -5 12 69.15 5.21
7 -5 -12 64.15 5.02
-7 -5 12 71.92 5.41
-7 -5 11 80.41 6.37
7 -5 -11 85.79 6.53
-7 -5 11 85.13 6.79
-7 -5 10 13.3 2.76
7 -5 -10 11.32 2.56
-7 -5 10 13.81 2.8
-7 -5 9 69.59 6.6
7 -5 -9 61.67 6.47
-7 -5 9 66.5 6.73
7 -5 -9 60.19 6.31
-7 -5 8 102.02 8.42
7 -5 -8 95.45 8.29
7 -5 -8 84.27 7.55
7 -5 -8 103.93 8.71
-7 -5 8 103.11 8.72
7 -5 -8 101.13 8.72
-7 -5 7 2.32 1.34
7 -5 -7 4.06 1.89
7 -5 -7 2.67 1.71
7 -5 -7 2.91 1.96
7 -5 -7 -0.68 0.86
-7 -5 7 2.45 1.45
7 -5 -7 2.37 1.51
-7 -5 6 261.75 15.94
7 -5 -6 279.44 15.9
7 -5 -6 270.72 16.4
7 -5 -6 263.21 15.97
7 -5 -6 304.75 17.33
-7 -5 6 258.54 15.9
-7 -5 5 539.17 25.27
7 -5 -5 515.14 24.14
7 -5 -5 522.79 25.19
7 -5 -5 509.12 24.85
7 -5 -5 551.45 26.14
-7 -5 5 540.95 24.71
-7 -5 4 373.68 20.52
7 -5 -4 359.1 19.11
7 -5 -4 393.97 21.21
7 -5 -4 402.4 21.36
7 -5 -4 401.03 22.02
-7 -5 4 339.42 18.82
-7 -5 3 128.02 10.97
7 -5 -3 114.82 9.99
7 -5 -3 131.51 11.8
7 -5 -3 137.88 11.56
7 -5 -3 150.98 12.41
7 -5 -3 117.34 10.36
-7 -5 3 115.71 9.94
7 -5 -3 116.34 10.06
-7 -5 2 66.8 7.56
7 -5 -2 67.54 7.42
7 -5 -2 72.23 8.53
7 -5 -2 72.01 8.34
7 -5 -2 71.67 8.59
7 -5 -2 71.35 8.3
-7 -5 2 68.73 7.25
7 -5 -2 75.6 8.26
7 -5 -2 83.83 9.01
-7 -5 1 366.63 20.01
7 -5 -1 477.19 23.48
7 -5 -1 476.34 24.26
7 -5 -1 504.96 24.88
-7 -5 1 409.11 20.43
7 -5 -1 501.34 24.64
7 -5 -1 529.27 25.74
7 -5 0 7.59 3.39
7 -5 0 4.14 2.25
7 -5 0 11.4 3.52
7 -5 0 4.41 2.34
-7 -5 0 4.18 1.67
7 -5 0 6.84 2.83
7 -5 1 535.17 26.26
7 -5 1 555.97 27.24
7 -5 1 648.76 29.6
7 -5 1 663.24 29.76
7 -5 1 605.35 28.94
7 -5 2 86.5 9.22
7 -5 2 106.76 10.49
7 -5 2 105.83 10.32
7 -5 2 95.42 9.32
7 -5 2 98.35 10.04
7 -5 3 112.16 10.28
7 -5 3 129.75 11.13
7 -5 3 125.07 11.05
7 -5 3 126.4 10.81
7 -5 3 129.64 11.38
7 -5 4 188.24 13.4
7 -5 4 190.44 13.55
7 -5 4 194.1 13.7
7 -5 4 185.62 13.56
-7 -5 -5 49.49 5.71
7 -5 5 58.4 7
7 -5 5 61 7.18
7 -5 5 51.16 6.46
7 -5 5 68.94 7.62
-7 -5 -6 39.99 5.18
7 -5 6 37.37 5.36
7 -5 6 49.91 6.1
7 -5 6 45.19 5.87
-7 -5 -7 28.34 4.34
7 -5 7 22.42 3.97
7 -5 7 30.53 4.62
7 -5 7 24.42 3.96
-7 -5 -8 29.05 4.27
7 -5 8 34.35 4.45
7 -5 8 38 4.76
-7 -5 -9 51.95 5.19
-7 -5 -9 45.59 4.51
7 -5 9 51.61 5.21
-7 -5 -10 21.56 2.9
7 -5 10 17.23 2.69
-7 -4 13 99.93 6.37
7 -4 -13 97.84 6.25
-7 -4 13 104.8 6.69
-7 -4 12 218.84 11.39
7 -4 -12 201.45 10.92
7 -4 -12 199.93 10.87
7 -4 -11 35.9 4.61
7 -4 -11 33.9 4.5
7 -4 -10 14.36 3.01
7 -4 -10 12.79 2.88
7 -4 -9 156.87 10.75
7 -4 -9 129.36 9.76
7 -4 -9 128.93 9.74
7 -4 -9 137.66 10.22
7 -4 -9 165.64 11.31
7 -4 -8 422.11 19.79
7 -4 -8 345.13 18.62
7 -4 -8 363.93 18.62
7 -4 -8 361.16 19.16
7 -4 -8 384.79 19.43
7 -4 -7 21.3 4.07
7 -4 -7 15.59 3.57
7 -4 -7 11.84 3.31
7 -4 -7 20.9 4.39
7 -4 -7 16.9 3.69
7 -4 -6 106.51 9.57
7 -4 -6 99.08 9.91
7 -4 -6 107.19 10.01
7 -4 -6 102.56 10.04
7 -4 -6 99.43 9.18
7 -4 -5 18.76 3.73
7 -4 -5 16.16 4.17
7 -4 -5 16.91 4.01
7 -4 -5 18.54 4.07
-7 -4 5 15.43 3.76
7 -4 -5 17.06 3.69
7 -4 -4 308.47 17.48
7 -4 -4 337 19.38
7 -4 -4 335.01 19.07
7 -4 -4 312.16 17.72
7 -4 -4 339 19.72
-7 -4 4 302.36 17.34
7 -4 -4 289.09 17.54
7 -4 -3 340.17 19.6
-7 -4 3 313.34 18.64
7 -4 -3 305.41 17.4
7 -4 -3 336.12 19.24
7 -4 -3 342.17 19.19
7 -4 -3 334.18 19.62
7 -4 -3 355.7 19.51
-7 -4 3 294.75 16.94
7 -4 -3 311.69 18
7 -4 -2 340.4 19.52
-7 -4 2 281.12 16.81
7 -4 -2 274.45 16.43
7 -4 -2 282.89 17.7
7 -4 -2 303.31 17.84
7 -4 -2 310.35 18.46
7 -4 -2 304.45 18.52
-7 -4 2 234.99 14.87
7 -4 -2 309.01 18.13
7 -4 -1 225.53 15.83
7 -4 -1 196.32 13.62
7 -4 -1 228.89 15.48
7 -4 -1 208.14 14.46
7 -4 -1 217.22 15.35
7 -4 -1 244.68 16.46
7 -4 -1 221.14 15.46
7 -4 0 124.43 11.42
7 -4 0 104.08 10.16
7 -4 0 114.04 10.47
7 -4 0 128.08 11.32
7 -4 0 122.81 11.31
7 -4 0 132.96 11.82
7 -4 1 0.91 1.79
7 -4 1 0.82 1.83
7 -4 1 2.21 1.32
7 -4 1 1.94 1.78
7 -4 1 -0.73 1.93
7 -4 1 2.43 1.46
7 -4 2 162.25 13.1
7 -4 2 170.62 13.22
7 -4 2 164.05 13.1
7 -4 2 160.63 13
7 -4 2 189.24 13.98
7 -4 2 168.38 13.13
7 -4 3 133.33 11.6
7 -4 3 139.05 11.93
7 -4 3 136.81 11.62
7 -4 3 158.82 12.6
7 -4 3 136.08 11.79
7 -4 3 129.44 11.52
7 -4 4 1053.76 42.41
7 -4 4 1114.42 43.02
7 -4 4 1201.43 43.95
7 -4 4 1170.51 43.64
7 -4 4 1131.65 43.58
7 -4 5 18.04 4.42
7 -4 5 21.93 4.34
7 -4 5 22.81 4.54
7 -4 5 18.83 4.05
7 -4 6 38.05 5.93
-7 -4 -6 33.89 5.27
7 -4 6 37.88 5.82
-7 -4 -6 35.91 5.25
7 -4 6 41.75 5.94
7 -4 6 35.01 5.56
-7 -4 -7 114.74 9.89
7 -4 7 119.57 10.27
7 -4 7 122.03 10.03
-7 -4 -7 115.31 9.44
7 -4 7 124.03 10.02
-7 -4 -8 87.87 8.18
7 -4 8 91.92 8.36
7 -4 8 92.28 8.1
-7 -4 -8 85.11 7.76
7 -4 8 86.6 7.95
-7 -4 -9 128.2 9.3
-7 -4 -9 120.2 8.83
7 -4 9 120.24 9.02
-7 -4 -10 5.36 1.72
-7 -4 -10 8.86 2.12
7 -4 10 6.78 1.89
-7 -4 -11 16.5 2.45
-7 -4 -11 13.65 2.23
7 -4 11 16.3 2.63
7 -3 -13 3.62 1.45
7 -3 -13 5.33 1.57
7 -3 -12 50.93 5.26
7 -3 -12 49.65 5.31
7 -3 -12 52.22 5.23
7 -3 -11 3.94 1.72
7 -3 -11 6.92 2.03
7 -3 -11 4.97 1.76
7 -3 -11 4.96 1.61
7 -3 -10 -0.49 1.58
7 -3 -10 0.74 1.15
7 -3 -10 0.46 1.16
7 -3 -10 2.9 1.55
7 -3 -10 1.92 1.15
7 -3 -10 2.59 0.87
7 -3 -10 1.58 1.2
7 -3 -9 134.84 10.36
7 -3 -9 120.47 10.04
7 -3 -9 122.44 9.78
7 -3 -9 130.62 10.26
7 -3 -9 130.95 10.42
7 -3 -9 127.95 10.2
7 -3 -9 126.91 9.61
7 -3 -8 21.06 4.08
7 -3 -8 18.43 4.13
7 -3 -8 18.9 4.07
7 -3 -8 23.21 4.49
7 -3 -8 20.27 3.81
7 -3 -8 20.74 4.19
7 -3 -8 15.94 3.41
7 -3 -7 85.58 8.34
7 -3 -7 84.28 8.72
7 -3 -7 89.14 8.87
7 -3 -7 90.26 9.02
7 -3 -7 87.68 8.55
7 -3 -7 80.74 8.01
7 -3 -6 285.19 16.5
7 -3 -6 310.96 18.23
7 -3 -6 312.04 17.9
7 -3 -6 319.15 18.39
7 -3 -6 274.84 16.61
7 -3 -6 261.28 15.92
7 -3 -5 122.28 10.44
7 -3 -5 111.87 9.55
7 -3 -5 112.75 10.39
7 -3 -5 133.02 10.94
7 -3 -5 121.99 10.79
7 -3 -5 107.16 9.82
7 -3 -5 119.08 10.03
7 -3 -4 8.93 3.06
7 -3 -4 13.27 3.5
7 -3 -4 11.6 2.87
7 -3 -4 7.58 2.74
7 -3 -4 8.7 2.8
7 -3 -4 9.42 2.95
7 -3 -4 7.67 2.53
7 -3 -4 12.43 3.22
7 -3 -3 49.47 6.75
7 -3 -3 41.53 5.57
7 -3 -3 41.53 7.75
7 -3 -3 48.95 6.55
7 -3 -3 44.98 6.2
7 -3 -3 52.72 6.85
7 -3 -3 43.99 6.31
7 -3 -3 45.55 6.19
7 -3 -3 45.06 6.13
7 -3 -2 490.68 24.34
7 -3 -2 478.68 28.52
7 -3 -2 412.23 21.49
7 -3 -2 451.01 23.01
7 -3 -2 452 22.51
7 -3 -2 506.64 24.63
7 -3 -2 505 24.15
7 -3 -2 501.7 24.08
7 -3 -2 443.98 22.7
7 -3 -1 437.44 22.65
7 -3 -1 446.08 27.45
7 -3 -1 365.74 20.04
7 -3 -1 411.02 21.61
7 -3 -1 403.12 21.08
7 -3 -1 418.87 21.96
7 -3 -1 449.87 23.11
7 -3 -1 464.48 23.18
7 -3 0 50.11 7
7 -3 0 51.78 9.2
7 -3 0 56.58 7.22
7 -3 0 52.58 6.96
7 -3 0 50.37 6.78
7 -3 0 51.09 7
7 -3 0 63.19 7.73
7 -3 0 53.11 6.79
7 -3 1 507.73 25.45
7 -3 1 554.71 32.62
7 -3 1 519.03 26.08
7 -3 1 530.29 25.52
7 -3 1 492.02 25.01
7 -3 1 552.2 26.19
7 -3 1 587.34 26.83
7 -3 1 553.48 26.13
7 -3 2 291.64 17.96
7 -3 2 309.2 19.03
7 -3 2 289.09 18.05
7 -3 2 265.5 17.32
7 -3 2 314.26 18.22
7 -3 2 322.77 18.56
7 -3 2 287.84 17.72
7 -3 3 545.06 26.75
7 -3 3 584.42 27.64
7 -3 3 527.08 26.47
7 -3 3 544.5 26.32
7 -3 3 616.3 27.56
7 -3 3 576.46 27
7 -3 4 80.21 8.9
7 -3 4 78.91 8.49
-7 -3 -4 65.82 7.5
7 -3 4 79.5 8.53
7 -3 4 78.73 9.06
7 -3 5 15.64 3.9
7 -3 5 14.71 3.86
-7 -3 -5 12.04 3.15
7 -3 5 15.51 4.05
7 -3 5 14.29 3.62
7 -3 6 124.05 11.07
7 -3 6 111.27 10.26
-7 -3 -6 115.9 10.33
7 -3 6 109.14 9.99
7 -3 6 114.26 11.18
7 -3 7 106.22 9.95
7 -3 7 84.72 8.69
-7 -3 -7 90.24 8.8
7 -3 7 99.21 9.22
7 -3 7 94.32 9.85
7 -3 8 16.41 3.78
-7 -3 -8 14.08 3.14
7 -3 8 18.58 4
7 -3 8 10.4 3.01
-7 -3 -9 101.03 8.56
-7 -3 -9 100.25 8.36
7 -3 9 112.84 9.37
-7 -3 -10 11.85 2.87
-7 -3 -10 11.72 2.62
7 -3 10 16.52 3.24
-7 -3 -11 5.84 1.74
-7 -3 -11 6.53 1.71
7 -3 11 3.82 1.51
-7 -3 -12 2.05 0.8
-7 -3 -12 4.19 1.16
7 -2 -14 49.03 4.27
7 -2 -14 48.27 4.3
7 -2 -14 48.14 4.2
7 -2 -13 10.13 2.13
7 -2 -13 12.87 2.42
7 -2 -13 9.78 2.27
7 -2 -13 7.96 1.89
7 -2 -12 7.05 2.02
7 -2 -12 4.29 1.67
7 -2 -12 6.89 2.03
7 -2 -12 5 1.78
7 -2 -12 4.01 1.5
7 -2 -11 45.34 5.35
7 -2 -11 34.23 4.47
7 -2 -11 29.79 4.45
7 -2 -11 40.58 5.13
7 -2 -11 39.46 5.03
7 -2 -11 26.95 3.92
7 -2 -10 72.09 7.14
7 -2 -10 49.09 5.92
7 -2 -10 54.06 6.37
7 -2 -10 60.8 6.69
7 -2 -10 62.32 6.71
7 -2 -10 58.29 6.35
7 -2 -10 49.49 5.68
7 -2 -9 162.36 11.71
7 -2 -9 163.79 11.77
7 -2 -9 162.34 12.11
7 -2 -9 177.73 12.64
7 -2 -9 158.88 11.84
7 -2 -9 168.28 11.69
7 -2 -9 155.41 10.79
7 -2 -8 170.42 12.09
7 -2 -8 186.32 12.85
7 -2 -8 165.41 12.57
7 -2 -8 185.69 12.94
7 -2 -8 167.9 12.3
7 -2 -8 149.93 11.26
7 -2 -8 141.93 10.67
7 -2 -7 160.96 11.55
7 -2 -7 158.25 11.91
7 -2 -7 146.82 11.97
7 -2 -7 154.51 12.07
7 -2 -7 156.05 11.79
7 -2 -7 145.58 11.15
7 -2 -6 403.22 20.82
7 -2 -6 391.29 19.82
7 -2 -6 421.29 21.39
7 -2 -6 439.92 21.86
7 -2 -6 447.69 22
7 -2 -6 381.59 20.16
7 -2 -6 381.19 19.85
7 -2 -5 23.63 4.49
7 -2 -5 16.79 4.89
7 -2 -5 19.08 3.77
7 -2 -5 22.28 4.23
7 -2 -5 19.06 4.04
7 -2 -5 21.29 6.11
7 -2 -5 24.2 4.35
7 -2 -5 28.87 5
7 -2 -5 23.66 4.23
7 -2 -5 19.87 4.11
7 -2 -4 20.43 4.39
7 -2 -4 19.8 5.36
7 -2 -4 17.7 3.64
7 -2 -4 20.43 4.01
7 -2 -4 22.28 4.52
7 -2 -4 19.63 4.03
7 -2 -4 21.86 4.42
7 -2 -4 23.57 6.54
7 -2 -4 18.52 3.72
7 -2 -4 13.67 3.26
7 -2 -4 22.22 4.28
7 -2 -3 18.59 3.91
7 -2 -3 22.4 5.83
7 -2 -3 21.02 3.8
7 -2 -3 20.93 4.11
7 -2 -3 20.48 3.99
7 -2 -3 25.3 4.67
7 -2 -3 21.21 4.27
7 -2 -3 25.61 6.94
7 -2 -3 31.53 5.1
7 -2 -3 20.13 4.3
7 -2 -2 31.27 5.2
7 -2 -2 31.41 6.55
7 -2 -2 26.59 4.52
7 -2 -2 31.52 4.87
7 -2 -2 24.94 4.7
7 -2 -2 35.05 5.53
7 -2 -2 30.22 5.13
7 -2 -2 21.02 4.2
7 -2 -2 24.59 4.6
7 -2 -1 76.31 8.19
7 -2 -1 94.77 11.64
7 -2 -1 73.65 8.23
7 -2 -1 70.03 7.6
7 -2 -1 85.21 8.78
7 -2 -1 74.1 8.12
7 -2 -1 95.54 9.17
7 -2 -1 65.58 7.49
7 -2 -1 68.09 7.73
7 -2 0 362.4 24.36
7 -2 0 312.74 18.33
7 -2 0 319.77 18.98
7 -2 0 316.45 18.17
7 -2 0 315.63 18.26
7 -2 0 323.56 18.57
7 -2 0 350.65 19.28
7 -2 0 336.6 18.53
7 -2 1 1048.96 46.37
7 -2 1 914.31 37.4
7 -2 1 979.64 39.43
7 -2 1 933.33 37.62
7 -2 1 882.44 36.77
7 -2 1 943.17 37.37
7 -2 1 1027.82 38.25
7 -2 1 984.17 37.87
7 -2 2 23.05 4.57
7 -2 2 25.04 6.28
7 -2 2 24.87 4.75
7 -2 2 23.75 5.16
7 -2 2 21.35 4.44
7 -2 2 17.46 4.1
7 -2 2 24.21 4.57
7 -2 2 23.4 4.68
7 -2 3 231.72 15.91
7 -2 3 212.08 15.15
7 -2 3 220.44 14.97
7 -2 3 223.73 14.82
-7 -2 -3 220.84 15.05
7 -2 3 220.18 14.97
7 -2 3 201.75 18.7
7 -2 4 660.39 30.88
7 -2 4 636.73 29.47
7 -2 4 666.92 29.23
7 -2 4 647.5 29.17
-7 -2 -4 679.5 29.99
7 -2 5 114 11.26
7 -2 5 114.66 10.86
7 -2 5 112.75 10.25
-7 -2 -5 108.05 10.19
7 -2 5 111.98 10.35
7 -2 6 153.13 12.86
7 -2 6 145.91 12.07
-7 -2 -6 159.31 12.34
7 -2 6 136.57 11.55
7 -2 6 158.53 13.52
7 -2 7 74.67 8.45
7 -2 7 72.15 8.26
-7 -2 -7 80.52 9.49
7 -2 7 84.14 8.86
7 -2 7 81.99 9.25
7 -2 8 55.72 6.72
-7 -2 -8 54.8 6.51
7 -2 8 55.62 7
7 -2 8 54.87 6.98
-7 -2 -9 214.01 13.37
7 -2 9 262.82 15.83
-7 -2 -10 5.56 1.88
7 -2 10 6.9 2.23
-7 -2 -11 81.66 6.64
-7 -2 -11 87.55 6.85
7 -2 11 102.74 8.08
-7 -2 -12 10.79 2.09
-7 -2 -12 10.61 1.9
7 -2 12 9.6 1.83
7 -1 -14 15.87 2.44
7 -1 -14 14.39 2.29
7 -1 -14 17.18 2.63
7 -1 -13 1.95 1.12
7 -1 -13 1.18 0.79
7 -1 -13 2.26 1.23
7 -1 -13 2.34 1.5
7 -1 -12 124.45 8.79
7 -1 -12 114.64 8.33
7 -1 -12 121.65 8.95
7 -1 -12 114.91 8.55
7 -1 -12 117.03 8.52
7 -1 -12 98.95 7.4
7 -1 -11 141.5 10.21
7 -1 -11 147.52 10.4
7 -1 -11 137.68 10.4
7 -1 -11 160.78 10.84
7 -1 -11 156.11 10.73
7 -1 -11 148.3 10.26
7 -1 -10 52.02 6.12
7 -1 -10 50.46 6.07
7 -1 -10 48.92 6.24
7 -1 -10 56.12 6.57
7 -1 -10 51.33 6.26
7 -1 -10 52.16 6.14
7 -1 -9 129.73 10.19
7 -1 -9 133.13 10.52
7 -1 -9 124.21 10.54
7 -1 -9 139.46 11
7 -1 -9 128.54 10.36
7 -1 -9 126.75 10.11
7 -1 -8 305.36 17.08
7 -1 -8 326.27 17.35
7 -1 -8 333.78 17.96
7 -1 -8 306.97 17.88
7 -1 -8 355.37 18.77
7 -1 -8 304.1 17.13
7 -1 -8 307.93 17.42
7 -1 -7 144.25 11.36
7 -1 -7 138 10.7
7 -1 -7 151.55 11.5
7 -1 -7 135.44 11.19
7 -1 -7 165.78 12.27
7 -1 -7 138.63 10.96
7 -1 -7 156.74 11.47
7 -1 -6 127.73 10.72
7 -1 -6 116.86 9.5
7 -1 -6 132.98 10.43
7 -1 -6 117.74 10.23
7 -1 -6 113.62 9.55
7 -1 -6 128.98 10.58
7 -1 -6 101.86 9.31
7 -1 -6 106.48 9.48
7 -1 -5 2.92 1.73
7 -1 -5 2.44 2.04
7 -1 -5 4.35 1.75
7 -1 -5 2.3 1.24
7 -1 -5 4.69 1.98
7 -1 -5 2.86 2.01
7 -1 -5 1.27 1.31
7 -1 -5 5.94 3.66
7 -1 -5 1.84 1.53
7 -1 -5 2.08 1.14
7 -1 -5 3.83 1.03
7 -1 -4 98.85 9.27
7 -1 -4 92.24 11.17
7 -1 -4 73.28 7.33
7 -1 -4 105.42 9.18
7 -1 -4 94.39 8.95
7 -1 -4 107.18 14.08
7 -1 -4 104.74 9.28
7 -1 -4 104.55 9.39
7 -1 -4 99.74 8.92
7 -1 -4 87.19 8.49
7 -1 -4 92.7 8.65
7 -1 -3 422.47 21.21
7 -1 -3 432.01 26.43
7 -1 -3 422.23 20.57
7 -1 -3 390.3 20.61
7 -1 -3 488.24 22.22
7 -1 -3 446.61 21.46
7 -1 -3 487.85 21.8
7 -1 -3 367.18 19.38
7 -1 -3 368.39 20.01
7 -1 -3 441.88 21.46
7 -1 -2 60.08 6.97
7 -1 -2 61.12 9.19
7 -1 -2 59.51 7.1
7 -1 -2 47.51 6.11
7 -1 -2 58.6 6.96
7 -1 -2 56.43 6.64
7 -1 -2 55.5 6.68
7 -1 -2 54.49 6.35
-7 -1 2 48.42 7.27
7 -1 -2 48.57 6.27
7 -1 -1 47.34 6.22
7 -1 -1 60.57 9.22
7 -1 -1 44.92 6.25
7 -1 -1 45.6 6.01
7 -1 -1 55.5 6.65
7 -1 -1 53.06 6.55
7 -1 -1 56.25 6.62
-7 -1 1 42.84 6.82
7 -1 -1 49.21 6.11
7 -1 0 19.34 3.85
7 -1 0 27.03 6.09
7 -1 0 19.77 4.03
7 -1 0 17.9 3.95
7 -1 0 23.51 4.25
7 -1 0 16.26 3.53
-7 -1 0 24.22 5.06
7 -1 0 19.92 4.16
7 -1 0 20.71 4
7 -1 1 15.16 3.62
7 -1 1 11.91 4.05
7 -1 1 14.33 3.6
7 -1 1 18.61 4.2
7 -1 1 17.1 3.67
7 -1 1 10.21 3.08
-7 -1 -1 8.98 2.69
-7 -1 -1 10.37 3.12
7 -1 1 15.05 3.41
7 -1 1 16.29 3.82
7 -1 2 353.68 24.11
7 -1 2 330.77 19.43
7 -1 2 343.02 20.33
7 -1 2 303.88 18.42
7 -1 2 342.18 18.83
-7 -1 -2 287.63 19.28
-7 -1 -2 373.34 19.74
7 -1 2 357.23 18.76
7 -1 2 335.38 18.64
7 -1 3 28.11 5.28
7 -1 3 23.75 6.06
-7 -1 -3 24.59 4.39
7 -1 3 22 4.69
7 -1 3 23.27 4.59
-7 -1 -3 22.59 4.62
7 -1 3 18.83 4.05
-7 -1 -3 16.06 4.37
7 -1 3 20.56 4.43
7 -1 4 213.05 15.59
-7 -1 -4 182.59 13.04
7 -1 4 211.93 14.92
-7 -1 -4 155.84 14.62
7 -1 4 207.2 14.21
-7 -1 -4 216.25 14.64
7 -1 4 203.91 14.31
7 -1 4 188.51 17.68
7 -1 5 243.37 16.97
-7 -1 -5 186.94 13.35
7 -1 5 218.7 15.53
7 -1 5 234.88 15.31
-7 -1 -5 225.42 15.11
7 -1 5 223.86 15.32
-7 -1 -6 186.26 13.01
7 -1 6 218.37 15.49
7 -1 6 206.6 14.6
-7 -1 -6 196.98 14.08
7 -1 6 219.65 15.38
7 -1 6 238.44 16.57
-7 -1 -7 222.81 14.21
7 -1 7 246.36 16.13
7 -1 7 247.13 15.86
-7 -1 -7 238.52 15.11
7 -1 7 268.18 17.14
7 -1 7 233.88 16.29
7 -1 8 23.69 4.64
-7 -1 -8 23.03 4.04
-7 -1 -8 28.78 4.38
-7 -1 -8 30.03 4.86
7 -1 8 33.58 5.79
-7 -1 -9 8.76 2.41
-7 -1 -9 9.7 2.46
-7 -1 -9 11.94 2.94
7 -1 9 14.9 3.68
-7 -1 -10 6.35 2.05
-7 -1 -10 6.12 1.97
-7 -1 -10 2.47 1.21
7 -1 10 5.88 2.3
-7 -1 -11 45.55 4.7
-7 -1 -11 38.86 4.14
-7 -1 -11 48.52 5.02
7 -1 11 50.57 5.48
-7 -1 -12 15.83 2.56
-7 -1 -12 19.31 2.6
-7 -1 -12 19.12 2.79
7 0 -14 48.84 4.35
7 0 -14 34.24 3.59
7 0 -14 47.85 4.45
7 0 -14 47.55 4.38
7 0 -13 7.74 1.92
7 0 -13 7.28 1.87
7 0 -13 6.7 1.71
7 0 -13 6.96 2.02
7 0 -13 7.41 2.19
7 0 -12 1.8 0.89
7 0 -12 0.99 0.76
7 0 -12 4.08 1.93
7 0 -12 2.13 1.47
7 0 -12 -0.12 1.3
7 0 -11 39.8 5.01
7 0 -11 43.58 5.44
7 0 -11 45.54 5.68
7 0 -11 39.15 5.24
7 0 -11 46.79 5.62
7 0 -11 45 5.44
7 0 -10 627.65 25.86
7 0 -10 632.15 26.44
7 0 -10 601.03 26.41
7 0 -10 665.31 27.37
7 0 -10 572.4 25.72
7 0 -10 599.62 25.78
7 0 -9 80.23 7.8
7 0 -9 90.41 8.18
7 0 -9 90.08 8.49
7 0 -9 76.05 8.04
7 0 -9 94.57 8.82
7 0 -9 81.47 8.08
7 0 -9 79.94 8.05
7 0 -8 242.47 14.97
7 0 -8 259.19 14.95
7 0 -8 249.85 15.2
7 0 -8 249.22 15.46
7 0 -8 287.39 16.44
7 0 -8 243.24 15.09
7 0 -8 250.98 15.16
7 0 -7 508.69 23.63
7 0 -7 492.12 22.47
7 0 -7 521.23 23.38
7 0 -7 480.63 23.2
7 0 -7 488.34 22.69
7 0 -7 551.57 24.67
7 0 -7 473.18 22.87
7 0 -7 447.62 22.41
7 0 -6 137.47 10.92
7 0 -6 134.49 10.07
7 0 -6 143.87 10.8
7 0 -6 124 10.37
7 0 -6 119.77 14.86
7 0 -6 154.42 11.11
7 0 -6 155.1 11.37
-7 0 6 124.19 13.86
7 0 -6 121.54 10.17
7 0 -6 122.19 10.19
7 0 -5 221.93 14.23
7 0 -5 175.75 12.02
7 0 -5 216.25 13.58
7 0 -5 199.14 13.64
7 0 -5 198.38 19.36
7 0 -5 240.17 14.4
7 0 -5 238.19 14.32
7 0 -5 221.59 13.36
-7 0 5 196.97 17.52
7 0 -5 196.14 13.22
7 0 -5 202.79 13.49
7 0 -4 293.13 16.63
7 0 -4 250.77 18.96
7 0 -4 286.18 15.83
7 0 -4 278.05 16.36
7 0 -4 330.28 16.98
7 0 -4 310.87 16.81
-7 0 4 228.7 16.9
7 0 -4 318.36 16.37
7 0 -4 228.03 14.25
-7 0 4 292.67 21.31
7 0 -4 242.6 15.2
7 0 -4 274.61 16.09
7 0 -3 54.95 6.63
7 0 -3 59.34 8.58
7 0 -3 53.22 6.34
7 0 -3 56.34 6.81
7 0 -3 66.1 6.93
7 0 -3 59.32 6.77
-7 0 3 53.78 7.44
7 0 -3 60.03 6.59
7 0 -3 56.26 6.38
7 0 -3 52.75 6.65
-7 0 3 53.68 8.71
7 0 -2 163.72 11.89
7 0 -2 183.75 15.57
7 0 -2 167.69 11.86
7 0 -2 174.34 12.62
7 0 -2 175.37 11.98
7 0 -2 174.36 12.03
-7 0 2 172.56 13.94
7 0 -2 193.55 12.25
-7 0 2 187.19 16.2
7 0 -2 174.69 11.72
7 0 -2 150.25 12.03
7 0 -1 23.43 4.41
7 0 -1 19.32 4.86
7 0 -1 16.75 3.61
7 0 -1 23.43 4.67
7 0 -1 17.57 3.63
7 0 -1 18.62 3.96
-7 0 1 13.66 2.88
-7 0 1 12.98 3.91
7 0 -1 21.6 3.91
7 0 -1 16.91 3.53
-7 0 1 21.57 5.11
7 0 0 5.53 2.63
7 0 0 4.24 2.48
7 0 0 3.4 1.45
7 0 0 2.91 1.96
7 0 0 7.22 2.34
7 0 0 3.95 2.11
-7 0 0 2.71 1.74
-7 0 0 2.51 1.89
7 0 0 3 1.81
7 0 0 2.08 1.16
-7 0 0 4.53 2.9
7 0 1 6.87 2.87
7 0 1 5.85 2.76
7 0 1 2.89 1.69
7 0 1 5.58 2.78
7 0 1 7.32 2.28
7 0 1 -0.84 1.57
-7 0 -1 6.99 2.12
-7 0 -1 3.48 2.3
7 0 1 5.85 2.12
7 0 1 3.81 1.58
-7 0 -1 8.9 3.6
7 0 2 -0.33 1.36
7 0 2 0.49 2.74
-7 0 -2 1.52 1.37
7 0 2 0.94 1.83
7 0 2 0.82 1.37
-7 0 -2 0.93 1.12
-7 0 -2 2.59 2.57
7 0 2 1.62 1.4
7 0 2 0.15 1.67
-7 0 -2 2.32 2.19
7 0 3 1882.46 62.38
-7 0 -3 1702.67 58.38
7 0 3 1853.82 60.51
-7 0 -3 1665.72 61.08
-7 0 -3 1697.47 63.13
-7 0 -3 1777.75 58.99
7 0 3 1783.87 58.12
7 0 3 1743.61 59.2
7 0 3 1536.65 64.61
7 0 4 31.78 5.96
-7 0 -4 29.74 5.08
7 0 4 33.53 5.76
-7 0 -4 33.16 5.07
-7 0 -4 30.19 6.2
7 0 4 41.27 5.88
-7 0 -4 37.96 5.64
-7 0 -4 27.49 5.49
7 0 4 35.87 5.79
7 0 5 29.58 5.55
-7 0 -5 27.43 4.9
7 0 5 34.98 5.72
-7 0 -5 24.46 4.41
-7 0 -5 33.35 5.47
7 0 5 30.15 5.39
7 0 5 27.64 5.3
7 0 6 367.21 21.3
-7 0 -6 344.48 19.48
7 0 6 372.86 20.77
-7 0 -6 332.53 18.37
7 0 6 400.71 21.23
-7 0 -6 363.3 19.61
-7 0 -7 1.15 1.24
-7 0 -7 1.72 1.22
-7 0 -7 -0.52 1.21
7 0 7 -1.14 1.46
-7 0 -8 125.21 10.23
-7 0 -8 124.24 9.94
-7 0 -8 145.34 11.04
-7 0 -9 115.46 9.37
-7 0 -9 104.7 8.65
-7 0 -9 130.54 9.91
-7 0 -10 7.69 2.01
-7 0 -10 6.69 2.03
-7 0 -10 8.02 2.38
7 0 10 6.88 2.12
-7 0 -11 18.16 3.07
-7 0 -11 17.78 2.87
-7 0 -11 21.81 3.37
7 0 11 21.89 3.47
-7 0 -12 113.75 7.34
-7 0 -12 121.3 7.44
-7 0 -12 113.19 6.94
-7 0 -12 119.54 7.44
7 1 -14 18.36 2.61
7 1 -14 12.24 2.24
7 1 -14 15.82 2.5
7 1 -14 18.27 2.75
7 1 -13 2.57 1.27
7 1 -13 4.64 1.47
7 1 -13 3.93 1.59
7 1 -13 3.42 1.44
7 1 -13 5.19 1.59
7 1 -12 131.43 8.93
7 1 -12 123.84 8.81
7 1 -12 126.96 9.21
7 1 -12 128.8 8.85
7 1 -12 124.75 9
7 1 -12 127.6 9.07
7 1 -11 135.64 9.58
7 1 -11 155.96 10.34
7 1 -11 155.33 10.49
7 1 -11 151.06 10.63
7 1 -11 144.78 10.35
7 1 -11 149.09 10.5
7 1 -11 142.36 10.33
7 1 -10 44.14 5.49
7 1 -10 56.5 6.18
7 1 -10 47.79 5.83
7 1 -10 51.6 6.13
7 1 -10 54.22 6.25
7 1 -10 52.01 6.24
7 1 -10 55.76 6.45
7 1 -9 117.57 9.59
7 1 -9 128.04 9.9
7 1 -9 129.38 10.09
7 1 -9 131.2 10.49
7 1 -9 131.16 10.4
7 1 -9 124.6 10.13
7 1 -9 127.43 10.22
7 1 -8 307.91 17.18
7 1 -8 299.87 16.35
7 1 -8 324.15 17.17
7 1 -8 287.53 16.95
7 1 -8 311.83 16.46
7 1 -8 346.34 18.11
7 1 -8 305.42 17.21
7 1 -8 304.2 17.12
7 1 -7 137.2 10.93
7 1 -7 144.57 10.43
7 1 -7 142.76 10.71
7 1 -7 140.72 11.15
7 1 -7 146.05 10.67
7 1 -7 162.32 11.52
7 1 -7 147.4 11.29
7 1 -7 130.88 10.55
7 1 -6 128.93 10.47
7 1 -6 108.11 8.99
7 1 -6 122.74 9.9
7 1 -6 112.87 10
7 1 -6 138.39 10.46
7 1 -6 118.34 9.86
7 1 -6 119.1 9.27
7 1 -6 119.71 10.05
7 1 -6 109.88 9.6
7 1 -5 2.11 1.14
7 1 -5 1.98 1.47
7 1 -5 3.68 1.83
7 1 -5 3.42 2.5
7 1 -5 3.63 1.97
7 1 -5 3.33 1.86
7 1 -5 2.24 1.66
7 1 -5 2.61 1.36
-7 1 5 2.13 2.5
7 1 -5 4.33 2.1
7 1 -5 1.51 1.14
7 1 -4 90.35 8.61
7 1 -4 98.9 8.75
7 1 -4 96.43 9.2
7 1 -4 106.44 9.18
7 1 -4 104.41 9.13
-7 1 4 79.63 9.2
7 1 -4 101.74 8.77
-7 1 4 112 13.25
7 1 -4 92.08 8.3
7 1 -4 80.7 8.29
7 1 -3 420.86 20.8
7 1 -3 428.07 20.67
7 1 -3 427.74 21.77
7 1 -3 433.45 20.79
7 1 -3 439.48 21.05
-7 1 3 412.24 22.88
7 1 -3 454.47 20.9
-7 1 3 525.25 30.17
7 1 -3 434.2 20.47
7 1 -2 50.02 6.3
7 1 -2 52.04 6.26
7 1 -2 63.22 7.45
7 1 -2 51.75 6.21
7 1 -2 53 6.5
-7 1 2 63.32 7.9
7 1 -2 54.84 6.25
7 1 -2 53.22 6.3
-7 1 2 63.07 9.73
7 1 -1 47.51 6.37
7 1 -1 56.66 7.28
7 1 -1 46.53 6
7 1 -1 54.4 6.33
7 1 -1 44.25 5.69
-7 1 1 60.04 7.74
-7 1 1 43.74 5.25
7 1 -1 49.38 5.85
7 1 -1 53.91 6.37
-7 1 1 58.66 9.03
7 1 0 18.76 4.19
7 1 0 21.29 4.14
7 1 0 20.4 4.46
7 1 0 23.48 4.19
7 1 0 17.44 3.82
-7 1 0 21.29 3.72
-7 1 0 23.55 4.79
7 1 0 19.97 3.69
7 1 0 16.2 3.42
-7 1 0 21.01 5.23
-7 1 -1 17.96 4.99
7 1 1 12.95 3.59
7 1 1 15.21 3.6
-7 1 -1 16.18 3.3
-7 1 -1 12.56 3.66
7 1 1 13.12 2.76
7 1 1 14.58 3.3
-7 1 -1 15.71 4.67
7 1 2 361.66 20.82
-7 1 -2 359.46 22.21
7 1 2 371.67 19.5
-7 1 -2 341.31 20.21
-7 1 -2 369.98 18.47
7 1 2 356 18.04
-7 1 -2 312.79 22.78
7 1 2 365.82 19.26
7 1 3 23.13 4.94
-7 1 -3 28.86 4.83
-7 1 -3 17.76 4.82
7 1 3 26.19 4.81
-7 1 -3 16.06 3.57
-7 1 -3 25.87 4.56
-7 1 -3 22.85 4.97
7 1 3 20.13 4.03
7 1 3 25.25 4.94
-7 1 -3 14.72 4.66
7 1 4 201.84 15.03
-7 1 -4 209.05 14.28
7 1 4 213.57 15.13
-7 1 -4 177.2 14.7
-7 1 -4 203.69 13.48
-7 1 -4 208.6 13.68
7 1 4 207.34 13.8
-7 1 -4 165.71 16.65
7 1 4 236.1 15.94
7 1 5 224.98 15.86
-7 1 -5 231.63 15.38
7 1 5 232.29 15.76
-7 1 -5 219.88 14.5
-7 1 -5 243.72 15.17
7 1 5 248.47 15.82
7 1 5 258.98 17.09
-7 1 -6 197.93 13.49
-7 1 -6 193.1 13.86
-7 1 -6 191.07 12.44
7 1 6 222.97 15.03
-7 1 -6 223.11 14.39
-7 1 -7 230.08 14.75
-7 1 -7 204.69 12.92
-7 1 -7 222.58 14.15
-7 1 -7 212.4 13.7
-7 1 -7 242.98 15.04
-7 1 -8 28.03 4.68
-7 1 -8 22.11 3.74
-7 1 -8 26.5 4.47
-7 1 -8 24.38 4.17
-7 1 -8 31.82 5.05
7 1 8 37.12 5.92
-7 1 -9 13.42 2.95
-7 1 -9 11.51 2.58
-7 1 -9 12.62 2.81
-7 1 -9 8.81 2.25
-7 1 -9 12.75 3.07
7 1 9 14.28 3.38
-7 1 -10 5.26 1.8
-7 1 -10 4.97 1.46
-7 1 -10 6.58 2.03
-7 1 -10 5.85 1.88
7 1 10 7.4 2.19
-7 1 -11 50.49 5.14
-7 1 -11 44.49 4.62
-7 1 -11 49.37 5.02
-7 1 -11 48.85 5.06
-7 1 -12 17.54 2.69
-7 1 -12 19.62 2.82
-7 1 -12 14.5 2.24
-7 1 -12 19.31 2.75
-7 1 -12 18.61 2.6
7 2 -14 47.65 4.2
7 2 -14 47.87 4.37
7 2 -14 49.9 4.42
7 2 -14 53.42 4.48
7 2 -13 11.1 2.25
7 2 -13 7.86 2
7 2 -13 12.21 2.59
7 2 -13 10.03 2.25
7 2 -13 9.76 2.24
7 2 -12 3.9 1.06
7 2 -12 5.69 1.87
7 2 -12 5.38 1.78
7 2 -12 5.26 1.57
7 2 -12 5.64 1.61
7 2 -12 9.21 2.33
7 2 -12 1.7 1.33
7 2 -11 34.14 4.5
7 2 -11 36.56 4.75
7 2 -11 35.7 4.63
7 2 -11 38.19 5.13
7 2 -11 30.98 4.46
7 2 -11 38.77 5.03
7 2 -11 36.69 4.91
7 2 -10 57.83 6.21
7 2 -10 58.77 6.22
7 2 -10 59.16 6.4
7 2 -10 63.84 6.95
7 2 -10 58.19 6.37
7 2 -10 65.12 6.9
7 2 -10 59.21 6.61
7 2 -9 161.49 11.39
7 2 -9 152.28 10.78
7 2 -9 169.9 11.4
7 2 -9 165.89 12.02
7 2 -9 156.38 10.59
7 2 -9 163.58 11.53
7 2 -9 166.9 11.88
7 2 -9 157.14 11.57
7 2 -8 160.8 11.63
7 2 -8 162.86 11.11
7 2 -8 161.57 11.23
7 2 -8 147.93 11.58
7 2 -8 157.19 10.93
7 2 -8 158.88 11.45
7 2 -8 160.56 11.85
7 2 -8 166.77 11.93
7 2 -7 153.11 11.47
7 2 -7 147.66 10.53
7 2 -7 135.88 10.52
7 2 -7 141.69 11.5
7 2 -7 146.46 10.78
7 2 -7 150.67 10.99
7 2 -7 136.73 9.74
7 2 -7 154.11 11.49
7 2 -7 144.79 11.02
7 2 -6 413.78 20.39
7 2 -6 341.18 17.89
7 2 -6 400.29 19.51
7 2 -6 379.58 20.23
7 2 -6 425.55 20.01
7 2 -6 380.59 18.48
7 2 -6 379.85 19.15
7 2 -6 360.1 19.21
7 2 -5 22.71 4.43
7 2 -5 24.08 4.34
7 2 -5 25.79 4.6
7 2 -5 23.39 4.21
7 2 -5 24.23 4.28
7 2 -5 24.14 6.89
7 2 -5 27.1 4.35
7 2 -4 17.98 3.93
7 2 -4 18.86 3.85
7 2 -4 22.75 4.4
7 2 -4 18.22 3.76
7 2 -4 13.61 3.35
7 2 -4 19.4 3.82
-7 2 4 25.43 6.72
7 2 -3 14.35 3.63
7 2 -3 22.32 3.96
7 2 -3 21.61 4.51
7 2 -3 16.69 3.49
7 2 -3 20.06 3.81
-7 2 3 13.39 3.52
7 2 -3 17.13 3.55
-7 2 3 29.96 7.01
7 2 -2 30.8 5.1
7 2 -2 22.03 4.29
7 2 -2 21.89 4.5
7 2 -2 31.51 4.8
7 2 -2 25.63 4.32
-7 2 2 29.19 5.3
7 2 -2 22.91 4.09
7 2 -2 26.13 4.48
-7 2 2 29.28 7.04
7 2 -1 77.32 8.26
7 2 -1 67.24 7.4
7 2 -1 78.53 7.55
7 2 -1 62.35 6.79
-7 2 1 90.77 9.47
-7 2 1 82.42 9.71
7 2 -1 87.63 7.69
-7 2 1 98.91 12.4
7 2 -1 76.29 7.62
7 2 0 359.34 19.62
-7 2 0 332.54 21.08
7 2 0 344.1 17.77
-7 2 0 333.96 19.9
-7 2 0 350.79 16.89
7 2 0 303.44 16.42
-7 2 0 347.66 24.08
7 2 0 337.59 17.84
7 2 1 1052.81 39.98
-7 2 -1 980.66 41.93
7 2 1 966.29 37.11
-7 2 -1 1016.28 40.37
-7 2 -1 961.58 35.34
7 2 1 932.63 35.22
-7 2 -1 955.55 44.93
7 2 1 972.2 37.28
7 2 2 20.1 4.46
7 2 2 27.05 5.05
-7 2 -2 14.21 2.95
-7 2 -2 23.74 4.09
-7 2 -2 21.32 5.08
7 2 2 22.5 4.09
7 2 2 24.94 4.61
-7 2 -2 16.67 5.17
-7 2 -3 198.47 17.07
7 2 3 244.15 16.49
-7 2 -3 236.8 14.95
7 2 3 236.1 15.5
-7 2 -3 168.06 14.8
-7 2 -3 233.43 14.01
7 2 3 231.89 14.07
-7 2 -3 193.77 18.21
7 2 3 250.33 16.08
-7 2 -4 678.26 29.84
-7 2 -4 632.32 27.39
7 2 4 703.52 31.06
-7 2 -4 699.84 29.47
-7 2 -4 685.61 28.89
7 2 4 716.21 29.55
-7 2 -5 112.25 10.17
-7 2 -5 111.24 9.09
-7 2 -5 114.07 10.01
-7 2 -5 120.1 10.06
7 2 5 106.48 9.94
7 2 5 135.04 11.95
-7 2 -6 138.7 11.32
-7 2 -6 131.06 10.09
-7 2 -6 142.28 11.37
-7 2 -6 167.92 12.14
7 2 6 152.5 12.75
-7 2 -7 71.28 7.8
-7 2 -7 78.16 7.47
-7 2 -7 67.18 7.48
-7 2 -7 66.99 7.53
-7 2 -7 71.47 7.77
7 2 7 85.04 9.33
-7 2 -8 49.63 6.17
-7 2 -8 56.11 6.1
-7 2 -8 60.94 6.7
-7 2 -8 47.49 5.89
-7 2 -8 48.46 6.23
7 2 8 55.82 6.96
-7 2 -9 214.39 12.99
-7 2 -9 209.45 12.39
-7 2 -9 234.33 13.38
-7 2 -9 214.39 12.69
-7 2 -9 225.01 13.35
-7 2 -10 4.2 1.48
-7 2 -10 5.85 2.17
-7 2 -10 5.02 1.75
-7 2 -10 5.27 1.73
-7 2 -10 5.73 1.69
-7 2 -11 82.24 6.42
-7 2 -11 76.81 6.03
-7 2 -11 66.42 5.32
-7 2 -11 85.01 6.51
-7 2 -11 76.12 5.83
-7 2 -11 71.94 5.89
-7 2 -12 10.57 1.95
-7 2 -12 10.12 1.83
-7 2 -12 10.72 2
-7 2 -12 9.18 1.59
7 3 -14 48.19 3.91
7 3 -14 50.51 4.22
7 3 -13 6.01 1.69
7 3 -13 3.31 1.29
7 3 -13 4 1.5
7 3 -13 2.53 1.04
7 3 -13 3.96 1.16
7 3 -13 3.72 1.42
7 3 -12 47.64 4.88
7 3 -12 49.97 5.01
7 3 -12 55.75 5.4
7 3 -12 50.26 5.4
7 3 -12 56.26 5.33
7 3 -12 51.71 5.17
7 3 -12 53.18 5.34
7 3 -11 4.06 1.77
7 3 -11 4.69 1.6
7 3 -11 3.81 1.64
7 3 -11 4.56 1.78
7 3 -11 5.29 1.67
7 3 -11 6.43 2.03
7 3 -11 6.66 2.11
7 3 -10 1.77 1.42
7 3 -10 0.72 0.91
7 3 -10 1.54 1.49
7 3 -10 0.56 1.39
7 3 -10 0.95 0.91
7 3 -10 2.97 1.52
7 3 -10 2.17 1.4
7 3 -10 2.13 0.89
7 3 -9 130.44 10.13
7 3 -9 132.78 9.78
7 3 -9 138.88 10.05
7 3 -9 153.72 11.4
7 3 -9 118.18 9.13
7 3 -9 141.71 10.23
7 3 -9 142.47 10.5
7 3 -9 135.41 10.36
7 3 -8 24.05 4.48
7 3 -8 21.56 3.82
7 3 -8 22.58 4.18
7 3 -8 23.21 4.49
7 3 -8 27.64 4.36
7 3 -8 22.44 3.92
7 3 -8 17.66 3.63
7 3 -8 25.32 4.54
7 3 -7 92.98 8.77
7 3 -7 83.53 7.71
7 3 -7 90.21 8.39
7 3 -7 83.08 8.77
7 3 -7 84.45 7.87
7 3 -7 78.38 7.77
7 3 -7 75.04 7.02
7 3 -6 296.18 16.94
7 3 -6 297.48 16.4
7 3 -6 290.61 17.32
7 3 -6 275.43 15.73
7 3 -6 284.37 15.92
7 3 -6 254.96 14.6
7 3 -5 118.77 10.34
7 3 -5 125.91 10.08
7 3 -5 125.71 10.8
7 3 -5 122.1 9.97
7 3 -5 119.32 9.85
7 3 -5 117.43 9.44
7 3 -4 7.87 2.68
7 3 -4 4.6 2.27
7 3 -4 6.59 2.71
7 3 -4 14.45 3.45
7 3 -4 8.79 1.63
7 3 -4 15.49 3.71
7 3 -3 49.76 6.82
7 3 -3 41.71 5.66
7 3 -3 41.93 6.24
7 3 -3 38.92 5.64
7 3 -3 40.63 5.57
7 3 -3 51.25 6.09
7 3 -2 477.9 22.85
7 3 -2 377.07 19.81
7 3 -2 447.27 21.01
-7 3 2 392.68 22.58
7 3 -2 407.17 20.18
7 3 -2 454.25 20.44
-7 3 2 515.66 30.92
7 3 -2 362.98 25.52
7 3 -1 443.12 22.44
-7 3 1 369.81 23.39
7 3 -1 448.9 20.75
-7 3 1 393.67 22.58
7 3 -1 359.67 18.9
7 3 -1 411.19 19.6
-7 3 1 458.9 28.82
7 3 -1 452.93 21.16
7 3 -1 366.23 26.3
-7 3 0 42.62 7.16
7 3 0 54.86 7.37
7 3 0 45.13 6.21
7 3 0 61.22 10.22
7 3 0 52.17 6.04
-7 3 0 39 6.38
7 3 0 51.97 6.53
-7 3 0 50.92 8.86
-7 3 -1 468.94 27.64
7 3 1 577.98 27.44
-7 3 -1 521.43 27.4
7 3 1 516.62 24.7
-7 3 -1 529.43 22.84
7 3 1 517.85 23.12
7 3 1 580.75 25.92
7 3 2 308.31 19.32
7 3 2 330.31 18.52
-7 3 -2 308.74 16.55
7 3 2 302.68 16.65
7 3 2 341.22 19.64
-7 3 -3 597.45 26.71
7 3 3 621.9 28.18
-7 3 -3 596.16 25.78
7 3 3 568.12 25.56
7 3 3 668.09 29.93
-7 3 -4 73.02 8.04
-7 3 -4 90.19 8.32
-7 3 -4 82.46 8.46
-7 3 -4 80.45 8.06
7 3 4 82.08 8.31
7 3 4 100.7 10.33
-7 3 -5 19.56 3.89
-7 3 -5 13.45 3.22
-7 3 -5 18.85 3.86
-7 3 -5 15.29 3.56
7 3 5 18.21 4.04
7 3 5 21.59 4.96
-7 3 -6 124.66 10.37
-7 3 -6 119.55 9.59
-7 3 -6 121.72 10.22
-7 3 -6 123.66 10.29
7 3 6 121.54 11.05
-7 3 -7 88.45 8.39
-7 3 -7 83.91 8.11
-7 3 -7 91.06 8.04
-7 3 -7 90.26 8.46
-7 3 -7 87.35 8.34
-7 3 -7 101.93 9.11
7 3 7 102.62 9.64
-7 3 -8 12.96 3.06
-7 3 -8 15.43 3.48
-7 3 -8 12.56 2.79
-7 3 -8 18.56 3.87
-7 3 -8 15.08 3.28
-7 3 -8 15.47 3.51
-7 3 -9 94.08 7.86
-7 3 -9 98.99 7.9
-7 3 -9 104.86 8.24
-7 3 -9 98.57 8.01
-7 3 -9 101.83 8.22
-7 3 -10 8.27 2.1
-7 3 -10 13.52 2.66
-7 3 -10 14.04 2.72
-7 3 -10 10.58 2.43
-7 3 -10 8.98 2.11
-7 3 -11 3.01 1.31
-7 3 -11 2.47 1
-7 3 -11 2.78 1.03
-7 3 -11 3.93 1.39
-7 3 -11 3.67 1.42
-7 3 -11 2.18 1.04
-7 3 -12 2.31 0.87
-7 3 -12 2.17 0.91
7 4 -13 99.76 6.14
7 4 -13 107.15 6.49
7 4 -13 101.24 6.63
7 4 -12 209.59 10.81
7 4 -12 211.93 10.61
7 4 -12 222.99 11.09
7 4 -12 220.11 11.51
7 4 -12 207.2 10.69
7 4 -11 37.1 4.51
7 4 -11 35.46 4.2
7 4 -11 40.29 4.61
7 4 -11 40.61 4.92
7 4 -11 32.98 3.83
7 4 -11 36.68 4.44
7 4 -11 35.38 4.23
7 4 -10 11.81 2.7
7 4 -10 13.63 2.79
7 4 -10 14.59 3.12
7 4 -10 17.6 3.37
7 4 -10 14.53 2.78
7 4 -10 15.39 3.17
7 4 -10 8.27 1.92
7 4 -9 160.59 11.29
7 4 -9 142.11 9.97
7 4 -9 179.58 11.48
7 4 -9 169.48 11.89
7 4 -9 146.78 10.12
7 4 -9 168.22 11.02
7 4 -8 394.54 19.76
7 4 -8 361.52 17.74
7 4 -8 398.91 19.21
7 4 -8 422.12 20.79
7 4 -8 379.02 18.41
7 4 -8 408.93 18.95
7 4 -7 16.7 3.74
7 4 -7 17.27 3.56
7 4 -7 22.73 4.61
7 4 -7 16.59 3.64
7 4 -7 16.08 3.24
7 4 -7 15.65 3.34
7 4 -6 111.14 9.82
7 4 -6 109.84 9.41
7 4 -6 100.43 9.53
7 4 -6 90.79 8.52
7 4 -6 88.33 8.4
7 4 -6 114.75 9.15
7 4 -5 17.42 3.81
7 4 -5 23.26 4.2
7 4 -5 23.06 4.44
7 4 -5 22.19 4.27
7 4 -5 15.05 3.5
7 4 -4 326.45 18.61
7 4 -4 312.48 17.27
7 4 -4 300.21 17.78
7 4 -4 333.67 17.94
7 4 -4 304.98 17.33
7 4 -4 363.47 17.86
7 4 -3 300.77 18.03
7 4 -3 306.13 16.94
7 4 -3 319.53 17.5
7 4 -3 289.98 16.75
7 4 -3 343.63 17.63
7 4 -2 295.42 17.85
7 4 -2 312.21 17.19
7 4 -2 270.84 15.95
7 4 -2 309.65 16.53
7 4 -1 231.46 15.57
7 4 -1 208.13 13.78
7 4 -1 189.3 12.74
7 4 -1 224.56 13.64
7 4 0 127.65 11.48
7 4 0 121.43 10.31
7 4 0 119.63 9.61
7 4 0 133.38 11.44
7 4 1 1.73 1.93
-7 4 -1 2.68 1.49
7 4 1 -1.23 1.59
7 4 1 0.7 1.52
7 4 2 180.68 13.41
-7 4 -2 186.09 12.41
7 4 2 186.25 12.39
7 4 2 219.49 15.44
-7 4 -3 146.27 11.52
-7 4 -3 156.99 11.13
7 4 3 123.28 10.27
7 4 3 168.89 13.47
-7 4 -4 1221.56 44.71
-7 4 -4 1292.79 44.65
-7 4 -4 1203.85 44.03
7 4 4 1173.81 43.94
-7 4 -5 17.04 3.69
-7 4 -5 26.87 4.42
-7 4 -5 23.28 4.31
-7 4 -5 20.18 3.87
7 4 5 22.18 4.6
-7 4 -6 31.09 4.83
-7 4 -6 41.32 5.43
-7 4 -6 38.8 5.48
-7 4 -6 41.61 5.62
7 4 6 26.68 4.87
-7 4 -7 121.82 9.68
-7 4 -7 114.71 9.57
-7 4 -7 148.82 10.04
-7 4 -7 123.63 9.62
-7 4 -7 123.66 9.75
-7 4 -7 128.32 9.74
-7 4 -8 87.2 7.46
-7 4 -8 87.23 7.65
-7 4 -8 95.96 7.79
-7 4 -8 92.37 7.71
-7 4 -8 98.16 8.12
-7 4 -8 87.38 7.67
-7 4 -9 102.31 7.61
-7 4 -9 113 8.17
-7 4 -9 125.35 8.33
-7 4 -9 108.01 7.94
-7 4 -9 108.25 7.96
-7 4 -9 98.22 7.49
-7 4 -10 6.54 1.71
-7 4 -10 3.9 1.11
-7 4 -10 8.59 2.05
-7 4 -10 6.46 1.67
-7 4 -10 8.1 2
-7 4 -10 6.62 1.99
-7 4 -10 4.88 1.29
-7 4 -10 7.1 1.67
-7 4 -11 13.3 2.18
-7 4 -11 16.22 2.39
-7 4 -11 15.42 2.22
-7 4 -11 12.14 2.11
-7 4 -11 13.64 2.14
7 5 -12 67.9 5.2
7 5 -12 73.96 5.38
7 5 -12 76.55 5.65
7 5 -12 67.24 5.06
7 5 -11 99.33 7.07
7 5 -11 80.67 5.84
7 5 -11 79.91 6.28
7 5 -11 94.73 7.05
7 5 -11 67.37 5.35
7 5 -11 89.15 6.55
7 5 -10 14.64 2.91
7 5 -10 16.18 2.81
7 5 -10 17.35 3.11
7 5 -10 18.61 3.3
7 5 -10 14.92 2.63
7 5 -10 17.33 3.1
7 5 -9 68.95 6.75
7 5 -9 62 5.73
7 5 -9 66.03 6.52
7 5 -9 62.95 6.69
7 5 -9 61.16 6.07
7 5 -9 67.29 6.44
7 5 -8 111.4 9.07
7 5 -8 120.35 9.23
7 5 -8 103.16 9.01
7 5 -8 107.05 8.56
7 5 -8 101.44 8.33
7 5 -8 97.27 7.67
7 5 -7 1.7 1.8
7 5 -7 4.89 2.11
7 5 -7 2.31 1.63
7 5 -7 4.76 1.73
7 5 -7 1.66 1.28
7 5 -6 286.43 16.73
7 5 -6 293.17 16.18
7 5 -6 267.22 15.91
7 5 -6 301.9 16.23
7 5 -6 259.54 15.41
7 5 -6 289.16 15.46
7 5 -5 545.72 25.44
7 5 -5 504.8 23.56
7 5 -5 561.52 24.52
7 5 -5 527 24.26
7 5 -5 576.93 24.18
7 5 -4 399.36 20.59
7 5 -4 362.53 18.68
7 5 -4 383.49 19.69
7 5 -4 361.4 19.21
7 5 -3 129.88 10.88
7 5 -3 136.93 10.77
7 5 -3 116.92 9.95
7 5 -2 76.24 8.4
7 5 -2 78.85 8.07
7 5 -2 63.75 7.29
7 5 -1 478.21 24.42
7 5 -1 531.18 24.35
7 5 -1 541.08 23.76
7 5 0 3.67 2.35
7 5 0 9.79 3.38
7 5 0 7.12 3.11
7 5 1 594.67 27.19
-7 5 -1 614.7 25.5
7 5 1 604.99 26.24
7 5 1 675.13 29.49
-7 5 -2 100.91 9.4
-7 5 -2 104.65 8.81
7 5 2 124.68 11.07
-7 5 -3 125.75 10.65
-7 5 -3 137.77 10.24
7 5 3 122.71 10.07
7 5 3 142.12 11.91
-7 5 -4 207.34 13.65
-7 5 -4 199.54 12.99
-7 5 -4 201.97 12.71
7 5 4 178.07 12.36
7 5 4 201.66 13.91
-7 5 -5 68.38 7.44
-7 5 -5 70.64 7.01
-7 5 -5 70.44 7.27
-7 5 -5 59.43 6.45
-7 5 -6 39.9 5.35
-7 5 -6 59.05 5.99
-7 5 -6 52.12 6.06
-7 5 -6 49.72 5.69
-7 5 -7 29.48 4.6
-7 5 -7 25.84 4.1
-7 5 -7 30.47 4.29
-7 5 -7 31.91 4.6
-7 5 -7 29.87 4.49
-7 5 -7 25.22 3.81
-7 5 -8 31.02 4.21
-7 5 -8 27.73 3.9
-7 5 -8 36.21 4.36
-7 5 -8 27.81 4.01
-7 5 -8 28.36 4.07
-7 5 -8 26.59 3.82
-7 5 -9 48.52 4.74
-7 5 -9 48.37 4.71
-7 5 -9 56.13 5.06
-7 5 -9 49.89 4.85
-7 5 -9 52.14 4.97
-7 5 -10 14.13 2.12
-7 5 -10 13.79 2.13
-7 5 -10 16.63 2.48
-7 5 -10 13.68 2.15
-7 5 -10 16.83 2.5
-7 5 -10 14.75 2.28
-7 5 -10 13.4 1.97
7 6 -11 14.69 2.3
7 6 -11 17.6 2.5
7 6 -11 14.49 2.27
7 6 -10 15 2.62
7 6 -10 13.92 2.51
7 6 -10 12.24 2.48
7 6 -10 13.14 2.25
7 6 -10 15.2 2.59
7 6 -9 58.77 5.7
7 6 -9 54.02 5.39
7 6 -9 55.66 5.48
7 6 -9 53.85 5.14
7 6 -9 54.47 5.25
7 6 -8 45.4 5.39
7 6 -8 42.11 4.92
7 6 -8 35.86 4.76
7 6 -8 41.98 4.91
7 6 -8 38.72 4.58
7 6 -8 35.34 4.17
7 6 -7 59.88 6.63
7 6 -7 64.47 6.49
7 6 -7 65.99 6.53
7 6 -7 59.9 6.24
7 6 -7 66.93 6.33
7 6 -6 337.56 17.39
7 6 -6 304.8 16.04
7 6 -6 315.79 16.63
7 6 -6 313.29 16.48
7 6 -6 345.18 16.48
7 6 -5 298.72 16.53
7 6 -5 279.37 15.16
7 6 -5 310.5 16.57
7 6 -5 304.58 16.31
7 6 -4 152.8 11.21
7 6 -4 174.48 11.88
7 6 -4 152.52 11.07
7 6 -3 5.8 2.23
7 6 -3 5.79 2.55
7 6 -3 1.17 1.59
7 6 -2 212.05 13.82
7 6 -2 245.29 14.65
7 6 -2 202.93 13.04
7 6 -1 118.23 9.76
7 6 -1 114.21 9.84
7 6 0 8.73 2.89
7 6 0 8.36 2.89
-7 6 -1 92.5 8.78
-7 6 -1 85.66 7.68
7 6 1 83.46 7.9
7 6 1 94.73 8.92
-7 6 -2 98.52 8.92
-7 6 -2 106.52 8.65
7 6 2 92.57 8.18
7 6 2 89.32 8.5
-7 6 -3 63.8 7.15
-7 6 -3 84.7 7.77
-7 6 -3 73.98 6.94
7 6 3 69.09 6.84
7 6 3 60.72 6.61
-7 6 -4 61.35 6.74
-7 6 -4 76.64 7.25
-7 6 -4 66.97 6.76
-7 6 -5 101.21 8.62
-7 6 -5 125.82 8.85
-7 6 -5 114.56 9.04
-7 6 -5 113.08 8.53
-7 6 -6 29.92 4.2
-7 6 -6 32.99 4.55
-7 6 -6 36.49 4.69
-7 6 -6 30.03 4.39
-7 6 -6 29.49 4
-7 6 -7 10.97 2.67
-7 6 -7 9.25 2.14
-7 6 -7 15.88 2.91
-7 6 -7 11.26 2.56
-7 6 -7 13.39 2.65
-7 6 -7 9.26 2.11
-7 6 -8 55.2 5.17
-7 6 -8 50.4 4.52
-7 6 -8 65.77 5.5
-7 6 -8 63.47 5.32
-7 6 -8 62.28 5.33
-7 6 -9 41.64 3.75
-7 6 -9 48.64 4.12
-7 6 -9 43.66 3.92
-7 6 -9 38.8 3.67
-7 6 -9 41.54 3.86
7 7 -9 49.77 4.63
7 7 -9 43.25 4.04
7 7 -9 50.65 4.35
7 7 -9 55.87 4.59
7 7 -8 17.57 3.01
7 7 -8 14.69 2.55
7 7 -8 12.72 2.33
7 7 -8 13.34 2.36
7 7 -8 14.86 2.19
7 7 -7 36.73 4.45
7 7 -7 28.98 3.73
7 7 -7 35 4.25
7 7 -7 28.3 3.82
7 7 -7 37.55 4.1
7 7 -6 146.26 9.76
7 7 -6 124.37 8.33
7 7 -6 145.43 9.61
7 7 -6 139.96 9.43
7 7 -6 159.42 9.61
7 7 -5 81.28 7.25
7 7 -5 88.31 7.52
7 7 -5 78.45 7.07
7 7 -4 120.16 8.96
7 7 -4 141.73 9.89
7 7 -4 112.47 8.75
7 7 -3 128.39 9.38
7 7 -3 107.05 8.37
7 7 -2 104.3 8.43
7 7 -2 114.72 8.88
-7 7 1 134.14 9.58
7 7 -1 132.38 9.38
7 7 -1 133.52 9.62
-7 7 0 48.53 5.6
-7 7 0 51.88 5.54
7 7 0 54.08 5.8
7 7 0 43.08 5.18
-7 7 -1 90.48 7.73
-7 7 -1 108.83 8.06
7 7 1 91.05 7.45
7 7 1 78.37 6.91
-7 7 -2 78.55 7.11
-7 7 -2 89.19 7.74
-7 7 -2 80.49 6.97
7 7 2 81.93 6.9
-7 7 -3 10.33 2.35
-7 7 -3 8.15 2.61
-7 7 -3 12.97 2.65
-7 7 -4 4.34 1.54
-7 7 -4 4.87 1.97
-7 7 -4 6.63 2.08
-7 7 -4 2.39 1.29
-7 7 -5 5.72 1.72
-7 7 -5 8.17 2.16
-7 7 -5 5.64 1.83
-7 7 -5 4.71 1.39
-7 7 -6 32.39 4.18
-7 7 -6 35.1 3.81
-7 7 -6 33.13 3.89
-7 7 -6 29.52 3.84
-7 7 -6 24.59 3.12
-7 7 -7 46.04 4.39
-7 7 -7 45.64 4.24
-7 7 -7 41.27 3.95
-7 7 -7 40.79 4.03
-7 7 -8 39.81 3.6
7 8 -7 1.27 0.82
7 8 -7 2.03 0.89
7 8 -6 2.11 1.14
7 8 -6 -0.04 0.63
7 8 -6 1.44 1.24
7 8 -5 24.09 3.34
7 8 -5 20.5 2.93
7 8 -5 27.41 3.53
7 8 -4 25.27 3.4
7 8 -4 20.05 2.83
7 8 -4 29.55 3.65
7 8 -3 71.46 5.85
7 8 -3 73.37 5.94
7 8 -2 36.84 4.05
-7 8 2 45.46 4.38
7 8 -2 52.43 5.01
7 8 -2 39.64 4.29
-7 8 1 271.6 12.49
7 8 -1 294.04 13.18
-7 8 0 6.34 1.81
7 8 0 5.83 1.55
-7 8 -1 15.12 2.73
-7 8 -1 14.98 2.62
7 8 1 11.1 2.1
-7 8 -2 109.67 7.32
-7 8 -2 91 6.34
-7 8 -3 33.39 3.7
-7 8 -3 25.15 3.38
-7 8 -3 24.24 3.21
-7 8 -4 8.82 1.97
-7 8 -4 5.86 1.48
-7 8 -4 6.54 1.63
-7 8 -5 5.59 1.52
-7 8 -5 4.77 1.5
7 9 -3 45.17 3.66
7 9 -2 123.09 6.59
-7 9 -1 18.01 2.29
-8 -7 7 33.82 3.18
-8 -7 7 36.64 3.33
-8 -7 6 4.97 1.26
-8 -7 6 8.18 1.74
-8 -7 5 8.45 1.8
-8 -7 5 8.44 1.84
-8 -7 4 80.44 5.86
8 -7 -4 91.39 6.98
-8 -7 4 89.53 6.2
-8 -7 3 9.22 2
8 -7 -3 10.02 2.46
-8 -7 3 9.95 2.04
-8 -7 2 23.2 3.05
-8 -7 1 89.72 6.09
8 -7 -1 95.4 6.79
8 -7 0 89.34 6.81
8 -7 1 62.87 5.66
8 -7 2 77.57 6.33
8 -7 3 14.11 2.42
8 -7 4 31.42 3.45
-8 -6 9 12.73 2.06
-8 -6 9 13.35 2.05
-8 -6 8 109.88 7.1
-8 -6 8 130.59 7.62
-8 -6 7 23.04 3.2
8 -6 -7 23.43 3.34
-8 -6 7 24.85 3.38
-8 -6 6 5.49 1.75
8 -6 -6 6.51 1.88
-8 -6 6 7.75 1.94
-8 -6 5 42.39 4.73
8 -6 -5 50.03 5.36
8 -6 -5 51.39 5.63
-8 -6 5 45.45 4.84
-8 -6 4 28.41 3.89
8 -6 -4 27.75 4.12
8 -6 -4 31.44 4.54
-8 -6 4 28.14 3.82
-8 -6 3 32.99 4.18
8 -6 -3 42.69 5.33
8 -6 -3 41.07 5.43
-8 -6 3 32.31 4.01
8 -6 -2 85.57 8
8 -6 -2 89.8 7.42
-8 -6 2 78.42 6.45
8 -6 -2 83.23 7.2
8 -6 -1 210.98 12.79
8 -6 -1 185.75 11.7
-8 -6 1 166.72 9.83
8 -6 -1 185.89 11.72
8 -6 -1 181.03 11.56
8 -6 0 7.16 2.46
8 -6 0 5.83 2.11
8 -6 0 3.76 1.76
8 -6 0 5.93 2.05
8 -6 1 189.37 12.18
8 -6 1 223.04 13.3
8 -6 1 223.21 13.3
8 -6 1 202.47 12.88
8 -6 2 24.11 3.89
8 -6 2 23.46 3.88
8 -6 3 26.63 3.96
8 -6 3 32.8 4.55
8 -6 4 15.94 2.91
8 -6 4 16.05 2.99
8 -6 5 18.54 2.96
8 -6 5 16.86 2.52
8 -6 6 79.13 5.74
8 -6 6 65.51 4.95
-8 -5 10 15.16 2.41
8 -5 -10 14.68 2.36
-8 -5 10 13.54 2.31
-8 -5 9 18.63 3
8 -5 -9 21.58 3.1
-8 -5 9 18.66 2.84
-8 -5 8 60.91 5.79
8 -5 -8 55.68 5.6
8 -5 -8 57.29 5.35
8 -5 -8 60.65 5.74
-8 -5 8 63.73 5.83
-8 -5 7 70.93 6.45
8 -5 -7 62.84 6.19
8 -5 -7 60.61 5.94
8 -5 -7 73.72 6.59
8 -5 -7 67.08 6.6
-8 -5 7 65.05 6.12
-8 -5 6 46.54 5.41
8 -5 -6 40.9 5.06
8 -5 -6 40.46 5.15
8 -5 -6 47.57 5.6
8 -5 -6 44.67 5.52
-8 -5 6 41.64 5.1
-8 -5 5 45.1 5.56
8 -5 -5 49.36 5.48
8 -5 -5 54.24 6.27
8 -5 -5 43.91 5.62
8 -5 -5 51.28 6.15
-8 -5 5 47.57 5.38
-8 -5 4 11.61 2.83
8 -5 -4 10.41 2.81
8 -5 -4 10.51 2.92
8 -5 -4 9.75 2.77
-8 -5 4 11.44 2.56
-8 -5 3 93.95 8.11
8 -5 -3 99.51 8.86
8 -5 -3 113.32 9.68
8 -5 -3 101.48 8.59
-8 -5 3 86.47 7.35
8 -5 -3 101.89 8.48
8 -5 -2 108.2 9.3
8 -5 -2 118.96 9.96
8 -5 -2 106.53 9.21
8 -5 -2 101.38 8.93
8 -5 -2 117.14 9.88
8 -5 -1 36.54 5.5
8 -5 -1 42.96 5.83
8 -5 -1 40.04 5.51
8 -5 -1 41.61 5.9
8 -5 -1 43.61 5.82
8 -5 0 76.4 7.71
8 -5 0 75.4 7.9
8 -5 0 91.01 8.83
8 -5 0 78.62 8.02
8 -5 0 75.94 8.19
8 -5 1 185.52 12.78
8 -5 1 215.79 14.03
8 -5 1 208.82 13.93
8 -5 1 203.71 13.8
8 -5 2 23.76 4.25
8 -5 2 21.49 4.18
8 -5 2 22.64 4.11
8 -5 2 26.14 4.52
8 -5 3 45.94 5.9
8 -5 3 46.54 5.83
8 -5 3 40.9 5.17
8 -5 3 44.22 5.87
8 -5 4 242.2 14.05
8 -5 4 249.27 14.21
8 -5 4 241.56 13.63
8 -5 4 244.8 14.42
8 -5 5 25.53 3.97
8 -5 5 27.22 4.1
8 -5 5 22.82 3.7
8 -5 6 33.58 4.35
8 -5 6 30.42 4.08
8 -5 6 26.59 3.65
8 -5 7 37.08 4.1
8 -5 7 40.09 4.29
8 -5 8 23.31 2.92
-8 -4 11 3.35 1.35
8 -4 -11 1.07 0.74
-8 -4 11 2.65 1.19
-8 -4 10 44.74 4.74
8 -4 -10 46.17 4.65
-8 -4 10 43.89 4.69
8 -4 -10 40.79 4.57
-8 -4 9 142.9 9.48
8 -4 -9 140.79 9.13
8 -4 -9 116.2 8.39
8 -4 -9 129.86 8.71
8 -4 -9 135.46 9.05
-8 -4 9 138.63 9.19
8 -4 -9 135.8 9.27
8 -4 -8 38.44 4.83
8 -4 -8 34.58 4.69
8 -4 -8 37.19 4.84
8 -4 -8 29.88 4.39
-8 -4 8 37.1 4.8
8 -4 -8 34.63 4.63
-8 -4 7 1.6 1.35
8 -4 -7 1.91 1.54
8 -4 -7 1.02 1.04
8 -4 -7 -0.83 1.08
8 -4 -7 -0.28 0.99
-8 -4 7 0.31 0.84
8 -4 -7 -0.49 0.92
-8 -4 6 99.35 8.67
8 -4 -6 86.42 7.85
8 -4 -6 94.2 8.72
8 -4 -6 94.71 8.62
8 -4 -6 98.35 8.83
-8 -4 6 84.78 7.8
8 -4 -6 97.02 8.42
-8 -4 5 159.88 11.51
8 -4 -5 158.52 10.98
8 -4 -5 167.94 12
8 -4 -5 162.75 11.81
8 -4 -5 166.8 12.05
-8 -4 5 140.06 10.18
-8 -4 4 14.67 3.31
8 -4 -4 19.86 3.93
8 -4 -4 20.05 3.74
8 -4 -4 16.1 3.83
8 -4 -4 17.49 3.81
8 -4 -4 17.36 3.55
8 -4 -4 17.65 3.7
-8 -4 4 18.05 3.41
8 -4 -4 20.69 3.86
8 -4 -3 48.51 6.42
-8 -4 3 43.53 5.64
8 -4 -3 43.97 5.58
8 -4 -3 47.09 6.27
8 -4 -3 53.4 6.55
8 -4 -3 60.41 7.05
8 -4 -3 52.71 6.42
8 -4 -3 48.38 6.12
8 -4 -2 92.62 9.27
8 -4 -2 85.79 8.75
8 -4 -2 93.51 8.83
8 -4 -2 103.44 9.59
8 -4 -2 83.67 8.58
8 -4 -2 93.43 8.83
8 -4 -1 156.2 12.23
8 -4 -1 139.6 11.33
8 -4 -1 142.29 11.21
8 -4 -1 153.84 11.96
8 -4 -1 157.76 12.12
8 -4 -1 142.51 11.46
8 -4 0 74.95 8.3
8 -4 0 60.4 7.15
8 -4 0 61.65 7.37
8 -4 0 67.35 7.78
8 -4 0 79.53 8.33
8 -4 1 6.1 2.39
8 -4 1 7.11 2.57
8 -4 1 5.74 1.8
8 -4 1 5.36 2.02
8 -4 1 1.69 2.12
8 -4 1 5.55 2.05
8 -4 2 16.54 3.82
8 -4 2 13.05 3.55
8 -4 2 15.06 3.59
8 -4 2 15.77 3.73
8 -4 2 16.49 3.82
8 -4 2 14.54 3.49
8 -4 3 501.65 24.22
8 -4 3 562.71 25.21
8 -4 3 595.33 25.68
8 -4 3 527.3 24.2
8 -4 3 560.27 25.65
8 -4 4 3.95 2.23
8 -4 4 3.63 1.76
8 -4 4 3.96 2.01
8 -4 4 1.83 1.12
-8 -4 -5 29.7 4.17
8 -4 5 40.53 5.46
8 -4 5 38.86 5.31
8 -4 5 41.46 5.42
8 -4 5 46.19 6.12
-8 -4 -6 34.9 4.5
8 -4 6 43.95 5.54
8 -4 6 50.12 5.74
8 -4 6 37.25 4.85
-8 -4 -7 57.88 5.75
8 -4 7 68.6 6.56
8 -4 7 67.52 6.29
8 -4 7 68.53 6.33
-8 -4 -8 102.33 7.31
8 -4 8 101.99 7.04
-8 -4 -8 91.91 6.48
-8 -4 -9 213.31 10.33
8 -4 9 230.86 11.04
8 -3 -12 33.55 3.51
-8 -3 12 32.94 3.53
8 -3 -12 36.59 3.75
8 -3 -11 68.45 5.8
8 -3 -11 71.69 6
8 -3 -10 129.82 8.84
8 -3 -10 115.55 8.29
8 -3 -10 120.88 8.32
8 -3 -10 124.4 8.64
8 -3 -10 134.15 8.97
8 -3 -9 9.84 2.63
8 -3 -9 7.13 1.97
8 -3 -9 8.92 2.37
8 -3 -9 3.75 1.72
8 -3 -9 5.59 2.11
8 -3 -8 2.79 1.15
8 -3 -8 6.4 2.04
8 -3 -8 5.42 2.2
8 -3 -8 2.59 1.53
8 -3 -8 5.35 2.07
8 -3 -7 56.45 6.31
8 -3 -7 57.89 6.79
8 -3 -7 62.37 6.89
8 -3 -7 55.61 6.52
-8 -3 7 59.86 6.42
8 -3 -7 57.5 6.61
8 -3 -6 96.5 8.75
8 -3 -6 116.74 9.91
8 -3 -6 106.76 9.3
8 -3 -6 120.46 10.13
-8 -3 6 98.75 8.49
8 -3 -6 116.53 9.5
8 -3 -5 61.05 7.07
8 -3 -5 64.89 6.93
8 -3 -5 64.59 7.45
8 -3 -5 73.33 7.68
8 -3 -5 57.81 6.71
8 -3 -5 69.32 7.61
8 -3 -5 66.47 7.17
8 -3 -4 39.94 6
8 -3 -4 36.43 5.01
8 -3 -4 31.73 5.16
8 -3 -4 36.5 5.56
8 -3 -4 43.94 5.85
8 -3 -4 39.73 5.83
8 -3 -4 41.52 5.54
8 -3 -4 41.04 5.58
8 -3 -3 198.43 13.81
8 -3 -3 173.11 11.96
8 -3 -3 198.68 13.57
8 -3 -3 201.8 13.45
8 -3 -3 221.6 14.43
8 -3 -3 209.02 14.02
8 -3 -3 201.66 13.46
8 -3 -2 70.35 7.97
8 -3 -2 65.07 6.95
8 -3 -2 67.17 7.68
8 -3 -2 75.29 7.93
8 -3 -2 72.15 7.98
8 -3 -2 75.44 8.16
8 -3 -2 73.39 7.99
8 -3 -1 299.53 17.95
8 -3 -1 306.87 17.98
8 -3 -1 309.58 17.66
8 -3 -1 303.3 17.87
8 -3 -1 334.24 18.73
8 -3 -1 342.06 18.6
8 -3 0 135.25 11.47
8 -3 0 145.25 11.91
8 -3 0 134.74 11.1
8 -3 0 136.88 11.32
8 -3 0 138.79 11.42
8 -3 0 158.72 12
8 -3 0 152.37 11.5
8 -3 1 148.2 11.95
8 -3 1 153.65 12.34
8 -3 1 158.35 12.19
8 -3 1 141.81 11.72
8 -3 1 157.72 12.08
8 -3 1 161.68 12.27
8 -3 1 159.07 11.93
8 -3 2 31.25 5.32
8 -3 2 26.68 4.9
8 -3 2 32.62 5.19
8 -3 2 24.86 4.86
8 -3 2 26.72 4.74
8 -3 2 23.22 4.35
8 -3 3 62.55 7.59
8 -3 3 53.34 6.87
8 -3 3 59.09 7.09
8 -3 3 60.25 7.17
8 -3 3 54.34 6.84
8 -3 4 20.57 4.39
8 -3 4 22.75 4.34
8 -3 4 22.14 4.34
8 -3 4 18.03 3.77
8 -3 5 34.83 5.56
8 -3 5 36.5 5.37
-8 -3 -5 32.34 4.66
8 -3 5 34.64 5.24
8 -3 5 26.07 4.44
8 -3 6 14.09 3.59
8 -3 6 11.57 3.23
-8 -3 -6 9.3 2.67
8 -3 6 9.88 2.91
8 -3 6 11.18 2.94
8 -3 7 91.57 8.3
8 -3 7 96.61 8.37
-8 -3 -7 90.6 7.67
8 -3 7 96.31 8.2
-8 -3 -8 7.6 1.97
8 -3 8 13.58 2.71
-8 -3 -8 8.76 2.24
8 -3 8 10.97 2.42
-8 -3 -9 74.36 6.1
-8 -3 -9 76.17 5.97
8 -3 9 82.44 6.71
-8 -3 -10 44.64 4.08
-8 -3 -10 46.09 3.98
8 -3 10 55.3 4.82
8 -2 -13 1.27 0.92
8 -2 -13 2 0.88
8 -2 -12 9.62 2.05
8 -2 -12 8.18 1.81
8 -2 -12 8.45 1.91
8 -2 -11 29.65 3.81
8 -2 -11 25.14 3.49
8 -2 -11 23.46 3.4
8 -2 -11 25.21 3.41
8 -2 -11 29.13 3.88
8 -2 -11 22.1 3.3
8 -2 -10 6.04 1.9
8 -2 -10 7.41 2.11
8 -2 -10 8.75 2.26
8 -2 -10 8.94 2.43
8 -2 -10 10.25 2.44
8 -2 -10 7.3 2.03
8 -2 -9 4.84 1.56
8 -2 -9 5.21 1.86
8 -2 -9 8.46 2.64
8 -2 -9 7.07 2.4
8 -2 -9 6.74 2.23
8 -2 -9 6.43 2.24
8 -2 -8 322.62 16.69
8 -2 -8 300.85 17.22
8 -2 -8 337.13 17.48
8 -2 -8 365.88 18.4
8 -2 -8 343.81 17.51
8 -2 -8 302.18 16.39
8 -2 -7 175.99 12.06
8 -2 -7 194.53 12.36
8 -2 -7 197.24 13.4
8 -2 -7 195.46 12.95
8 -2 -7 204.39 13.34
8 -2 -7 189.28 12.62
8 -2 -7 169.9 11.96
8 -2 -6 9.26 2.79
8 -2 -6 12.48 3.12
8 -2 -6 12.29 3.33
8 -2 -6 11.52 3.33
8 -2 -6 14.82 3.22
8 -2 -6 12.19 3.2
8 -2 -6 16.75 3.74
8 -2 -6 10.1 2.8
8 -2 -5 82.82 7.85
8 -2 -5 81.66 8.5
8 -2 -5 90.37 8.72
8 -2 -5 90.53 8.62
8 -2 -5 80.81 8.44
8 -2 -5 90.13 8.28
8 -2 -5 81.14 8.21
8 -2 -4 53.2 6.71
8 -2 -4 34.9 4.95
8 -2 -4 40.32 5.65
8 -2 -4 33.71 5.42
8 -2 -4 48.56 6.35
8 -2 -4 38.79 5.66
8 -2 -4 37.73 5.45
8 -2 -4 38.74 5.47
8 -2 -3 182.09 13.07
8 -2 -3 168.06 11.63
8 -2 -3 177.74 12.84
8 -2 -3 182.69 12.64
8 -2 -3 191.76 13.36
8 -2 -3 184.57 13.17
8 -2 -3 196.14 13.23
8 -2 -3 172.78 12.42
8 -2 -2 192.43 13.54
8 -2 -2 187.8 13.34
8 -2 -2 175.74 12.58
8 -2 -2 214.34 14.09
8 -2 -2 184.05 13.18
8 -2 -2 197.84 13.54
8 -2 -2 177.5 12.35
8 -2 -1 120.54 10.42
8 -2 -1 105.68 10.07
8 -2 -1 104.05 9.48
8 -2 -1 112.34 9.91
8 -2 -1 124.98 10.57
8 -2 -1 117.55 10.14
8 -2 -1 117.07 9.89
8 -2 0 170.58 12.66
8 -2 0 164.45 12.86
8 -2 0 153.48 11.91
8 -2 0 152.57 11.9
8 -2 0 167.37 12.4
8 -2 0 171.22 12.53
8 -2 0 166.18 12.17
8 -2 1 244.37 15.86
8 -2 1 251.5 16.74
8 -2 1 258.34 16.23
8 -2 1 234.51 15.45
8 -2 1 258.95 15.78
8 -2 1 270.9 16.02
8 -2 1 257.63 15.82
8 -2 2 8.9 3
8 -2 2 8.89 3
8 -2 2 11.15 3.24
8 -2 2 7.25 2.71
8 -2 2 6.18 2.25
8 -2 2 3.21 1.92
8 -2 3 622.07 28.49
8 -2 3 588.28 27.21
8 -2 3 617.68 27.59
8 -2 3 601.46 26.83
-8 -2 -3 574.98 26.05
8 -2 3 606.77 26.93
8 -2 4 252.29 16.58
8 -2 4 227.17 15.15
8 -2 4 224.66 14.63
-8 -2 -4 229.94 14.52
8 -2 4 222.14 14.55
8 -2 5 25.47 4.99
8 -2 5 20.71 4.18
-8 -2 -5 25.61 4.59
8 -2 5 29.77 4.89
8 -2 5 24.86 4.43
8 -2 6 258.7 16.17
8 -2 6 259.28 15.58
-8 -2 -6 236.3 14.6
8 -2 6 260.25 15.47
8 -2 6 265.45 16.86
8 -2 7 346.3 18.47
8 -2 7 369.04 18.7
-8 -2 -7 331.13 17.29
8 -2 7 371.25 18.73
8 -2 7 353.05 19.3
-8 -2 -8 271.33 14.48
8 -2 8 326.51 16.62
-8 -2 -9 73.22 6.21
8 -2 9 80.34 7.17
-8 -2 -10 131.15 8
-8 -2 -10 127.83 7.82
-8 -2 -11 98.02 5.75
8 -1 -13 4.09 1.25
8 -1 -13 3.62 1.23
8 -1 -12 22.83 3.03
8 -1 -12 15.98 2.5
8 -1 -12 21.25 3.08
8 -1 -12 22.67 3.08
8 -1 -12 22.63 3.17
8 -1 -11 92.79 7.06
8 -1 -11 88.45 7.04
8 -1 -11 82.92 7.05
8 -1 -11 94.34 7.23
8 -1 -11 99.9 7.6
8 -1 -11 90.76 7.12
8 -1 -10 47.15 5.4
8 -1 -10 49.41 5.62
8 -1 -10 45.54 5.47
8 -1 -10 46.46 5.59
8 -1 -10 50.77 5.7
8 -1 -10 51.4 5.56
8 -1 -9 79.43 7.31
8 -1 -9 82.1 7.84
8 -1 -9 79.88 7.68
8 -1 -9 85.94 7.93
8 -1 -9 84.33 7.71
8 -1 -9 72.28 7.02
8 -1 -8 26.44 4.33
8 -1 -8 30.44 4.54
8 -1 -8 30.24 4.67
8 -1 -8 34.92 5.21
8 -1 -8 34.82 5.17
8 -1 -8 32.22 4.78
8 -1 -8 34.71 5.01
8 -1 -7 103.71 9.23
8 -1 -7 103.62 8.77
8 -1 -7 111.39 9.44
8 -1 -7 95.27 9.22
8 -1 -7 109.74 9.05
8 -1 -7 114.34 9.71
8 -1 -7 95.5 8.91
8 -1 -7 101 9.08
8 -1 -6 17.9 3.84
8 -1 -6 12.37 3
8 -1 -6 17.82 3.56
8 -1 -6 14.9 3.61
8 -1 -6 14.17 3.24
8 -1 -6 18.18 3.95
8 -1 -6 12.51 3.27
8 -1 -6 11.04 3
8 -1 -5 187.9 13.35
8 -1 -5 167.46 11.72
8 -1 -5 190.75 13.27
8 -1 -5 202.45 13.22
8 -1 -5 210.48 13.7
8 -1 -5 212.97 14.14
8 -1 -5 205.8 13.16
8 -1 -5 189.77 12.97
8 -1 -5 200.82 13.41
8 -1 -4 44.18 6.22
8 -1 -4 41.69 5.95
8 -1 -4 52.85 6.5
8 -1 -4 53.07 6.74
8 -1 -4 51.97 6.46
8 -1 -4 58.21 6.8
8 -1 -4 47.55 6.06
8 -1 -3 125.88 10.56
8 -1 -3 120.16 10.36
8 -1 -3 112.3 9.78
8 -1 -3 134.51 10.77
8 -1 -3 125.42 10.63
8 -1 -3 133.84 10.68
8 -1 -3 126.11 9.94
8 -1 -3 114.46 9.9
8 -1 -2 86.83 8.67
8 -1 -2 74.85 8.2
8 -1 -2 85.28 8.3
8 -1 -2 88.11 8.61
8 -1 -2 84.25 8.41
8 -1 -2 88.75 8.61
8 -1 -2 80.92 7.98
8 -1 -1 62.46 7.3
8 -1 -1 58 7.31
8 -1 -1 55.5 6.85
8 -1 -1 66.21 7.39
8 -1 -1 61.56 7.13
8 -1 -1 67.89 7.33
8 -1 -1 62.42 7.05
8 -1 0 845.05 33.97
8 -1 0 810.92 34.81
8 -1 0 818.08 33.48
8 -1 0 783.85 32.85
8 -1 0 819.88 33.21
8 -1 0 901.56 33.9
8 -1 0 831.24 33.3
8 -1 1 23.94 4.64
8 -1 1 21.51 4.47
8 -1 1 30.3 5.68
8 -1 1 25.72 4.93
8 -1 1 22.4 4.35
-8 -1 -1 26.53 4.54
8 -1 1 25.07 4.65
8 -1 1 25.32 4.47
8 -1 2 359.86 20.42
8 -1 2 365.85 21.12
8 -1 2 367.6 20.08
8 -1 2 357.15 19.54
8 -1 2 386.13 19.63
-8 -1 -2 383.99 20.05
8 -1 2 348.87 19.18
8 -1 3 97.58 9.99
8 -1 3 98.25 9.53
8 -1 3 103.85 9.36
-8 -1 -3 105.94 9.72
8 -1 3 96.55 9.15
8 -1 4 461.36 24.02
-8 -1 -4 386.02 20.12
8 -1 4 442.74 22.76
8 -1 4 429.37 21.64
-8 -1 -4 459.72 22.27
8 -1 4 422.11 21.58
8 -1 5 45.64 6.82
-8 -1 -5 37.33 5.25
8 -1 5 42.69 6.47
8 -1 5 44.2 6.12
-8 -1 -5 39.58 5.74
8 -1 5 39.28 5.51
8 -1 6 4.18 2.3
-8 -1 -6 0.4 1.24
8 -1 6 -0.52 1.67
-8 -1 -6 0.85 1.17
8 -1 6 2.78 2.17
8 -1 6 3.65 2.09
-8 -1 -7 128.99 9.53
8 -1 7 152.76 11.48
8 -1 7 176.26 12.04
-8 -1 -7 159.63 11.07
8 -1 7 180.09 12.55
8 -1 7 168.44 12.38
-8 -1 -8 104.98 7.96
-8 -1 -8 124.39 9.13
-8 -1 -9 65.69 5.61
-8 -1 -9 73.06 6.38
-8 -1 -10 33.9 3.44
-8 -1 -10 42.96 4.35
8 -1 10 49.57 5.19
-8 -1 -11 19.36 2.52
-8 -1 -11 17.79 2.44
8 0 -13 48.09 4.13
8 0 -13 42.95 3.91
8 0 -13 48.24 4.26
8 0 -13 47.73 4.17
8 0 -12 12.96 2.39
8 0 -12 14.8 2.46
8 0 -12 15.69 2.72
8 0 -12 11.13 2.11
8 0 -12 13.56 2.4
8 0 -12 12.54 2.38
8 0 -11 42.85 4.71
8 0 -11 44.6 4.9
8 0 -11 35.84 4.55
8 0 -11 34.42 4.33
8 0 -11 47.44 5.09
8 0 -11 38.83 4.58
8 0 -10 46.13 5.15
8 0 -10 47.34 5.43
8 0 -10 40.32 5.18
8 0 -10 48.88 5.7
8 0 -10 49.7 5.65
8 0 -10 45.82 5.37
8 0 -9 90.06 7.89
8 0 -9 89.25 7.75
8 0 -9 100.2 8.48
8 0 -9 98.38 8.54
8 0 -9 115.45 9.26
8 0 -9 93.55 8.35
8 0 -9 94.06 8.25
8 0 -8 20.45 3.84
8 0 -8 19.11 3.5
8 0 -8 22.75 4.01
8 0 -8 23.76 4.32
8 0 -8 25.54 4.49
8 0 -8 27.76 4.51
8 0 -8 21.98 4.13
8 0 -7 239.6 14.71
8 0 -7 226.06 13.62
8 0 -7 246.32 14.53
8 0 -7 232.45 14.88
8 0 -7 244.78 14.39
8 0 -7 266 15.4
8 0 -7 217.85 14.08
8 0 -7 249.68 14.94
8 0 -6 206.23 13.83
8 0 -6 200.49 12.69
8 0 -6 216.84 13.78
8 0 -6 202 13.77
8 0 -6 212.48 13.61
8 0 -6 240.21 14.39
8 0 -6 219.01 13.39
8 0 -6 194.93 13.28
8 0 -6 206.44 13.7
8 0 -5 130.09 10.63
8 0 -5 130.74 10.39
8 0 -5 128.27 10.68
8 0 -5 128.65 10.51
8 0 -5 137.07 10.73
8 0 -5 147.29 10.7
8 0 -5 99.87 8.7
8 0 -5 109.16 9.71
8 0 -5 123.21 10.34
8 0 -4 173.87 12.53
8 0 -4 164.5 11.9
8 0 -4 175.91 12.76
8 0 -4 176.56 12.38
8 0 -4 186.75 12.79
8 0 -4 178.44 12.29
8 0 -4 157.75 11.25
8 0 -4 176.52 12.66
8 0 -3 1850.98 61.59
8 0 -3 1782.71 61.97
8 0 -3 1752.46 60.57
8 0 -3 1967.19 62.03
8 0 -3 1868.06 61.56
8 0 -3 2052.71 61.87
8 0 -3 1803.4 60.3
8 0 -2 3.88 1.95
8 0 -2 12.01 3.07
8 0 -2 6.14 2.27
8 0 -2 11.55 3.33
8 0 -2 9.77 2.66
8 0 -2 8.45 2.63
8 0 -2 9.2 2.9
8 0 -1 10.23 3.35
8 0 -1 5.79 2.28
8 0 -1 9.28 3.03
8 0 -1 12.56 3.02
8 0 -1 7.71 2.61
-8 0 1 8.95 2.53
8 0 -1 10.05 2.79
8 0 -1 7.36 2.6
8 0 0 29.64 5.22
8 0 0 24.08 4.59
8 0 0 27.78 5.37
8 0 0 24.08 4.38
8 0 0 24.76 4.5
-8 0 0 30.5 4.63
8 0 0 22.5 4.2
8 0 0 27.08 4.58
8 0 1 10.51 2.86
-8 0 -1 8.73 2.41
8 0 1 15.48 4.16
8 0 1 13.16 3.24
-8 0 -1 8.58 2.6
8 0 1 11.88 3.26
8 0 1 8.19 2.34
8 0 2 42.87 6.5
-8 0 -2 36.57 5.41
8 0 2 37.18 6.02
8 0 2 38.15 5.77
-8 0 -2 43.2 5.88
8 0 2 36.59 5.47
8 0 2 35.24 5.4
8 0 3 1047.21 40.33
-8 0 -3 893.89 36.28
8 0 3 964.07 38.12
8 0 3 913.73 36.22
-8 0 -3 984.97 37.32
8 0 3 947.53 37.15
8 0 4 49.01 7.23
-8 0 -4 48.05 6.25
8 0 4 51.83 6.96
-8 0 -4 45.69 6.19
8 0 4 35.78 5.45
8 0 4 40.8 6.15
8 0 5 209.49 15.25
-8 0 -5 179.75 12.72
8 0 5 197.06 14.28
8 0 5 198.88 13.69
-8 0 -5 187.02 13.07
8 0 5 215.12 14.69
-8 0 -6 213.58 13.6
8 0 6 221.57 14.84
8 0 6 242.93 14.99
-8 0 -6 238.49 14.41
8 0 6 272.42 16.6
8 0 6 214.11 15.11
-8 0 -7 17.47 3.39
-8 0 -7 11.29 2.52
-8 0 -7 17.98 3.46
8 0 7 24.06 4.57
-8 0 -8 10.01 2.58
-8 0 -8 11.98 2.48
-8 0 -8 15.69 3.14
8 0 8 18.1 3.82
-8 0 -9 1.28 0.91
-8 0 -9 0.98 0.94
-8 0 -9 2.47 0.95
8 0 9 0.43 1.13
-8 0 -10 -0.02 0.83
-8 0 -10 1.54 1.11
8 0 10 -0.01 0.8
-8 0 -11 -0.1 0.52
-8 0 -11 0.71 0.9
8 1 -13 5.35 1.42
8 1 -13 3.8 1.2
8 1 -13 2.97 1.04
8 1 -13 5.17 1.4
8 1 -12 21.26 3.03
8 1 -12 21.79 3.06
8 1 -12 22.15 3.27
8 1 -12 21.32 2.91
8 1 -12 25.56 3.38
8 1 -12 23.7 3.32
8 1 -11 92.91 7.06
8 1 -11 98.97 7.41
8 1 -11 93.04 7.49
8 1 -11 99.14 7.53
8 1 -11 98 7.58
8 1 -11 95.03 7.46
8 1 -10 47.13 5.27
8 1 -10 49.78 5.3
8 1 -10 48.74 5.37
8 1 -10 46.45 5.51
8 1 -10 61.81 6.12
8 1 -10 44.08 5.28
8 1 -10 47.73 5.53
8 1 -9 78.13 7.31
8 1 -9 73.06 6.85
8 1 -9 83.02 7.45
8 1 -9 86.31 7.91
8 1 -9 93.16 7.99
8 1 -9 86.92 7.8
8 1 -9 84.72 7.82
8 1 -8 29.68 4.55
8 1 -8 33.14 4.64
8 1 -8 32.46 4.75
8 1 -8 32.5 5.07
8 1 -8 22.45 3.8
8 1 -8 32.47 4.72
8 1 -8 33.02 5
8 1 -8 30.48 4.75
8 1 -7 109.25 9.3
8 1 -7 98.51 8.34
8 1 -7 110.02 9.18
8 1 -7 107.39 9.47
8 1 -7 102.15 8.65
8 1 -7 115.25 9.4
8 1 -7 103.6 9.07
8 1 -7 92.49 8.65
8 1 -6 20.12 3.97
8 1 -6 11.86 3.12
8 1 -6 13.56 3.51
8 1 -6 13.6 3.47
8 1 -6 16.19 3.19
8 1 -6 14.27 3.06
8 1 -6 16.38 3.33
8 1 -6 16.41 3.71
8 1 -5 203.66 13.6
8 1 -5 191.53 12.91
8 1 -5 189.9 13.55
8 1 -5 199.39 13.13
8 1 -5 210.45 13.51
8 1 -5 194.88 12.54
8 1 -5 184.61 12.08
8 1 -5 185.43 12.93
8 1 -4 47.25 6.24
8 1 -4 46.64 6.17
8 1 -4 56.06 7.09
8 1 -4 54.73 6.65
8 1 -4 53.23 6.65
8 1 -4 53.3 6.25
8 1 -4 41.76 5.61
8 1 -3 125.52 10.48
8 1 -3 118.38 10.72
8 1 -3 121.88 10.08
8 1 -3 118.7 9.98
8 1 -3 114.62 9.79
-8 1 3 120.02 8.99
8 1 -3 129.9 10.06
8 1 -3 110.11 9.41
8 1 -2 82.95 8.47
8 1 -2 83.38 8.92
8 1 -2 74.69 7.72
8 1 -2 90.64 8.37
8 1 -2 77.54 8.01
-8 1 2 81.74 7.42
8 1 -2 90.45 8.07
8 1 -2 79.47 7.86
8 1 -1 64.99 7.62
8 1 -1 63.15 7.91
8 1 -1 63.49 7.24
8 1 -1 67.85 7.32
8 1 -1 61.92 7.11
-8 1 1 62.64 6.55
8 1 -1 69.46 7.12
8 1 -1 61.95 7.01
8 1 0 924.04 35.99
8 1 0 864.02 36.19
8 1 0 866.77 33.97
8 1 0 766.08 32.83
-8 1 0 918.89 33.48
8 1 0 839.62 32.61
8 1 0 850.38 33.6
8 1 1 23.3 4.8
-8 1 -1 28.07 4.9
8 1 1 27.89 4.73
-8 1 -1 19.36 3.69
-8 1 -1 25 4.18
8 1 1 22.86 4.13
8 1 1 21.37 4.36
8 1 2 403.75 21.9
-8 1 -2 390.54 20.41
8 1 2 368.49 20.09
-8 1 -2 359.12 18.39
-8 1 -2 403.77 19.7
8 1 2 360.02 18.83
8 1 2 377.07 19.81
8 1 3 99.1 10.15
-8 1 -3 102.6 9.47
8 1 3 97.47 9.63
-8 1 -3 91.93 8.27
-8 1 -3 97.81 9.03
8 1 3 98.13 9.08
8 1 3 95.32 9.34
8 1 4 474.16 24.63
-8 1 -4 468.86 23
8 1 4 504.5 24.28
-8 1 -4 435.17 21.18
8 1 4 453.19 22.49
-8 1 -4 473.74 22.45
8 1 4 504.17 24.22
8 1 5 40.18 6.23
-8 1 -5 37.17 5.67
8 1 5 39.22 5.96
-8 1 -5 36.18 5.14
-8 1 -5 39.03 5.59
8 1 5 41.88 5.91
8 1 5 46.74 6.68
-8 1 -6 0.82 1.29
-8 1 -6 3.05 1.72
-8 1 -6 1.66 1.93
8 1 6 1.73 1.28
8 1 6 0.16 1.15
-8 1 -7 153.6 10.98
-8 1 -7 138.99 9.89
-8 1 -7 169.51 11.46
-8 1 -8 128.21 9.38
-8 1 -8 114.35 8.47
-8 1 -8 144.49 9.84
8 1 8 162.18 11.5
-8 1 -9 77.63 6.58
-8 1 -9 75.86 6.21
-8 1 -9 75.66 6.52
8 1 9 89.03 7.68
-8 1 -10 41.73 4.29
-8 1 -10 39.76 3.91
-8 1 -10 38.56 4.17
-8 1 -11 15.02 2.18
-8 1 -11 14.57 2.16
8 2 -13 2.55 0.99
8 2 -12 10.27 2.05
8 2 -12 9.68 1.97
8 2 -12 11.81 2.32
8 2 -12 7.61 1.76
8 2 -12 9.31 1.93
8 2 -12 9.14 2.01
8 2 -11 21 3.12
8 2 -11 27.75 3.58
8 2 -11 29.5 3.81
8 2 -11 29.38 4
8 2 -11 26.17 3.63
8 2 -11 29.92 3.84
8 2 -11 22.84 3.43
8 2 -10 7.57 2.13
8 2 -10 6.41 1.78
8 2 -10 6.44 2.06
8 2 -10 10.37 2.55
8 2 -10 11.22 2.58
8 2 -10 6.27 1.94
8 2 -10 3.52 1.31
8 2 -9 1.57 1.01
8 2 -9 4.42 1.8
8 2 -9 7.29 2.14
8 2 -9 6.42 2.49
8 2 -9 7.59 2.16
8 2 -9 6.44 2.12
8 2 -9 5.92 2.03
8 2 -9 3.34 1.87
8 2 -8 309.62 16.44
8 2 -8 293.65 15.44
8 2 -8 338.91 16.69
8 2 -8 332.3 17.56
8 2 -8 307.36 15.64
8 2 -8 364.88 17.2
8 2 -8 271.54 14.38
8 2 -8 303.57 16.24
8 2 -8 323.97 16.69
8 2 -7 183.05 12.31
8 2 -7 187.75 12.15
8 2 -7 182.9 12.84
8 2 -7 180.01 11.66
8 2 -7 202.28 12.37
8 2 -7 163.94 10.59
8 2 -7 158.74 10.6
8 2 -7 162.53 11.47
8 2 -6 12.93 3.4
8 2 -6 15.39 3.31
8 2 -6 11.06 3.29
8 2 -6 13.36 3.1
8 2 -6 11.97 2.95
8 2 -6 6.5 1.9
8 2 -6 12.51 2.72
8 2 -5 79.71 8.1
8 2 -5 91.2 8.56
8 2 -5 86.5 8.88
8 2 -5 92.15 8.38
8 2 -5 101.23 8.89
8 2 -5 77.14 7.53
8 2 -5 71.99 7.32
8 2 -4 38.5 5.64
8 2 -4 37.12 5.5
8 2 -4 47.58 6.73
8 2 -4 41.53 5.63
8 2 -4 34.81 5.33
8 2 -4 43.6 5.62
8 2 -4 38.45 5.36
8 2 -3 198.48 13.54
8 2 -3 188.65 13.69
8 2 -3 183.57 12.81
8 2 -3 181.59 12.35
8 2 -3 185.59 12.71
8 2 -3 198.16 12.33
8 2 -3 177.26 12.46
8 2 -2 197.82 13.8
8 2 -2 187.19 13.99
8 2 -2 177.52 12.72
8 2 -2 200.82 13.01
8 2 -2 166.54 12.15
-8 2 2 190.76 11.83
8 2 -2 195.23 12.35
8 2 -2 183.24 12.7
8 2 -1 124.43 10.86
8 2 -1 118.4 9.76
8 2 -1 94.06 8.86
-8 2 1 110.75 8.85
8 2 -1 111.04 8.97
8 2 -1 110.52 9.55
8 2 0 190.85 13.85
8 2 0 163.2 11.96
-8 2 0 168.35 11.39
8 2 0 168.84 11.45
8 2 0 162.14 12
8 2 1 293.34 18.17
8 2 1 266.51 16.31
-8 2 -1 279.51 15.57
8 2 1 272.69 15.39
8 2 1 280.26 16.4
8 2 2 10.02 3.55
-8 2 -2 8.4 2.84
8 2 2 3.02 1.59
-8 2 -2 7.61 2.59
-8 2 -2 6.98 2.44
8 2 2 4.75 1.8
8 2 2 5.28 2.07
8 2 3 677.69 30.98
-8 2 -3 675.35 29.28
8 2 3 671.27 29.88
-8 2 -3 663.61 27.81
-8 2 -3 689.65 28.33
8 2 3 641.94 27.8
8 2 3 696.5 30.5
-8 2 -4 242.01 15.37
8 2 4 240.69 15.82
-8 2 -4 243.67 14.65
-8 2 -4 248.65 14.89
8 2 4 226.38 14.86
8 2 4 272.33 17.09
-8 2 -5 26.01 4.62
-8 2 -5 26.52 4.62
-8 2 -5 25.55 4.57
8 2 5 23.69 4.54
8 2 5 29.86 5.42
-8 2 -6 243.2 14.68
-8 2 -6 204.58 12.1
-8 2 -6 255.64 14.51
-8 2 -6 233.42 13.85
-8 2 -6 259.66 14.89
-8 2 -7 323.68 16.7
-8 2 -7 286.07 14.54
-8 2 -7 339.76 16.64
-8 2 -7 305.74 15.8
-8 2 -7 356.05 17.31
-8 2 -8 295.68 14.78
-8 2 -8 237.76 12.55
-8 2 -8 296.44 14.5
-8 2 -8 255.05 13.32
-8 2 -8 309.48 15.24
8 2 8 344.82 16.84
-8 2 -9 62.79 5.75
-8 2 -9 54.29 4.74
-8 2 -9 69.77 5.81
-8 2 -9 55.95 4.91
-8 2 -9 70.16 6.08
-8 2 -10 130.95 7.87
-8 2 -10 131.2 7.76
-8 2 -10 137.06 7.97
8 3 -12 35.18 3.36
8 3 -12 39.38 3.82
8 3 -12 35.98 3.86
8 3 -12 34.33 3.53
8 3 -11 66.21 5.63
8 3 -11 66.33 5.36
8 3 -11 75.88 6.01
8 3 -11 75.15 6.26
8 3 -11 76.23 6.07
8 3 -10 123.56 8.58
8 3 -10 117.38 7.95
8 3 -10 118.88 8.29
8 3 -10 135.77 9.3
8 3 -10 106.82 7.36
8 3 -10 133.2 8.77
8 3 -9 6.2 2.14
8 3 -9 6.17 1.83
8 3 -9 8.98 2.55
8 3 -9 9.04 2.54
8 3 -9 9.61 2.27
8 3 -9 11.34 2.64
8 3 -9 6.82 1.84
8 3 -8 4.58 1.77
8 3 -8 4.8 1.98
8 3 -8 2.73 1.38
8 3 -8 3.75 1.55
8 3 -8 5.42 2
8 3 -8 3.28 1.54
8 3 -7 56.79 6.51
8 3 -7 58.55 6.54
8 3 -7 63.54 7.18
8 3 -7 55.33 6
8 3 -7 54.77 6.13
8 3 -7 45.64 5.14
8 3 -7 52.59 5.83
8 3 -6 121.26 9.85
8 3 -6 113.05 9.4
8 3 -6 109.36 9.83
8 3 -6 117.57 9.2
8 3 -6 109.3 9.16
8 3 -6 94.64 7.92
8 3 -6 111.36 8.95
8 3 -5 77.81 8.03
8 3 -5 65.98 7.19
8 3 -5 71.4 7.91
8 3 -5 67.65 7.06
8 3 -5 69.38 7.35
8 3 -5 62.95 6.47
8 3 -5 73.57 7.37
8 3 -4 40.72 5.85
8 3 -4 41.17 5.49
8 3 -4 38.75 5.8
8 3 -4 35.1 5.03
8 3 -4 33.6 5.2
8 3 -4 38.15 5.05
8 3 -4 44.6 5.72
8 3 -3 222.13 14.62
8 3 -3 181.42 13.24
8 3 -3 185.37 12.71
8 3 -3 194.92 12.83
8 3 -3 195.85 12.98
8 3 -3 203.26 12.36
8 3 -3 205.07 13.33
8 3 -2 70.37 8.2
8 3 -2 76.32 7.8
8 3 -2 66.88 7.37
8 3 -2 78.95 7.52
8 3 -2 83.36 8.06
8 3 -1 333.56 19.39
8 3 -1 324.45 17.86
8 3 -1 282.11 16.54
-8 3 1 329.31 16.49
8 3 -1 318.29 16.6
8 3 -1 342.93 18.11
8 3 0 162.84 13.05
8 3 0 139.86 11.3
-8 3 0 153.06 10.58
8 3 0 138.63 10.39
8 3 0 146.75 11.44
8 3 1 170.23 13.62
8 3 1 187.25 13.1
-8 3 -1 174.64 11.66
8 3 1 148.7 11.11
8 3 1 176.28 12.99
8 3 2 31.74 5.54
-8 3 -2 35.05 5.56
8 3 2 32.76 5.29
-8 3 -2 24.75 4.27
8 3 2 23.96 4.38
8 3 2 29.03 5.3
-8 3 -3 68.47 7.64
-8 3 -3 60.17 6.28
8 3 3 58 7.51
-8 3 -3 69.19 7.31
-8 3 -3 66.08 7.04
8 3 3 56.73 6.71
8 3 3 67.52 8.25
-8 3 -4 22.09 4.22
-8 3 -4 18.19 3.35
-8 3 -4 17.18 3.62
-8 3 -4 16.75 3.64
8 3 4 20.88 4.07
8 3 4 26.67 5.36
-8 3 -5 38.31 5.42
-8 3 -5 36.92 4.67
-8 3 -5 34.87 5.04
-8 3 -5 44.49 5.62
8 3 5 39.18 5.46
8 3 5 46.21 6.67
-8 3 -6 10.88 2.89
-8 3 -6 11.89 2.63
-8 3 -6 10.65 2.82
-8 3 -6 11.36 3.04
-8 3 -6 10.5 2.73
8 3 6 13.6 3.43
-8 3 -7 93.72 7.92
-8 3 -7 96.01 7.37
-8 3 -7 109.07 8.43
-8 3 -7 91.58 7.73
-8 3 -7 108.58 8.52
8 3 7 111.59 9.13
-8 3 -8 10.73 2.52
-8 3 -8 9.89 2.18
-8 3 -8 9.76 2.24
-8 3 -8 8.29 2.17
-8 3 -8 10.99 2.45
-8 3 -9 65.82 5.56
-8 3 -9 70.01 5.38
-8 3 -9 84.49 6.23
-8 3 -9 64.84 5.36
-8 3 -9 77.07 5.99
-8 3 -10 46.91 4.1
-8 3 -10 54.23 4.4
-8 3 -10 43.76 3.82
8 4 -11 1.23 0.8
8 4 -11 2.71 1.06
8 4 -11 2.36 1.09
8 4 -11 1.28 0.95
8 4 -10 45.64 4.77
8 4 -10 47.31 4.82
8 4 -10 44.95 4.92
8 4 -10 46.58 4.36
8 4 -10 44.52 4.66
8 4 -10 31.13 3.39
8 4 -9 144.37 9.65
8 4 -9 156.18 9.78
8 4 -9 143.87 9.95
8 4 -9 136.78 8.83
8 4 -9 153.76 9.54
8 4 -9 126.6 8.37
8 4 -8 41.68 5.14
8 4 -8 38.89 4.88
8 4 -8 38.54 5.26
8 4 -8 36.88 4.53
8 4 -8 37.39 4.7
8 4 -8 28.03 3.58
8 4 -7 -1.4 1.67
8 4 -7 0.17 1.07
8 4 -7 0.04 1.04
8 4 -7 0.34 0.93
8 4 -7 1.25 1.04
8 4 -7 0.14 0.81
8 4 -6 105.47 9.07
8 4 -6 100.85 8.65
8 4 -6 100.76 8.93
8 4 -6 97.7 8.4
8 4 -6 102.58 8.75
8 4 -6 92.63 7.53
8 4 -5 173.77 12.26
8 4 -5 157.29 11.17
8 4 -5 151.45 11.31
8 4 -5 165.04 11.38
8 4 -5 166.74 11.66
8 4 -5 161.65 10.54
8 4 -4 23.09 4.42
8 4 -4 17.34 3.46
8 4 -4 22.84 4.02
8 4 -4 14.39 3.44
8 4 -4 20.86 3.78
8 4 -4 18.82 3.86
8 4 -3 52.79 6.82
8 4 -3 50.02 6.19
8 4 -3 48.17 6.05
8 4 -3 53.13 5.94
8 4 -3 53.57 6.49
8 4 -2 106.32 9.8
8 4 -2 100.68 9.06
8 4 -2 94.3 8.51
8 4 -2 85.34 7.68
8 4 -2 96.82 9.07
8 4 -1 173.61 13.09
8 4 -1 156.59 11.67
-8 4 1 155.65 10.6
8 4 -1 154.68 10.82
8 4 -1 166.85 12.26
8 4 0 76.4 8.57
8 4 0 74.38 7.88
-8 4 0 77.13 7.23
8 4 0 68.44 7.02
8 4 0 77.18 8.21
8 4 1 4.71 2.51
-8 4 -1 4.25 2.08
8 4 1 5.14 2.28
-8 4 -1 8.6 2.54
8 4 1 2.24 1.49
8 4 1 4.34 2.02
-8 4 -2 21.48 4.08
8 4 2 17.52 4.03
-8 4 -2 14.48 3.28
8 4 2 16.2 3.53
8 4 2 17.94 4.07
-8 4 -3 663.12 27.93
-8 4 -3 665.78 25.89
-8 4 -3 660.38 27.43
-8 4 -3 668.03 27.2
8 4 3 731.51 30.7
-8 4 -4 1.25 1.3
-8 4 -4 6.29 1.95
-8 4 -4 5.73 1.84
-8 4 -4 6.02 1.97
8 4 4 1.06 1.37
8 4 4 4.21 1.92
-8 4 -5 46.36 5.81
-8 4 -5 47.27 5.17
-8 4 -5 46.1 5.73
-8 4 -5 42.26 5.41
8 4 5 54.65 6.74
-8 4 -6 39.44 4.82
-8 4 -6 41.75 5.12
-8 4 -6 42.47 4.83
-8 4 -6 42.93 5.14
-8 4 -6 48.5 5.59
-8 4 -6 51.72 5.66
8 4 6 41.01 5.41
-8 4 -7 70.67 6.48
-8 4 -7 76.77 6.31
-8 4 -7 83.94 6.95
-8 4 -7 73.29 6.56
-8 4 -7 73.35 6.56
-8 4 -8 124.53 8.06
-8 4 -8 128.6 7.9
-8 4 -8 126.55 8.09
-8 4 -8 122.71 8.01
-8 4 -8 124.58 8.09
-8 4 -9 211.11 10.21
-8 4 -9 217.47 9.97
-8 4 -9 232.31 10.51
-8 4 -9 213.8 10.07
-8 4 -9 187.34 9.44
8 5 -10 16.55 2.58
8 5 -10 16.49 2.54
8 5 -10 14.22 2.39
8 5 -10 10.89 1.94
8 5 -10 15.62 2.47
8 5 -10 10.55 1.83
8 5 -9 20.91 3.18
8 5 -9 21.3 3
8 5 -9 19.21 3.15
8 5 -9 19.78 2.88
8 5 -9 21.01 3.13
8 5 -9 20.33 2.94
8 5 -8 63.49 6.23
8 5 -8 64.59 5.97
8 5 -8 61.17 5.89
8 5 -8 66.14 5.96
8 5 -8 74.72 6.33
8 5 -8 52.25 4.75
8 5 -7 70.92 6.94
8 5 -7 69.78 6.52
8 5 -7 62.52 6.09
8 5 -7 76.08 6.66
8 5 -7 70.96 6.58
8 5 -7 65.35 5.73
8 5 -6 44.13 5.55
8 5 -6 50.91 5.59
8 5 -6 46.18 5.36
8 5 -6 46.7 5.52
8 5 -6 48.66 5.07
8 5 -5 53.08 6.29
8 5 -5 50.69 5.69
8 5 -5 57.39 6.14
8 5 -5 56.97 6.18
8 5 -5 52.17 5.56
8 5 -4 11.41 3.31
8 5 -4 14.06 3.19
8 5 -4 10.73 2.81
8 5 -4 14.15 2.96
8 5 -4 12.18 2.97
8 5 -3 104.59 9.22
8 5 -3 107.45 8.93
8 5 -3 101.91 8.68
8 5 -3 118.92 8.95
8 5 -3 111.29 9.2
8 5 -2 104.79 9.4
8 5 -2 121.59 9.62
8 5 -2 109.62 8.84
8 5 -2 123.74 9.81
8 5 -1 37.41 5.34
8 5 -1 46.28 5.8
-8 5 1 46.59 5.3
8 5 -1 43.11 5.34
8 5 -1 46.15 5.89
8 5 0 79.75 7.87
-8 5 0 80.08 7.11
8 5 0 69.7 7
8 5 0 90.18 8.55
-8 5 -1 227.18 13.93
8 5 1 205.8 13.26
-8 5 -1 226.97 12.9
8 5 1 200.53 12.48
8 5 1 219.37 14.37
-8 5 -2 25.71 4.44
-8 5 -2 31.33 4.75
-8 5 -2 24.82 4.21
8 5 2 23.8 4.01
8 5 2 31.13 5.12
-8 5 -3 57.44 6.41
-8 5 -3 52.18 5.64
-8 5 -3 51.15 5.98
-8 5 -3 57.18 6.09
8 5 3 50.12 5.93
8 5 3 56.43 6.8
-8 5 -4 275.43 15.31
-8 5 -4 286.73 14.41
-8 5 -4 307.08 15.59
-8 5 -4 292.23 15.01
8 5 4 273.13 15.41
-8 5 -5 33.95 4.53
-8 5 -5 35.71 4.36
-8 5 -5 34.57 4.46
-8 5 -5 28.43 4.14
-8 5 -6 30.26 4.06
-8 5 -6 31.21 4.21
-8 5 -6 38.51 4.31
-8 5 -6 38.23 4.53
-8 5 -6 29.52 4.11
-8 5 -6 33.39 4.22
-8 5 -7 33.84 3.78
-8 5 -7 39.98 4.37
-8 5 -7 46.76 4.48
-8 5 -7 47.78 4.67
-8 5 -7 41.16 4.52
-8 5 -7 40.64 4.24
-8 5 -8 26.81 3.12
-8 5 -8 32.24 3.36
-8 5 -8 24.13 3.04
-8 5 -8 28.32 3.24
8 6 -9 14.89 2.41
8 6 -9 12.37 2.1
8 6 -9 11.69 1.98
8 6 -9 13.43 2.14
8 6 -9 11.4 1.86
8 6 -8 129.03 8.13
8 6 -8 125.4 7.52
8 6 -8 129.58 7.66
8 6 -8 136.59 7.96
8 6 -8 124.84 7.55
8 6 -7 28.39 3.88
8 6 -7 27.32 3.46
8 6 -7 28.79 3.64
8 6 -7 27.41 3.63
8 6 -7 24.59 3.13
8 6 -7 30.49 3.87
8 6 -6 8.55 2.27
8 6 -6 4.89 1.57
8 6 -6 6.29 1.77
8 6 -6 8.35 2.12
8 6 -6 3.87 1.32
8 6 -6 9.55 2.35
8 6 -5 53.21 5.79
8 6 -5 54.21 5.66
8 6 -5 53.2 5.55
8 6 -5 48.69 5.07
8 6 -5 54.44 5.6
8 6 -4 31.23 4.29
8 6 -4 31.92 4.42
8 6 -4 31.14 4.23
8 6 -4 33.92 4.25
8 6 -4 32.83 4.41
8 6 -3 33.24 4.44
8 6 -3 42.99 5.12
8 6 -3 34.6 4.34
8 6 -3 44.14 4.95
8 6 -3 39.3 4.92
8 6 -2 83.13 7.26
8 6 -2 96.6 8.01
8 6 -2 108.15 8.1
8 6 -2 102.91 8.23
8 6 -1 192.56 11.94
-8 6 1 233.31 12.28
8 6 -1 220.24 12.29
8 6 -1 204.62 12.5
-8 6 0 6.09 2.15
8 6 0 6.32 2.09
-8 6 0 4.48 1.84
8 6 0 7.71 2.2
8 6 0 4.28 1.97
-8 6 -1 248.73 13.91
-8 6 -1 260.16 13.31
8 6 1 205.54 12.17
8 6 1 220.67 13.03
-8 6 -2 27.21 4.14
-8 6 -2 30.29 4.28
-8 6 -2 26.31 4.02
8 6 2 22.37 3.48
8 6 2 23.72 3.7
-8 6 -3 34.56 4.57
-8 6 -3 40.54 4.52
-8 6 -3 38.84 4.83
-8 6 -3 34.22 4.4
8 6 3 25.57 3.63
8 6 3 22.07 3.34
-8 6 -4 23.45 3.7
-8 6 -4 27.51 3.61
-8 6 -4 25.01 3.7
-8 6 -4 20.7 3.23
-8 6 -5 22.78 3.33
-8 6 -5 23.49 3.4
-8 6 -5 23.69 3.44
-8 6 -5 23.58 3.5
-8 6 -5 22.71 3.33
-8 6 -6 86.3 6.13
-8 6 -6 68.31 5.46
-8 6 -6 97.08 6.33
-8 6 -6 84.13 6.17
-8 6 -6 87.56 6.3
-8 6 -6 76.38 5.55
-8 6 -7 33.36 3.26
-8 6 -7 25.51 2.98
-8 6 -7 25.91 2.98
8 7 -7 40.34 3.79
8 7 -7 39.74 3.71
8 7 -7 43.83 3.94
8 7 -6 7.01 1.6
8 7 -6 6.6 1.63
8 7 -6 5.82 1.59
8 7 -6 5.61 1.31
8 7 -6 10.29 2.09
8 7 -5 9.17 2.01
8 7 -5 13.4 2.45
8 7 -5 10.82 2.02
8 7 -5 13 2.36
8 7 -5 8.24 1.88
8 7 -4 100.78 7.06
8 7 -4 97.57 6.77
8 7 -4 93.62 6.87
-8 7 3 6.7 1.92
8 7 -3 8.46 1.99
-8 7 3 12.88 2.41
8 7 -3 12.04 2.41
8 7 -3 8.08 1.92
-8 7 2 30.28 3.71
8 7 -2 25.72 3.45
-8 7 2 25.63 3.31
8 7 -2 29.65 3.73
8 7 -2 29.55 3.74
-8 7 1 122.77 7.94
8 7 -1 100.04 7
-8 7 1 123.05 7.91
8 7 -1 119.96 7.8
8 7 -1 121.9 7.93
-8 7 0 97.76 6.99
-8 7 0 95.29 6.94
8 7 0 94.93 6.72
8 7 0 88.93 6.56
-8 7 -1 65.37 5.52
-8 7 -1 76.35 6.23
-8 7 -1 70.04 5.78
8 7 1 63.74 5.23
8 7 1 50.97 4.67
-8 7 -2 69.04 5.62
-8 7 -2 99.75 6.61
-8 7 -2 93.3 6.77
-8 7 -2 86.12 6.36
8 7 2 69.21 5.29
-8 7 -3 9.64 1.84
-8 7 -3 15.57 2.52
-8 7 -3 15.26 2.57
-8 7 -3 15.7 2.5
-8 7 -4 37.39 3.64
-8 7 -4 36.83 3.88
-8 7 -4 39.5 4.05
-8 7 -5 32.41 3.38
-8 7 -5 39.96 3.55
-8 7 -5 36.14 3.49
-8 7 -5 40.06 3.71
-8 8 3 95.95 5.69
8 8 -3 102.55 5.97
-8 8 2 30.59 3.16
-8 8 2 27.55 2.87
8 8 -2 31.16 3.11
-8 8 1 96.9 5.94
-8 8 1 101.58 5.9
8 8 -1 93.64 5.67
-8 8 0 33.29 3.2
-8 8 0 28.05 2.98
-8 8 -1 54.62 4.15
9 -6 -6 4.33 1.23
9 -6 -5 11.88 2.15
9 -6 -4 48.12 4.6
9 -6 -3 55.46 5.03
9 -6 -2 108.8 7.27
9 -6 -2 83.98 5.77
9 -6 -1 55.45 5.04
9 -6 -1 47.15 4.31
9 -6 -1 46.18 4.36
9 -6 0 37.79 3.95
9 -6 0 34.33 3.83
9 -6 1 66.89 5.37
9 -6 1 66.7 5.44
9 -6 2 19.6 2.77
9 -6 2 21.11 2.92
9 -6 3 18.34 2.51
9 -6 4 18.89 2.35
9 -5 -7 91.25 6.09
9 -5 -7 96.45 6.56
9 -5 -6 75.32 5.98
9 -5 -6 85.59 6.54
-9 -5 5 3.06 0.97
9 -5 -5 4.89 1.65
9 -5 -5 5.6 1.65
9 -5 -4 41.5 4.8
9 -5 -4 42.53 4.94
9 -5 -3 139.45 9.19
9 -5 -3 158.2 9.9
9 -5 -3 126.24 8.3
9 -5 -3 128.61 8.33
9 -5 -2 9.27 2.38
9 -5 -2 6.64 1.78
9 -5 -2 12.71 2.56
9 -5 -2 10.9 2.64
9 -5 -2 12.2 2.45
9 -5 -1 38.33 4.75
9 -5 -1 35.85 4.53
9 -5 -1 36.08 4.45
9 -5 -1 37.87 4.62
9 -5 0 27.15 3.99
9 -5 0 29.68 4.17
9 -5 0 29.21 4.05
9 -5 0 28.03 3.96
9 -5 1 2.81 1.32
9 -5 1 5.22 1.78
9 -5 1 2.97 1.25
9 -5 1 1.58 0.89
9 -5 2 129.07 8.73
9 -5 2 129.5 8.74
9 -5 2 123.82 8.7
9 -5 3 32.26 3.93
9 -5 3 28.85 3.7
9 -5 4 3.82 1.35
9 -5 4 3.75 1.3
9 -5 4 2.43 0.82
9 -5 5 9.47 1.89
9 -5 5 9.01 1.88
-9 -4 9 27.07 3.22
9 -4 -9 29.73 3.18
-9 -4 8 57.22 4.99
9 -4 -8 56.39 4.82
9 -4 -8 54.33 4.85
9 -4 -8 60.35 5.11
9 -4 -8 55.55 5.17
-9 -4 7 27.17 3.49
9 -4 -7 34.94 4.33
9 -4 -7 25.95 3.68
9 -4 -7 33.09 4.02
9 -4 -7 29.88 4.03
-9 -4 6 46.85 4.79
9 -4 -6 49.5 4.94
9 -4 -6 49.24 5.41
9 -4 -6 53.08 5.42
9 -4 -6 52.37 5.45
9 -4 -5 99.73 8.04
9 -4 -5 113.55 8.4
9 -4 -5 114.49 8.6
9 -4 -4 36.58 4.83
9 -4 -4 40.76 4.87
9 -4 -4 42.47 5.25
9 -4 -4 38.86 4.6
9 -4 -4 38.08 4.74
9 -4 -3 58.47 6.3
9 -4 -3 60.79 6.27
9 -4 -3 66.83 6.76
9 -4 -3 59.35 6.12
9 -4 -3 71.3 6.59
9 -4 -3 69.16 6.75
9 -4 -2 4.08 2.12
9 -4 -2 0.53 1.12
9 -4 -2 0.67 0.74
9 -4 -2 0.91 1.39
9 -4 -2 2.04 1.36
9 -4 -1 60.13 6.37
9 -4 -1 69.92 6.86
9 -4 -1 66.37 6.83
9 -4 -1 71.67 6.96
9 -4 -1 74.15 7.3
9 -4 0 20.29 3.7
9 -4 0 25.45 4.15
9 -4 0 20.15 3.7
9 -4 0 17.38 3.3
9 -4 0 22.37 3.89
9 -4 1 32.52 4.71
9 -4 1 38.14 5
9 -4 1 50.62 5.69
9 -4 1 35.11 4.91
9 -4 2 77.16 6.9
9 -4 2 95.59 7.85
9 -4 2 98.93 7.91
9 -4 2 78.4 6.7
9 -4 2 100.83 8.31
9 -4 3 44.7 5.16
9 -4 3 38.49 4.71
9 -4 3 45.57 4.85
9 -4 3 44.29 5.27
9 -4 4 24.78 3.7
9 -4 4 26.1 3.83
9 -4 4 25.51 3.61
9 -4 4 21.61 3.22
9 -4 5 63.25 5.69
9 -4 5 59.66 5.5
9 -4 5 59 5.23
9 -4 6 5.14 1.51
9 -4 6 4.01 1.2
9 -4 6 4.74 1.35
9 -4 7 44.92 3.87
-9 -3 10 4.75 1.46
9 -3 -10 3.24 1.06
-9 -3 9 325.94 14.11
9 -3 -9 289.92 13.19
9 -3 -9 285.19 13.47
9 -3 -9 302.72 13.64
9 -3 -9 331.2 14.3
-9 -3 8 223.19 11.81
9 -3 -8 214.3 11.33
9 -3 -8 210.49 11.87
9 -3 -8 237.28 12.21
9 -3 -8 236.04 12.47
-9 -3 7 6.68 1.97
9 -3 -7 6.25 1.74
9 -3 -7 7.71 2.22
9 -3 -7 11.44 2.7
9 -3 -7 8.39 2.25
-9 -3 6 101.09 7.65
9 -3 -6 88.12 7.17
9 -3 -6 101.31 8.39
9 -3 -6 108.19 8.37
9 -3 -6 102.58 8.35
9 -3 -5 64.51 6.38
9 -3 -5 53.12 5.53
9 -3 -5 67.1 6.86
9 -3 -5 66.93 6.67
9 -3 -5 69.95 7
9 -3 -5 65.49 6.29
9 -3 -4 91.28 8.03
9 -3 -4 75.12 6.62
9 -3 -4 85.57 7.77
9 -3 -4 79.36 7.45
9 -3 -4 87.53 7.86
9 -3 -4 84.22 7.6
9 -3 -4 85.17 7.38
9 -3 -3 85.57 7.97
9 -3 -3 75.55 7.39
9 -3 -3 87.94 7.94
9 -3 -3 84.8 7.77
9 -3 -3 81.92 7.69
9 -3 -3 90.7 7.86
9 -3 -2 117.44 9.6
9 -3 -2 108.61 9.13
9 -3 -2 111.54 9.05
9 -3 -2 118.52 9.53
9 -3 -2 124.41 9.69
9 -3 -2 115.37 9.24
9 -3 -1 19.63 3.79
9 -3 -1 25.97 4.17
9 -3 -1 32.3 4.9
9 -3 -1 28.51 4.46
9 -3 -1 24.88 4.32
9 -3 -1 22.91 3.99
9 -3 0 79.45 7.79
9 -3 0 82.38 7.83
9 -3 0 71.25 7.24
9 -3 0 82.79 7.79
9 -3 0 83.57 7.8
9 -3 0 68.87 6.62
9 -3 1 77.53 7.67
9 -3 1 72.27 7.25
9 -3 1 71.33 7.11
9 -3 1 80.74 7.65
9 -3 1 81.93 7.57
9 -3 1 74.27 6.98
9 -3 2 307.6 16.33
9 -3 2 354.37 17.38
9 -3 2 349.32 17.11
9 -3 2 329.38 16.54
9 -3 2 340.2 17.5
9 -3 3 1.12 1.2
9 -3 3 0.92 1.31
9 -3 3 3.5 1.81
9 -3 3 2.37 1.53
9 -3 4 68.12 6.7
9 -3 4 60.41 6.09
9 -3 4 56.2 5.9
9 -3 4 59.14 6.44
-9 -3 -5 54.28 5.1
9 -3 5 70.25 6.55
9 -3 5 69.75 6.37
9 -3 5 66.29 6.04
9 -3 5 78.3 7.14
-9 -3 -6 -0.57 0.78
9 -3 6 -0.28 1.02
9 -3 6 0.39 1.28
9 -3 6 0.88 0.7
-9 -3 -7 37.85 3.72
9 -3 7 36.88 3.83
9 -3 7 37 3.79
9 -3 7 44.43 4.37
9 -3 8 32.46 3.34
9 -2 -11 1.44 0.82
9 -2 -11 0.62 0.8
9 -2 -10 76.88 5.67
9 -2 -10 75.35 5.83
9 -2 -10 74.43 5.65
9 -2 -10 79.59 5.89
9 -2 -10 80.59 5.95
9 -2 -9 47.03 4.63
9 -2 -9 38.68 4.49
9 -2 -9 43.6 4.64
9 -2 -9 47.09 4.91
9 -2 -9 41.83 4.58
9 -2 -8 14.08 2.79
9 -2 -8 19.35 3.12
9 -2 -8 13.54 2.79
9 -2 -8 17.56 3.38
9 -2 -8 14.88 2.95
9 -2 -7 105.07 7.98
9 -2 -7 103.22 7.86
9 -2 -7 117.46 8.94
9 -2 -7 119.09 8.83
9 -2 -7 127 9.11
9 -2 -7 108.06 8.3
9 -2 -6 84.73 7.59
9 -2 -6 87.94 7.22
9 -2 -6 89.89 8.05
9 -2 -6 95.83 7.98
9 -2 -6 87.54 7.33
9 -2 -6 96.25 8.27
9 -2 -6 84.86 7.57
9 -2 -5 87.91 8.02
9 -2 -5 80.06 6.99
9 -2 -5 87 7.92
9 -2 -5 97.92 8.19
9 -2 -5 90.87 7.87
9 -2 -5 93.71 8.14
9 -2 -5 91.36 7.58
9 -2 -4 12.07 3.08
9 -2 -4 9.54 2.54
9 -2 -4 8.83 2.69
9 -2 -4 5.64 2.07
9 -2 -4 9.02 2.61
9 -2 -4 10.49 2.38
9 -2 -3 19.22 3.7
9 -2 -3 21.03 3.78
9 -2 -3 25.56 4.43
9 -2 -3 18.53 3.63
9 -2 -3 24.65 4.4
9 -2 -3 24.16 4.28
9 -2 -2 107.94 9.27
9 -2 -2 105.03 9.2
9 -2 -2 104.55 8.84
9 -2 -2 103.16 9.01
9 -2 -2 105.92 9.18
9 -2 -2 115.18 9.29
9 -2 -1 403.49 20.1
9 -2 -1 401.98 20.23
9 -2 -1 394.67 19.49
9 -2 -1 377.11 19.31
9 -2 -1 407.57 19.93
9 -2 -1 436.34 20.4
9 -2 -1 392.43 18.9
9 -2 0 163.28 11.77
9 -2 0 174.92 12.37
9 -2 0 163.88 11.45
9 -2 0 156.45 11.21
9 -2 0 177.65 11.97
9 -2 0 179.47 11.92
9 -2 0 167.27 11.34
9 -2 1 42.31 5.57
9 -2 1 36.02 5.08
9 -2 1 39.86 5.29
9 -2 1 41.01 5.29
9 -2 1 49.22 5.87
9 -2 1 33.75 4.88
9 -2 2 116.73 9.64
9 -2 2 98 8.61
9 -2 2 106.42 8.92
9 -2 2 108.42 8.87
9 -2 2 105.74 8.7
9 -2 3 110.79 9.09
9 -2 3 102.63 8.62
9 -2 3 110.79 8.8
9 -2 3 112.52 9.53
9 -2 4 23.46 4.21
9 -2 4 21.88 3.9
9 -2 4 25.67 3.99
9 -2 4 21.53 3.8
9 -2 5 176.61 11.55
9 -2 5 171.07 10.87
-9 -2 -5 142.67 9.46
9 -2 5 166.04 10.61
9 -2 5 194.41 12.43
9 -2 6 1.84 1.11
9 -2 6 1.35 1.04
-9 -2 -6 2.87 1.01
9 -2 6 1.06 1.18
9 -2 6 1.03 0.74
9 -2 7 40.72 4.36
9 -2 7 46.22 4.57
-9 -2 -7 38.44 4.02
9 -2 7 48.85 4.87
-9 -2 -8 11.01 2
-9 -2 -8 11.82 1.95
9 -2 8 16.31 2.54
9 -1 -11 77.32 5.26
9 -1 -11 74.75 5.38
9 -1 -11 68.28 5
9 -1 -11 73.69 5.3
9 -1 -10 52.4 4.69
9 -1 -10 51.39 4.96
9 -1 -10 51.9 4.85
9 -1 -10 61.9 5.34
9 -1 -10 57.32 5.09
9 -1 -9 51.61 5.03
9 -1 -9 60.25 5.76
9 -1 -9 58.58 5.52
9 -1 -9 62.49 5.86
9 -1 -9 53.77 5.3
9 -1 -8 78.08 6.66
9 -1 -8 92.26 7.15
9 -1 -8 89.63 7.56
9 -1 -8 86.48 7.3
9 -1 -8 105.54 8.06
9 -1 -8 83.99 7.13
9 -1 -7 38.09 4.81
9 -1 -7 34.01 4.34
9 -1 -7 33.79 4.79
9 -1 -7 41.57 5.14
9 -1 -7 34.4 4.38
9 -1 -7 37.78 5.02
9 -1 -7 37.57 4.86
9 -1 -6 2.76 1.55
9 -1 -6 2.51 1.25
9 -1 -6 3.13 1.69
9 -1 -6 4.35 2.12
9 -1 -6 2.54 1.09
9 -1 -6 4.12 1.83
9 -1 -6 3.92 1.82
9 -1 -5 1.78 1.41
9 -1 -5 5.04 1.95
9 -1 -5 0.38 1.53
9 -1 -5 4.16 1.73
9 -1 -5 5.82 2.26
9 -1 -5 8.34 2.42
9 -1 -5 1.23 1.41
9 -1 -4 179.57 12.23
9 -1 -4 179.64 12.37
9 -1 -4 179.15 11.95
9 -1 -4 197.55 12.59
9 -1 -4 179.6 12.22
9 -1 -4 183.06 11.9
9 -1 -3 92.69 8.54
9 -1 -3 85.68 8.31
9 -1 -3 92.53 8.31
9 -1 -3 93.02 8.54
9 -1 -3 91.38 8.29
9 -1 -3 98.78 8.59
9 -1 -3 80.3 7.41
9 -1 -2 35.36 5.23
9 -1 -2 30.53 4.68
9 -1 -2 33.29 5.26
9 -1 -2 39.77 5.45
9 -1 -2 31.82 4.96
9 -1 -2 33.41 4.87
9 -1 -2 33.81 4.84
9 -1 -1 50.09 6.28
9 -1 -1 45.29 6.04
9 -1 -1 43.7 5.79
9 -1 -1 50.31 6.03
9 -1 -1 49.73 6.06
9 -1 -1 53.84 6.29
9 -1 -1 46.54 5.74
9 -1 0 182.13 12.41
9 -1 0 175.68 12.64
9 -1 0 166.63 11.76
9 -1 0 162.89 11.51
9 -1 0 159.38 11.41
9 -1 0 171.54 11.66
9 -1 0 164.39 11.47
9 -1 1 10.38 2.93
9 -1 1 9.28 2.75
9 -1 1 11.61 3.09
9 -1 1 9.95 2.68
9 -1 1 7.47 2.35
9 -1 1 11.21 2.83
9 -1 2 289.08 16.6
9 -1 2 286.84 15.93
9 -1 2 297.68 15.77
-9 -1 -2 251.41 14.51
9 -1 2 276.42 15.37
9 -1 3 62.97 7.23
9 -1 3 50.07 6.11
9 -1 3 56.24 6.14
-9 -1 -3 54.37 6.05
9 -1 3 54.32 6.22
9 -1 4 52.4 6.25
9 -1 4 50.95 5.84
-9 -1 -4 44.72 5.5
9 -1 4 45.64 5.55
9 -1 4 52.7 6.67
9 -1 5 277.28 15.48
9 -1 5 272.17 14.71
-9 -1 -5 248.44 13.78
9 -1 5 275.52 14.88
9 -1 5 306.29 16.7
9 -1 6 25.56 4.3
9 -1 6 26.84 4.1
-9 -1 -6 18.68 3.17
9 -1 6 27.18 4.06
9 -1 6 19.29 3.32
-9 -1 -7 21.07 3.2
9 -1 7 24.51 3.75
-9 -1 -8 12.78 2.29
9 -1 8 19.27 3.04
-9 -1 -9 7.17 1.51
-9 -1 -9 9.62 1.69
9 -1 9 8.43 1.71
9 0 -11 9.52 1.7
9 0 -11 9.73 1.87
9 0 -11 10.85 2.08
9 0 -11 7.9 1.73
9 0 -11 9.64 1.82
9 0 -10 125.02 7.64
9 0 -10 127.29 8.22
9 0 -10 130.76 8.07
9 0 -10 130.13 8.23
9 0 -10 117.81 7.74
9 0 -9 92.4 6.99
9 0 -9 98.69 7.17
9 0 -9 112.49 8.15
9 0 -9 119.75 8.1
9 0 -9 116.76 8.17
9 0 -9 104.82 7.67
9 0 -8 65.17 6.15
9 0 -8 61.1 5.76
9 0 -8 75.5 6.91
9 0 -8 67.13 6.3
9 0 -8 75.15 6.73
9 0 -8 64.09 6.09
9 0 -7 6.19 1.98
9 0 -7 6.24 1.95
9 0 -7 6.05 2.28
9 0 -7 7.47 2.27
9 0 -7 4.66 1.79
9 0 -7 4.75 1.88
9 0 -6 60.81 6.62
9 0 -6 70.45 7.2
9 0 -6 72.07 7
9 0 -6 69.22 6.87
9 0 -6 73.37 7.05
9 0 -6 67.36 6.38
9 0 -5 143.72 10.62
9 0 -5 139.65 10.71
9 0 -5 140.47 10.28
9 0 -5 144.91 10.53
9 0 -5 143.83 10.5
9 0 -5 139.16 10
9 0 -4 171.24 11.96
9 0 -4 169.51 12.08
9 0 -4 167.19 11.53
9 0 -4 175.35 11.82
9 0 -4 181.83 12.16
9 0 -4 172.8 11.48
9 0 -4 147.94 10.37
9 0 -3 58.47 6.67
9 0 -3 53.1 6.69
9 0 -3 49.34 6.14
9 0 -3 60.62 6.66
9 0 -3 53.28 6.26
9 0 -3 61.3 6.54
9 0 -3 56.35 6.18
9 0 -2 0.61 1.19
-9 0 2 0.63 0.78
9 0 -2 1.24 1.72
9 0 -2 0.19 1.36
9 0 -2 2.25 1.72
9 0 -2 2.73 1.76
9 0 -2 2.92 1.73
9 0 -2 3.19 1.84
9 0 -1 20.49 3.99
-9 0 1 21.39 3.87
9 0 -1 18.2 3.8
9 0 -1 20.02 4.2
9 0 -1 22.28 4.28
9 0 -1 19.44 3.88
9 0 -1 18.91 3.69
9 0 -1 13.36 3.16
9 0 0 37 5.51
-9 0 0 30.64 4.67
9 0 0 30.84 4.81
9 0 0 32.18 5.3
9 0 0 34.31 5.04
9 0 0 29.64 4.56
-9 0 0 34.33 4.73
9 0 0 34.86 4.89
9 0 0 28.39 4.55
9 0 1 0.2 1.21
-9 0 -1 -0.88 1.75
9 0 1 1.66 1.46
9 0 1 0.99 1.37
-9 0 -1 1.15 1.23
9 0 1 -0.6 1.17
9 0 1 0.98 1.34
9 0 2 136.16 11
-9 0 -2 116.26 9.38
9 0 2 135.88 10.47
9 0 2 136.49 10.15
-9 0 -2 133.66 9.93
9 0 2 131.15 10.03
9 0 3 7.99 2.8
-9 0 -3 9.72 2.58
9 0 3 7.89 2.57
-9 0 -3 7.62 2.7
9 0 3 8.65 2.27
9 0 3 7.35 2.6
9 0 4 2.75 1.38
-9 0 -4 4.52 1.6
9 0 4 3.75 1.33
-9 0 -4 3.84 1.8
9 0 4 3.01 1.68
9 0 4 1.48 1.77
-9 0 -5 45.43 5.12
9 0 5 52.4 6.13
9 0 5 50.39 5.77
-9 0 -5 47.78 5.48
9 0 5 48.74 5.82
9 0 5 50.39 6.21
9 0 6 1.51 1.58
-9 0 -6 0.02 0.57
-9 0 -6 -0.86 1.28
9 0 6 0.58 0.79
9 0 6 2.23 1.26
-9 0 -7 42.35 4.36
-9 0 -7 44.85 4.79
9 0 7 54.72 5.8
-9 0 -8 71.57 5.58
9 0 8 85.14 6.72
-9 0 -9 11.47 1.96
9 1 -11 75.76 5.61
9 1 -11 74.9 5.4
9 1 -11 71.93 5.27
9 1 -10 47.35 4.34
9 1 -10 51.87 4.56
9 1 -10 57.27 5.29
9 1 -10 59.07 5.15
9 1 -10 59.58 5.16
9 1 -10 45.34 4.4
9 1 -9 53.83 5.2
9 1 -9 50.69 4.79
9 1 -9 59.42 5.54
9 1 -9 59.72 5.85
9 1 -9 63.64 5.74
9 1 -9 50.52 4.99
9 1 -8 87.76 7.34
9 1 -8 90.59 7.39
9 1 -8 93.12 7.85
9 1 -8 87.77 6.91
9 1 -8 99.86 7.7
9 1 -7 35.14 4.74
9 1 -7 39.39 5.25
9 1 -7 38.2 4.87
9 1 -7 38.78 4.69
9 1 -7 40.63 5.07
9 1 -6 2.43 1.18
9 1 -6 4.54 1.92
9 1 -6 1.49 1.32
9 1 -6 2.47 1.39
9 1 -6 3.74 1.89
9 1 -6 3.46 1.52
9 1 -6 1.48 0.98
9 1 -5 4 1.7
9 1 -5 2.98 1.71
9 1 -5 2.39 1.53
9 1 -5 6.05 2.15
9 1 -5 1.34 1.49
9 1 -5 7.03 2.06
9 1 -5 3.58 1.55
9 1 -4 188.4 12.52
9 1 -4 179.06 12.74
9 1 -4 180.9 12.09
9 1 -4 201.96 12.56
9 1 -4 182.67 12.33
9 1 -4 186.32 11.81
9 1 -4 157.05 10.88
9 1 -3 85.43 8.21
9 1 -3 91.55 8.94
9 1 -3 81.08 7.94
9 1 -3 100.38 8.58
9 1 -3 93.56 8.42
9 1 -3 86.37 7.83
9 1 -3 92.53 8.14
9 1 -2 32.74 4.92
9 1 -2 31.92 4.88
9 1 -2 32.53 5.38
9 1 -2 35.98 5.16
9 1 -2 30.25 4.79
-9 1 2 33.31 4.58
9 1 -2 31.66 4.71
9 1 -2 34.62 5.01
9 1 -1 45.84 6.17
-9 1 1 48.16 5.88
9 1 -1 45.38 6.24
9 1 -1 37.78 5.36
9 1 -1 41.38 5.63
9 1 -1 46.8 5.81
-9 1 1 49.3 5.61
9 1 -1 51.39 5.95
9 1 -1 47.51 5.85
9 1 0 182.66 12.9
-9 1 0 179.52 12.03
9 1 0 190.03 12.48
-9 1 0 181.4 11.77
9 1 0 181.04 11.8
9 1 0 179.77 12.03
9 1 1 10.71 2.83
-9 1 -1 15.41 3.34
9 1 1 13.82 3.12
-9 1 -1 10.54 2.79
9 1 1 9.2 2.67
9 1 1 6.81 2.31
9 1 2 316.62 18.02
-9 1 -2 299.89 16.32
9 1 2 303.6 16.83
9 1 2 291.26 15.98
-9 1 -2 315.41 16.32
9 1 2 301.47 16.52
9 1 3 63.63 7.49
-9 1 -3 63.73 6.78
9 1 3 62.19 6.94
9 1 3 55.92 6.21
-9 1 -3 66.78 6.81
9 1 3 55.16 6.29
9 1 4 47.87 6.17
-9 1 -4 53.09 5.99
9 1 4 47.74 5.99
9 1 4 48.79 5.77
-9 1 -4 47.25 5.59
9 1 4 48.75 6.01
-9 1 -5 262.58 14.49
9 1 5 273.2 15.2
9 1 5 277.34 15.04
-9 1 -5 289.77 14.94
9 1 5 317.36 16.56
-9 1 -6 26.86 3.86
-9 1 -6 23.98 3.72
9 1 6 26.06 4.25
-9 1 -7 20.62 3.23
-9 1 -7 26.01 3.59
9 1 7 29.32 4.25
-9 1 -8 12.18 2.2
-9 1 -8 13.42 2.42
-9 1 -9 9.36 1.85
9 2 -11 1 0.73
9 2 -11 0.88 0.61
9 2 -11 1.49 0.61
9 2 -10 74.35 5.66
9 2 -10 89.39 6.3
9 2 -10 86.88 6.54
9 2 -10 86.56 6.31
9 2 -9 41.96 4.5
9 2 -9 40.17 4.47
9 2 -9 44.34 4.93
9 2 -9 34.54 3.79
9 2 -9 39.78 4.43
9 2 -8 15.34 2.92
9 2 -8 17.94 3.09
9 2 -8 18.06 3.2
9 2 -8 15.34 2.73
9 2 -8 15.36 2.95
9 2 -7 108.96 8.48
9 2 -7 114.66 8.66
9 2 -7 109.72 8.97
9 2 -7 108.89 8.14
9 2 -7 118.08 8.59
9 2 -7 102.42 7.31
9 2 -7 94.03 7.03
9 2 -6 87.85 7.72
9 2 -6 85.39 8.11
9 2 -6 96.24 8.11
9 2 -6 86.12 7.45
9 2 -6 88.15 7.72
9 2 -6 82.64 6.92
9 2 -6 76.72 6.72
9 2 -5 92.19 8.32
9 2 -5 89.13 8.41
9 2 -5 91.63 8.12
9 2 -5 94.2 8.03
9 2 -5 92.38 8.05
9 2 -5 82.4 7.21
9 2 -5 86.9 7.45
9 2 -4 7.73 2.27
9 2 -4 9.49 2.69
9 2 -4 10.68 2.74
9 2 -4 10.37 2.64
9 2 -4 9.08 2.76
-9 2 4 8.83 2.31
9 2 -4 11.2 2.64
9 2 -4 10.63 2.47
9 2 -3 21.63 4.18
9 2 -3 17.13 3.64
9 2 -3 24.81 4.82
9 2 -3 25.06 4.23
9 2 -3 18.16 3.7
-9 2 3 25.6 3.84
9 2 -3 22.35 3.73
9 2 -3 14.04 3.07
9 2 -2 104.34 9.42
9 2 -2 101.99 9.19
9 2 -2 95.23 8.48
9 2 -2 108.61 8.98
9 2 -2 94.9 8.56
-9 2 2 106.9 8.27
9 2 -2 105.82 8.66
9 2 -2 109.92 8.92
9 2 -1 435.59 21.64
9 2 -1 447.61 20.77
9 2 -1 375.41 19.4
-9 2 1 452.84 19.79
9 2 -1 439.85 19.87
9 2 -1 423.29 20.16
9 2 0 187.92 13.3
-9 2 0 195.48 12.74
9 2 0 186.97 12.48
-9 2 0 178.37 11.08
-9 2 0 189.86 11.75
9 2 0 180.74 11.65
9 2 0 183.71 12.16
9 2 1 43.06 6.22
-9 2 -1 48.01 5.78
9 2 1 40.94 5.69
-9 2 -1 40.04 4.9
-9 2 -1 50.26 5.67
9 2 1 38.41 5.08
9 2 1 41.19 5.47
9 2 2 115.52 10.29
-9 2 -2 122.49 9.84
9 2 2 114.18 9.67
-9 2 -2 105.12 8.33
-9 2 -2 125.69 9.43
9 2 2 113.22 9.15
9 2 2 129.79 10.12
9 2 3 122.05 10.41
-9 2 -3 121.34 9.67
9 2 3 116.39 9.74
-9 2 -3 108.43 8.29
9 2 3 110.9 9.12
-9 2 -3 116.92 9.1
9 2 3 127.89 10.08
-9 2 -4 27.08 4.37
9 2 4 21.98 3.87
-9 2 -4 24.35 3.66
-9 2 -4 23.64 4.02
9 2 4 23.27 3.92
9 2 4 30.83 4.88
-9 2 -5 180.79 11.31
-9 2 -5 163.67 9.98
-9 2 -5 145.94 9.47
9 2 5 183.44 11.46
-9 2 -5 176.88 11.05
-9 2 -6 1.45 1.06
-9 2 -6 2.59 1.17
-9 2 -6 0.97 1.1
9 2 6 2.92 1.6
-9 2 -7 51.8 5.05
-9 2 -7 49.21 4.56
-9 2 -7 53.67 5.18
9 2 7 63.66 6.03
-9 2 -8 15.26 2.42
-9 2 -8 12.08 1.95
-9 2 -8 15.15 2.45
9 3 -10 5.27 1.51
9 3 -10 4.24 1.4
9 3 -10 3.74 1.43
9 3 -10 3.67 1.29
9 3 -9 310.8 14.16
9 3 -9 332.98 14.39
9 3 -9 328.4 14.81
9 3 -9 328.91 14.26
9 3 -8 232.05 12.21
9 3 -8 238.54 12.73
9 3 -8 251.59 12.45
9 3 -8 213.7 11.22
9 3 -8 232.51 11.96
9 3 -7 11.36 2.72
9 3 -7 5.24 1.98
9 3 -7 9.48 2.6
9 3 -7 9.18 2.25
9 3 -7 7.61 2.23
9 3 -7 4.83 1.5
9 3 -7 9.38 2.13
9 3 -6 116.53 9.05
9 3 -6 108.1 8.7
9 3 -6 106.09 8.4
9 3 -6 107.56 8.14
9 3 -6 114.05 8.58
9 3 -6 95.43 7.32
9 3 -6 99.6 7.77
9 3 -5 74.37 7.28
9 3 -5 55.6 6.22
9 3 -5 65.82 6.68
9 3 -5 69.73 6.6
9 3 -5 66.98 6.63
-9 3 5 62.93 5.63
9 3 -5 64.81 6.05
9 3 -5 70.51 6.55
9 3 -4 89.38 8.33
9 3 -4 71.92 7.19
9 3 -4 91.94 7.88
9 3 -4 93.94 7.94
9 3 -4 82.87 7.68
-9 3 4 82.1 6.8
9 3 -4 85.25 7.19
9 3 -4 84.88 7.56
9 3 -3 88.7 8.46
9 3 -3 80.34 7.35
9 3 -3 87.32 7.76
9 3 -3 83.45 7.75
-9 3 3 88.29 7.22
9 3 -3 82.29 7.21
9 3 -3 85.62 7.71
9 3 -2 130.75 10.54
9 3 -2 137.27 10.05
9 3 -2 110.1 9.01
-9 3 2 127.36 9.06
9 3 -2 124.94 9.09
9 3 -2 124.99 9.6
9 3 -1 33.72 5.32
9 3 -1 29.35 4.74
-9 3 1 32.49 4.44
9 3 -1 27.99 4.29
9 3 -1 30.52 4.83
9 3 0 90.51 8.77
-9 3 0 93.56 8.44
9 3 0 87.18 8.23
-9 3 0 91.71 7.67
9 3 0 84.53 7.59
9 3 0 78.74 7.8
9 3 1 85.29 8.57
-9 3 -1 101.25 8.78
9 3 1 86.54 8.37
-9 3 -1 87.45 7.53
-9 3 -1 88.93 7.7
9 3 1 84.37 7.63
9 3 1 92.12 8.4
9 3 2 372.22 19.52
-9 3 -2 426.99 19.97
9 3 2 383.34 19.72
-9 3 -2 402.98 18.42
-9 3 -2 423.8 19.01
9 3 2 392.13 18.8
9 3 2 408.02 20.18
-9 3 -3 -0.54 1.16
9 3 3 4.21 1.78
-9 3 -3 2.25 1.61
-9 3 -3 2.91 1.31
9 3 3 2.53 1.48
9 3 3 0.4 1.59
-9 3 -4 66.93 6.81
-9 3 -4 62.57 6.12
9 3 4 70.79 6.79
-9 3 -4 79.18 7.04
9 3 4 79.57 7.88
-9 3 -5 81.16 7.08
-9 3 -5 79.42 6.69
-9 3 -5 79.51 6.7
-9 3 -5 86.11 7.11
9 3 5 86.35 7.84
-9 3 -6 1.61 1.05
-9 3 -6 -0.49 0.67
-9 3 -6 2.26 1.09
-9 3 -6 0.61 1
9 3 6 1.82 1.48
-9 3 -7 48.16 4.63
-9 3 -7 46.37 4.32
-9 3 -7 36.53 3.58
-9 3 -7 53.49 4.84
-9 3 -8 32.54 3.31
-9 3 -8 31.79 3.35
9 4 -9 30.2 3.48
9 4 -9 30.66 3.44
9 4 -9 28.97 3.33
9 4 -9 25.87 2.92
9 4 -9 32.13 3.47
9 4 -8 63.46 5.6
9 4 -8 57.23 5.18
9 4 -8 66.46 5.53
9 4 -8 55.17 4.94
9 4 -8 65.6 5.51
9 4 -8 47.54 4.36
9 4 -7 35.24 4.41
9 4 -7 29.6 3.88
9 4 -7 34.04 4.14
9 4 -7 34.01 4.05
9 4 -7 34.86 4.29
9 4 -7 27.66 3.37
-9 4 7 24.68 3.04
9 4 -7 32.33 3.85
9 4 -6 50.35 5.6
9 4 -6 46.57 5.06
9 4 -6 50.51 5.25
9 4 -6 55.4 5.53
9 4 -6 55.28 5.6
-9 4 6 45.92 4.46
9 4 -6 50.56 4.89
9 4 -6 57.28 5.51
9 4 -5 111.97 8.84
9 4 -5 101.78 7.82
9 4 -5 115.97 8.45
9 4 -5 113.08 8.51
-9 4 5 95.17 7.03
9 4 -5 100.29 7.45
9 4 -5 106.08 8.04
9 4 -4 36.77 5.15
9 4 -4 47.7 5.45
9 4 -4 37.62 4.93
-9 4 4 35.34 4.24
9 4 -4 35.99 4.4
9 4 -4 41.62 5.18
9 4 -3 78.13 7.54
9 4 -3 78.88 7.21
9 4 -3 68.05 6.53
-9 4 3 71.47 6.22
9 4 -3 74.33 6.55
9 4 -3 78.16 7.22
9 4 -2 0.08 1.21
9 4 -2 1.72 1.24
-9 4 2 1.15 1.06
9 4 -2 0.37 0.95
9 4 -2 2.31 1.38
9 4 -1 67.5 7.08
9 4 -1 69.05 6.92
-9 4 1 75.85 6.63
9 4 -1 68.42 6.46
9 4 -1 69.01 6.9
9 4 0 17.21 3.55
-9 4 0 28.16 4.38
9 4 0 23.65 4.03
-9 4 0 28.41 4.02
9 4 0 25.87 4.05
9 4 0 31.6 4.68
-9 4 -1 45.78 5.57
9 4 1 43.26 5.3
-9 4 -1 43.02 5.03
-9 4 -1 45.83 5.21
9 4 1 44.56 5.29
9 4 1 39.79 5.38
-9 4 -2 103.09 8.45
9 4 2 90.1 7.85
-9 4 -2 112.22 8.32
-9 4 -2 108.45 8.22
9 4 2 93.42 7.86
9 4 2 115 9.27
-9 4 -3 58.56 6.09
-9 4 -3 60.16 5.86
-9 4 -3 63.87 6.08
9 4 3 54.45 5.77
9 4 3 61.55 6.56
-9 4 -4 27.24 3.9
-9 4 -4 29.27 3.92
-9 4 -4 29.54 3.99
9 4 4 31.9 4.58
9 4 4 23.04 3.59
-9 4 -5 66.66 5.93
-9 4 -5 68.91 5.81
-9 4 -5 63.13 5.7
-9 4 -5 73.12 6.21
9 4 5 68.73 6.12
-9 4 -6 6.98 1.79
-9 4 -6 5.11 1.47
-9 4 -6 7.11 1.7
-9 4 -6 4.01 1.42
-9 4 -7 51.81 4.34
-9 4 -7 51.27 4.2
-9 4 -7 50.09 4.27
9 5 -8 30.44 3.47
9 5 -8 30.69 3.2
9 5 -8 27.36 3.16
9 5 -7 101.37 7.04
9 5 -7 78.06 5.64
9 5 -7 100.85 6.62
9 5 -7 105.34 6.93
9 5 -7 79.02 5.37
-9 5 7 90.21 5.67
9 5 -7 95.33 6.34
9 5 -6 73.52 6.37
9 5 -6 89.81 6.57
9 5 -6 89.27 6.64
-9 5 6 75.35 5.49
9 5 -6 77.5 5.74
9 5 -6 74.77 6.01
9 5 -5 4.85 1.94
9 5 -5 4.3 1.69
9 5 -5 6.72 1.87
-9 5 5 5.3 1.58
9 5 -5 3.46 1.4
9 5 -5 4.03 1.41
9 5 -4 33.9 4.36
9 5 -4 42.4 4.77
9 5 -4 37.65 4.41
-9 5 4 40.01 4.22
9 5 -4 36.98 4.17
9 5 -4 41.22 4.73
9 5 -3 143.89 9.68
9 5 -3 158.08 10.1
-9 5 3 161.37 9.33
9 5 -3 161.7 9.78
9 5 -3 165.7 10.21
9 5 -2 7.9 2.01
9 5 -2 10.48 2.6
-9 5 2 10.8 2.26
9 5 -2 9.59 2.11
9 5 -2 11.63 2.66
-9 5 1 44.48 5.22
9 5 -1 42.53 4.98
-9 5 1 37.97 4.38
9 5 -1 42.97 4.77
9 5 -1 42.97 5.03
-9 5 0 37.85 4.81
-9 5 0 29.05 3.41
9 5 0 30.9 4.19
-9 5 0 36.95 4.36
-9 5 0 33.69 4.2
9 5 0 34.36 4.28
9 5 0 30.62 4.28
-9 5 -1 1.21 1.16
-9 5 -1 3.96 1.11
9 5 1 3.18 1.39
-9 5 -1 5.01 1.69
-9 5 -1 0.44 0.82
9 5 1 4.96 1.7
9 5 1 -0.17 0.96
-9 5 -2 160.66 10.12
-9 5 -2 139.06 8.09
-9 5 -2 164.49 9.77
-9 5 -2 161.01 9.6
9 5 2 136.58 8.94
9 5 2 138 9.46
-9 5 -3 31.14 4.07
-9 5 -3 26.7 3.16
-9 5 -3 37.97 4.28
-9 5 -3 33.84 4.03
9 5 3 27.59 3.76
9 5 3 23.25 3.31
-9 5 -4 6.5 1.81
-9 5 -4 4.57 1.44
-9 5 -4 5.85 1.77
-9 5 -4 3.96 1.52
-9 5 -4 5.91 1.82
9 5 4 2.32 1.02
-9 5 -5 8.72 1.93
-9 5 -5 7.92 1.79
-9 5 -5 10.5 2.05
-9 5 -5 10.9 2.07
-9 5 -6 40.23 3.64
9 6 -6 2.4 0.99
-9 6 6 3.59 1.07
9 6 -6 4.02 1.13
9 6 -5 9.87 1.99
9 6 -5 10.46 2.03
-9 6 5 11.33 1.97
9 6 -5 12.59 2.07
9 6 -5 11.61 2.13
9 6 -4 34.75 3.69
-9 6 4 54.86 4.91
9 6 -4 49.77 4.66
-9 6 4 47.25 4.17
9 6 -4 48.07 4.34
9 6 -4 41.55 4.21
-9 6 3 64.54 5.55
9 6 -3 60.52 5.24
-9 6 3 57.29 4.81
9 6 -3 57.68 4.95
9 6 -3 61.05 5.31
-9 6 2 138.04 8.51
9 6 -2 113.86 7.52
-9 6 2 123.23 7.5
9 6 -2 128.06 7.82
9 6 -2 116.02 7.7
-9 6 1 62.16 5.58
9 6 -1 54.37 4.77
-9 6 1 65.25 5.43
-9 6 1 65.25 5.26
9 6 -1 63.4 5.28
9 6 -1 60.72 5.28
-9 6 0 47.09 4.8
-9 6 0 41.77 3.75
-9 6 0 51.28 4.78
-9 6 0 50.33 4.64
9 6 0 43.01 4.29
9 6 0 43.01 4.31
-9 6 -1 87.32 6.42
-9 6 -1 71.47 5.05
-9 6 -1 95.66 6.49
-9 6 -1 86.53 6.25
9 6 1 67.89 5.43
9 6 1 68.75 5.49
-9 6 -2 24.99 3.27
-9 6 -2 18.79 2.42
-9 6 -2 23.89 3.2
-9 6 -2 23.41 3.1
-9 6 -3 27.89 3.23
-9 6 -3 28.45 3.29
-9 6 -3 24.76 3.12
-9 6 -3 25.92 3.03
-9 6 -4 23.33 2.75
-9 6 -4 21.95 2.74
10 -5 -3 18.34 2.36
10 -5 -2 12.13 1.93
10 -4 -6 17.63 2.32
10 -4 -6 18.94 2.51
10 -4 -5 51.34 4.42
10 -4 -5 54.06 4.6
10 -4 -4 20.53 2.74
10 -4 -4 18.67 2.77
10 -4 -3 37.85 3.9
10 -4 -3 41.19 4.21
10 -4 -3 29.38 3.26
10 -4 -3 32.58 3.51
10 -4 -2 2.65 1.13
10 -4 -2 3.45 1.17
10 -4 -2 2.87 0.93
10 -4 -2 4.39 1.39
10 -4 -1 71.66 5.63
10 -4 -1 83.22 6.14
10 -4 -1 79.43 5.93
10 -4 -1 75.49 5.99
10 -4 0 84.7 5.96
10 -4 0 96.42 6.7
10 -4 0 104.3 6.9
10 -4 0 97.06 6.81
10 -4 1 23.69 3.07
10 -4 1 25.39 3.23
10 -4 1 27.07 3.41
10 -4 2 0.31 0.52
10 -4 2 0 0.75
10 -4 3 12.7 2
10 -4 3 10.39 1.82
10 -3 -7 3.54 1.11
10 -3 -7 2.27 1.06
10 -3 -6 57.3 5
10 -3 -6 53.19 4.74
10 -3 -6 60.67 5.16
10 -3 -5 121.33 7.69
10 -3 -5 118.56 7.47
10 -3 -5 127.66 7.85
10 -3 -4 1.78 1.24
10 -3 -4 0.79 0.71
10 -3 -4 1.24 0.98
10 -3 -4 1.06 0.62
10 -3 -4 -0.45 0.92
10 -3 -3 8.08 2.09
10 -3 -3 10.81 2.3
10 -3 -3 7.37 1.79
10 -3 -3 11.84 2.31
10 -3 -3 9.54 1.99
10 -3 -2 26.65 3.61
10 -3 -2 33.25 4.06
10 -3 -2 36.74 4.27
10 -3 -2 31.21 3.9
10 -3 -2 32.2 4.01
10 -3 -1 61.51 5.46
10 -3 -1 60.12 5.48
10 -3 -1 66.69 5.84
10 -3 -1 65.9 5.77
10 -3 -1 57.42 5.58
10 -3 0 10.12 2.5
10 -3 0 11.54 2.39
10 -3 0 10.24 2.21
10 -3 0 9.24 2.17
10 -3 1 257.87 12.75
10 -3 1 260.44 12.76
10 -3 1 264.26 13.06
10 -3 2 17.38 2.89
10 -3 2 14.06 2.43
10 -3 2 15.99 2.68
10 -3 2 15.08 2.34
10 -3 3 54.73 4.83
10 -3 3 49.81 4.63
10 -3 3 48.59 4.23
10 -3 3 48.95 4.76
10 -3 4 7.58 1.84
10 -3 4 5.41 1.49
10 -3 4 8.61 1.8
10 -3 4 5.41 1.33
10 -2 -8 21.8 2.79
10 -2 -8 18.43 2.53
10 -2 -8 20 2.66
10 -2 -7 51.01 4.8
10 -2 -7 61.53 5.04
10 -2 -7 61.06 5.15
10 -2 -6 25.69 3.25
10 -2 -6 32.98 3.9
10 -2 -6 31.67 3.74
10 -2 -6 32.24 3.78
10 -2 -5 5.1 1.72
10 -2 -5 4.93 1.67
10 -2 -5 2.45 0.99
10 -2 -5 3.48 1.18
10 -2 -5 4.29 1.58
10 -2 -4 39.12 4.54
10 -2 -4 43.64 4.87
10 -2 -4 46.87 4.97
10 -2 -4 49.85 5.11
10 -2 -4 41.76 4.62
10 -2 -4 41.92 4.38
10 -2 -3 28.08 3.99
10 -2 -3 31.28 4.08
10 -2 -3 29.79 4.02
10 -2 -3 29.17 3.88
10 -2 -3 26.48 3.7
10 -2 -3 26.71 3.6
10 -2 -2 26.22 3.79
10 -2 -2 24.67 3.58
10 -2 -2 24.83 3.67
10 -2 -2 28.35 3.98
10 -2 -2 25.94 3.79
10 -2 -2 28.18 3.85
10 -2 -1 91.99 7.39
10 -2 -1 78.63 6.65
10 -2 -1 88.7 7
10 -2 -1 91.8 7.24
10 -2 -1 90.15 7.09
10 -2 0 28.04 3.89
10 -2 0 28.16 3.69
10 -2 0 25.54 3.67
10 -2 0 24.21 3.44
10 -2 0 25.83 3.67
10 -2 0 21.89 3.2
10 -2 1 126.66 8.51
10 -2 1 129.59 8.54
10 -2 1 116.99 7.86
10 -2 1 122.98 8.59
10 -2 2 11.04 2.35
10 -2 2 9.75 2.2
10 -2 2 12.29 2.44
10 -2 2 11.26 2.24
10 -2 3 84.88 6.64
10 -2 3 83.6 6.39
10 -2 3 78.09 6.12
10 -2 3 91.34 7.07
10 -2 4 15.2 2.75
10 -2 4 14.7 2.57
10 -2 4 10.8 2.07
10 -2 4 10.42 2.07
10 -2 5 6.47 1.52
10 -2 5 6.66 1.5
10 -2 5 6.21 1.42
10 -2 6 30.49 3
10 -1 -9 94.21 5.81
10 -1 -9 82.77 5.4
10 -1 -9 96.34 5.77
10 -1 -8 48.48 4.46
10 -1 -8 51.07 4.41
10 -1 -8 56.08 4.69
10 -1 -7 81.68 5.93
10 -1 -7 97.68 6.87
10 -1 -7 98.66 6.71
10 -1 -7 92.81 6.61
10 -1 -6 104.89 7.33
10 -1 -6 101.16 7.49
10 -1 -6 119.27 7.78
10 -1 -6 90.14 6.52
10 -1 -6 114.48 7.67
10 -1 -5 15.33 2.8
10 -1 -5 15.8 2.87
10 -1 -5 17.86 3.18
10 -1 -5 15.08 2.7
10 -1 -5 10.15 2.4
10 -1 -5 12.43 2.31
10 -1 -4 335 15.86
10 -1 -4 329.07 15.91
10 -1 -4 322.25 15.4
10 -1 -4 341.06 15.69
10 -1 -4 323.19 15.3
10 -1 -4 318.38 14.81
10 -1 -3 52.46 5.57
10 -1 -3 47.99 5.35
10 -1 -3 50.11 5.3
10 -1 -3 47.56 5.17
10 -1 -3 51.92 5.43
10 -1 -3 49.59 5.18
10 -1 -2 86.61 7.29
10 -1 -2 87.07 7.46
10 -1 -2 88.84 7.21
10 -1 -2 74.29 6.6
10 -1 -2 91.25 7.35
10 -1 -2 92.54 7.24
10 -1 -2 75.99 6.23
10 -1 -1 116.74 8.61
10 -1 -1 111 8.63
10 -1 -1 106.07 8.04
10 -1 -1 114.25 8.26
10 -1 -1 117.1 8.43
10 -1 -1 124.84 8.62
10 -1 -1 111.36 7.87
10 -1 0 104.98 8.02
10 -1 0 89.53 7.12
10 -1 0 100.1 7.65
10 -1 0 107.8 7.8
10 -1 0 88.35 7
10 -1 1 195.85 11.7
10 -1 1 187.54 11.07
10 -1 1 194.37 11
10 -1 1 204.15 11.19
10 -1 2 1.41 1.06
10 -1 2 2.18 1.31
10 -1 2 1.5 0.72
10 -1 2 2.33 1.06
10 -1 3 58.92 5.65
10 -1 3 57.18 5.33
10 -1 3 61.06 5.44
10 -1 3 59.42 5.92
10 -1 4 42.46 4.57
10 -1 4 40.68 4.27
10 -1 4 41.88 4.35
10 -1 4 45.12 4.92
10 -1 5 83.9 6.06
10 -1 5 94.76 6.34
10 -1 5 87.19 6.2
10 -1 5 89.44 6.56
10 -1 6 5.79 1.32
10 0 -9 80.44 5.51
10 0 -9 81.48 5.38
10 0 -9 87.08 5.54
10 0 -8 106.03 6.89
10 0 -8 105.3 6.65
10 0 -8 111.44 6.89
10 0 -7 80.57 6.01
10 0 -7 87.29 6.63
10 0 -7 85.62 6.34
10 0 -7 66.51 5.12
10 0 -7 81.15 6.2
10 0 -6 102.35 7.44
10 0 -6 111.3 8.07
10 0 -6 109.64 7.7
10 0 -6 105.16 7.21
10 0 -6 117.4 7.88
10 0 -5 43.68 4.97
10 0 -5 40.84 4.86
10 0 -5 37.29 4.43
10 0 -5 37.31 4.35
10 0 -5 38.29 4.56
10 0 -5 34.1 3.97
10 0 -4 63.86 6.15
10 0 -4 62.5 6.19
10 0 -4 59.97 5.9
10 0 -4 62.03 6.01
10 0 -4 66.65 6.09
10 0 -4 65.78 5.84
10 0 -3 61.63 6.15
10 0 -3 62.62 6.35
10 0 -3 58.95 5.83
10 0 -3 59.4 5.82
10 0 -3 63.71 6.07
10 0 -3 70.09 6.17
10 0 -3 51.01 5.08
10 0 -2 279.11 14.48
10 0 -2 273.93 14.71
10 0 -2 272.36 13.95
10 0 -2 266.28 13.94
10 0 -2 283.89 14.32
10 0 -2 289.5 14.26
10 0 -2 267.04 13.51
10 0 -1 108.17 8.35
10 0 -1 111.97 8.54
10 0 -1 94.78 7.43
10 0 -1 87 7.16
10 0 -1 91.35 7.49
10 0 -1 105.23 7.76
10 0 -1 99.55 7.65
10 0 0 64.29 6.4
10 0 0 70.55 6.47
10 0 0 72.97 6.37
10 0 0 63.39 6.01
10 0 1 70.97 6.8
10 0 1 64.11 6.21
10 0 1 72.17 6.27
10 0 1 67.57 6.13
10 0 2 33.23 4.5
-10 0 -2 23.62 3.32
10 0 2 32.75 4.08
10 0 2 24.07 3.57
10 0 3 44.67 4.92
10 0 3 48.42 5.01
-10 0 -3 38.3 4.17
10 0 3 45.71 4.81
10 0 3 55.58 5.76
10 0 4 52.48 5.13
10 0 4 56.4 5.1
-10 0 -4 41.14 4.19
10 0 4 56.49 5.19
10 0 4 55.58 5.47
-10 0 -5 0.19 0.54
10 0 5 1.29 1.11
10 0 5 2.34 1.22
10 0 6 12.27 2.2
10 1 -9 92.18 5.92
10 1 -9 85.65 5.53
10 1 -9 90.49 5.66
10 1 -8 49.54 4.3
10 1 -8 58.31 5
10 1 -8 48.41 4.42
10 1 -8 52.5 4.58
10 1 -7 96.54 6.84
10 1 -7 99.92 7.22
10 1 -7 104.72 7.12
10 1 -7 92.91 6.27
10 1 -7 96.86 6.86
10 1 -6 104.31 7.49
10 1 -6 108.59 7.92
10 1 -6 112.65 7.68
10 1 -6 102.77 7.1
10 1 -6 118.15 7.88
10 1 -5 17.14 3.04
10 1 -5 14.39 2.76
10 1 -5 17.26 3.18
10 1 -5 16.46 2.77
10 1 -5 17.51 3.12
10 1 -5 11.88 2.39
10 1 -5 11.3 2.15
10 1 -4 312.09 15.4
-10 1 4 295.05 13.95
10 1 -4 327.4 15.84
10 1 -4 317.26 15.13
10 1 -4 340.55 15.45
10 1 -4 332.81 15.56
10 1 -4 313.88 14.73
10 1 -4 285.36 13.83
10 1 -3 53.96 5.74
-10 1 3 45.46 4.77
10 1 -3 53.81 5.71
10 1 -3 52.19 5.39
10 1 -3 42.72 4.98
10 1 -3 50.11 5.42
10 1 -3 52.16 5.37
10 1 -3 39.74 4.57
10 1 -2 88.51 7.6
-10 1 2 88.76 6.9
10 1 -2 84.85 7.3
10 1 -2 79.56 6.76
10 1 -2 88.69 7.19
10 1 -2 88.79 7.28
10 1 -2 97.89 7.56
10 1 -2 81.61 6.89
10 1 -1 126.79 9.24
-10 1 1 103.68 7.78
10 1 -1 118.94 8.66
10 1 -1 124.69 8.51
10 1 -1 113.81 8.28
10 1 0 109.95 8.61
-10 1 0 101.25 7.52
10 1 0 107.19 8.18
10 1 0 106.33 7.85
-10 1 0 100.12 7.29
10 1 0 109.89 8.11
10 1 1 223.6 12.85
-10 1 -1 203.5 11.15
10 1 1 200.05 11.76
10 1 1 205.92 11.51
-10 1 -1 197.82 10.9
10 1 1 198.3 11.44
10 1 2 2.34 1.5
-10 1 -2 1.14 0.79
10 1 2 3.28 1.73
-10 1 -2 2.51 0.97
10 1 2 2.5 1.38
10 1 2 3.12 1.09
-10 1 -3 55.1 5.05
10 1 3 56.96 5.52
10 1 3 61.21 5.59
-10 1 -3 55.14 5.14
10 1 3 59.65 5.62
10 1 3 63.29 6.09
-10 1 -4 36.1 3.85
10 1 4 36.64 4.12
10 1 4 41.62 4.38
-10 1 -4 42.32 4.24
10 1 4 40.62 4.49
-10 1 -5 67.89 5.02
-10 1 -5 82.37 5.79
-10 1 -6 7.54 1.54
10 1 6 7.19 1.65
10 2 -8 23.58 2.89
10 2 -8 22.72 2.94
10 2 -8 23.26 2.92
10 2 -8 24.16 2.96
10 2 -7 60.52 5.18
10 2 -7 61.74 5.38
10 2 -7 60.46 5.12
10 2 -7 52.11 4.53
10 2 -7 57.9 5.04
10 2 -6 29.98 3.83
10 2 -6 30.59 3.91
10 2 -6 30.21 3.71
10 2 -6 39.51 4.14
10 2 -6 42.75 4.49
10 2 -6 25.5 3.11
10 2 -6 25.3 2.95
10 2 -5 4.37 1.51
10 2 -5 4.62 1.4
10 2 -5 3.28 1.46
10 2 -5 2.93 1.13
10 2 -5 4.79 1.66
10 2 -5 1.71 0.89
10 2 -5 5.28 1.53
10 2 -4 47.51 5.25
-10 2 4 43.62 4.67
10 2 -4 35.45 4.27
10 2 -4 38.69 4.41
10 2 -4 44.17 4.84
10 2 -4 48.16 5.09
10 2 -4 46.87 4.66
10 2 -4 39.28 4.3
10 2 -3 29.37 4.22
-10 2 3 32.23 4
10 2 -3 27.5 3.91
10 2 -3 23.74 3.55
10 2 -3 26.08 3.68
10 2 -3 28.95 3.81
10 2 -2 28.93 4.17
-10 2 2 28.37 3.9
10 2 -2 28.87 4.04
-10 2 2 25.96 3.42
10 2 -2 29.69 3.86
10 2 -2 27.45 3.82
10 2 -1 84.32 7.57
-10 2 1 99.68 7.52
10 2 -1 98.82 7.8
-10 2 1 100.23 7.17
10 2 -1 94.01 7.36
10 2 -1 99.07 7.65
10 2 0 30.97 4.34
-10 2 0 31.27 4.07
10 2 0 27.3 3.96
10 2 0 31.36 4.03
-10 2 0 27.31 3.57
10 2 0 33.15 4.25
10 2 1 134.5 9.47
-10 2 -1 136.07 9
10 2 1 130.32 9.17
10 2 1 139.1 9.07
-10 2 -1 135.81 8.62
10 2 1 139.65 9.22
10 2 2 9.54 2.21
-10 2 -2 12.43 2.43
10 2 2 8.74 2.22
-10 2 -2 16.2 2.79
10 2 2 14.94 2.85
10 2 2 13.48 2.76
-10 2 -3 88.69 6.67
10 2 3 81.66 6.56
10 2 3 95.32 7.09
-10 2 -3 92.82 6.72
10 2 3 98.03 7.35
-10 2 -4 8.8 1.86
-10 2 -4 14.86 2.45
10 2 4 12.38 2.26
10 2 4 11.92 2.34
-10 2 -5 5.29 1.35
-10 2 -5 7.71 1.6
10 2 5 9.04 2.06
10 3 -7 7.02 1.62
10 3 -7 5.64 1.49
10 3 -7 3.73 1.11
10 3 -7 4.53 1.33
10 3 -6 58.49 5.18
10 3 -6 46.78 4.28
10 3 -6 63.14 5.12
10 3 -6 62.5 5.19
10 3 -6 48.04 4.07
10 3 -6 45.08 4.03
10 3 -5 122 8.17
10 3 -5 97.48 6.63
10 3 -5 135.31 8.24
10 3 -5 123.27 7.86
10 3 -5 124.35 7.47
10 3 -5 115.81 7.36
10 3 -4 0.15 0.79
-10 3 4 0.91 0.56
10 3 -4 -0.39 0.88
10 3 -4 2.11 1
10 3 -4 0.24 0.66
10 3 -4 0.96 1.04
10 3 -3 10.5 2.32
-10 3 3 8.7 1.94
10 3 -3 8.87 2.07
10 3 -3 7.09 1.69
-10 3 3 8.14 1.92
10 3 -3 8.78 2
10 3 -3 8.71 2.01
10 3 -2 34.92 4.52
-10 3 2 35.49 4.28
10 3 -2 37.15 4.47
-10 3 2 35.34 3.93
10 3 -2 32.33 4.01
10 3 -2 36.15 4.39
10 3 -1 69.03 6.35
-10 3 1 73.49 6.29
10 3 -1 67.52 6.22
-10 3 1 64.17 5.56
10 3 -1 66.05 5.78
10 3 -1 67.85 6.11
10 3 0 5.96 1.94
-10 3 0 7.37 1.89
10 3 0 7.38 2.05
-10 3 0 11.04 2.32
10 3 0 11.25 2.28
10 3 0 7.09 1.89
10 3 1 216.15 11.92
-10 3 -1 308.32 13.87
10 3 1 282.02 13.5
-10 3 -1 229.42 11.17
10 3 1 283.77 13.42
-10 3 -1 284.14 12.94
10 3 1 289.09 13.79
-10 3 -2 18.83 3.01
10 3 2 16.24 2.8
-10 3 -2 13.42 2.15
-10 3 -2 17.91 2.77
10 3 2 18.3 2.93
10 3 2 20.71 3.37
-10 3 -3 59.87 5.2
-10 3 -3 45.57 3.9
10 3 3 51.48 4.75
-10 3 -3 56.06 4.88
10 3 3 66.25 5.68
-10 3 -4 8.18 1.79
-10 3 -4 7.02 1.68
10 3 4 7.63 1.89
-10 3 -5 44.11 3.81
-10 3 -5 45.68 3.87
10 4 -6 15.75 2.42
10 4 -6 14.26 2.21
10 4 -5 58.06 4.98
-10 4 5 59.9 4.86
10 4 -5 57.34 4.84
10 4 -5 52.66 4.37
10 4 -5 51.33 4.45
10 4 -4 19.05 2.93
-10 4 4 24.14 3.16
10 4 -4 23.01 3.13
10 4 -4 23.44 2.97
-10 4 4 15.27 2.2
10 4 -4 23.01 3.07
10 4 -3 40.05 4.27
-10 4 3 38.38 4.13
10 4 -3 45.42 4.55
-10 4 3 31.36 3.2
-10 4 3 38.01 3.75
10 4 -3 44.12 4.3
10 4 -3 41.75 4.31
10 4 -2 3.44 1.33
-10 4 2 2.61 1.18
10 4 -2 5.7 1.68
-10 4 2 1.96 0.9
-10 4 2 6.4 1.57
10 4 -2 6.79 1.9
10 4 -2 6.25 1.74
-10 4 1 102.39 6.95
10 4 -1 89.2 6.55
-10 4 1 74.45 5.35
-10 4 1 94.6 6.33
10 4 -1 86.76 6.36
10 4 -1 92.96 6.73
-10 4 0 123.97 7.81
10 4 0 102.47 7.04
-10 4 0 103.32 6.53
-10 4 0 119.36 7.32
10 4 0 119.68 7.61
10 4 0 113.52 7.58
-10 4 -1 32.57 3.76
-10 4 -1 26.22 3.02
10 4 1 27.65 3.44
-10 4 -1 33.02 3.6
10 4 1 31.47 3.8
-10 4 -2 0.08 0.9
-10 4 -2 0.68 0.48
-10 4 -2 0.23 0.58
10 4 2 0.96 0.66
10 4 2 -0.57 0.89
-10 4 -3 16.39 2.45
-10 4 -3 16.73 2.41
-10 5 3 24.13 2.94
10 5 -3 24.66 2.8
10 5 -3 20.93 2.64
-10 5 2 15.71 2.34
-10 5 2 12.86 1.98
10 5 -2 15.32 2.33
10 5 -2 12.38 2.1
-10 5 1 8.84 1.74
-10 5 1 9.76 1.75
10 5 -1 11.53 1.9
10 5 -1 10.14 1.9
-10 5 0 6.07 1.5
-10 5 0 7.95 1.51
10 5 0 6.89 1.53
10 5 0 4.77 1.29
-10 5 -1 27.58 3.02
-10 5 -1 23.23 2.65
11 -2 -1 48.65 3.99
11 -1 -3 40.41 3.74
11 -1 -3 37.44 3.46
11 -1 -2 42.17 3.94
11 -1 -2 44.69 3.92
11 -1 -2 44.98 3.73
11 -1 -1 59.33 4.63
11 -1 -1 63.56 4.65
11 -1 -1 68.33 5.07
11 -1 0 48.42 4.06
11 -1 0 47.34 3.97
11 -1 0 47.38 4.18
11 -1 1 341.16 13.43
11 -1 1 339.14 13.23
11 -1 1 354.09 13.83
11 0 -4 88.86 5.77
11 0 -3 99.8 6.29
11 0 -3 95.8 6
11 0 -3 86.06 5.45
11 0 -2 1.11 0.77
11 0 -2 2.73 1.02
11 0 -2 2.62 1.03
11 0 -1 -0.27 0.84
11 0 -1 -1.25 0.87
11 0 -1 -1.38 0.74
11 0 0 6.07 1.6
11 0 0 4.72 1.24
11 0 0 2.95 1.09
11 0 1 1.09 0.78
11 0 1 0.71 0.89
11 1 -4 59.75 4.6
11 1 -3 42.97 3.99
11 1 -3 41.9 3.81
11 1 -3 31.78 3.14
11 1 -2 42.76 4.13
11 1 -2 47.07 4.1
11 1 -2 45.72 3.93
11 1 -1 65.34 5.08
11 1 -1 71.85 5.14
11 1 -1 59.91 4.66
11 1 -1 53.75 4.29
11 1 0 47.98 4.15
11 1 0 48.89 4.1
11 1 0 45.45 3.85
11 1 1 357.96 13.88
11 2 -2 7.83 1.63
11 2 -2 4.99 1.26
11 2 -1 46.85 3.93
loop_
_cod_related_entry_id
_cod_related_entry_database
_cod_related_entry_code
1 PubChem 168328877
