#------------------------------------------------------------------------------
#$Date: 2019-11-11 20:53:49 +0200 (Mon, 11 Nov 2019) $
#$Revision: 227333 $
#$URL: file:///home/coder/svn-repositories/cod/cif/4/03/59/4035940.cif $
#------------------------------------------------------------------------------
#
# This file is available in the Crystallography Open Database (COD),
# http://www.crystallography.net/
#
# All data on this site have been placed in the public domain by the
# contributors.
#
data_4035940
loop_
_publ_author_name
'Chauhan, Navya'
'Pradhan, Sajan'
'Ghorai, Manas K.'
_publ_section_title
;
 Stereospecific Synthesis of Highly Substituted Piperazines via an One-Pot
 Three Component Ring-Opening Cyclization from N-Activated Aziridines,
 Anilines, and Propargyl Carbonates.
;
_journal_issue                   4
_journal_name_full               'The Journal of organic chemistry'
_journal_page_first              1757
_journal_page_last               1765
_journal_paper_doi               10.1021/acs.joc.8b02259
_journal_volume                  84
_journal_year                    2019
_chemical_formula_moiety         '2(C24 H24 N2 O2 S)'
_chemical_formula_sum            'C48 H48 N4 O4 S2'
_chemical_formula_weight         809.02
_space_group_crystal_system      triclinic
_space_group_IT_number           2
_space_group_name_Hall           '-P 1'
_space_group_name_H-M_alt        'P -1'
_atom_sites_solution_hydrogens   mixed
_atom_sites_solution_primary     dual
_audit_creation_date             2017-10-30
_audit_creation_method
;
Olex2 1.2-alpha
(compiled 2017.08.10 svn.r3458 for OlexSys, GUI svn.r5381)
;
_cell_angle_alpha                97.211(3)
_cell_angle_beta                 95.918(2)
_cell_angle_gamma                96.014(3)
_cell_formula_units_Z            1
_cell_length_a                   9.0177(7)
_cell_length_b                   10.4022(9)
_cell_length_c                   10.8349(9)
_cell_measurement_reflns_used    4065
_cell_measurement_temperature    100(2)
_cell_measurement_theta_max      26.4
_cell_measurement_theta_min      2.3
_cell_volume                     995.78(14)
_computing_molecular_graphics    'Olex2 (Dolomanov et al., 2009)'
_computing_publication_material  'Olex2 (Dolomanov et al., 2009)'
_computing_structure_refinement  'ShelXL (Sheldrick, 2015)'
_computing_structure_solution    'ShelXT (Sheldrick, 2015)'
_diffrn_ambient_temperature      100.01
_diffrn_measured_fraction_theta_full 0.999
_diffrn_measured_fraction_theta_max 0.999
_diffrn_measurement_device_type  'CCD area detector'
_diffrn_measurement_method       'phi and omega scan'
_diffrn_radiation_type           MoK\a
_diffrn_radiation_wavelength     0.71073
_diffrn_reflns_av_R_equivalents  0.0496
_diffrn_reflns_av_unetI/netI     0.0565
_diffrn_reflns_Laue_measured_fraction_full 0.999
_diffrn_reflns_Laue_measured_fraction_max 0.999
_diffrn_reflns_limit_h_max       11
_diffrn_reflns_limit_h_min       -11
_diffrn_reflns_limit_k_max       12
_diffrn_reflns_limit_k_min       -12
_diffrn_reflns_limit_l_max       13
_diffrn_reflns_limit_l_min       -13
_diffrn_reflns_number            13755
_diffrn_reflns_point_group_measured_fraction_full 0.999
_diffrn_reflns_point_group_measured_fraction_max 0.999
_diffrn_reflns_theta_full        25.242
_diffrn_reflns_theta_max         26.371
_diffrn_reflns_theta_min         2.287
_diffrn_source                   'fine-focus sealed tube'
_exptl_absorpt_coefficient_mu    0.186
_exptl_absorpt_correction_T_max  0.991
_exptl_absorpt_correction_T_min  0.963
_exptl_absorpt_correction_type   empirical
_exptl_absorpt_process_details   SADABS
_exptl_crystal_colour            white
_exptl_crystal_colour_primary    white
_exptl_crystal_density_diffrn    1.349
_exptl_crystal_description       prism
_exptl_crystal_F_000             428
_exptl_crystal_size_max          0.2
_exptl_crystal_size_mid          0.1
_exptl_crystal_size_min          0.05
_refine_diff_density_max         0.409
_refine_diff_density_min         -0.464
_refine_diff_density_rms         0.115
_refine_ls_extinction_method     none
_refine_ls_goodness_of_fit_ref   1.164
_refine_ls_hydrogen_treatment    mixed
_refine_ls_matrix_type           full
_refine_ls_number_parameters     271
_refine_ls_number_reflns         4065
_refine_ls_number_restraints     0
_refine_ls_restrained_S_all      1.164
_refine_ls_R_factor_all          0.0705
_refine_ls_R_factor_gt           0.0456
_refine_ls_shift/su_max          0.000
_refine_ls_shift/su_mean         0.000
_refine_ls_structure_factor_coef Fsqd
_refine_ls_weighting_details
'w=1/[\s^2^(Fo^2^)+(0.0760P)^2^+0.0430P] where P=(Fo^2^+2Fc^2^)/3'
_refine_ls_weighting_scheme      calc
_refine_ls_wR_factor_gt          0.1216
_refine_ls_wR_factor_ref         0.1510
_reflns_Friedel_coverage         0.000
_reflns_number_gt                3111
_reflns_number_total             4065
_reflns_threshold_expression     'I > 2\s(I)'
_cod_data_source_file            jo8b02259_si_002.cif
_cod_data_source_block           26octb_0m
_cod_depositor_comments
;
The following automatic conversions were performed:

data item '_exptl_absorpt_correction_type' value 'Empirical' was
changed to 'empirical' in accordance with the
/home/data/users/saulius/crontab/automatic-downloads/current/ACS/lib/dictionaries/cif_core.dic
dictionary named 'cif_core.dic' version 2.4.2 last updated on
2011-04-26.

Automatic conversion script
Id: cif_fix_values 6909 2019-04-08 15:41:33Z antanas 
;
_cod_database_code               4035940
_shelx_shelxl_version_number     2016/6
_shelx_space_group_comment
;
The symmetry employed for this shelxl refinement is uniquely defined
by the following loop, which should always be used as a source of
symmetry information in preference to the above space-group names.
They are only intended as comments.
;
_shelx_estimated_absorpt_t_max   0.991
_shelx_estimated_absorpt_t_min   0.964
_olex2_refinement_description
;
1. Fixed Uiso
 At 1.2 times of:
  All C(H) groups, All C(H,H) groups
 At 1.5 times of:
  All C(H,H,H) groups
2.a Ternary CH refined with riding coordinates:
 C00N(H00N)
2.b Secondary CH2 refined with riding coordinates:
 C007(H00A,H00B), C00H(H00H,H00I)
2.c Aromatic/amide H refined with riding coordinates:
 C006(H006), C008(H008), C00B(H00C), C00C(H00D), C00D(H00E), C00E(H00F),
 C00G(H00G), C00J(H00J), C00L(H00L), C00M(H00M), C00O(H00O), C00P(H00P),
 C00R(H00R), C00S(H00S)
2.d Idealised Me refined as rotating group:
 C00T(H00T,H00U,H00V)
;
_shelx_res_file
;
TITL 26octb_0m_a.res in P-1
    26octb_0m.res
    created by SHELXL-2016/6 at 19:27:18 on 30-Oct-2017
REM Old TITL 26octb_0m in P-1
REM SHELXT solution in P-1
REM R1 0.124, Rweak 0.005, Alpha 0.042, Orientation as input
REM Formula found by SHELXT: C23 N2 O3 Cl
CELL 0.71073 9.0177 10.4022 10.8349 97.211 95.918 96.014
ZERR 1 0.0007 0.0009 0.0009 0.003 0.002 0.003
LATT 1
SFAC C H N O S
UNIT 48 48 4 4 2

L.S. 4
PLAN  20
SIZE 0.2 0.1 0.05
TEMP -173.14
BOND $H
list 4
fmap 2
ACTA
SHEL 100 0.8
REM <olex2.extras>
REM <HklSrc "%.\\26octb_0m.hkl">
REM </olex2.extras>

WGHT    0.076000    0.043000
FVAR       0.87176
S01   5    0.540170    0.987163    0.254998    11.00000    0.01371    0.00937 =
         0.01111    0.00140   -0.00075    0.00179
O002  4    0.520974    1.062434    0.371179    11.00000    0.01781    0.01289 =
         0.01335   -0.00182   -0.00055    0.00455
O003  4    0.534025    1.046709    0.143127    11.00000    0.01972    0.01376 =
         0.01349    0.00471   -0.00218    0.00164
N004  3    0.703993    0.932746    0.277049    11.00000    0.01399    0.01321 =
         0.01128    0.00236    0.00057    0.00239
N005  3    0.809112    0.704438    0.336526    11.00000    0.01539    0.01082 =
         0.01261    0.00128    0.00224    0.00071
C006  1    1.007049    0.736945    0.568797    11.00000    0.01674    0.01234 =
         0.01847    0.00251    0.00181    0.00294
AFIX  43
H006  2    1.028817    0.684195    0.496318    11.00000   -1.20000
AFIX   0
C007  1    0.778923    0.934674    0.405125    11.00000    0.01346    0.01357 =
         0.01184    0.00076   -0.00405    0.00076
AFIX  23
H00A  2    0.728334    0.989780    0.465004    11.00000   -1.20000
H00B  2    0.884556    0.974001    0.409979    11.00000   -1.20000
AFIX   0
C008  1    0.944041    0.888011    0.781860    11.00000    0.02121    0.01874 =
         0.01462    0.00291    0.00238   -0.00378
AFIX  43
H008  2    0.921818    0.939542    0.854900    11.00000   -1.20000
AFIX   0
C009  1    0.879724    0.801119    0.563049    11.00000    0.01216    0.00992 =
         0.01540    0.00503    0.00116   -0.00059
C00A  1    0.708059    0.589890    0.302627    11.00000    0.01140    0.00981 =
         0.01764    0.00048    0.00144    0.00411
C00B  1    1.072023    0.825052    0.785505    11.00000    0.01649    0.01883 =
         0.02094    0.00909   -0.00601   -0.00573
AFIX  43
H00C  2    1.138414    0.834157    0.860896    11.00000   -1.20000
AFIX   0
C00C  1    0.848361    0.875501    0.671020    11.00000    0.01298    0.01804 =
         0.01624    0.00476    0.00116    0.00141
AFIX  43
H00D  2    0.760295    0.918317    0.668898    11.00000   -1.20000
AFIX   0
C00D  1    1.103104    0.749098    0.679629    11.00000    0.01306    0.01802 =
         0.03038    0.00952   -0.00205    0.00217
AFIX  43
H00E  2    1.190253    0.705052    0.682473    11.00000   -1.20000
AFIX   0
C00E  1    0.504324    0.360814    0.245791    11.00000    0.01776    0.01030 =
         0.02569    0.00107    0.00198    0.00193
AFIX  43
H00F  2    0.434525    0.284088    0.226581    11.00000   -1.20000
AFIX   0
C00F  1    0.762725    0.853466    0.180472    11.00000    0.01254    0.01144 =
         0.01799    0.00250    0.00332   -0.00093
C00G  1    0.559468    0.408725    0.368993    11.00000    0.02071    0.01295 =
         0.02066    0.00475    0.00610    0.00495
AFIX  43
H00G  2    0.528146    0.363799    0.434709    11.00000   -1.20000
AFIX   0
C00H  1    0.870412    0.768963    0.237630    11.00000    0.01206    0.01458 =
         0.01611    0.00283    0.00410    0.00226
AFIX  23
H00H  2    0.893480    0.702043    0.171288    11.00000   -1.20000
H00I  2    0.965486    0.823760    0.272640    11.00000   -1.20000
AFIX   0
C00I  1    0.214318    0.615411    0.192970    11.00000    0.01369    0.01670 =
         0.02392    0.00465    0.00353    0.00494
C00J  1    0.659795    0.521472    0.397167    11.00000    0.02063    0.01581 =
         0.01337    0.00300    0.00146    0.00458
AFIX  43
H00J  2    0.696434    0.552850    0.482136    11.00000   -1.20000
AFIX   0
C00K  1    0.407012    0.846960    0.229745    11.00000    0.00938    0.01209 =
         0.01604    0.00171    0.00141    0.00286
C00L  1    0.371036    0.787473    0.333064    11.00000    0.01555    0.01743 =
         0.01369    0.00245    0.00213    0.00469
AFIX  43
H00L  2    0.411269    0.825719    0.415562    11.00000   -1.20000
AFIX   0
C00M  1    0.345698    0.794131    0.109475    11.00000    0.01622    0.01658 =
         0.01280    0.00173    0.00050    0.00137
AFIX  43
H00M  2    0.369663    0.836034    0.039834    11.00000   -1.20000
AFIX   0
C00N  1    0.775377    0.796319    0.442689    11.00000    0.01193    0.01157 =
         0.01703    0.00220    0.00272    0.00222
AFIX  13
H00N  2    0.670992    0.768521    0.460308    11.00000   -1.20000
AFIX   0
C00O  1    0.275979    0.672120    0.313156    11.00000    0.01564    0.01791 =
         0.01913    0.00793    0.00431    0.00382
AFIX  43
H00O  2    0.252016    0.630412    0.382911    11.00000   -1.20000
AFIX   0
C00P  1    0.248379    0.678669    0.092072    11.00000    0.01614    0.01975 =
         0.01588   -0.00054   -0.00249    0.00066
AFIX  43
H00P  2    0.204542    0.642534    0.009900    11.00000   -1.20000
AFIX   0
C00Q  1    0.729715    0.849894    0.057912    11.00000    0.02113    0.01662 =
         0.01557    0.00215    0.00510    0.00321
C00R  1    0.552643    0.426583    0.151481    11.00000    0.02136    0.01848 =
         0.01578   -0.00179   -0.00135    0.00303
AFIX  43
H00R  2    0.516419    0.393898    0.066704    11.00000   -1.20000
AFIX   0
C00S  1    0.653272    0.539674    0.178449    11.00000    0.02187    0.01591 =
         0.01456    0.00151    0.00353    0.00313
AFIX  43
H00S  2    0.685184    0.583305    0.112116    11.00000   -1.20000
AFIX   0
C00T  1    0.114355    0.487088    0.173878    11.00000    0.01882    0.01829 =
         0.03108    0.00529   -0.00003   -0.00324
AFIX 137
H00T  2    0.167459    0.421763    0.212088    11.00000   -1.50000
H00U  2    0.088113    0.457796    0.083982    11.00000   -1.50000
H00V  2    0.022577    0.498370    0.213166    11.00000   -1.50000
AFIX   0
H00K  2    0.776471    0.789802    0.007014    11.00000    0.01373
H00Q  2    0.660294    0.901549    0.015303    11.00000    0.02010
HKLF 4




REM  26octb_0m_a.res in P-1
REM R1 =  0.0456 for    3111 Fo > 4sig(Fo)  and  0.0705 for all    4065 data
REM    271 parameters refined using      0 restraints

END

WGHT      0.0762      0.0434

REM Highest difference peak  0.409,  deepest hole -0.464,  1-sigma level  0.115
Q1    1   0.9599  0.7938  0.5591  11.00000  0.05    0.41
Q2    1   0.8701  0.8597  0.7345  11.00000  0.05    0.37
Q3    1   1.0231  0.8859  0.7635  11.00000  0.05    0.36
Q4    1   0.4651  0.9144  0.2381  11.00000  0.05    0.36
Q5    1   1.0285  0.7199  0.5275  11.00000  0.05    0.36
Q6    1   0.9811  0.8253  0.7921  11.00000  0.05    0.35
Q7    1   1.0408  0.7152  0.6502  11.00000  0.05    0.34
Q8    1   0.9806  0.7046  0.8362  11.00000  0.05    0.34
Q9    1   0.9466  0.9179  0.8034  11.00000  0.05    0.33
Q10   1   1.0720  0.7782  0.7340  11.00000  0.05    0.32
Q11   1   0.8934  1.0360  0.9694  11.00000  0.05    0.32
Q12   1   0.2099  0.3088  0.2824  11.00000  0.05    0.32
Q13   1   0.0832  0.4359  0.2278  11.00000  0.05    0.31
Q14   1   0.9758  0.9391  0.9841  11.00000  0.05    0.31
Q15   1   0.9010  0.7479  0.5790  11.00000  0.05    0.31
Q16   1   1.1568  0.7397  0.6771  11.00000  0.05    0.31
Q17   1   1.0241  0.9053  0.8935  11.00000  0.05    0.31
Q18   1   0.8729  0.6571  0.5283  11.00000  0.05    0.29
Q19   1   1.0327  0.7864  0.9085  11.00000  0.05    0.29
Q20   1   1.0584  0.5652  0.6602  11.00000  0.05    0.29
;
_shelx_res_checksum              30946
_shelx_hkl_file
;
  -1   0   0    0.20    0.40
  -1   0   0   -0.40    0.50
   1   0   0    0.40    0.40
   1   0   0   -0.20    0.30
  -2   0   0   10.20    2.40
  -2   0   0   10.30    2.90
  -2   0   0   12.50    2.90
  -2   0   0    7.50    3.00
   2   0   0   10.20    2.40
   2   0   0   11.20    3.60
   2   0   0    9.50    2.70
  -3   0   0 1159.38   32.00
  -3   0   0 1149.69   29.20
  -3   0   0 1156.28   36.60
  -3   0   0 1172.18   28.00
   3   0   0 1103.19   36.80
   3   0   0 1180.78   28.70
   3   0   0 1155.68   32.00
  -4   0   0  713.43   24.90
  -4   0   0  722.03   23.60
  -4   0   0  728.73   27.70
   4   0   0  758.42   24.90
   4   0   0  765.72   34.10
   4   0   0  767.92   28.40
  -5   0   0  534.15   23.40
  -5   0   0  538.65   25.90
  -5   0   0  559.04   22.10
   5   0   0  544.95   26.30
   5   0   0  559.34   23.40
   5   0   0  518.35   31.30
  -6   0   0    1.30    2.80
  -6   0   0   -6.80    2.90
   6   0   0   -2.70    4.80
   6   0   0   10.80    4.70
  -7   0   0    5.00    5.80
  -7   0   0    5.50    3.80
   7   0   0    8.60    5.70
   7   0   0    5.00    5.90
  -8   0   0   28.90    8.20
  -8   0   0   21.40    7.90
   8   0   0   34.30   11.70
   8   0   0   24.20    8.60
  -9   0   0  255.27   19.30
  -9   0   0  200.38   21.00
   9   0   0  239.38   35.40
   9   0   0  242.38   21.80
 -10   0   0   69.49   15.30
 -10   0   0   57.79   12.30
  10   0   0   47.20   15.00
 -11   0   0   23.70   11.00
  11   0   0   35.00   15.00
  11   0   0   60.59   18.60
  11  -1   0  -17.20   13.90
 -11   1   0   29.00   10.10
  10  -1   0    5.20   10.30
  10  -1   0   10.10    7.20
 -10   1   0   -3.00    4.00
   9  -1   0   -5.00    8.00
   9  -1   0    6.60    7.10
  -9   1   0    3.30    5.50
   8  -1   0   12.40    6.80
   8  -1   0    1.70    9.00
  -8   1   0   15.50    7.50
  -8   1   0   17.50    6.10
   7  -1   0   -4.40    6.40
   7  -1   0   -1.40    5.00
  -7   1   0    4.00    3.60
  -7   1   0   13.00    4.60
   6  -1   0  103.49   18.50
   6  -1   0   78.19   12.70
  -6   1   0   89.39   13.40
  -6   1   0   91.49    9.60
   5  -1   0  383.76   26.00
   5  -1   0  346.37   21.10
   5  -1   0  327.57   17.60
   5  -1   0  329.67   24.00
  -5   1   0  343.67   18.70
  -5   1   0  302.87   21.10
  -5   1   0  334.67   18.00
   4  -1   0  401.56   17.70
   4  -1   0  421.06   21.00
   4  -1   0  368.56   19.10
   4  -1   0  378.26   22.90
  -4   1   0  412.56   20.70
  -4   1   0  413.66   17.40
   3  -1   0 3285.67   64.99
   3  -1   0 3150.58   58.19
   3  -1   0 3146.59   68.69
   3  -1   0 3354.96   63.59
  -3   1   0 3363.46   58.29
  -3   1   0 3285.87   64.79
   2  -1   0 4891.71   82.09
   2  -1   0 5119.59   81.49
   2  -1   0 5115.49   77.09
   2  -1   0 5013.80   83.99
  -2   1   0 4907.31   82.79
  -2   1   0 5056.79   81.29
  -2   1   0 4982.30   81.89
  -2   1   0 5129.19   76.79
   1  -1   0    0.80    0.90
   1  -1   0    0.80    1.10
   1  -1   0    0.60    0.70
  -1   1   0    0.10    0.90
  -1   1   0    0.50    0.80
  -1   1   0    1.60    0.90
  -1  -1   0 1056.59   22.50
  -1  -1   0 1068.59   24.40
  -1  -1   0 1120.09   24.60
   1   1   0 1106.09   25.10
   1   1   0 1110.19   23.10
  -2  -1   0  166.48    9.80
  -2  -1   0  187.78   11.80
  -2  -1   0  172.58    9.30
   2   1   0  181.38    9.40
   2   1   0  164.88   11.40
   2   1   0  176.88   10.10
  -3  -1   0    2.70    1.80
  -3  -1   0    0.60    1.70
  -3  -1   0    0.40    2.80
  -3  -1   0    0.30    1.70
   3   1   0    1.10    2.00
   3   1   0   10.80    4.40
   3   1   0   -0.20    2.20
  -4  -1   0  396.76   18.50
  -4  -1   0  404.46   17.70
  -4  -1   0  391.26   20.30
   4   1   0  373.16   19.40
   4   1   0  399.46   24.80
   4   1   0  390.16   17.90
  -5  -1   0    2.40    3.50
  -5  -1   0   12.40    5.40
  -5  -1   0   13.90    4.70
   5   1   0    8.40    4.70
   5   1   0   10.20    5.40
  -6  -1   0    4.80    3.10
  -6  -1   0   -3.30    2.20
   6   1   0   -3.10    4.60
   6   1   0    4.00    3.90
  -7  -1   0   14.70    5.20
  -7  -1   0   -8.00    4.20
   7   1   0   -0.50    5.30
  -8  -1   0   35.60   10.30
  -8  -1   0   50.29    9.20
   8   1   0   40.10   13.50
  -9  -1   0   -1.20    4.90
  -9  -1   0   15.50    8.10
   9   1   0   -6.40    5.40
   9   1   0    4.70   10.40
 -10  -1   0  196.48   18.80
 -10  -1   0  187.88   22.20
  10   1   0  239.38   38.70
  10   1   0  140.89   20.80
 -11  -1   0    4.00    9.30
 -11  -1   0   -3.20    8.40
  11   1   0   -7.70   10.20
  11   1   0   10.20   14.80
  11  -2   0    2.00   15.10
  11  -2   0   18.30   11.10
 -11   2   0    2.30   10.30
  10  -2   0    6.70    8.40
  10  -2   0   13.40   12.50
 -10   2   0   18.40   14.60
   9  -2   0  179.08   20.80
   9  -2   0  167.98   29.00
  -9   2   0  143.49   15.70
   8  -2   0  184.18   28.70
   8  -2   0  222.68   20.40
  -8   2   0  182.18   16.90
   7  -2   0    6.90    5.80
   7  -2   0    7.80    6.50
  -7   2   0   15.90    6.50
   6  -2   0   12.10    6.00
   6  -2   0   12.80    7.70
  -6   2   0    6.00    4.00
   5  -2   0   20.10    7.00
   5  -2   0    9.80    6.10
   5  -2   0   27.40    7.60
   5  -2   0   21.50    5.80
  -5   2   0   14.90    4.90
   4  -2   0  128.69   12.10
   4  -2   0  113.39    9.80
   4  -2   0  137.59   12.90
   4  -2   0  133.39   13.10
  -4   2   0  133.39   13.00
  -4   2   0  125.69   10.10
   3  -2   0 2430.16   56.49
   3  -2   0 2377.76   49.30
   3  -2   0 2389.26   55.09
   3  -2   0 2418.06   55.99
  -3   2   0 2449.55   54.89
  -3   2   0 2324.77   48.70
  -3   2   0 2384.06   54.29
   2  -2   0 3994.60   69.09
   2  -2   0 3937.11   67.19
   2  -2   0 3999.50   73.89
  -2   2   0 4047.89   73.59
  -2   2   0 3951.90   68.19
  -2   2   0 4023.80   67.79
   1  -2   0  706.13   19.50
   1  -2   0  675.63   22.40
   1  -2   0  702.33   15.50
  -1   2   0  674.33   15.60
  -1   2   0  667.43   19.20
  -1   2   0  672.23   22.10
   0  -2   0   33.00    5.70
   0  -2   0   45.70    4.50
   0  -2   0   43.90    2.90
   0   2   0   42.70    6.30
   0   2   0   44.90    4.60
   0   2   0   39.40    2.90
  -2  -2   0   67.29    6.50
  -2  -2   0   68.19    7.40
  -2  -2   0   62.19    7.10
   2   2   0   67.49    7.30
   2   2   0   60.19    6.50
   2   2   0   63.79    7.60
  -3  -2   0  262.07   17.30
  -3  -2   0  262.77   16.10
  -3  -2   0  254.17   14.30
   3   2   0  252.37   14.40
   3   2   0  284.07   16.20
   3   2   0  263.57   18.20
  -4  -2   0  781.82   31.20
  -4  -2   0  787.12   27.60
  -4  -2   0  761.82   28.00
   4   2   0  748.43   27.80
   4   2   0  764.42   29.80
   4   2   0  754.52   35.70
  -5  -2   0 1940.71   56.49
  -5  -2   0 1931.01   49.40
  -5  -2   0 1889.81   51.09
   5   2   0 1962.50   51.39
   5   2   0 1958.60   54.79
   5   2   0 2024.90   67.59
  -6  -2   0  138.29   15.00
  -6  -2   0  168.48   14.20
   6   2   0  178.78   25.50
  -7  -2   0   95.19   15.90
  -7  -2   0   68.09   11.80
   7   2   0   50.29   13.60
  -8  -2   0  278.87   20.60
  -8  -2   0  254.97   22.90
   8   2   0  231.68   27.70
  -9  -2   0   -4.30    5.50
  -9  -2   0  -17.40    5.70
   9   2   0   14.90    8.90
 -10  -2   0  295.97   25.70
 -10  -2   0  292.37   23.00
  10   2   0  304.97   36.80
  10   2   0  325.57   27.40
 -11  -2   0   76.69   16.40
 -11  -2   0   49.99   18.50
  11   2   0   58.29   22.50
  11  -3   0   78.39   21.50
  11  -3   0   90.09   21.10
 -11   3   0   95.79   16.00
  10  -3   0  -10.30    8.30
 -10   3   0   13.80    7.80
   9  -3   0    1.90    6.70
   9  -3   0    8.70    8.70
  -9   3   0    7.30    5.30
   8  -3   0    0.00    8.00
   8  -3   0    9.40    6.80
  -8   3   0   -3.30    4.70
   7  -3   0    0.90    4.20
  -7   3   0    4.10    4.20
   6  -3   0  217.88   19.20
   6  -3   0  199.68   20.30
  -6   3   0  189.08   15.70
   5  -3   0  302.87   22.80
   5  -3   0  337.87   22.60
  -5   3   0  365.06   19.90
   4  -3   0 9075.09  161.18
   4  -3   0 9389.16  149.69
   4  -3   0 9313.57  160.18
   4  -3   0 9678.03  160.08
  -4   3   0 9387.86  159.18
  -4   3   0 9508.85  156.48
  -4   3   0 9297.07  148.99
   3  -3   0 2642.54   73.89
   3  -3   0 2645.74   56.49
   3  -3   0 2589.24   63.99
   3  -3   0 2751.42   58.79
  -3   3   0 2653.93   57.19
  -3   3   0 2670.33   63.19
   2  -3   0  256.67   13.50
   2  -3   0  252.57   16.20
   2  -3   0  266.47   12.10
  -2   3   0  221.28   14.90
  -2   3   0  255.27   13.80
  -2   3   0  245.18   11.70
   1  -3   0  132.19    9.30
   1  -3   0  130.19    5.70
   1  -3   0  128.79   11.40
  -1   3   0  130.09    6.10
  -1   3   0  131.59    9.60
  -1   3   0  122.09   10.50
   0  -3   0   62.59    9.10
   0  -3   0   85.99    7.50
   0  -3   0   72.09    4.50
   0   3   0   82.29    5.10
   0   3   0   71.89    7.20
   0   3   0   81.19    4.80
   0   3   0   73.29    8.50
  -1  -3   0 4171.58   69.89
  -1  -3   0 4100.09   74.39
  -1  -3   0 4252.77   81.79
   1   3   0 4126.29   71.29
   1   3   0 4178.78   76.69
   1   3   0 4241.28   81.19
  -2  -3   0  736.53   29.00
  -2  -3   0  763.62   40.20
   2   3   0  714.33   26.40
   2   3   0  708.83   27.20
  -3  -3   0  531.15   26.60
  -3  -3   0  525.55   26.00
  -3  -3   0  553.04   23.30
   3   3   0  546.75   24.00
   3   3   0  542.45   25.00
   3   3   0  556.24   27.60
  -4  -3   0   26.20    6.80
  -4  -3   0   21.00    6.90
   4   3   0   20.40    6.30
   4   3   0   20.30    6.30
   4   3   0   43.00   10.20
  -5  -3   0   31.40    7.50
  -5  -3   0   33.40    9.80
   5   3   0   25.30    8.40
   5   3   0   28.30    7.50
  -6  -3   0    1.70    3.60
  -6  -3   0    3.50    5.10
   6   3   0   -3.00    3.60
   6   3   0   -3.30    4.40
  -7  -3   0   71.29   14.00
  -7  -3   0   60.29   10.80
   7   3   0   66.49   16.30
   7   3   0   69.29   12.40
  -8  -3   0  183.98   16.20
  -8  -3   0  144.29   20.30
   8   3   0  181.48   30.00
  -9  -3   0    2.60    5.00
  -9  -3   0  -16.70    6.90
   9   3   0   15.50    8.30
 -10  -3   0   30.50   14.20
 -10  -3   0   19.60    9.80
  10   3   0    1.70   12.50
 -11  -3   0  156.68   21.50
  11   3   0  264.97   46.00
  11   3   0  123.99   25.10
  11  -4   0  103.89   26.40
  11  -4   0  109.89   22.50
 -11   4   0   77.39   17.80
  10  -4   0   54.39   17.80
  10  -4   0   53.89   15.80
 -10   4   0   19.30    9.50
   9  -4   0   34.50    9.40
   9  -4   0   61.69   16.70
  -9   4   0   50.99   11.70
   8  -4   0   14.80    7.40
   8  -4   0   15.30    8.20
  -8   4   0   14.60    7.10
   7  -4   0   43.90   13.40
   7  -4   0   30.40   10.60
  -7   4   0   40.90    9.70
   6  -4   0  725.03   38.10
   6  -4   0  674.13   37.20
  -6   4   0  706.83   31.90
   5  -4   0   82.59   15.20
   5  -4   0   59.19   11.40
  -5   4   0   78.69   12.30
   4  -4   0  752.12   35.70
   4  -4   0  797.82   46.80
  -4   4   0  768.42   30.40
  -4   4   0  800.92   31.20
   3  -4   0  353.96   17.30
   3  -4   0  384.86   23.90
  -3   4   0  309.37   18.20
  -3   4   0  376.46   17.70
   2  -4   0  249.68   11.00
   2  -4   0  247.68   18.30
   2  -4   0  245.58   14.90
  -2   4   0  236.88   11.30
  -2   4   0  226.38   17.10
  -2   4   0  262.57   16.10
   1  -4   0   47.50    3.60
   1  -4   0   41.20    7.10
   1  -4   0   33.20    8.10
  -1   4   0   44.40    3.80
  -1   4   0   51.59    9.50
  -1   4   0   44.90    3.40
  -1   4   0   52.69    8.70
   0  -4   0  122.89   12.60
   0  -4   0  103.29    6.00
   0  -4   0  105.59    9.40
   0   4   0  100.29   11.00
   0   4   0  115.69    6.40
   0   4   0  101.19   10.00
   0   4   0  117.09    6.90
  -1  -4   0   37.40    5.90
  -1  -4   0   40.00    7.60
  -1  -4   0   44.00    9.20
   1   4   0   33.20    7.00
   1   4   0   34.70    5.90
   1   4   0   48.20    9.80
  -2  -4   0  988.00   38.40
  -2  -4   0  952.90   32.70
  -2  -4   0  979.20   31.80
   2   4   0  994.80   34.10
   2   4   0  943.61   34.50
   2   4   0  951.50   36.70
  -3  -4   0  408.26   24.80
   3   4   0  398.66   24.10
   3   4   0  429.56   23.40
  -4  -4   0   63.09   12.20
   4   4   0   59.89   11.40
   4   4   0   56.79   12.40
  -5  -4   0   18.80    7.20
   5   4   0   24.80    9.80
   5   4   0   39.60    9.60
  -6  -4   0    2.60    4.10
  -6  -4   0   -1.90    4.20
   6   4   0    1.70    4.90
   6   4   0   10.00    6.60
  -7  -4   0   38.80   10.60
  -7  -4   0   47.20   11.40
   7   4   0   51.39   17.00
   7   4   0   65.89   11.90
  -8  -4   0   16.20    9.90
  -8  -4   0    5.10    6.90
   8   4   0    9.30   10.60
  -9  -4   0  866.21   40.40
  -9  -4   0  890.71   48.10
   9   4   0 1192.88  101.89
 -10  -4   0  -12.20    7.10
  10   4   0  -21.70   13.00
  11  -5   0   65.69   20.00
  11  -5   0   18.50   14.50
 -11   5   0   43.40   14.30
  10  -5   0  -17.10   10.30
  10  -5   0    1.40   10.40
 -10   5   0   -3.70    6.70
   9  -5   0   14.50    9.10
   9  -5   0   13.00    9.20
  -9   5   0   19.80    9.00
   8  -5   0    5.80    7.60
   8  -5   0    9.30    7.80
  -8   5   0    5.20    6.70
   7  -5   0   -8.30    7.30
   7  -5   0    6.30    6.40
  -7   5   0    5.30    4.70
   6  -5   0    0.00    4.00
   6  -5   0   12.70    5.10
  -6   5   0   -1.90    3.80
   5  -5   0   96.99   17.10
   5  -5   0  125.19   13.40
  -5   5   0  108.69   12.30
   4  -5   0   68.99   10.00
   4  -5   0   71.09   14.20
  -4   5   0   49.50    9.60
  -4   5   0   80.49    9.20
   3  -5   0  440.16   28.40
   3  -5   0  433.46   18.10
  -3   5   0  453.35   19.00
  -3   5   0  471.65   24.80
   2  -5   0  142.59    7.70
   2  -5   0  124.29   14.50
  -2   5   0  151.88   13.50
  -2   5   0  127.19    8.30
   1  -5   0   96.89   14.80
  -1   5   0  109.09   11.10
  -1   5   0   83.49    5.60
  -1   5   0   84.09    5.20
   0  -5   0  438.26   14.40
   0  -5   0  422.06   26.10
   0   5   0  425.36   15.40
   0   5   0  442.06   14.60
   0   5   0  436.56   23.50
  -1  -5   0 2656.93   72.79
  -1  -5   0 2641.54   52.99
   1   5   0 2683.33   56.69
   1   5   0 2712.03   67.39
  -2  -5   0  569.14   31.40
  -2  -5   0  572.54   24.00
   2   5   0  531.85   27.80
   2   5   0  529.55   25.70
  -3  -5   0   34.30    9.40
   3   5   0   38.60    9.50
   3   5   0   29.50    7.80
  -4  -5   0   44.40    9.50
   4   5   0   35.90   10.60
   4   5   0   49.80   12.20
  -5  -5   0   -4.60    4.20
   5   5   0    3.20    4.60
   5   5   0    1.00    6.00
  -6  -5   0   54.69   13.30
   6   5   0   48.50   13.80
   6   5   0   42.90   11.30
  -7  -5   0   -1.40    4.60
  -7  -5   0    1.20    5.20
   7   5   0   -3.70    4.80
   7   5   0    9.50    6.10
  -8  -5   0    1.50    8.20
  -8  -5   0    9.50    6.70
   8   5   0   41.00   14.70
   8   5   0   22.50    9.10
  -9  -5   0  257.27   23.50
  -9  -5   0  306.87   30.70
   9   5   0  205.98   35.30
 -10  -5   0   45.50   15.60
 -10  -5   0   43.40   14.80
  10   5   0  105.89   30.30
  11  -6   0  129.39   26.10
  11  -6   0   66.49   20.30
 -11   6   0   89.59   16.60
  10  -6   0   -4.90   10.60
  10  -6   0    4.60    9.90
 -10   6   0   -4.00    8.60
   9  -6   0   19.90   13.60
   9  -6   0   44.80   12.20
  -9   6   0   39.50   11.00
   8  -6   0  104.19   22.30
   8  -6   0  125.59   20.50
  -8   6   0  106.29   17.00
   7  -6   0  139.49   21.20
   7  -6   0  158.78   25.20
  -7   6   0  186.58   19.10
   6  -6   0  376.46   25.90
   6  -6   0  339.07   30.00
  -6   6   0  326.27   24.40
   5  -6   0   67.49   15.20
   5  -6   0   70.69   12.30
  -5   6   0   70.29   13.30
   4  -6   0    1.40    5.70
  -4   6   0   -1.40    3.10
  -4   6   0   -3.00    3.30
   3  -6   0  101.79    8.00
   3  -6   0  132.99   16.30
  -3   6   0  106.09    9.10
  -3   6   0   98.19   11.80
   2  -6   0   20.80    3.50
   2  -6   0   27.80    8.90
  -2   6   0   25.30    7.50
  -2   6   0   19.80    3.30
  -2   6   0   28.70    4.80
   1  -6   0  459.05   30.40
  -1   6   0  469.35   14.30
  -1   6   0  462.45   26.50
  -1   6   0  448.36   14.50
   0  -6   0   55.69   12.40
   0   6   0   50.59   10.60
   0   6   0   56.09    6.00
   0   6   0   66.49    5.90
  -1  -6   0   35.80    7.70
  -1  -6   0   45.50   11.00
   1   6   0   51.19    8.50
   1   6   0   48.90   10.50
  -2  -6   0   42.50    7.70
  -2  -6   0   40.20   10.50
   2   6   0   41.80    9.10
   2   6   0   61.69   12.30
  -3  -6   0    8.10    6.70
   3   6   0   33.30    8.70
   3   6   0   21.20    7.50
  -4  -6   0   11.10    7.10
   4   6   0   18.30    8.50
   4   6   0   20.30    8.30
  -5  -6   0   71.19   16.90
   5   6   0  110.29   17.60
   5   6   0   54.69   14.70
  -6  -6   0   -3.40    7.00
   6   6   0    8.80    6.90
   6   6   0    3.00    7.90
  -7  -6   0   10.80   11.10
   7   6   0   12.80   10.20
   7   6   0   -3.90   11.70
  -8  -6   0    3.10    9.90
  -8  -6   0   -2.10    6.90
   8   6   0   12.10   12.20
   8   6   0   -8.60    4.60
  -9  -6   0   -5.70    9.20
  -9  -6   0   -2.30   10.70
   9   6   0   15.30    9.20
   9   6   0   -3.40   12.90
 -10  -6   0  166.28   26.60
 -10  -6   0  206.28   24.80
  10   6   0  174.08   35.80
  10  -7   0  -24.30   10.80
  10  -7   0   -8.00    9.20
 -10   7   0   18.00    7.60
   9  -7   0  -20.80    8.70
   9  -7   0   -6.70    8.60
  -9   7   0  -12.70    6.30
   8  -7   0  809.02   45.30
   8  -7   0  746.33   49.90
  -8   7   0  853.41   45.10
   7  -7   0  402.66   28.90
   7  -7   0  461.95   37.50
  -7   7   0  407.66   30.00
   6  -7   0   70.69   12.30
   6  -7   0   50.99   14.00
  -6   7   0   55.99   13.10
   5  -7   0   75.09   17.50
   5  -7   0   90.29   10.20
  -5   7   0   98.89   17.00
   4  -7   0    3.20    3.10
   4  -7   0    4.00    6.10
  -4   7   0   -2.20    3.90
   3  -7   0   -1.30    2.60
   3  -7   0    1.60    2.00
  -3   7   0   -4.50    2.20
  -3   7   0    4.80    4.10
   2  -7   0   61.79   14.30
  -2   7   0   65.39    4.90
  -2   7   0   46.40    5.20
  -2   7   0   60.19   12.10
   1  -7   0    9.00    7.20
  -1   7   0   -1.30    2.70
  -1   7   0   -1.00    1.70
  -1   7   0   -3.50    1.90
   0  -7   0   -1.40    4.60
   0   7   0    0.00    2.20
   0   7   0    0.40    2.40
   0   7   0    0.50    3.90
  -1  -7   0   52.99    8.00
  -1  -7   0   44.40   12.70
   1   7   0   47.40   12.00
   1   7   0   52.79    8.10
   1   7   0   62.29    9.80
  -2  -7   0   91.99   18.00
   2   7   0  108.09   17.90
   2   7   0   99.29   14.50
  -3  -7   0   26.30   10.30
   3   7   0   16.30    6.80
   3   7   0   20.40    7.70
  -4  -7   0  229.48   24.10
   4   7   0  201.38   22.30
   4   7   0  188.48   20.50
   5   7   0  117.19   21.40
  -6  -7   0   35.60   12.40
   6   7   0   42.20   12.80
   6   7   0   57.49   14.60
  -7  -7   0   94.59   19.90
   7   7   0   81.99   20.80
   7   7   0  120.69   21.00
  -8  -7   0   11.10    9.70
  -8  -7   0   10.70   10.20
   8   7   0   13.30    9.00
  -9  -7   0   20.40    9.90
  -9  -7   0   -8.40   11.10
   9   7   0    8.10   10.40
   9   7   0  -18.30   13.30
  10  -8   0  240.38   27.70
  10  -8   0  182.98   42.00
 -10   8   0  271.57   27.00
   9  -8   0   70.89   17.00
   9  -8   0   56.79   18.80
  -9   8   0   77.89   19.50
   8  -8   0   33.00   12.40
   8  -8   0   30.10   15.00
  -8   8   0   13.00   12.90
   7  -8   0   63.39   14.20
   7  -8   0   49.20   17.90
  -7   8   0   47.90   11.00
   6  -8   0    0.60    4.30
   6  -8   0   -5.00    4.80
  -6   8   0    5.10    5.40
   5  -8   0   37.90   14.80
   5  -8   0   26.80    7.40
  -5   8   0   35.40    8.10
  -5   8   0   16.30    9.40
   4  -8   0   19.90    4.60
   4  -8   0    0.40    7.50
  -4   8   0   21.00   10.50
  -4   8   0   27.10    6.30
   3  -8   0  453.95   36.10
  -3   8   0  469.75   31.50
  -3   8   0  455.15   15.80
  -3   8   0  468.35   14.30
   2  -8   0   65.49   16.10
  -2   8   0   67.49   13.90
  -2   8   0   65.39    4.70
  -2   8   0   63.29    5.00
   1  -8   0   58.79   16.30
  -1   8   0   44.80    5.10
  -1   8   0   59.99    5.60
  -1   8   0   61.89   13.80
   0  -8   0    4.90    8.70
   0   8   0   14.00    4.20
   0   8   0    8.50    3.50
   0   8   0   10.20    8.70
  -1  -8   0   16.70    9.00
  -1  -8   0   19.90    5.50
   1   8   0   11.20    7.20
   1   8   0   20.50   10.60
   1   8   0   17.60    6.00
  -2  -8   0  411.66   34.20
   2   8   0  386.76   24.20
   2   8   0  363.86   28.80
  -3  -8   0   77.89   18.20
   3   8   0   53.09   14.20
   3   8   0   60.39   12.70
  -4  -8   0    0.00    7.00
   4   8   0    0.80    7.90
   4   8   0   14.30    7.10
  -5  -8   0   50.99   16.90
   5   8   0   25.20   11.50
   5   8   0   10.70   11.30
  -6  -8   0   40.20   14.90
   6   8   0   33.40   11.80
   6   8   0   21.00   11.30
  -7  -8   0  -13.50    8.60
   7   8   0   -6.30   10.80
   7   8   0  -13.00    9.80
  -8  -8   0   -8.90   10.50
   8   8   0   28.50   12.70
   8   8   0   21.70   14.20
   9  -9   0  232.28   24.70
   9  -9   0  188.58   33.30
  -9   9   0  260.57   29.10
   8  -9   0   24.80   11.90
   8  -9   0   50.29   19.50
  -8   9   0   -2.20   10.20
   7  -9   0   98.59   15.20
   7  -9   0   76.49   23.10
  -7   9   0   71.09   17.30
   6  -9   0   47.50    8.70
   6  -9   0   30.40   13.30
  -6   9   0   45.10   12.10
   5  -9   0    6.40    2.90
   5  -9   0   -7.10    7.00
  -5   9   0   10.70    8.10
  -5   9   0    8.60    6.80
   4  -9   0  136.39    7.90
   4  -9   0  113.49   23.80
  -4   9   0  125.49    8.70
  -4   9   0  115.89   21.80
  -4   9   0  114.99    7.60
   3  -9   0  106.89   21.40
  -3   9   0  116.29   21.40
   2  -9   0  128.19   25.40
  -2   9   0  123.49   21.10
   1  -9   0   -4.80    3.80
  -1   9   0    0.30    2.50
  -1   9   0    9.40    6.00
  -1   9   0   -0.50    2.00
   0  -9   0   -9.80    5.80
   0   9   0   -5.60    3.30
   0   9   0    6.90    5.30
   0   9   0   -0.60    3.60
  -1  -9   0   42.70   13.80
   1   9   0   48.70    8.40
   1   9   0   39.90   12.70
   1   9   0   52.59   10.20
  -2  -9   0  221.38   32.50
   2   9   0  200.48   17.60
   2   9   0  197.78   22.90
  -3  -9   0   91.49   22.30
   3   9   0   67.29   13.90
   3   9   0   72.39   17.40
  -4  -9   0    2.80   10.00
   4   9   0    3.80    8.90
   4   9   0   20.90    9.50
  -5  -9   0   23.00   14.40
   5   9   0   41.80   14.50
   5   9   0   51.19   13.70
  -6  -9   0   66.39   18.50
   6   9   0   75.69   19.10
   6   9   0   58.89   17.40
  -7  -9   0   71.09   14.30
   7   9   0   18.20   10.40
   7   9   0   19.70   11.10
  -8  -9   0  144.59   23.40
  -8  -9   0   55.09   19.70
   8   9   0   86.79   22.10
   8   9   0  109.79   27.00
   9 -10   0  132.69   26.30
  -9  10   0   98.29   21.00
   8 -10   0  157.48   16.80
   8 -10   0  110.19   24.90
  -8  10   0  114.49   22.60
   7 -10   0   14.70   14.10
   7 -10   0   34.60    8.10
  -7  10   0   40.50   13.40
   6 -10   0   28.60   15.20
  -6  10   0   40.60   14.80
   5 -10   0  119.79    7.60
   5 -10   0   98.89   22.20
  -5  10   0  102.09    7.30
  -5  10   0   84.99    8.80
  -5  10   0  118.09   22.20
   4 -10   0  194.38   31.50
  -4  10   0  202.98   23.80
   3 -10   0   38.90   15.00
  -3  10   0   34.40   12.80
   2 -10   0   46.20   14.40
  -2  10   0   67.59   17.80
   1 -10   0   25.20    7.70
  -1  10   0   23.90    8.90
   0 -10   0    1.90    7.30
   0  10   0   18.00    5.20
   0  10   0   18.40   11.90
   0  10   0   24.00    5.40
  -1 -10   0   16.10   10.40
   1  10   0   17.70    7.40
   1  10   0   15.60    9.60
   1  10   0   11.50    7.40
  -2 -10   0   45.50   16.40
   2  10   0   62.19   17.00
   2  10   0   78.99   12.50
  -3 -10   0  188.08   32.80
   3  10   0  157.68   19.00
   3  10   0  164.88   26.80
  -4 -10   0    2.40    8.70
   4  10   0    1.70    9.20
   4  10   0    6.30    9.10
  -5 -10   0   18.90   13.20
   5  10   0   19.80   12.10
   5  10   0    1.40   12.30
  -6 -10   0   24.90   15.10
   6  10   0   24.40   12.70
   6  10   0   20.40   14.10
  -7 -10   0   42.20   21.30
   7  10   0   53.39   16.60
   7  10   0   64.39   22.10
   8 -11   0  122.89   32.80
  -8  11   0  150.58   27.00
   7 -11   0   -6.80   13.10
  -7  11   0  -14.00    7.30
   6 -11   0    9.90   17.00
  -6  11   0   14.00   11.50
   5 -11   0   90.09   22.10
  -5  11   0  107.79   23.80
   4 -11   0  116.29   27.20
  -4  11   0   70.09   21.80
   3 -11   0  359.66   38.90
  -3  11   0  400.06   36.30
   2 -11   0  241.18   36.90
  -2  11   0  231.38   27.50
   1 -11   0   38.90   15.90
  -1  11   0   40.70   13.50
   0 -11   0   27.80   10.90
   0  11   0   40.20    5.50
   0  11   0   42.30   13.70
   0  11   0   43.60    5.30
  -1 -11   0    7.00   13.10
   1  11   0   42.70   14.80
  -2 -11   0   62.49   20.80
   2  11   0   83.29   14.70
   2  11   0   66.79   20.50
  -3 -11   0  259.47   41.70
   3  11   0  262.77   24.20
   3  11   0  311.47   33.40
   4  11   0  112.19   19.60
  -5 -11   0   42.20   19.50
   5  11   0   38.40   13.40
   5  11   0   30.20   14.60
   7 -12   0  244.48   40.80
   6 -12   0  179.98   35.90
  -6  12   0  211.48   37.70
   5 -12   0  -22.10   11.20
  -5  12   0   -5.90   11.50
   4 -12   0   42.00   19.50
  -4  12   0   31.40   13.10
   3 -12   0  134.69   28.70
  -3  12   0  150.38   28.50
   2 -12   0    0.40    8.10
  -2  12   0    0.50   11.00
   1 -12   0   99.29   23.20
  -1  12   0   73.09   19.90
   0 -12   0   21.00   11.90
   0  12   0  -12.10    9.60
  -1 -12   0  -32.20   12.10
   1  12   0   -6.00    9.20
  -2 -12   0   89.09   26.70
   2  12   0  137.09   18.50
   2  12   0   99.89   25.50
  -3 -12   0   19.40   19.60
   3  12   0   67.59   22.10
   3  12   0   79.69   19.30
  -4 -12   0  325.87   39.40
   4  12   0  255.37   38.20
   4  12   0  296.47   32.40
   5 -13   0  -32.00   12.60
  -5  13   0  -13.70    7.00
   4 -13   0   -6.20   12.20
  -4  13   0   13.00    9.80
   3 -13   0  110.39   29.20
  -3  13   0   96.59   26.40
   2 -13   0  330.87   48.70
  -2  13   0  390.26   40.50
   1 -13   0  134.89   29.60
  -1  13   0  146.59   30.00
   0 -13   0   38.50   18.60
   0  13   0   20.40   15.70
  -1 -13   0  -13.10   14.70
   1  13   0   -2.90   10.30
  -2 -13   0   22.50   17.10
   2  13   0   28.40   15.40
   2  13  -1  333.17   36.90
  -2 -13   1  321.07   51.39
   1  13  -1   78.49   21.20
  -1 -13   1   21.00   14.50
   0  13  -1  -13.90   12.00
   0 -13   1  -35.20   13.00
  -1  13  -1  645.84   50.09
   1 -13   1  629.44   58.19
  -2  13  -1   16.60   11.60
   2 -13   1   15.30   15.20
  -3  13  -1  179.18   33.30
   3 -13   1   93.89   25.50
  -4  13  -1   74.09   21.50
   4 -13   1  150.68   34.10
  -5  13  -1   20.10   17.70
   5 -13   1   58.49   22.00
   4  12  -1   -0.30   13.40
   4  12  -1   27.60   13.20
  -4 -12   1   -7.10   11.50
   3  12  -1  -18.20    9.50
   3  12  -1   16.50   12.10
  -3 -12   1  -29.10   10.20
   2  12  -1  217.28   24.60
   2  12  -1  210.48   32.60
  -2 -12   1  227.18   39.90
   1  12  -1   65.29   12.90
   1  12  -1   33.40   16.80
  -1 -12   1   66.39   23.00
   0  12  -1   32.80   15.00
   0 -12   1   73.09   23.40
  -1  12  -1  315.27   34.60
   1 -12   1  290.27   43.40
  -2  12  -1  381.16   36.30
   2 -12   1  342.97   41.20
  -3  12  -1   72.59   17.30
   3 -12   1   82.69   22.00
  -4  12  -1   -1.80   10.50
   4 -12   1    9.90    9.20
  -5  12  -1   23.00   15.10
   5 -12   1   46.30   17.10
  -6  12  -1   39.80   15.90
   6 -12   1   48.60   20.00
  -7  12  -1   13.10   11.20
   7 -12   1   19.20   16.20
   6  11  -1   82.39   21.50
   6  11  -1   47.10   18.40
  -6 -11   1   81.69   21.50
   5  11  -1   38.00   16.50
   5  11  -1   13.30   15.30
  -5 -11   1   27.90   11.10
   4  11  -1   57.49   14.20
   4  11  -1   13.70   15.00
  -4 -11   1   42.20   14.50
   3  11  -1   12.10    8.30
   3  11  -1  -16.80    8.10
  -3 -11   1    9.00   12.80
   2  11  -1   29.70   10.30
   2  11  -1   34.90   11.10
  -2 -11   1   44.80   18.20
   1  11  -1  173.18   17.70
   1  11  -1  217.28   26.30
  -1 -11   1  205.98   34.60
   0  11  -1  167.08   27.50
   0 -11   1  133.79   27.80
  -1  11  -1   14.00    6.60
  -1  11  -1    7.40    5.00
  -1  11  -1   20.70    9.00
   1 -11   1   21.70   14.50
  -2  11  -1  246.58    9.20
  -2  11  -1  262.57   27.50
   2 -11   1  230.48   36.90
  -3  11  -1  286.87   31.50
   3 -11   1  295.77   35.50
  -4  11  -1   45.20    6.10
  -4  11  -1   79.79   22.20
   4 -11   1   75.79   24.10
  -5  11  -1   -4.80    4.20
  -5  11  -1  -13.50    8.20
   5 -11   1    2.90   10.10
  -6  11  -1   -0.20    8.10
  -6  11  -1    5.60    6.50
   6 -11   1   23.00   14.80
  -7  11  -1   52.29   18.50
   7 -11   1   20.10   19.00
  -8  11  -1   -7.70   10.80
   8 -11   1  -20.70   10.30
   7  10  -1   83.79   18.10
   7  10  -1   57.69   20.40
  -7 -10   1   48.40   21.40
   6  10  -1   34.00   15.10
   6  10  -1   -3.40   11.40
  -6 -10   1   45.70   15.80
   5  10  -1   18.90   13.40
  -5 -10   1   47.10   17.60
   4  10  -1   -2.20    9.60
   4  10  -1    3.30   10.50
  -4 -10   1    8.30    9.90
   3  10  -1  105.89   20.50
   3  10  -1  107.49   17.10
  -3 -10   1  119.29   26.00
   2  10  -1    7.20    6.80
   2  10  -1   14.40    9.30
  -2 -10   1    8.40   12.10
   1  10  -1  151.38   15.00
   1  10  -1  145.29   24.30
  -1 -10   1  141.79   29.00
   0  10  -1  235.88   15.70
   0  10  -1  228.58   24.50
   0 -10   1  231.18   34.30
  -1  10  -1   10.30    6.20
  -1  10  -1   13.60    5.70
  -1  10  -1    6.20    6.10
   1 -10   1    5.40    7.30
  -2  10  -1  155.88   11.70
  -2  10  -1  166.58   25.90
  -2  10  -1  147.09   10.00
   2 -10   1  154.18   28.70
  -3  10  -1   78.19    9.20
  -3  10  -1   91.09   19.30
  -3  10  -1   90.49    7.60
   3 -10   1   67.79   19.70
  -4  10  -1  248.98   26.50
  -4  10  -1  215.68   12.10
   4 -10   1  248.58   37.10
  -5  10  -1  160.98   12.60
  -5  10  -1  167.08   26.30
   5 -10   1  190.98   12.90
   5 -10   1  117.09   25.30
  -6  10  -1   51.79   14.80
   6 -10   1   29.80    7.60
   6 -10   1   42.50   17.90
  -7  10  -1   13.30    9.90
   7 -10   1    3.90   10.90
   7 -10   1   11.80    7.20
  -8  10  -1   28.20   11.50
   8 -10   1    9.90   14.30
  -9  10  -1   80.99   18.20
   9 -10   1   78.69   17.90
   9 -10   1  111.79   17.60
   8   9  -1  106.19   21.70
   8   9  -1  168.78   33.00
  -8  -9   1  157.78   35.20
   7   9  -1   -9.70   12.20
   7   9  -1   28.80    9.50
  -7  -9   1   -2.00   12.80
   6   9  -1  149.29   29.00
   6   9  -1  132.49   22.00
  -6  -9   1  168.18   30.80
   5   9  -1   -5.20    5.50
   5   9  -1   -4.40    8.60
  -5  -9   1   -8.10    7.00
   4   9  -1  113.09   20.80
   4   9  -1  150.28   34.40
  -4  -9   1  157.98   28.70
   3   9  -1   22.80   10.40
   3   9  -1   18.00    7.90
  -3  -9   1    2.90    8.90
   2   9  -1  129.89   15.60
   2   9  -1  107.69   20.30
  -2  -9   1  111.39   23.20
   1   9  -1   71.49   16.20
   1   9  -1   49.80   10.20
  -1  -9   1   52.89   15.60
   0   9  -1   -2.20    4.60
   0   9  -1   -2.30    4.00
   0  -9   1    0.10    3.10
  -1   9  -1  168.98   24.30
  -1   9  -1  160.38   11.40
  -1   9  -1  151.88   12.10
   1  -9   1  116.19   23.50
  -2   9  -1   14.90    4.30
  -2   9  -1    8.10    5.20
  -2   9  -1   14.20    8.20
   2  -9   1    5.10    7.10
  -3   9  -1   65.99    9.30
  -3   9  -1   79.29    7.50
  -3   9  -1   52.89   13.50
   3  -9   1   72.29   18.10
  -4   9  -1   70.99   10.10
  -4   9  -1   54.29   14.30
   4  -9   1   50.19   17.20
  -5   9  -1   -5.40    5.30
   5  -9   1   -3.10    3.70
   5  -9   1   -5.40    4.50
  -6   9  -1   31.30   13.00
   6  -9   1   17.60    6.30
   6  -9   1   40.00   14.60
  -7   9  -1   93.49   19.50
   7  -9   1   85.39   14.90
   7  -9   1   49.50   18.20
   8  -9   1   36.80   13.80
   8  -9   1   25.50   11.00
  -9   9  -1   -2.90    8.60
   9  -9   1  -31.60   13.60
   9  -9   1   -2.90    9.50
   8   8  -1   98.09   16.80
   8   8  -1   81.19   20.90
  -8  -8   1   94.69   22.70
  -8  -8   1   50.19   15.10
   7   8  -1    0.90   10.70
   7   8  -1  -10.10    4.90
  -7  -8   1   12.70   10.80
   6   8  -1   72.39   15.10
   6   8  -1   57.69   17.50
  -6  -8   1   67.19   18.10
   5   8  -1   26.40    9.40
   5   8  -1   -9.90    5.30
  -5  -8   1    6.90    7.40
   4   8  -1    5.60    8.90
   4   8  -1    9.50    7.00
   3   8  -1   23.20    8.80
  -3  -8   1   20.90   10.50
   2   8  -1    3.40    5.70
   2   8  -1    5.20    4.60
  -2  -8   1    6.80    6.70
   1   8  -1    9.70    4.60
   1   8  -1   12.00    6.40
  -1  -8   1    0.50    4.60
   0   8  -1   -1.20    4.70
   0   8  -1   -0.50    3.60
   0   8  -1   -3.10    3.10
   0  -8   1   -5.20    4.10
  -1   8  -1   -4.50    3.30
  -1   8  -1    0.40    3.30
   1  -8   1   -2.90    3.80
  -2   8  -1  250.97   15.20
  -2   8  -1  256.97   13.20
  -2   8  -1  251.27   22.30
   2  -8   1  274.17   27.60
  -3   8  -1    3.20    4.20
  -3   8  -1    8.40    3.00
   3  -8   1    5.10    5.90
   3  -8   1   -0.60    3.10
  -4   8  -1   27.60    9.40
  -4   8  -1   40.40    8.90
   4  -8   1    1.50    8.20
   4  -8   1   26.50    6.20
  -5   8  -1    7.20    6.70
   5  -8   1    9.90    4.90
   5  -8   1    8.50    9.90
  -6   8  -1   68.99   13.80
   6  -8   1   57.29   12.10
   6  -8   1   59.79   17.10
  -7   8  -1  135.79   22.10
   7  -8   1  125.79   19.70
   7  -8   1  120.59   24.70
  -8   8  -1   -8.60    7.20
   8  -8   1   -5.40    7.50
   8  -8   1   23.50   10.40
  -9   8  -1  184.38   27.10
   9  -8   1  182.58   30.60
   9  -8   1  212.28   24.40
  10  -8   1   45.10   20.50
  10  -8   1   39.80   14.00
   9   7  -1   41.80   14.30
   9   7  -1   14.90    9.80
  -9  -7   1   40.40   13.90
  -9  -7   1   22.80   11.30
   8   7  -1  133.19   20.60
  -8  -7   1   76.29   21.60
  -8  -7   1   94.29   17.40
   7   7  -1   99.29   18.10
   7   7  -1  124.09   28.00
  -7  -7   1  105.59   21.90
   6   7  -1    5.60    8.50
   6   7  -1   -8.20    6.20
  -6  -7   1   -7.70    8.50
   5   7  -1  141.49   22.90
   5   7  -1  148.49   17.90
  -5  -7   1  132.19   24.40
   4   7  -1   61.59   13.90
   4   7  -1   78.89   15.90
  -4  -7   1   49.10   16.20
   3   7  -1   53.39   12.00
   3   7  -1   41.20   10.50
  -3  -7   1   66.19   16.10
   2   7  -1    9.20    4.30
   2   7  -1    1.40    4.50
  -2  -7   1    2.70    4.90
   1   7  -1    0.30    3.30
   1   7  -1   -0.90    2.20
   1   7  -1    4.50    3.50
  -1  -7   1   -1.20    5.50
  -1  -7   1   -1.00    3.10
   0   7  -1   79.09    8.10
   0   7  -1   74.49   13.90
   0  -7   1   69.69   15.30
  -1   7  -1   23.70    8.40
  -1   7  -1   30.80    5.60
  -1   7  -1   20.60    4.50
   1  -7   1    8.90    5.50
  -2   7  -1  166.48   16.90
  -2   7  -1  157.28   11.50
  -2   7  -1  161.88   10.30
   2  -7   1  169.38   10.60
   2  -7   1  174.08   20.10
  -3   7  -1   55.89   11.70
  -3   7  -1   56.69    8.70
   3  -7   1   62.29   16.00
   3  -7   1   55.19    6.40
  -4   7  -1    5.70    5.00
  -4   7  -1    5.00    4.20
   4  -7   1    5.50    3.80
   4  -7   1   -1.60    2.30
  -5   7  -1   -0.20    4.00
   5  -7   1   -1.80    5.90
   5  -7   1   10.70    5.30
  -6   7  -1  126.79   19.10
   6  -7   1  126.69   14.90
   6  -7   1  122.19   22.20
  -7   7  -1    0.40    5.70
   7  -7   1   -7.30    4.40
   7  -7   1   -3.50    9.40
  -8   7  -1   -6.90    5.00
   8  -7   1    8.20    9.80
   8  -7   1   -5.30    8.10
  -9   7  -1    4.40    7.20
   9  -7   1   -1.40   12.80
   9  -7   1  -16.60    7.00
  10  -7   1    5.10   12.20
  10  -7   1   47.60   15.90
  10   6  -1  187.58   35.50
 -10  -6   1  283.37   27.00
 -10  -6   1  239.78   33.70
   9   6  -1   38.90   14.40
   9   6  -1   36.60   16.70
  -9  -6   1   49.40   14.50
   8   6  -1  132.69   27.00
   8   6  -1  168.28   18.80
  -8  -6   1  179.58   27.60
  -8  -6   1  173.28   18.10
   7   6  -1  310.37   32.80
   7   6  -1  360.56   25.30
  -7  -6   1  346.97   32.00
   6   6  -1   75.19   18.40
   6   6  -1   88.39   14.80
  -6  -6   1   73.79   17.70
   5   6  -1   41.70   10.20
   5   6  -1   44.50   12.50
  -5  -6   1   28.80   11.00
   4   6  -1  579.14   34.90
   4   6  -1  556.84   31.30
  -4  -6   1  541.95   37.10
   3   6  -1  100.39   15.30
   3   6  -1   96.89   15.40
  -3  -6   1   75.49   16.50
   2   6  -1   21.90    6.80
   2   6  -1   25.20    7.40
  -2  -6   1   28.70    9.70
   1   6  -1  188.38   12.90
   1   6  -1  161.68   15.60
   1   6  -1  172.48   13.40
  -1  -6   1  199.98   12.90
  -1  -6   1  191.78   19.70
   0   6  -1  113.29   12.20
   0   6  -1  101.09    8.60
   0   6  -1  121.89    9.60
   0  -6   1   96.79   16.60
  -1   6  -1  996.90   28.60
  -1   6  -1 1086.99   28.10
  -1   6  -1 1017.90   39.70
   1  -6   1 1019.00   45.70
  -2   6  -1   -0.50    2.60
  -2   6  -1    2.90    3.00
   2  -6   1   -3.90    3.60
   2  -6   1    4.90    2.80
  -3   6  -1    8.70    3.70
  -3   6  -1    6.90    4.80
   3  -6   1    5.50    3.10
   3  -6   1   -0.50    3.60
  -4   6  -1   16.90    5.80
  -4   6  -1   22.30    7.10
   4  -6   1   15.20    8.20
   4  -6   1   19.40    5.30
  -5   6  -1   -3.80    3.40
   5  -6   1   -2.20    3.50
   5  -6   1   -8.30    5.10
  -6   6  -1   60.19   12.50
   6  -6   1   44.60   11.00
   6  -6   1   59.29   14.70
  -7   6  -1  134.59   20.20
   7  -6   1  142.39   21.40
   7  -6   1  153.18   24.00
  -8   6  -1   -7.10    4.50
   8  -6   1    4.00    9.00
   8  -6   1   -1.40    8.20
  -9   6  -1   -2.80    6.90
   9  -6   1    3.90   11.30
   9  -6   1   13.30    7.10
 -10   6  -1    6.00    9.40
  10  -6   1   23.60   14.70
  10  -6   1   35.60   10.00
 -11   6  -1   35.30   30.00
  11  -6   1   85.39   20.00
  11  -6   1   51.19   21.60
  10   5  -1   88.99   24.30
 -10  -5   1   42.00   14.30
 -10  -5   1   37.60   15.80
   9   5  -1   35.80   13.90
  -9  -5   1   25.40    8.40
  -9  -5   1   37.30   14.30
   8   5  -1    3.50    5.80
   8   5  -1   -2.20    8.90
  -8  -5   1    0.30    9.50
  -8  -5   1   10.90    6.00
   7   5  -1   46.00   10.00
   7   5  -1   21.20   10.40
  -7  -5   1   23.50    7.20
  -7  -5   1   27.20   11.10
   6   5  -1  302.07   22.10
   6   5  -1  367.16   31.80
  -6  -5   1  293.27   27.70
   5   5  -1   53.69   10.70
   5   5  -1   30.50   11.80
  -5  -5   1   37.50   12.00
   4   5  -1  254.17   19.00
   4   5  -1  284.77   23.60
  -4  -5   1  275.97   24.40
   3   5  -1 1188.38   44.50
   3   5  -1 1171.08   41.60
  -3  -5   1 1187.38   49.60
   2   5  -1   44.50    9.20
   2   5  -1   33.20    8.00
  -2  -5   1   63.09   13.20
  -2  -5   1   31.70    7.20
   1   5  -1   12.80    4.30
   1   5  -1    6.50    3.20
   1   5  -1    7.20    4.90
  -1  -5   1    7.80    3.60
  -1  -5   1    7.70    5.10
   0   5  -1    4.70    2.30
   0   5  -1    6.80    2.90
   0   5  -1    7.50    4.20
   0  -5   1    6.30    4.10
  -1   5  -1  158.38   13.50
  -1   5  -1  166.18   10.20
  -1   5  -1  169.78    9.50
   1  -5   1  170.28   16.30
   1  -5   1  167.18    9.70
  -2   5  -1  388.26   21.80
  -2   5  -1  395.36   17.90
   2  -5   1  384.26   16.10
   2  -5   1  350.16   23.90
  -3   5  -1  804.82   33.00
  -3   5  -1  741.63   28.50
   3  -5   1  770.62   37.20
   3  -5   1  712.13   26.80
  -4   5  -1   92.79   13.70
  -4   5  -1   99.49   14.10
   4  -5   1   99.99   11.20
   4  -5   1   97.49   16.00
  -5   5  -1  921.61   38.60
   5  -5   1  917.21   43.00
   5  -5   1  895.51   39.20
  -6   5  -1  710.73   35.00
   6  -5   1  734.53   39.50
   6  -5   1  716.23   38.40
  -7   5  -1   46.80   13.50
   7  -5   1   36.60   10.90
   7  -5   1   51.49   13.40
  -8   5  -1   -0.40    5.00
   8  -5   1    1.20    5.80
   8  -5   1    9.80    8.40
  -9   5  -1   78.59   16.00
   9  -5   1   85.49   17.40
   9  -5   1   93.89   20.20
 -10   5  -1   10.10    7.20
  10  -5   1   -6.20   10.10
  10  -5   1    9.20    9.60
 -11   5  -1   19.70   11.90
  11  -5   1   15.90   14.10
  11  -5   1   -0.20   13.60
  11   4  -1   38.80   26.60
 -11  -4   1   47.20   18.80
  10   4  -1   -4.50    7.70
 -10  -4   1    1.90    8.40
 -10  -4   1   -3.60   10.80
   9   4  -1   79.69   22.80
  -9  -4   1   75.99   12.70
  -9  -4   1   96.99   19.80
   8   4  -1  190.68   30.90
  -8  -4   1  255.67   26.20
  -8  -4   1  214.78   17.70
   7   4  -1  433.76   24.80
   7   4  -1  426.56   36.20
  -7  -4   1  367.56   21.80
  -7  -4   1  401.36   31.20
   6   4  -1  456.65   34.70
   6   4  -1  391.46   23.20
  -6  -4   1  404.66   23.30
  -6  -4   1  428.76   30.80
   5   4  -1    5.90    4.10
   5   4  -1   13.50    8.70
  -5  -4   1    9.50    5.30
   4   4  -1    5.80    3.90
   4   4  -1    6.50    5.40
  -4  -4   1    4.60    4.60
  -4  -4   1   10.00    4.50
   3   4  -1  647.04   30.70
   3   4  -1  612.44   26.50
  -3  -4   1  616.94   24.50
  -3  -4   1  602.14   32.10
   2   4  -1  102.69   10.60
  -2  -4   1  104.39    9.50
  -2  -4   1  108.39   12.60
  -2  -4   1  108.99   10.00
   1   4  -1 1642.24   49.90
   1   4  -1 1666.73   40.30
   1   4  -1 1643.44   43.20
  -1  -4   1 1645.14   38.40
  -1  -4   1 1623.04   50.89
  -1  -4   1 1640.54   41.10
   0   4  -1  224.78   16.80
   0   4  -1  200.28   16.70
   0   4  -1  216.98   10.90
   0   4  -1  205.08   10.60
   0  -4   1  218.28   16.80
   0  -4   1  216.08   13.20
  -1   4  -1  188.68   14.90
  -1   4  -1  163.48   12.20
  -1   4  -1  177.68   10.00
   1  -4   1  164.58    9.10
   1  -4   1  173.88   14.90
   1  -4   1  166.38   11.90
  -2   4  -1  635.14   28.40
  -2   4  -1  679.83   23.70
  -2   4  -1  642.84   26.10
   2  -4   1  653.13   21.90
   2  -4   1  656.53   29.70
  -3   4  -1  891.11   31.90
  -3   4  -1  953.90   42.90
  -3   4  -1  905.11   32.80
   3  -4   1  867.71   35.80
   3  -4   1  918.61   31.50
  -4   4  -1  364.86   21.50
  -4   4  -1  413.16   28.70
   4  -4   1  416.76   23.80
   4  -4   1  405.06   24.80
  -5   4  -1    3.40    2.10
   5  -4   1    7.50    5.40
   5  -4   1    4.80    4.10
  -6   4  -1   -6.20    2.60
   6  -4   1   -1.70    4.90
   6  -4   1    3.90    5.30
  -7   4  -1   63.29   13.00
   7  -4   1   58.89   13.30
   7  -4   1  108.39   20.20
  -8   4  -1   28.50    8.10
   8  -4   1   21.50   10.40
   8  -4   1   15.30    7.70
  -9   4  -1   -0.90    7.80
   9  -4   1    7.20    7.30
   9  -4   1  -10.60    7.40
 -10   4  -1  -12.00    7.20
  10  -4   1   -1.60    9.70
 -11   4  -1   -5.30    8.80
  11  -4   1   31.00   15.60
  11  -4   1   -8.60   11.50
  11   3  -1  155.08   35.20
 -11  -3   1  112.99   22.60
  10   3  -1   40.80   14.40
 -10  -3   1    8.40    9.50
 -10  -3   1   23.10   11.60
   9   3  -1   40.10   14.10
  -9  -3   1   50.79   10.10
  -9  -3   1   72.79   16.80
   8   3  -1  122.89   25.50
  -8  -3   1  156.88   19.00
  -8  -3   1  152.78   13.70
   7   3  -1  415.66   35.00
  -7  -3   1  429.56   30.60
  -7  -3   1  414.36   22.10
   6   3  -1  516.05   24.50
   6   3  -1  491.45   35.20
  -6  -3   1  503.25   32.70
  -6  -3   1  526.25   23.80
  -6  -3   1  511.85   25.10
   5   3  -1    2.60    5.50
  -5  -3   1   -5.30    3.70
  -5  -3   1   11.40    4.60
   4   3  -1  191.38   18.20
   4   3  -1  191.68   13.40
  -4  -3   1  197.28   12.80
  -4  -3   1  209.68   17.70
   3   3  -1 4788.92   98.39
   3   3  -1 4811.42   98.49
   3   3  -1 4959.20   87.09
  -3  -3   1 4922.11   84.19
  -3  -3   1 4840.02  100.79
   2   3  -1 1688.63   48.10
   2   3  -1 1704.33   40.60
   2   3  -1 1727.83   45.10
  -2  -3   1 1729.13   49.70
  -2  -3   1 1678.53   42.50
  -2  -3   1 1737.63   38.70
   1   3  -1  219.78   12.10
   1   3  -1  224.58   12.20
  -1  -3   1  232.08   11.90
  -1  -3   1  226.38   15.80
  -1  -3   1  227.58   11.70
   0   3  -1   16.00    4.00
   0   3  -1    4.40    2.00
   0   3  -1    5.60    2.10
   0   3  -1    7.40    3.90
   0  -3   1   10.50    3.50
   0  -3   1    4.90    3.40
   0  -3   1    6.10    1.80
  -1   3  -1  163.48   12.30
  -1   3  -1  162.98   10.70
  -1   3  -1  176.38    9.70
   1  -3   1  167.48    9.00
   1  -3   1  158.28   12.40
   1  -3   1  174.38   11.20
  -2   3  -1  600.74   22.20
  -2   3  -1  613.64   23.00
  -2   3  -1  635.94   25.30
   2  -3   1  611.94   25.40
   2  -3   1  636.04   22.20
   2  -3   1  632.94   23.20
  -3   3  -1   20.90    6.00
  -3   3  -1   15.30    4.70
  -3   3  -1   15.70    5.20
   3  -3   1   19.00    5.40
   3  -3   1   21.30    5.50
   3  -3   1   13.40    5.00
  -4   3  -1 1373.86   41.00
  -4   3  -1 1329.37   41.80
   4  -3   1 1387.96   63.79
   4  -3   1 1304.27   42.90
   4  -3   1 1317.47   45.30
  -5   3  -1   45.70    9.60
  -5   3  -1   53.89    9.80
   5  -3   1   33.90    8.50
   5  -3   1   56.79   12.50
   5  -3   1   51.39    9.50
  -6   3  -1   96.49   11.50
   6  -3   1  100.59   14.50
   6  -3   1   87.49   16.60
  -7   3  -1  126.19   14.50
   7  -3   1  117.49   21.80
   7  -3   1  129.79   18.50
  -8   3  -1    9.20    5.50
   8  -3   1   12.60    6.70
   8  -3   1   25.30   11.10
  -9   3  -1   26.80    7.90
   9  -3   1   24.50    9.40
   9  -3   1    3.70    8.50
 -10   3  -1  347.07   27.30
  10  -3   1  322.17   36.70
  10  -3   1  310.37   27.70
 -11   3  -1    9.10   10.10
  11  -3   1   -0.60   11.80
  11   2  -1   19.90   13.00
  11   2  -1  -10.30   12.60
 -11  -2   1   -2.80   13.80
 -11  -2   1   45.60   14.10
  10   2  -1  198.08   36.00
 -10  -2   1  262.07   19.20
 -10  -2   1  230.78   26.00
   9   2  -1  201.88   33.00
  -9  -2   1  216.08   16.50
  -9  -2   1  227.58   24.20
   8   2  -1   28.80   11.90
  -8  -2   1   59.89   14.00
  -8  -2   1   56.29    9.60
   7   2  -1  400.86   34.10
  -7  -2   1  372.96   19.80
  -7  -2   1  444.46   30.00
   6   2  -1  455.75   32.80
  -6  -2   1  410.26   27.80
  -6  -2   1  399.16   20.50
   5   2  -1  681.73   24.70
   5   2  -1  647.24   36.40
  -5  -2   1  707.83   30.40
  -5  -2   1  660.53   33.40
  -5  -2   1  700.13   24.10
   4   2  -1   38.50    9.20
   4   2  -1   43.00    6.70
   4   2  -1   49.30   10.20
  -4  -2   1   37.80    6.30
  -4  -2   1   33.20    8.00
  -4  -2   1   56.19    7.80
   3   2  -1    0.60    2.90
   3   2  -1    1.90    1.80
   3   2  -1    1.20    2.60
  -3  -2   1    2.60    1.70
  -3  -2   1   -1.60    2.80
  -3  -2   1   -2.70    2.10
   2   2  -1 7308.97  107.39
   2   2  -1 7154.28  118.19
   2   2  -1 7146.58  120.29
  -2  -2   1 7301.67  116.49
  -2  -2   1 7285.27  122.39
  -2  -2   1 7219.88  105.59
   1   2  -1 1596.54   32.00
   1   2  -1 1589.44   39.80
   1   2  -1 1638.74   35.20
  -1  -2   1 1603.84   40.40
  -1  -2   1 1645.94   34.50
  -1  -2   1 1642.04   31.50
   0   2  -1  373.66   12.30
   0   2  -1  369.46   16.10
   0   2  -1  371.06   12.00
   0   2  -1  378.76   13.10
   0  -2   1  382.96   13.00
   0  -2   1  368.36   16.10
   0  -2   1  374.86   12.30
  -1   2  -1 6156.88   96.39
  -1   2  -1 5971.70   92.59
  -1   2  -1 5978.70   91.69
   1  -2   1 5993.40   90.79
   1  -2   1 5886.21   96.09
   1  -2   1 6082.59   92.79
  -2   2  -1 6167.48  102.29
  -2   2  -1 6088.19   99.19
  -2   2  -1 6218.68   99.69
   2  -2   1 6252.87  102.39
   2  -2   1 6259.37   99.89
   2  -2   1 6417.26  101.09
  -3   2  -1  182.88   11.90
  -3   2  -1  182.28   11.90
  -3   2  -1  192.78   14.20
   3  -2   1  196.18   12.70
   3  -2   1  181.38   12.10
   3  -2   1  174.48   11.90
   3  -2   1  166.18   13.40
  -4   2  -1  278.87   16.30
  -4   2  -1  280.17   16.30
   4  -2   1  259.47   16.30
   4  -2   1  279.97   19.90
   4  -2   1  280.57   16.50
   4  -2   1  258.57   16.00
  -5   2  -1  498.65   23.70
   5  -2   1  516.85   25.50
   5  -2   1  487.55   30.10
   5  -2   1  497.15   23.70
  -6   2  -1  144.29   13.80
   6  -2   1  167.48   15.40
   6  -2   1  132.09   21.10
   6  -2   1  182.88   15.40
  -7   2  -1  358.26   22.50
   7  -2   1  364.16   23.30
  -8   2  -1  139.49   15.10
   8  -2   1  150.18   26.20
   8  -2   1  107.19   15.30
  -9   2  -1  161.58   24.80
   9  -2   1  101.99   24.70
   9  -2   1  135.09   19.70
 -10   2  -1  140.39   19.90
  10  -2   1  111.69   26.30
  10  -2   1  135.49   20.10
 -11   2  -1   62.29   12.80
  11  -2   1    5.10   15.10
  11  -2   1   24.00   14.50
  11   1  -1   13.90   12.30
  11   1  -1   36.30   16.00
 -11  -1   1   27.90   11.20
 -11  -1   1   26.40   17.10
  10   1  -1   90.39   23.50
  10   1  -1   85.99   19.20
 -10  -1   1   63.79   10.70
 -10  -1   1   61.99   15.70
   9   1  -1  150.38   22.90
   9   1  -1  200.38   32.40
  -9  -1   1  153.88   22.90
  -9  -1   1  211.58   15.60
   8   1  -1   -9.40    6.30
  -8  -1   1   -2.20    5.40
  -8  -1   1    1.30    3.60
   7   1  -1   12.90    7.90
  -7  -1   1   16.90    5.50
  -7  -1   1    5.00    5.30
   6   1  -1  772.72   42.80
  -6  -1   1  791.12   28.70
  -6  -1   1  749.82   25.70
  -6  -1   1  801.92   38.20
   5   1  -1 2628.84   76.99
   5   1  -1 2741.13   72.89
  -5  -1   1 2649.63   55.59
  -5  -1   1 2662.13   71.19
  -5  -1   1 2751.92   53.29
   4   1  -1   35.90    8.00
   4   1  -1   35.70    8.90
  -4  -1   1   39.00    5.80
  -4  -1   1   28.20    7.10
  -4  -1   1   37.00    5.30
   3   1  -1    2.70    2.60
   3   1  -1    0.30    2.90
   3   1  -1   -0.40    0.90
  -3  -1   1   -1.10    1.10
  -3  -1   1    0.00    1.90
  -3  -1   1    2.50    3.00
  -3  -1   1    0.90    1.50
   2   1  -1 4398.56   63.99
   2   1  -1 4449.96   79.69
   2   1  -1 4381.36   78.49
  -2  -1   1 4386.86   79.99
  -2  -1   1 4498.15   77.29
  -2  -1   1 4331.27   63.39
   1   1  -1  249.28   10.60
   1   1  -1  251.47    7.00
   1   1  -1  256.97   12.20
  -1  -1   1  256.97   10.50
  -1  -1   1  254.47    6.90
  -1  -1   1  251.67   12.30
   0   1  -1   -0.90    0.60
   0   1  -1    4.60    1.30
   0   1  -1   -0.20    0.60
   0  -1   1   -0.80    0.40
   0  -1   1   -1.20    0.70
   0  -1   1    0.30    0.40
  -1   1  -1    1.90    1.30
  -1   1  -1    0.70    0.80
  -1   1  -1    1.20    1.60
   1  -1   1    1.00    0.70
   1  -1   1    4.00    1.60
   1  -1   1    2.00    1.40
  -2   1  -1 4878.51   85.99
  -2   1  -1 4834.32   74.49
  -2   1  -1 5028.50   79.99
   2  -1   1 4858.61   75.29
   2  -1   1 4987.50   80.49
   2  -1   1 5055.59   75.29
   2  -1   1 4795.62   85.79
  -3   1  -1   -1.30    1.20
  -3   1  -1    2.50    2.60
   3  -1   1    3.50    2.00
   3  -1   1   -0.10    2.10
   3  -1   1    0.60    1.90
   3  -1   1    0.90    1.90
  -4   1  -1  129.29   11.50
  -4   1  -1  122.49   10.80
   4  -1   1  138.59   10.20
   4  -1   1  139.69   11.30
   4  -1   1  121.09   13.40
   4  -1   1  131.09   10.40
  -5   1  -1  352.16   19.60
   5  -1   1  395.46   20.10
   5  -1   1  342.37   25.70
   5  -1   1  358.36   18.60
  -6   1  -1  438.16   23.50
   6  -1   1  429.16   22.40
   6  -1   1  406.16   31.00
   6  -1   1  352.76   21.80
  -7   1  -1   74.89   12.70
   7  -1   1   80.19   18.20
   7  -1   1   49.80   10.10
   7  -1   1   71.59   11.80
  -8   1  -1  315.27   22.10
   8  -1   1  292.27   21.50
   8  -1   1  281.37   30.30
  -9   1  -1   46.40   10.80
   9  -1   1   34.40   15.60
   9  -1   1   54.19   10.50
 -10   1  -1  204.78   19.20
  10  -1   1  189.28   19.10
 -11   1  -1  257.57   24.30
  11  -1   1  238.28   39.00
  11  -1   1  252.47   26.40
  11   0  -1   41.20   15.80
  11   0  -1   12.10   13.30
 -11   0   1   -1.50    8.60
 -11   0   1   34.80   12.70
  10   0  -1    2.90    9.20
  10   0  -1  -15.40    8.10
 -10   0   1    1.30    6.20
 -10   0   1   -2.10    6.80
   9   0  -1  123.29   26.20
   9   0  -1   62.49   14.70
  -9   0   1   89.09   13.10
  -9   0   1  104.69   18.50
   8   0  -1  448.16   37.40
   8   0  -1  424.36   30.10
  -8   0   1  476.85   32.10
  -8   0   1  467.65   22.30
   7   0  -1  750.22   49.10
  -7   0   1  942.81   43.00
  -7   0   1  842.32   29.20
  -7   0   1  855.71   32.30
   6   0  -1  552.74   35.10
  -6   0   1  486.85   29.20
  -6   0   1  522.15   22.90
  -6   0   1  532.05   21.00
   5   0  -1 1190.38   32.00
   5   0  -1 1160.28   43.10
   5   0  -1 1159.08   47.20
  -5   0   1 1191.08   30.40
  -5   0   1 1149.78   32.30
  -5   0   1 1197.18   44.10
   4   0  -1  269.27   12.00
   4   0  -1  239.78   17.20
   4   0  -1  250.47   18.80
  -4   0   1  260.97   17.80
  -4   0   1  262.27   11.40
  -4   0   1  265.47   12.40
   3   0  -1   19.40    5.40
   3   0  -1   25.80    3.00
   3   0  -1   28.50    6.80
  -3   0   1   14.30    4.90
  -3   0   1   17.00    2.90
  -3   0   1   16.90    3.20
  -3   0   1   25.40    5.80
   2   0  -1  248.98   13.50
   2   0  -1  243.08    6.90
   2   0  -1  206.68   11.90
  -2   0   1  241.78    6.70
  -2   0   1  242.68   12.40
  -2   0   1  250.27   13.70
  -1   0  -1  457.65   15.50
  -1   0  -1  419.46   14.10
  -1   0  -1  470.35   14.20
   1   0   1  428.46   15.20
   1   0   1  467.95   14.60
  -2   0  -1  408.56   10.70
  -2   0  -1  419.16   16.50
  -2   0  -1  411.86   18.50
  -2   0  -1  388.56   15.20
   2   0   1  400.76   10.80
   2   0   1  408.36   15.80
   2   0   1  409.26   18.90
  -3   0  -1  289.37   14.80
  -3   0  -1  299.37   12.20
  -3   0  -1  286.07   15.30
  -3   0  -1  280.57   18.10
   3   0   1  300.67   19.80
   3   0   1  288.47   12.20
   3   0   1  306.27   15.50
  -4   0  -1  317.17   18.00
  -4   0  -1  325.07   15.20
  -4   0  -1  291.07   19.60
   4   0   1  312.07   17.20
   4   0   1  301.57   15.20
   4   0   1  328.87   22.60
  -5   0  -1  525.55   24.30
  -5   0  -1  540.05   22.70
   5   0   1  549.74   22.40
   5   0   1  465.35   30.50
   5   0   1  514.15   22.30
  -6   0  -1 1496.45   46.30
  -6   0  -1 1590.64   45.50
   6   0   1 1573.64   44.30
   6   0   1 1555.94   63.19
   6   0   1 1506.75   45.00
  -7   0  -1  546.85   27.10
  -7   0  -1  558.74   28.10
   7   0   1  566.14   28.50
   7   0   1  522.45   26.10
   7   0   1  550.14   39.90
  -8   0  -1  564.94   30.40
  -8   0  -1  615.44   30.30
   8   0   1  581.24   29.30
   8   0   1  628.44   45.80
  -9   0  -1    6.60    6.20
   9   0   1    5.60    9.10
 -10   0  -1  186.98   20.30
  10   0   1  185.68   32.90
  10   0   1  182.38   19.40
 -11   0  -1   80.19   14.00
  11   0   1   45.10   14.90
  11   0   1   95.09   22.80
  12  -1  -1   30.40   15.60
  12  -1  -1   56.99   19.60
  11  -1  -1   66.69   23.00
  11  -1  -1   20.90   13.10
 -11   1   1   66.79   13.00
  10  -1  -1    5.70   11.50
  10  -1  -1   -7.90    7.10
 -10   1   1  -12.10    7.40
 -10   1   1   -6.10    4.00
   9  -1  -1  136.59   22.70
   9  -1  -1  108.49   23.40
  -9   1   1  127.79   13.10
  -9   1   1  138.69   22.70
   8  -1  -1  406.86   29.10
   8  -1  -1  416.16   35.30
  -8   1   1  363.36   28.40
  -8   1   1  393.96   21.40
   7  -1  -1   -2.10    4.30
   7  -1  -1   12.00    7.10
  -7   1   1   -2.60    5.00
  -7   1   1    6.80    4.30
   6  -1  -1  170.08   18.90
   6  -1  -1  166.68   16.90
   6  -1  -1  179.18   12.80
  -6   1   1  185.28   17.90
  -6   1   1  151.18   11.90
   5  -1  -1  112.79   12.80
   5  -1  -1  122.69   14.40
   5  -1  -1  106.79    9.10
  -5   1   1   89.79    8.00
  -5   1   1  104.59   15.50
   4  -1  -1  860.31   34.00
   4  -1  -1  849.91   24.10
   4  -1  -1  802.62   33.50
   4  -1  -1  813.82   33.90
  -4   1   1  827.32   32.50
  -4   1   1  827.12   33.80
  -4   1   1  843.42   23.50
   3  -1  -1 3027.90   66.69
   3  -1  -1 3053.69   65.69
   3  -1  -1 3026.30   51.69
   3  -1  -1 3059.89   64.59
  -3   1   1 3005.40   51.09
  -3   1   1 3083.89   62.99
  -3   1   1 2978.10   66.19
   2  -1  -1 7824.32  118.59
   2  -1  -1 7946.10  126.29
   2  -1  -1 7844.71  123.99
  -2   1   1 7975.80  117.49
  -2   1   1 7965.80  126.19
   1  -1  -1 3760.82   65.19
   1  -1  -1 3679.13   56.19
   1  -1  -1 3671.63   54.59
   1  -1  -1 3699.73   63.59
  -1   1   1 3728.43   54.09
  -1   1   1 3660.03   63.29
  -1   1   1 3718.53   56.79
  -1   1   1 3687.23   64.79
   0  -1  -1  141.49    5.60
  -1  -1  -1   49.20    3.90
  -1  -1  -1   48.00    5.20
  -1  -1  -1   50.89    5.10
   1   1   1   51.99    5.40
   1   1   1   45.70    5.10
   1   1   1   59.49    4.20
  -2  -1  -1 1575.24   31.00
  -2  -1  -1 1544.05   40.50
  -2  -1  -1 1591.04   38.20
   2   1   1 1567.94   30.30
   2   1   1 1518.75   40.60
   2   1   1 1565.44   37.90
  -3  -1  -1  452.35   16.60
  -3  -1  -1  460.85   23.50
  -3  -1  -1  426.86   19.20
   3   1   1  449.86   16.10
   3   1   1  437.46   20.00
   3   1   1  471.85   24.30
  -4  -1  -1  549.74   24.80
  -4  -1  -1  526.95   23.20
  -4  -1  -1  573.64   21.60
   4   1   1  599.74   31.20
   4   1   1  556.94   20.80
   4   1   1  559.44   24.70
  -5  -1  -1 1282.57   38.10
  -5  -1  -1 1290.87   40.70
   5   1   1 1266.27   52.19
   5   1   1 1315.47   37.70
  -6  -1  -1  329.37   19.70
  -6  -1  -1  352.16   21.50
   6   1   1  349.96   20.00
   6   1   1  352.26   29.30
  -7  -1  -1  133.79   13.50
  -7  -1  -1  143.39   14.40
   7   1   1  125.29   13.30
   7   1   1  121.09   21.90
  -8  -1  -1  533.95   29.70
  -8  -1  -1  522.35   28.20
   8   1   1  509.15   27.50
   8   1   1  548.75   43.60
  -9  -1  -1   56.29   11.00
  -9  -1  -1   63.19   12.00
   9   1   1   49.30   13.70
   9   1   1   25.10    8.70
 -10  -1  -1    1.60    6.60
 -10  -1  -1   -3.70    7.30
  10   1   1   -1.90    9.50
  10   1   1    9.00   12.60
 -11  -1  -1  185.68   19.00
  11   1   1  104.79   25.00
  12  -2  -1   -1.70   13.00
  12  -2  -1    6.90   14.40
  11  -2  -1  -12.80   11.50
  11  -2  -1    0.60   11.90
 -11   2   1   -2.30    7.90
  10  -2  -1  129.49   22.80
  10  -2  -1  159.08   28.50
 -10   2   1  153.28   16.30
   9  -2  -1    1.60    8.50
   9  -2  -1   -0.70    6.20
  -9   2   1    1.30    5.20
   8  -2  -1  445.26   32.20
   8  -2  -1  450.65   36.40
  -8   2   1  362.46   21.60
  -8   2   1  357.16   29.90
   7  -2  -1  199.68   21.80
   7  -2  -1  182.78   19.60
  -7   2   1  179.88   13.80
  -7   2   1  202.98   20.20
   6  -2  -1  296.07   24.30
   6  -2  -1  310.77   23.60
   6  -2  -1  239.18   18.60
  -6   2   1  322.37   17.50
  -6   2   1  278.37   22.80
   5  -2  -1    2.00    3.90
   5  -2  -1    9.10    4.10
   5  -2  -1    9.20    4.10
  -5   2   1   15.70    6.30
  -5   2   1    5.90    3.40
   4  -2  -1   88.59    9.90
   4  -2  -1   88.49   10.60
   4  -2  -1  109.09   12.00
   4  -2  -1  101.99   12.30
  -4   2   1   94.59   10.60
  -4   2   1   81.09   12.30
  -4   2   1  102.59    8.40
   3  -2  -1  768.02   22.80
   3  -2  -1  792.82   31.60
   3  -2  -1  795.02   27.60
   3  -2  -1  787.22   30.40
  -3   2   1  773.62   23.10
  -3   2   1  814.32   31.80
  -3   2   1  771.12   30.30
  -3   2   1  819.32   26.60
   2  -2  -1 9999.00  154.18
   2  -2  -1 9752.02  155.28
   2  -2  -1 9687.43  139.79
  -2   2   1 9670.43  138.09
  -2   2   1 9749.12  152.48
   1  -2  -1 1177.18   28.10
   1  -2  -1 1128.69   19.20
   1  -2  -1 1148.89   32.20
  -1   2   1 1158.68   18.40
  -1   2   1 1169.98   28.60
  -1   2   1 1148.59   32.00
   0  -2  -1   60.99    6.10
   0  -2  -1   50.59    3.40
   0  -2  -1   53.39    6.10
   0   2   1   51.49    5.80
   0   2   1   44.00    6.40
   0   2   1   48.50    3.40
  -1  -2  -1    6.90    3.00
  -1  -2  -1    9.90    3.20
  -1  -2  -1    5.50    2.40
   1   2   1    3.50    2.50
   1   2   1   10.50    3.50
   1   2   1    4.90    2.40
  -2  -2  -1 1433.06   38.50
  -2  -2  -1 1477.85   40.00
  -2  -2  -1 1414.06   35.20
   2   2   1 1488.75   39.60
   2   2   1 1384.56   34.20
   2   2   1 1477.55   40.60
  -3  -2  -1  197.28   12.50
  -3  -2  -1  220.98   14.80
  -3  -2  -1  182.38   15.10
   3   2   1  210.18   14.60
   3   2   1  177.58   11.70
   3   2   1  169.28   14.90
  -4  -2  -1  371.66   20.40
  -4  -2  -1  350.36   18.50
  -4  -2  -1  373.36   21.10
   4   2   1  351.66   20.50
   4   2   1  350.16   24.30
   4   2   1  359.76   18.10
  -5  -2  -1  445.96   22.80
  -5  -2  -1  462.35   24.10
   5   2   1  466.15   25.10
   5   2   1  430.86   30.00
  -6  -2  -1  445.36   25.10
   6   2   1  463.75   23.70
   6   2   1  436.76   33.20
   6   2   1  424.96   25.40
  -7  -2  -1  817.22   36.00
  -7  -2  -1  796.32   35.00
   7   2   1  771.12   48.30
  -8  -2  -1   45.20    8.30
  -8  -2  -1   46.00   10.90
   8   2   1    9.40    9.50
  -9  -2  -1  496.45   36.90
  -9  -2  -1  508.95   29.10
   9   2   1  465.95   42.70
   9   2   1  429.36   28.10
 -10  -2  -1   24.70    7.80
 -10  -2  -1   -7.60    8.20
  10   2   1   -8.90    8.40
  10   2   1   13.00   11.40
 -11  -2  -1   -8.60    9.90
  11   2   1  -14.50    9.20
  11  -3  -1  256.17   38.10
  11  -3  -1  221.18   31.50
 -11   3   1  178.58   20.10
  10  -3  -1  187.88   29.20
  10  -3  -1  206.78   33.80
 -10   3   1  202.78   18.80
   9  -3  -1   -6.70    8.90
   9  -3  -1   17.70    8.60
  -9   3   1   26.70    8.20
   8  -3  -1   17.60    8.30
   8  -3  -1   -3.60    5.20
  -8   3   1   13.70    6.10
   7  -3  -1  297.17   26.20
   7  -3  -1  282.87   24.50
  -7   3   1  276.67   18.50
   6  -3  -1  118.89   18.30
   6  -3  -1  115.89   17.60
  -6   3   1  139.99   12.50
   5  -3  -1   38.20   10.30
   5  -3  -1   21.70    6.90
  -5   3   1   33.30    7.50
   4  -3  -1  759.62   30.90
   4  -3  -1  783.52   35.20
   4  -3  -1  760.82   27.00
  -4   3   1  765.32   27.10
  -4   3   1  782.12   29.50
   3  -3  -1  233.88   18.30
   3  -3  -1  233.78   13.40
   3  -3  -1  254.97   18.40
   3  -3  -1  241.78   13.90
  -3   3   1  211.08   16.50
  -3   3   1  263.37   14.60
  -3   3   1  247.78   13.40
   2  -3  -1  715.53   31.30
   2  -3  -1  725.73   19.30
   2  -3  -1  722.23   23.80
  -2   3   1  688.03   28.70
  -2   3   1  720.63   24.80
  -2   3   1  684.13   17.80
   1  -3  -1   93.49    9.90
   1  -3  -1  109.89   17.80
  -1   3   1   86.49    9.20
  -1   3   1   97.99    9.00
   0  -3  -1  457.45   11.70
   0  -3  -1  481.75   21.90
   0  -3  -1  453.45   20.10
   0   3   1  486.55   12.70
   0   3   1  468.25   20.90
   0   3   1  473.05   20.60
  -1  -3  -1  111.49    8.30
  -1  -3  -1  122.59   10.20
  -1  -3  -1  119.69   10.60
   1   3   1  110.09   10.10
   1   3   1  113.49    8.50
   1   3   1  122.39   10.90
  -2  -3  -1 1475.85   42.10
  -2  -3  -1 1527.45   42.10
   2   3   1 1435.56   45.10
   2   3   1 1491.15   42.20
   2   3   1 1464.05   40.40
  -3  -3  -1 2881.21   68.89
  -3  -3  -1 2764.12   63.89
   3   3   1 2923.71   68.69
   3   3   1 2830.82   70.99
  -4  -3  -1  682.53   29.20
   4   3   1  709.03   35.90
   4   3   1  612.94   29.50
   4   3   1  624.74   26.90
  -5  -3  -1   18.00    6.70
  -5  -3  -1   25.10    7.40
   5   3   1   22.20    6.50
   5   3   1   17.60    7.10
   5   3   1   26.00   10.20
  -6  -3  -1  464.75   26.90
  -6  -3  -1  438.06   26.10
   6   3   1  445.66   27.20
  -7  -3  -1  292.77   22.00
  -7  -3  -1  293.37   22.40
   7   3   1  309.57   23.30
   7   3   1  321.97   31.20
  -8  -3  -1   34.00    8.10
  -8  -3  -1   10.80    7.40
   8   3   1   20.30   11.50
  -9  -3  -1  143.89   20.10
  -9  -3  -1  140.79   19.90
   9   3   1  179.08   32.40
 -10  -3  -1   -7.30    8.50
 -10  -3  -1  -13.70    8.00
  10   3   1   23.90   13.30
  10   3   1   -6.00   11.20
 -11  -3  -1   64.49   18.10
  11   3   1   81.69   26.70
  11  -4  -1   15.90   13.70
 -11   4   1   35.90   11.90
  10  -4  -1   27.80   13.40
  10  -4  -1   -7.50    9.50
 -10   4   1   11.90    7.20
   9  -4  -1   35.20   15.20
   9  -4  -1   43.50   13.40
  -9   4   1   38.50    9.80
   8  -4  -1   52.79   15.70
  -8   4   1   59.49   11.10
   7  -4  -1   13.10    7.60
   7  -4  -1   11.50    8.90
  -7   4   1   12.30    5.70
   6  -4  -1   32.10    9.20
   6  -4  -1   41.00   11.20
  -6   4   1   50.29   10.30
   5  -4  -1  374.56   23.60
   5  -4  -1  399.66   27.70
  -5   4   1  407.66   22.20
   4  -4  -1  436.76   22.20
   4  -4  -1  505.75   30.10
  -4   4   1  472.25   23.30
  -4   4   1  501.75   22.10
   3  -4  -1  551.94   20.40
   3  -4  -1  603.74   31.50
  -3   4   1  570.34   19.60
  -3   4   1  580.54   25.30
   2  -4  -1   64.29    4.30
   2  -4  -1   69.79   10.10
   2  -4  -1   71.69   12.20
  -2   4   1   66.29    4.30
  -2   4   1   74.39    8.70
   1  -4  -1   94.19   11.40
   1  -4  -1   94.39    9.50
  -1   4   1   96.79   11.40
  -1   4   1  101.99   10.50
   0  -4  -1  527.35   23.40
   0  -4  -1  524.05   25.90
   0  -4  -1  528.65   13.40
   0   4   1  555.84   26.10
   0   4   1  536.55   25.00
   0   4   1  553.64   15.00
  -1  -4  -1  977.70   36.30
  -1  -4  -1  915.91   26.20
   1   4   1  930.71   35.00
   1   4   1  957.70   28.20
   1   4   1  977.40   35.80
  -2  -4  -1    7.80    4.10
  -2  -4  -1    0.40    2.50
   2   4   1    3.70    2.90
   2   4   1    6.40    4.40
   2   4   1    0.80    3.90
  -3  -4  -1   78.49   13.00
   3   4   1   93.39   14.30
   3   4   1   82.79   12.20
   3   4   1   87.49   13.90
  -4  -4  -1  602.84   30.80
   4   4   1  580.04   30.90
   4   4   1  577.44   33.30
  -5  -4  -1   40.50    9.60
   5   4   1   33.70    9.40
   5   4   1   32.40    9.90
  -6  -4  -1  133.19   15.40
  -6  -4  -1  136.79   16.40
   6   4   1  142.69   23.50
   6   4   1  137.89   15.90
  -7  -4  -1  426.76   28.60
  -7  -4  -1  445.16   28.80
   7   4   1  424.56   36.70
   7   4   1  456.05   29.90
  -8  -4  -1  372.36   32.50
  -8  -4  -1  336.57   26.50
   8   4   1  324.97   28.50
   8   4   1  328.57   34.50
  -9  -4  -1   17.30   10.00
  -9  -4  -1   15.20    9.50
   9   4   1   22.70   15.30
 -10  -4  -1   44.40   13.40
 -10  -4  -1    7.80   12.50
  10   4   1   28.90   15.40
  11  -5  -1  -14.20   13.00
  11  -5  -1   28.90   14.30
 -11   5   1    0.90   10.60
  10  -5  -1   -3.60    9.80
  10  -5  -1    6.10    9.50
 -10   5   1    6.20    7.60
   9  -5  -1  127.59   23.60
   9  -5  -1   99.29   22.20
  -9   5   1   97.49   17.00
   8  -5  -1   68.19   17.00
   8  -5  -1   66.69   16.20
  -8   5   1   52.39   11.70
   7  -5  -1  260.97   24.10
   7  -5  -1  290.07   51.09
  -7   5   1  284.17   21.70
   6  -5  -1 2909.61   79.59
   6  -5  -1 2933.61   90.89
  -6   5   1 2911.61   74.79
   5  -5  -1 1390.26   46.10
   5  -5  -1 1453.35   58.69
  -5   5   1 1350.86   46.70
   4  -5  -1    7.20    3.70
   4  -5  -1   13.10    4.50
  -4   5   1    6.60    3.60
  -4   5   1    5.60    3.80
   3  -5  -1   -3.70    3.00
   3  -5  -1   -0.70    1.80
  -3   5   1   -2.90    1.90
  -3   5   1   -3.80    1.90
   2  -5  -1   -1.20    3.40
   2  -5  -1    1.60    0.60
  -2   5   1   -0.20    0.50
  -2   5   1    5.70    4.10
   1  -5  -1   92.09   15.00
  -1   5   1   86.89   13.10
   0  -5  -1    2.20    3.30
   0  -5  -1    3.50    1.40
   0   5   1    0.60    2.60
   0   5   1    1.40    1.80
  -1  -5  -1  105.79   15.60
  -1  -5  -1   88.29    7.60
   1   5   1   99.29   11.90
   1   5   1  112.19    9.50
  -2  -5  -1   52.09   11.30
  -2  -5  -1   59.39    9.10
   2   5   1   45.30   10.50
  -3  -5  -1  241.28   20.10
   3   5   1  274.67   21.60
   3   5   1  270.27   20.70
  -4  -5  -1  132.19   15.30
   4   5   1  172.98   18.40
   4   5   1  148.09   16.40
  -5  -5  -1  598.94   33.80
   5   5   1  623.24   39.00
   5   5   1  627.94   34.70
  -6  -5  -1   -3.60    5.60
   6   5   1    5.80    5.40
   6   5   1    5.50    7.20
  -7  -5  -1    2.80    6.80
  -7  -5  -1   12.60    9.30
   7   5   1   -5.60    5.80
   7   5   1    9.90    7.90
  -8  -5  -1  153.18   17.40
  -8  -5  -1  117.09   19.40
   8   5   1  134.69   28.00
   8   5   1  132.79   21.10
  -9  -5  -1   -8.30    6.10
  -9  -5  -1  -20.10    7.30
   9   5   1    3.60   11.40
 -10  -5  -1   66.59   15.10
  10   5   1   73.99   23.20
  11  -6  -1    8.00   14.20
  11  -6  -1   19.20   18.30
 -11   6   1   29.30   11.10
  10  -6  -1   -7.70    9.20
  10  -6  -1  -10.00    9.10
 -10   6   1   -4.60    7.60
   9  -6  -1    9.90   11.50
   9  -6  -1   20.10   10.70
  -9   6   1   19.10    9.60
   8  -6  -1  497.65   49.20
   8  -6  -1  476.95   38.10
  -8   6   1  387.26   28.40
   7  -6  -1   -7.50    5.70
   7  -6  -1   -2.80    5.80
  -7   6   1   12.10    6.10
   6  -6  -1  254.77   26.20
   6  -6  -1  208.38   18.90
  -6   6   1  259.07   21.30
   5  -6  -1   47.60   13.70
   5  -6  -1   70.49   10.80
  -5   6   1   58.89   12.30
  -5   6   1   54.29   10.50
   4  -6  -1   32.60   10.30
   4  -6  -1   33.70    6.40
  -4   6   1   55.49   11.60
  -4   6   1   37.80    6.80
   3  -6  -1   26.80    9.70
   3  -6  -1   28.50    3.90
  -3   6   1   26.40    7.90
  -3   6   1   24.40    3.70
   2  -6  -1  145.39   17.80
  -2   6   1  147.09   15.10
   1  -6  -1  279.57   23.60
  -1   6   1  236.08   19.50
   0  -6  -1  356.96   26.80
   0  -6  -1  382.76   12.10
   0   6   1  351.46   11.70
   0   6   1  343.77   23.90
   0   6   1  360.56   13.40
  -1  -6  -1  139.79    9.70
  -1  -6  -1  129.39   15.60
   1   6   1  141.79   15.80
   1   6   1  115.99   10.30
  -2  -6  -1    7.50    3.30
  -2  -6  -1   -4.70    2.90
   2   6   1    4.60    4.40
   2   6   1   -2.40    3.10
  -3  -6  -1   29.40    9.40
   3   6   1   33.60    9.80
   3   6   1   27.40    8.20
  -4  -6  -1   -3.20    4.30
   4   6   1    2.70    4.80
   4   6   1    2.20    5.30
  -5  -6  -1  159.18   19.00
   5   6   1  154.88   24.00
   5   6   1  209.88   21.60
  -6  -6  -1   -6.80    5.30
   6   6   1   -0.40    6.70
   6   6   1   -2.30    7.00
  -7  -6  -1  177.48   24.90
  -7  -6  -1  171.38   25.30
   7   6   1  166.18   19.60
   7   6   1  171.28   29.30
  -8  -6  -1  144.09   22.80
  -8  -6  -1  154.78   21.90
   8   6   1  174.98   31.70
   8   6   1  191.48   27.80
  -9  -6  -1   93.69   24.20
  -9  -6  -1  155.18   23.80
   9   6   1  129.09   26.90
   9   6   1  152.58   24.50
  10  -7  -1   29.70   16.90
  10  -7  -1   73.59   19.30
 -10   7   1   49.30   14.20
   9  -7  -1   48.20   14.00
   9  -7  -1   53.89   12.50
  -9   7   1   27.50   10.80
   8  -7  -1  340.57   34.30
   8  -7  -1  324.67   28.60
  -8   7   1  368.26   29.60
   7  -7  -1   60.89   14.00
   7  -7  -1   72.19   18.90
  -7   7   1   74.19   15.50
   6  -7  -1    6.40    7.20
   6  -7  -1   10.60    5.60
  -6   7   1   12.00    6.60
   5  -7  -1  158.28   13.20
   5  -7  -1  179.68   26.90
  -5   7   1  193.38   19.40
  -5   7   1  176.08   13.50
   4  -7  -1  229.28   37.70
   4  -7  -1  231.58   11.40
  -4   7   1  249.68   21.60
  -4   7   1  229.28   11.90
   3  -7  -1   52.19   13.50
  -3   7   1   39.00   10.20
   2  -7  -1    1.50    5.40
  -2   7   1   -7.70    2.70
   1  -7  -1  800.42   44.40
  -1   7   1  785.32   39.30
   0  -7  -1  801.92   43.80
   0   7   1  736.93   18.70
   0   7   1  758.52   39.20
  -1  -7  -1   16.60    4.30
  -1  -7  -1    4.10    5.00
   1   7   1   11.20    4.30
   1   7   1   16.60    7.90
  -2  -7  -1   72.39   15.80
   2   7   1   69.19   12.10
   2   7   1   54.99   13.00
  -3  -7  -1  107.89   19.30
   3   7   1   65.29   15.10
   3   7   1  135.19   15.90
  -4  -7  -1   -5.80    5.30
   4   7   1   -8.60    3.80
   4   7   1    7.40    6.70
  -5  -7  -1  144.79   23.90
   5   7   1  185.18   27.20
   5   7   1  172.08   26.00
   6   7   1  108.49   19.60
   6   7   1   93.79   20.40
  -7  -7  -1  -14.40    7.60
   7   7   1  -10.30    8.60
   7   7   1   -6.40   10.10
  -8  -7  -1  111.99   23.20
  -8  -7  -1  137.39   24.20
   8   7   1  119.39   21.50
   8   7   1  111.39   26.50
  -9  -7  -1   62.79   19.70
  -9  -7  -1   74.89   20.80
   9   7   1   90.29   24.90
   9   7   1   71.99   17.40
  10  -8  -1  211.78   25.00
  10  -8  -1  147.39   30.60
 -10   8   1  200.98   31.40
   9  -8  -1   80.69   19.10
   9  -8  -1  105.79   25.20
  -9   8   1  123.29   22.80
   8  -8  -1   -7.90    9.50
   8  -8  -1   -1.70    7.50
  -8   8   1   -9.90    7.20
   7  -8  -1   15.90    6.20
   7  -8  -1    2.40    9.20
  -7   8   1   12.10    8.40
   6  -8  -1    3.30    4.20
   6  -8  -1   12.30    9.50
  -6   8   1   -5.10    5.70
   5  -8  -1    0.40    2.60
   5  -8  -1    9.20    8.30
  -5   8   1    2.90    6.00
  -5   8   1    7.60    4.00
   4  -8  -1  246.58   27.20
   4  -8  -1  266.17    8.50
  -4   8   1  272.27    8.70
  -4   8   1  274.47    8.30
  -4   8   1  306.27   26.30
   3  -8  -1  746.43   47.20
  -3   8   1  710.53   40.20
   2  -8  -1    3.00    6.00
  -2   8   1    6.20    4.00
   1  -8  -1   96.89   19.00
  -1   8   1   90.39   17.50
   0  -8  -1   44.50   14.70
   0   8   1   35.40    4.10
   0   8   1   45.00    4.90
   0   8   1   37.20   11.40
  -1  -8  -1  110.69   20.80
   1   8   1   85.99    9.50
   1   8   1  120.99   21.20
  -2  -8  -1   82.09   18.10
   2   8   1   93.59   18.70
   2   8   1  102.99   11.80
  -3  -8  -1   53.69   14.70
   3   8   1   49.60   15.00
   3   8   1   71.59   14.00
  -4  -8  -1   75.99   17.40
   4   8   1   37.90   12.10
   4   8   1   53.79   14.00
  -5  -8  -1  -14.90    5.90
   5   8   1    8.10    7.20
   5   8   1    9.70    8.10
  -6  -8  -1  223.18   25.50
   6   8   1  196.98   29.20
   6   8   1  207.68   25.20
  -7  -8  -1    5.40    7.80
   7   8   1    9.00   10.30
   7   8   1   -2.00   10.50
  -8  -8  -1   -6.70   11.50
  -8  -8  -1    1.20   12.90
   8   8   1    4.90   11.50
   8   8   1  -20.80   10.10
   9  -9  -1   56.69   16.20
   9  -9  -1   70.09   20.40
  -9   9   1   76.79   18.50
   8  -9  -1   -3.10    6.50
  -8   9   1   -3.30    8.20
   7  -9  -1   53.59   10.60
   7  -9  -1   60.19   21.00
  -7   9   1   39.30   13.40
   6  -9  -1   39.40   15.40
   6  -9  -1   25.10    6.10
  -6   9   1   13.90    7.20
  -6   9   1   20.70   10.70
   5  -9  -1   71.39    5.00
   5  -9  -1   49.80   16.70
  -5   9   1   87.39   18.70
  -5   9   1   66.39    5.10
  -5   9   1   71.19    5.90
   4  -9  -1  252.17   29.40
  -4   9   1  276.17   27.40
   3  -9  -1  238.88   27.80
  -3   9   1  253.27   25.00
   2  -9  -1  426.36   37.50
  -2   9   1  436.86   33.20
   1  -9  -1    7.00    6.70
  -1   9   1   24.00    9.30
   0  -9  -1   18.10    9.30
   0   9   1   12.40    2.90
   0   9   1   27.60   10.00
   0   9   1   14.10    2.60
  -1  -9  -1  778.12   49.70
   1   9   1  797.32   47.20
   1   9   1  721.63   27.80
  -2  -9  -1   12.10   10.50
   2   9   1   14.20    7.50
  -3  -9  -1  134.89   25.30
   3   9   1  144.39   24.10
   3   9   1  116.09   17.70
  -4  -9  -1   94.19   22.20
   4   9   1   92.49   20.90
   4   9   1   65.99   17.20
  -5  -9  -1   14.50   12.20
   5   9   1    8.90    9.50
   5   9   1   -6.10    7.70
  -6  -9  -1   73.09   19.60
   6   9   1   23.30   15.60
   6   9   1   86.69   21.40
  -7  -9  -1    7.30   14.20
   7   9   1   23.20   11.90
   7   9   1   15.70   14.90
   9 -10  -1   15.00   15.00
  -9  10   1    8.10   11.70
   8 -10  -1    2.80   14.20
  -8  10   1    4.40    8.20
   7 -10  -1   64.89   18.70
  -7  10   1   37.40   16.20
   6 -10  -1  104.69   24.30
  -6  10   1  115.89   22.60
   5 -10  -1  287.17   33.00
  -5  10   1  329.57   32.80
   4 -10  -1  226.98   36.40
  -4  10   1  288.07   29.80
   3 -10  -1    9.60   13.00
  -3  10   1   36.60   13.20
   2 -10  -1  361.76   36.70
  -2  10   1  405.86   34.50
   1 -10  -1    7.30    7.10
  -1  10   1    3.90    6.70
   0 -10  -1   21.80    9.80
   0  10   1   20.60    9.60
  -1 -10  -1   62.69   18.40
   1  10   1   63.69    9.00
   1  10   1   61.19   15.80
   1  10   1   49.50    7.90
  -2 -10  -1   64.09   16.40
   2  10   1   46.50   11.70
   2  10   1   59.29   16.50
  -3 -10  -1    9.00   10.50
   3  10   1   12.60    8.90
   3  10   1  -10.30    8.80
  -4 -10  -1   42.90   19.70
   4  10   1   66.99   18.70
   4  10   1   61.09   17.80
  -5 -10  -1   13.60   12.40
   5  10   1   19.90   10.00
   5  10   1  -17.50   11.20
  -6 -10  -1   52.29   15.60
   6  10   1   41.10   21.40
   6  10   1   45.20   15.20
   8 -11  -1    0.40   13.30
  -8  11   1   -7.00   11.40
   7 -11  -1  176.48   34.80
  -7  11   1  238.98   36.80
   6 -11  -1   61.59   23.30
  -6  11   1   62.19   19.00
   5 -11  -1   -4.00    9.70
  -5  11   1   -9.50    7.00
   4 -11  -1   27.10   13.80
   3 -11  -1  103.59   25.20
  -3  11   1   77.49   19.30
   2 -11  -1  105.49   22.90
  -2  11   1   75.89   20.20
   1 -11  -1  567.34   48.00
  -1  11   1  475.35   40.50
   0 -11  -1   59.99   19.90
   0  11   1   36.30   14.20
  -1 -11  -1   11.20   10.60
   1  11   1   22.50   13.50
   1  11   1   34.40    7.00
  -2 -11  -1   72.09   21.50
   2  11   1   72.99   22.20
   2  11   1   79.79   13.20
  -3 -11  -1   32.60   15.70
   3  11   1  -14.90    8.90
   3  11   1    4.30    8.80
  -4 -11  -1   -0.40   11.80
   4  11   1   16.70   12.60
   4  11   1  -19.10   10.40
  -5 -11  -1    2.60   10.90
   5  11   1    8.80   11.50
   5  11   1  -22.70    9.00
   6 -12  -1  132.19   28.40
  -6  12   1   91.79   23.50
   5 -12  -1  -23.00   12.10
  -5  12   1   30.10   13.30
   4 -12  -1   22.20   16.10
  -4  12   1   -0.60    8.70
   3 -12  -1  595.14   53.69
  -3  12   1  497.55   43.20
   2 -12  -1   59.49   21.50
  -2  12   1  101.19   23.50
   1 -12  -1  105.69   25.30
  -1  12   1   92.19   23.90
   0 -12  -1   79.79   24.40
   0  12   1   50.49   17.10
  -1 -12  -1    0.50   10.10
   1  12   1   10.70   11.00
  -2 -12  -1   54.39   18.80
   2  12   1   83.09   20.60
   3  12   1    5.30   10.10
  -4 -12  -1    6.60   13.50
   4  12   1  -19.70   13.00
   4 -13  -1   13.60   14.10
  -4  13   1   -2.00    9.10
   3 -13  -1   13.50   17.00
  -3  13   1   13.30   13.70
   2 -13  -1   47.40   18.70
  -2  13   1   42.50   17.30
   1 -13  -1  162.38   36.50
  -1  13   1  133.29   28.70
   0 -13  -1   54.89   20.40
   0  13   1   49.40   19.70
  -1 -13  -1   41.00   18.00
   1  13   1   16.70   12.70
  -2 -13  -1   13.90   18.40
   2  13  -2   -9.80   12.00
  -2 -13   2   20.00   14.90
   1  13  -2    7.40   13.60
  -1 -13   2   42.90   21.50
   0  13  -2   69.09   21.70
   0 -13   2   91.29   24.60
  -1  13  -2  -20.70   11.10
   1 -13   2  -12.90   11.30
  -2  13  -2    6.30   10.00
   2 -13   2   15.10   14.50
  -3  13  -2    5.20    8.40
   3 -13   2  -24.00    7.90
  -4  13  -2  150.18   28.90
   4 -13   2  162.28   35.40
  -5  13  -2  451.55   42.10
   4  12  -2    8.40   13.80
   4  12  -2   26.80   13.70
  -4 -12   2   13.40   14.50
   3  12  -2   76.39   18.30
   3  12  -2   41.80   17.60
  -3 -12   2   93.69   26.10
   2  12  -2  107.59   23.70
   2  12  -2   89.99   16.10
  -2 -12   2   87.19   24.40
   1  12  -2   -8.80    9.00
   1  12  -2    1.10    9.30
  -1 -12   2    1.90   12.00
   0  12  -2   59.69   14.60
   0  12  -2   61.79   11.70
   0 -12   2   42.60   19.10
  -1  12  -2    2.60   10.00
  -1  12  -2   -5.10   10.70
   1 -12   2   -8.90   10.20
  -2  12  -2   75.79   11.40
  -2  12  -2   72.79   20.30
   2 -12   2   77.19   22.20
  -3  12  -2  290.07   31.70
   3 -12   2  307.47   37.20
  -4  12  -2  156.48   27.80
   4 -12   2  151.88   33.20
  -5  12  -2   -0.20    7.10
   5 -12   2   18.50   16.50
  -6  12  -2   89.89   21.80
   6 -12   2   52.39   21.60
   6  11  -2   17.70   15.10
   6  11  -2   20.70   15.90
  -6 -11   2   82.09   20.50
   5  11  -2   89.29   21.00
   5  11  -2   92.79   20.50
  -5 -11   2  126.19   30.60
   4  11  -2  137.59   25.40
   4  11  -2  129.29   24.90
  -4 -11   2  156.88   34.20
   3  11  -2  199.48   29.70
   3  11  -2  234.68   24.30
  -3 -11   2  223.08   52.79
   2  11  -2   40.10   14.70
   2  11  -2   52.89   14.20
  -2 -11   2   78.69   21.80
   1  11  -2   97.39   19.10
   1  11  -2   72.69   14.00
  -1 -11   2   71.79   20.30
   0  11  -2   -1.90    6.10
   0  11  -2   21.20    8.40
   0 -11   2    0.20   12.50
  -1  11  -2   69.49   11.00
  -1  11  -2   75.99   18.30
   1 -11   2   48.80   16.00
  -2  11  -2    3.90    7.50
  -2  11  -2   17.80    7.50
   2 -11   2   26.20   11.80
  -3  11  -2   39.30   13.70
  -3  11  -2   24.20    8.60
   3 -11   2   43.80   18.80
  -4  11  -2   24.20    8.70
   4 -11   2    2.50    9.30
  -5  11  -2   11.00   11.90
  -5  11  -2   46.60    9.40
   5 -11   2   55.19    8.50
   5 -11   2   91.29   31.90
  -6  11  -2   69.59   20.40
   6 -11   2   39.00    9.80
   6 -11   2   60.49   19.20
  -7  11  -2   30.50   13.80
   7 -11   2   32.00    9.50
   7 -11   2  -10.10   12.80
  -8  11  -2   59.39   20.80
   8 -11   2   81.19   20.90
   8 -11   2   66.39   25.40
   7  10  -2   77.19   17.80
   7  10  -2   60.89   22.60
  -7 -10   2   51.79   20.20
   6  10  -2    6.00   10.70
   6  10  -2   -9.30    8.50
  -6 -10   2   21.00   12.50
   5  10  -2  122.19   22.30
   5  10  -2  120.79   20.50
  -5 -10   2   96.29   26.50
   4  10  -2  127.49   21.30
   4  10  -2   78.29   17.80
  -4 -10   2   81.99   19.00
   3  10  -2   44.60   11.00
   3  10  -2   10.40    9.10
  -3 -10   2    2.40    9.00
   2  10  -2   24.80    9.70
   2  10  -2    7.00    7.30
  -2 -10   2   10.40    6.10
   1  10  -2   92.19   18.30
   1  10  -2   86.49   14.60
  -1 -10   2   91.19   21.40
   0  10  -2   -0.50    4.30
   0  10  -2    3.70    8.30
   0 -10   2   -3.10   10.30
  -1  10  -2  292.27   18.80
  -1  10  -2  316.17   29.20
   1 -10   2  278.07   32.00
  -2  10  -2   26.50   10.50
  -2  10  -2   15.40    7.80
  -2  10  -2   19.40    5.50
   2 -10   2   24.50   11.60
  -3  10  -2    1.20    4.80
  -3  10  -2   -5.80    5.80
   3 -10   2   -6.40    9.90
  -4  10  -2   70.69   17.60
  -4  10  -2   82.89    9.90
   4 -10   2   74.19   11.40
   4 -10   2   56.39   17.80
  -5  10  -2  176.08   27.10
   5 -10   2  176.18   14.80
   5 -10   2  152.98   29.20
  -6  10  -2   27.60   12.80
   6 -10   2   13.80    6.90
   6 -10   2   24.50   11.80
  -7  10  -2  151.48   26.10
   7 -10   2  151.98   17.40
   7 -10   2  143.39   30.60
  -8  10  -2  264.17   29.20
   8 -10   2  300.17   46.30
   8 -10   2  357.76   28.60
  -9  10  -2   50.09   17.90
   9 -10   2   14.00   18.70
   9 -10   2   38.80   14.30
   8   9  -2   85.09   20.60
  -8  -9   2   59.49   19.30
   7   9  -2    0.30    7.80
   7   9  -2   20.60   11.60
  -7  -9   2   19.50   13.60
   6   9  -2   23.90   12.00
   6   9  -2    4.30   10.40
  -6  -9   2   15.90   16.10
   5   9  -2   28.20   12.20
   5   9  -2    6.40   10.80
  -5  -9   2    2.80    6.90
   4   9  -2   88.89   19.20
   4   9  -2  127.99   22.30
  -4  -9   2   99.79   23.30
   3   9  -2   83.19   17.80
   3   9  -2   97.29   18.80
  -3  -9   2   77.39   20.40
   2   9  -2   -2.90    5.20
   2   9  -2    0.60    6.70
  -2  -9   2   -3.00    8.20
   1   9  -2   33.60    9.30
   1   9  -2   61.29   14.40
  -1  -9   2   77.59   18.70
   0   9  -2  144.49   22.20
   0   9  -2  130.19   12.90
   0  -9   2  125.29   24.20
  -1   9  -2   25.40    7.40
  -1   9  -2   38.30   11.50
  -1   9  -2   36.90    8.40
   1  -9   2   33.50   10.80
  -2   9  -2   16.10    7.10
  -2   9  -2   27.30    6.30
  -2   9  -2   42.40   10.80
   2  -9   2   27.30   10.90
  -3   9  -2   12.80    5.40
  -3   9  -2   16.90    7.30
   3  -9   2   28.30   12.70
   3  -9   2   16.00    4.70
  -4   9  -2    3.40    3.70
   4  -9   2    4.90   10.00
   4  -9   2    3.50    3.90
  -5   9  -2  156.98   24.80
   5  -9   2  152.58   14.60
   5  -9   2  144.49   27.00
  -6   9  -2   -1.80    7.40
   6  -9   2    0.00    5.20
   6  -9   2  -11.10    8.30
  -7   9  -2   60.59   17.20
   7  -9   2   27.60   13.90
   7  -9   2   17.40    9.70
  -8   9  -2   45.90   15.90
   8  -9   2   85.89   18.10
   8  -9   2   95.29   22.90
  -9   9  -2  113.19   21.40
   9  -9   2  108.39   26.50
   9  -9   2  104.69   18.20
   9   8  -2   21.30   17.90
   9   8  -2   49.90   18.80
  -9  -8   2   36.40   21.90
  -9  -8   2   32.20   16.40
   8   8  -2  234.48   22.90
   8   8  -2  169.18   31.50
  -8  -8   2  205.48   23.10
  -8  -8   2  233.58   35.50
   7   8  -2   50.39   15.20
   7   8  -2   29.20   10.70
  -7  -8   2   68.79   18.30
   6   8  -2   -2.20    8.80
   6   8  -2   21.50    8.90
  -6  -8   2   -4.10    9.10
   5   8  -2   23.30    7.00
   5   8  -2   13.40    8.40
  -5  -8   2   20.40   10.50
   4   8  -2   33.20   10.30
   4   8  -2   16.20   11.10
  -4  -8   2   10.40   10.40
   3   8  -2  532.75   32.50
   3   8  -2  538.05   34.00
  -3  -8   2  499.75   39.70
   2   8  -2  111.99   16.60
   2   8  -2  104.59   17.50
  -2  -8   2  111.89   21.90
   1   8  -2    4.80    5.00
   1   8  -2   -4.20    3.50
  -1  -8   2   -3.30    5.10
   0   8  -2  271.77   23.30
   0   8  -2  345.97   19.90
   0  -8   2  292.47   28.80
  -1   8  -2   12.10    5.00
  -1   8  -2   17.60    5.60
   1  -8   2    6.00    6.60
  -2   8  -2    2.70    4.60
  -2   8  -2    9.40    5.80
  -2   8  -2    0.10    2.90
   2  -8   2    4.20    2.90
  -3   8  -2    1.60    4.80
   3  -8   2   12.50    4.70
   3  -8   2   13.60    8.10
  -4   8  -2    2.50    4.70
   4  -8   2    9.50    8.50
   4  -8   2   21.70    5.40
  -5   8  -2   56.19   12.80
   5  -8   2   76.69   12.60
   5  -8   2   66.29   18.40
  -6   8  -2  320.57   28.00
   6  -8   2  353.66   25.30
   6  -8   2  374.76   34.30
  -7   8  -2   -3.90    5.20
   7  -8   2   -8.70   10.00
   7  -8   2    7.90    9.10
  -8   8  -2    7.80    7.30
   8  -8   2    5.00    7.50
   8  -8   2    5.80   10.50
  -9   8  -2  198.48   23.40
   9  -8   2  191.08   29.40
   9  -8   2  201.08   33.90
 -10   8  -2   45.10   16.20
  10  -8   2   66.59   21.10
  10  -8   2   74.19   16.30
   9   7  -2   32.50   16.10
   9   7  -2   28.10    9.50
  -9  -7   2   17.70   10.80
  -9  -7   2   60.19   16.90
   8   7  -2  -26.00   12.00
   8   7  -2   -1.00    8.30
  -8  -7   2  -14.20   10.10
  -8  -7   2  -10.30    7.00
   7   7  -2   85.59   19.90
   7   7  -2   39.50   11.10
  -7  -7   2   60.59   18.00
   6   7  -2    2.10    9.50
   6   7  -2    5.60    7.90
  -6  -7   2   19.50    9.50
   5   7  -2   37.50   11.70
   5   7  -2   54.19   14.60
  -5  -7   2   73.79   17.90
   4   7  -2  144.49   16.50
   4   7  -2  164.98   23.40
  -4  -7   2  162.68   26.30
   3   7  -2  116.49   17.40
   3   7  -2   84.99   15.30
  -3  -7   2   99.29   20.10
   2   7  -2   22.90    7.50
   2   7  -2   48.30   10.90
  -2  -7   2   36.80   11.70
   1   7  -2   -2.70    3.70
   1   7  -2   -2.10    3.80
  -1  -7   2    1.60    4.40
   0   7  -2    3.20    4.00
   0   7  -2   12.30    4.90
   0   7  -2    8.00    4.20
   0  -7   2    3.10    5.40
  -1   7  -2  607.24   25.40
  -1   7  -2  629.34   29.70
  -1   7  -2  643.34   33.60
   1  -7   2  632.24   38.80
  -2   7  -2   53.59    8.40
  -2   7  -2   70.69   12.80
  -2   7  -2   40.70    9.10
   2  -7   2   52.29    8.20
   2  -7   2   43.40   12.60
  -3   7  -2   15.20    6.60
  -3   7  -2   11.60    6.90
   3  -7   2   12.20    7.10
   3  -7   2    2.90    3.80
  -4   7  -2  129.49   15.40
   4  -7   2  154.68   24.10
   4  -7   2   99.19   11.70
  -5   7  -2   13.60    6.40
   5  -7   2   21.40    6.90
   5  -7   2   24.50    9.50
  -6   7  -2   39.00   11.60
   6  -7   2   36.40   16.00
   6  -7   2   30.90    9.60
  -7   7  -2    3.80    7.20
   7  -7   2   11.20    9.00
   7  -7   2    3.70    5.80
  -8   7  -2   65.69   15.80
   8  -7   2   99.59   20.00
   8  -7   2   75.49   16.90
  -9   7  -2    4.00    7.80
   9  -7   2   -8.20    9.20
   9  -7   2    3.40    9.70
 -10   7  -2  213.38   30.20
  10  -7   2  240.78   32.90
  10  -7   2  248.88   38.40
  10   6  -2  -19.90   11.40
 -10  -6   2  -24.20    9.30
   9   6  -2   29.50   15.30
  -9  -6   2    5.10    8.70
  -9  -6   2  -21.30    9.00
   8   6  -2   81.49   14.30
   8   6  -2   65.19   21.70
  -8  -6   2   82.99   14.00
  -8  -6   2   60.49   18.00
   7   6  -2   78.79   18.90
   7   6  -2   96.29   15.60
  -7  -6   2   83.59   19.70
   6   6  -2  206.08   18.20
   6   6  -2  254.07   27.00
  -6  -6   2  185.08   28.90
   5   6  -2   67.89   20.90
   5   6  -2   46.10    9.70
  -5  -6   2   48.70   15.00
   4   6  -2   16.20    7.20
   4   6  -2    7.70    6.00
  -4  -6   2   21.40    8.30
   3   6  -2  328.47   22.10
   3   6  -2  312.97   23.10
  -3  -6   2  339.87   28.90
   2   6  -2 1804.62   54.29
   2   6  -2 1745.73   53.19
  -2  -6   2 1811.92   67.39
   1   6  -2   69.29    8.30
   1   6  -2   66.29   10.30
   1   6  -2   77.09   12.60
  -1  -6   2   71.09   10.40
  -1  -6   2   57.19   13.40
   0   6  -2    7.00    3.20
   0   6  -2   11.80    4.80
   0  -6   2    8.20    5.40
  -1   6  -2  806.22   26.90
  -1   6  -2  822.22   28.70
  -1   6  -2  829.92   35.00
   1  -6   2  818.92   27.50
   1  -6   2  740.93   39.20
  -2   6  -2   70.69   11.00
  -2   6  -2   61.39   11.60
   2  -6   2   52.99   12.60
   2  -6   2   56.19    9.10
  -3   6  -2   29.40    8.60
  -3   6  -2   21.20    6.90
   3  -6   2   25.60    9.40
   3  -6   2   32.70    7.90
  -4   6  -2   -3.00    3.90
   4  -6   2   -0.80    3.20
   4  -6   2   -2.30    4.00
  -5   6  -2   15.60    7.00
   5  -6   2   23.60    8.30
   5  -6   2   18.20    6.80
  -6   6  -2   51.49   12.10
   6  -6   2   56.59   13.20
   6  -6   2   36.70   11.10
  -7   6  -2    5.00    6.20
   7  -6   2    9.40    5.80
  -8   6  -2   27.50   10.20
   8  -6   2   10.70   11.10
   8  -6   2   -2.10    8.40
  -9   6  -2   50.89   13.80
   9  -6   2   68.79   16.40
   9  -6   2   48.20   15.20
 -10   6  -2   46.20   12.90
  10  -6   2   -9.90   13.00
  10  -6   2   17.90   14.90
 -11   6  -2    2.50    9.80
  11  -6   2    7.70   11.70
  11  -6   2   -8.40   15.30
  10   5  -2    9.90   12.80
 -10  -5   2   -8.80   10.70
   9   5  -2   11.50   14.20
  -9  -5   2   21.40    9.70
  -9  -5   2   -6.70   10.90
   8   5  -2   76.49   12.40
   8   5  -2   87.79   20.40
  -8  -5   2   86.59   20.70
  -8  -5   2   64.29   12.10
   7   5  -2   14.90   10.10
   7   5  -2   16.10    7.10
  -7  -5   2   -6.10    7.50
  -7  -5   2   22.80    7.80
   6   5  -2  263.17   26.80
   6   5  -2  275.37   19.20
  -6  -5   2  330.37   30.10
   5   5  -2  117.69   20.00
   5   5  -2   92.79   13.60
  -5  -5   2   82.79   17.60
   4   5  -2    2.20    4.60
   4   5  -2    0.80    2.60
   3   5  -2   37.30    9.60
   3   5  -2   36.10    7.90
  -3  -5   2   22.50    8.60
   2   5  -2 2615.24   64.69
   2   5  -2 2651.83   62.79
  -2  -5   2 2544.25   76.39
   1   5  -2  368.56   19.10
   1   5  -2  372.26   18.50
   1   5  -2  352.16   19.80
  -1  -5   2  350.96   25.20
  -1  -5   2  347.67   17.80
   0   5  -2   64.59    7.40
   0   5  -2   52.39    8.00
   0   5  -2   61.09    9.90
   0  -5   2   53.09   11.40
  -1   5  -2   60.89   10.00
  -1   5  -2   47.70    8.90
  -1   5  -2   57.49    6.80
   1  -5   2   59.79   12.00
   1  -5   2   50.19    7.70
  -2   5  -2  319.07   18.30
  -2   5  -2  355.16   21.20
   2  -5   2  329.37   17.20
   2  -5   2  356.06   24.00
  -3   5  -2   15.00    5.20
  -3   5  -2    6.50    3.90
   3  -5   2   16.20    6.40
   3  -5   2    7.80    3.60
  -4   5  -2   44.20    9.30
   4  -5   2   57.09   10.70
   4  -5   2   54.39   12.20
  -5   5  -2    3.30    4.80
   5  -5   2    7.00    4.80
   5  -5   2    7.50    6.50
  -6   5  -2    3.00    4.60
   6  -5   2   29.10    9.20
   6  -5   2    0.90    5.40
  -7   5  -2   19.70    8.10
   7  -5   2   20.10    7.30
   7  -5   2    2.50    5.80
  -8   5  -2   47.50   11.00
   8  -5   2   35.60   14.00
   8  -5   2   15.50   10.30
  -9   5  -2   -7.10    6.30
   9  -5   2  -10.30   10.10
   9  -5   2   10.80    7.70
 -10   5  -2   -9.30    6.80
  10  -5   2    0.80   19.60
  11  -5   2  134.19   27.60
  11  -5   2  131.19   24.30
  11   4  -2  126.39   33.50
 -11  -4   2   52.79   19.70
  10   4  -2   43.50   16.70
 -10  -4   2   26.20   10.80
 -10  -4   2   34.40   12.20
   9   4  -2   10.20    8.40
  -9  -4   2   56.19   14.40
  -9  -4   2   27.10    8.00
   8   4  -2   19.70   13.60
  -8  -4   2   33.40    8.40
  -8  -4   2   50.29   13.60
   7   4  -2   23.40    9.20
   7   4  -2   30.60    6.60
  -7  -4   2   30.10    9.10
  -7  -4   2   15.80    5.80
   6   4  -2   12.90    7.70
   6   4  -2   11.70    5.00
  -6  -4   2    6.60    4.20
  -6  -4   2   -0.90    4.60
  -6  -4   2    4.70    4.90
   5   4  -2  215.78   22.00
  -5  -4   2  270.27   15.40
  -5  -4   2  220.18   22.40
   4   4  -2   38.90   10.30
   4   4  -2   35.40    7.40
  -4  -4   2   32.20    9.20
  -4  -4   2   39.10    6.70
   3   4  -2  316.07   21.40
   3   4  -2  293.77   16.50
  -3  -4   2  286.87   23.10
  -3  -4   2  298.97   15.20
   2   4  -2  105.09    9.60
   2   4  -2  131.39   12.00
  -2  -4   2  107.69   10.50
  -2  -4   2  116.69    9.40
  -2  -4   2   97.89   15.60
   1   4  -2 2023.90   47.30
   1   4  -2 1959.60   46.30
   1   4  -2 1948.71   45.90
  -1  -4   2 1909.01   44.80
  -1  -4   2 1902.41   58.09
  -1  -4   2 1894.81   44.30
   0   4  -2  167.88   11.10
   0   4  -2  147.59   10.20
   0   4  -2  133.29   13.30
   0   4  -2  150.28   11.90
   0  -4   2  143.19   10.70
   0  -4   2  136.19   13.80
   0  -4   2  135.79    9.90
  -1   4  -2  280.37   16.50
  -1   4  -2  295.67   15.60
  -1   4  -2  289.57   19.00
   1  -4   2  268.77   18.80
   1  -4   2  287.47   14.60
   1  -4   2  272.47   15.80
  -2   4  -2 1648.64   49.10
  -2   4  -2 1739.73   45.50
  -2   4  -2 1703.53   46.50
   2  -4   2 1652.83   49.99
   2  -4   2 1686.93   43.20
  -3   4  -2   82.29   12.10
  -3   4  -2   81.99   12.20
  -3   4  -2   73.49   11.70
   3  -4   2   75.19   12.50
   3  -4   2   83.39    9.70
  -4   4  -2    4.50    4.30
   4  -4   2    6.30    4.50
   4  -4   2    3.80    3.70
  -5   4  -2   43.00    9.60
   5  -4   2   53.09   11.40
   5  -4   2   50.69   11.70
  -6   4  -2   19.10    6.60
   6  -4   2   20.10    8.90
   6  -4   2   31.40    8.10
  -7   4  -2    4.20    6.20
   7  -4   2    3.70    5.50
   7  -4   2    6.30    7.00
  -8   4  -2    2.10    4.80
   8  -4   2   -3.60    5.40
   8  -4   2    4.10    5.50
  -9   4  -2   13.10    9.10
   9  -4   2    1.10    8.60
   9  -4   2   27.90   13.30
 -10   4  -2   71.19   14.30
  10  -4   2   50.19   12.90
 -11   4  -2   85.79   19.80
  11  -4   2   98.29   22.50
  11  -4   2  130.79   27.00
  11   3  -2   -6.80   17.20
 -11  -3   2   20.50   15.50
  10   3  -2    4.70    7.30
 -10  -3   2  -11.20    6.20
 -10  -3   2   11.70   12.00
   9   3  -2  -14.40    8.50
  -9  -3   2    1.10    3.70
  -9  -3   2   20.30    9.50
   8   3  -2   46.70   17.30
  -8  -3   2   20.60    6.50
  -8  -3   2   34.70    8.60
  -8  -3   2   46.20   13.60
   7   3  -2    4.80    5.90
  -7  -3   2   -0.50    3.00
  -7  -3   2   -0.50    3.80
  -7  -3   2   -0.60    4.70
   6   3  -2  160.18   11.40
   6   3  -2  176.08   25.50
  -6  -3   2  163.78   11.50
  -6  -3   2  172.58   16.70
  -6  -3   2  158.88   23.20
   5   3  -2   45.40   11.80
   5   3  -2   48.00    7.60
  -5  -3   2   44.30    7.00
  -5  -3   2   43.70    7.30
  -5  -3   2   47.50   11.40
   4   3  -2  306.77   14.90
   4   3  -2  265.57   21.00
  -4  -3   2  288.47   22.70
  -4  -3   2  300.97   13.50
   3   3  -2  479.25   18.30
   3   3  -2  479.65   25.50
  -3  -3   2  458.15   16.30
  -3  -3   2  474.85   27.70
   2   3  -2  312.37   20.10
   2   3  -2  315.77   14.10
  -2  -3   2  334.57   17.40
  -2  -3   2  340.47   13.50
  -2  -3   2  320.57   21.20
   1   3  -2 6758.12  120.49
   1   3  -2 6602.94  107.69
   1   3  -2 6726.83  103.99
   1   3  -2 6689.63  108.79
  -1  -3   2 6650.73  121.79
  -1  -3   2 6985.50  107.99
  -1  -3   2 6634.84  102.59
   0   3  -2   31.40    5.50
   0   3  -2   25.60    7.80
   0   3  -2   35.10    5.70
   0   3  -2   32.40    5.80
   0  -3   2   31.20    7.10
   0  -3   2   33.90    5.70
   0  -3   2   37.10    5.90
  -1   3  -2  253.97   15.90
  -1   3  -2  249.38   14.00
  -1   3  -2  265.57   14.20
   1  -3   2  273.37   16.50
   1  -3   2  257.17   14.00
   1  -3   2  281.57   14.10
  -2   3  -2   17.60    4.70
  -2   3  -2   17.50    4.80
  -2   3  -2   22.60    6.60
   2  -3   2   20.70    5.20
   2  -3   2   24.00    6.00
   2  -3   2   16.80    5.30
  -3   3  -2 1470.75   42.60
  -3   3  -2 1551.34   49.20
  -3   3  -2 1457.15   45.30
   3  -3   2 1440.86   44.80
   3  -3   2 1404.36   40.80
  -4   3  -2  744.63   30.80
  -4   3  -2  728.23   28.20
   4  -3   2  780.22   29.80
   4  -3   2  661.33   32.70
  -5   3  -2   23.40    6.20
  -5   3  -2   38.30    8.80
   5  -3   2   35.30   10.80
   5  -3   2   34.60    8.00
   5  -3   2   34.50   10.10
  -6   3  -2   69.59   12.30
   6  -3   2   69.79   15.50
   6  -3   2   40.50    9.60
   6  -3   2   62.69   10.80
  -7   3  -2   35.20    9.40
   7  -3   2   41.40    9.60
   7  -3   2   33.90   13.00
  -8   3  -2    9.30    5.90
   8  -3   2   10.20    6.30
   8  -3   2   14.40   11.20
  -9   3  -2    4.20    5.10
   9  -3   2   -5.20    5.90
   9  -3   2   18.80   12.20
 -10   3  -2  117.59   20.70
  10  -3   2  124.29   18.20
  10  -3   2  112.29   33.70
 -11   3  -2   57.49   18.10
  11  -3   2   82.39   24.20
  11   2  -2   41.30   17.10
  11   2  -2   -0.20   10.70
 -11  -2   2   -4.90   12.70
  10   2  -2   13.50   13.30
 -10  -2   2   17.60    7.40
 -10  -2   2   42.00   15.10
   9   2  -2  -11.50    8.00
  -9  -2   2   -8.80    7.80
  -9  -2   2    5.60    6.60
   8   2  -2    0.90    5.90
  -8  -2   2    8.70    5.30
  -8  -2   2   10.40    4.70
  -8  -2   2    4.00    6.90
   7   2  -2  142.09   24.60
  -7  -2   2  169.38   20.40
  -7  -2   2  169.38   11.10
   6   2  -2  399.66   30.90
  -6  -2   2  438.06   18.00
  -6  -2   2  436.06   30.60
  -6  -2   2  434.46   16.80
   5   2  -2  223.88   20.70
  -5  -2   2  270.37   11.90
  -5  -2   2  270.97   12.40
  -5  -2   2  264.57   22.30
   4   2  -2   64.99   11.80
   4   2  -2   47.90    5.00
  -4  -2   2   61.29    5.30
  -4  -2   2   45.10   10.30
  -4  -2   2   50.79    4.90
   3   2  -2   66.79   11.00
   3   2  -2   54.79   10.50
   3   2  -2   75.79    5.40
  -3  -2   2   63.69    4.70
  -3  -2   2   58.79   11.00
  -3  -2   2   82.69    9.80
   2   2  -2   19.80    5.10
   2   2  -2   12.80    2.60
   2   2  -2   10.20    4.20
  -2  -2   2   14.40    4.10
  -2  -2   2   15.20    5.70
  -2  -2   2   11.80    2.50
   1   2  -2  931.31   26.30
   1   2  -2  939.51   31.00
   1   2  -2  912.01   21.30
   1   2  -2  932.31   26.60
  -1  -2   2  952.70   32.00
  -1  -2   2  920.41   25.80
  -1  -2   2  911.01   21.20
   0   2  -2 1420.26   31.20
   0   2  -2 1479.05   33.50
   0   2  -2 1403.96   36.90
   0   2  -2 1421.16   32.50
   0  -2   2 1420.76   37.50
   0  -2   2 1401.46   30.90
   0  -2   2 1427.96   33.10
  -1   2  -2  631.64   21.00
  -1   2  -2  612.94   22.00
  -1   2  -2  623.94   21.50
   1  -2   2  634.44   21.60
   1  -2   2  637.44   22.10
   1  -2   2  668.43   21.60
  -2   2  -2  229.88   12.10
  -2   2  -2  212.78   13.10
  -2   2  -2  242.78   18.60
   2  -2   2  216.08   13.30
   2  -2   2  212.38   14.10
   2  -2   2  222.48   12.00
  -3   2  -2   51.49    5.80
  -3   2  -2   44.30    8.10
  -3   2  -2   56.59   10.00
   3  -2   2   51.99    7.30
   3  -2   2   46.30    9.00
   3  -2   2   49.30    8.50
  -4   2  -2  787.62   25.90
  -4   2  -2  819.72   31.50
   4  -2   2  839.92   27.70
   4  -2   2  783.92   36.30
   4  -2   2  871.31   27.50
  -5   2  -2  223.18   17.10
   5  -2   2  236.68   14.70
   5  -2   2  234.18   21.60
   5  -2   2  230.08   15.30
  -6   2  -2    2.90    3.50
   6  -2   2    7.50    4.70
   6  -2   2    4.80    4.00
   6  -2   2   -2.50    4.60
  -7   2  -2  249.58   20.20
   7  -2   2  250.27   19.00
   7  -2   2  240.18   25.90
   7  -2   2  254.77   17.60
   8  -2   2    0.50    4.90
   8  -2   2    5.40    9.10
  -9   2  -2   82.29   15.00
   9  -2   2   68.39   11.80
   9  -2   2   76.49   19.40
 -10   2  -2   69.29   15.20
  10  -2   2   78.79   22.10
  10  -2   2   74.99   14.00
 -11   2  -2  149.49   22.90
  11  -2   2  120.99   29.50
  11   1  -2   10.70   13.60
  11   1  -2   13.60   12.00
 -11  -1   2   34.00   11.70
  10   1  -2  101.69   22.60
  10   1  -2  183.88   34.50
 -10  -1   2  176.88   28.30
 -10  -1   2  140.89   12.60
   9   1  -2   21.50   11.80
  -9  -1   2   25.10    6.90
  -9  -1   2   23.40    8.80
  -9  -1   2   49.90   14.40
   8   1  -2    0.60    5.20
  -8  -1   2    3.30    3.10
  -8  -1   2    2.40    5.40
   7   1  -2   -6.90    4.60
  -7  -1   2    8.50    4.70
  -7  -1   2    7.90    6.60
  -7  -1   2    6.70    3.80
   6   1  -2   25.10   10.00
  -6  -1   2   14.60    4.10
  -6  -1   2   16.60    3.40
  -6  -1   2   23.50    9.10
   5   1  -2   42.60   10.10
  -5  -1   2   48.40   11.20
  -5  -1   2   48.50    5.00
  -5  -1   2   42.30    4.40
   4   1  -2    2.50    4.20
  -4  -1   2    2.20    1.50
  -4  -1   2    2.70    1.30
  -4  -1   2   11.20    4.10
   3   1  -2   -5.10    2.50
   3   1  -2    0.10    1.90
  -3  -1   2    2.60    3.20
  -3  -1   2    2.10    2.30
  -3  -1   2   -0.40    0.50
  -3  -1   2   -0.50    0.60
   2   1  -2 1547.75   22.50
   2   1  -2 1571.64   43.20
   2   1  -2 1501.05   38.80
  -2  -1   2 1553.44   37.80
  -2  -1   2 1528.15   43.50
   1   1  -2  275.77   12.50
   1   1  -2  299.47   13.00
   1   1  -2  302.57    8.80
   1   1  -2  290.97   15.30
  -1  -1   2  295.77    8.90
  -1  -1   2  294.57   12.60
  -1  -1   2  300.27   15.70
   0   1  -2 1250.57   26.20
   0   1  -2 1212.78   28.50
   0   1  -2 1170.08   29.40
   0  -1   2 1186.08   29.80
   0  -1   2 1227.68   26.30
   0  -1   2 1194.18   28.30
  -1   1  -2  913.71   27.10
  -1   1  -2  918.11   21.90
  -1   1  -2  966.70   25.70
   1  -1   2  945.81   27.10
   1  -1   2  945.71   25.40
   1  -1   2  911.91   22.10
  -2   1  -2  792.22   25.70
  -2   1  -2  807.82   30.10
  -2   1  -2  788.42   18.10
   2  -1   2  761.02   25.40
   2  -1   2  828.02   18.80
   2  -1   2  778.12   28.30
  -3   1  -2  115.99   10.90
  -3   1  -2  128.19    7.20
  -3   1  -2  134.59   11.70
  -3   1  -2  104.49   11.70
   3  -1   2  127.89   12.70
   3  -1   2  132.49    7.20
   3  -1   2  132.79   11.00
   3  -1   2  124.59    7.30
  -4   1  -2   68.79   10.40
   4  -1   2   56.09    5.90
   4  -1   2   80.89   14.30
   4  -1   2   61.19    5.90
  -5   1  -2  128.99   12.90
   5  -1   2  132.49   19.90
   5  -1   2  114.09    9.60
   5  -1   2  131.69    9.60
  -6   1  -2   -1.20    2.90
   6  -1   2   -3.20    2.50
   6  -1   2   -0.30    3.00
   6  -1   2    4.30    4.10
  -7   1  -2  477.95   28.30
   7  -1   2  462.45   36.20
   7  -1   2  445.16   21.60
  -8   1  -2    5.90    8.30
   8  -1   2   27.60   12.20
   8  -1   2   26.20    8.10
  -9   1  -2  148.49   17.20
   9  -1   2  159.88   18.30
   9  -1   2  129.79   14.10
   9  -1   2  175.28   31.50
 -10   1  -2  131.69   20.50
  10  -1   2  121.89   26.40
  10  -1   2  109.09   14.60
 -11   1  -2    5.40   10.80
  11  -1   2   21.90   16.40
  11   0  -2   -5.50   11.50
  11   0  -2   38.30   10.80
 -11   0   2   -8.50    7.50
  10   0  -2   74.39   18.90
  10   0  -2  120.89   23.60
 -10   0   2   87.99   12.10
 -10   0   2  109.89   21.90
   9   0  -2   51.39   16.20
   9   0  -2   18.10    8.80
  -9   0   2   11.90    8.90
  -9   0   2   18.30    6.50
   8   0  -2   13.70    9.30
   8   0  -2    8.90    6.90
  -8   0   2   -4.60    5.00
  -8   0   2   -1.70    5.30
   7   0  -2    2.90    8.90
  -7   0   2    3.00    3.30
  -7   0   2    3.70    5.90
   6   0  -2  145.99   17.60
  -6   0   2  143.89    9.10
  -6   0   2  141.49   17.30
  -6   0   2  144.69   10.30
   5   0  -2  552.54   31.50
   5   0  -2  567.24   17.70
  -5   0   2  594.24   32.70
  -5   0   2  551.54   17.90
  -5   0   2  576.04   16.60
   4   0  -2    2.00    3.30
   4   0  -2   -2.50    1.00
   4   0  -2   -5.60    3.00
  -4   0   2    1.40    1.40
  -4   0   2   -0.30    3.20
  -4   0   2   -0.80    0.90
   3   0  -2  278.67    7.40
   3   0  -2  271.87   16.70
   3   0  -2  270.47   18.20
  -3   0   2  261.37   17.90
  -3   0   2  260.47   15.50
  -3   0   2  278.17    7.20
   2   0  -2  379.76    7.80
   2   0  -2  371.06   16.30
   2   0  -2  391.86   19.80
  -2   0   2  380.66   19.60
  -2   0   2  359.96   15.40
  -2   0   2  343.17    8.20
   1   0  -2 2677.03   47.10
   1   0  -2 2655.43   47.10
   1   0  -2 2580.04   42.00
   1   0  -2 2591.74   53.49
  -1   0   2 2596.24   54.09
  -1   0   2 2599.64   46.10
  -1   0   2 2668.73   42.40
  -1   0  -2    1.10    1.10
  -1   0  -2    4.20    2.10
  -1   0  -2    2.70    2.10
  -1   0  -2    2.70    1.90
   1   0   2    1.30    1.70
   1   0   2    1.80    1.10
   1   0   2   -0.80    0.90
   1   0   2    1.70    1.70
  -2   0  -2 1273.77   45.70
  -2   0  -2 1224.28   33.50
  -2   0  -2 1248.78   35.10
   2   0   2 1198.98   34.40
   2   0   2 1133.49   35.90
   2   0   2 1240.08   34.10
  -3   0  -2 1023.00   34.10
  -3   0  -2  995.40   36.90
  -3   0  -2  985.80   38.10
   3   0   2 1008.80   37.70
   3   0   2 1031.10   16.70
   3   0   2  811.72   15.80
   3   0   2  959.30   32.30
  -4   0  -2    1.60    3.10
   4   0   2    3.50    1.80
   4   0   2    3.80    1.70
   4   0   2    8.90    4.90
  -5   0  -2  199.48   16.10
   5   0   2  205.78   21.00
   5   0   2  206.38   10.80
   5   0   2  193.58   10.90
  -6   0  -2   73.09   12.60
   6   0   2   47.80   13.40
   6   0   2   63.39    7.20
   6   0   2   52.59    7.70
  -7   0  -2   44.30   10.10
   7   0   2   11.10    8.60
   7   0   2   36.20    7.90
   7   0   2   32.00    6.90
  -8   0  -2  383.86   26.40
   8   0   2  348.37   19.40
   8   0   2  390.26   21.30
   8   0   2  274.27   30.40
  -9   0  -2   80.39   15.40
   9   0   2  110.69   24.30
   9   0   2   84.99   14.40
 -10   0  -2   35.60   12.40
  10   0   2   -9.50   13.20
  10   0   2   17.60   11.10
 -11   0  -2   80.69   19.60
  11   0   2   61.39   21.10
  12  -1  -2   39.50   19.10
  11  -1  -2    9.60   14.40
  11  -1  -2   19.60   10.10
 -11   1   2   20.80    9.10
 -11   1   2    2.40    9.40
  10  -1  -2    3.00   11.50
  10  -1  -2   -1.10    8.70
 -10   1   2    7.90    8.50
 -10   1   2    7.20    6.20
   9  -1  -2   -3.20    6.90
   9  -1  -2   -3.50    7.10
  -9   1   2   -1.40    4.40
  -9   1   2   15.50    9.00
   8  -1  -2  155.98   13.60
   8  -1  -2  152.38   26.00
   8  -1  -2  178.28   20.30
  -8   1   2  170.58   26.20
  -8   1   2  159.38   13.90
  -8   1   2  149.49   12.10
   7  -1  -2   38.60   11.00
   7  -1  -2   40.80    6.70
   7  -1  -2   31.30   10.70
  -7   1   2   35.90    7.60
  -7   1   2   43.80   12.30
  -7   1   2   46.00    7.60
   6  -1  -2  110.19   18.90
   6  -1  -2  105.89    9.00
   6  -1  -2  106.29   17.20
  -6   1   2  101.49    9.20
  -6   1   2   94.49   16.90
  -6   1   2   93.99    8.20
   5  -1  -2   49.50    5.40
   5  -1  -2   41.70   10.20
   5  -1  -2   59.89   12.00
  -5   1   2   36.60    9.50
  -5   1   2   45.90    5.30
   4  -1  -2   30.30    7.70
   4  -1  -2   30.00    4.60
  -4   1   2   22.50    6.20
  -4   1   2   25.20    4.00
  -4   1   2   19.40    7.10
   3  -1  -2   32.40    3.60
   3  -1  -2   38.40    8.40
   3  -1  -2   41.50    7.40
  -3   1   2   34.30    7.70
  -3   1   2   30.00    3.50
  -3   1   2   32.70   10.20
   2  -1  -2 1879.41   40.10
   2  -1  -2 1925.51   34.50
   2  -1  -2 1876.51   48.10
   2  -1  -2 1856.31   49.00
  -2   1   2 1947.91   35.70
  -2   1   2 1851.91   38.50
  -2   1   2 1858.71   48.80
   1  -1  -2  199.78   12.30
   1  -1  -2  187.48   12.40
   1  -1  -2  182.98    8.40
   1  -1  -2  194.98    9.60
   1  -1  -2  193.68    8.60
  -1   1   2  198.48    8.80
  -1   1   2  227.18   13.60
  -1   1   2  213.58    8.90
  -1   1   2  211.68   10.20
   0  -1  -2    5.70    2.30
   0  -1  -2    8.70    2.60
   0  -1  -2    7.40    2.10
   0  -1  -2    6.40    2.50
   0   1   2    1.50    2.00
   0   1   2    8.60    2.50
   0   1   2    4.80    2.30
   0   1   2    5.00    2.30
  -1  -1  -2 1078.99   31.10
  -1  -1  -2 1062.69   23.30
  -1  -1  -2 1091.49   29.90
  -1  -1  -2 1081.89   24.00
   1   1   2 1092.69   29.60
   1   1   2 1100.59   23.60
   1   1   2 1020.90   30.30
  -2  -1  -2   63.39    7.40
  -2  -1  -2   53.09    8.30
  -2  -1  -2   56.79    4.00
  -2  -1  -2   55.69   15.00
   2   1   2   53.59    8.60
   2   1   2   61.59    9.50
   2   1   2   53.99    3.80
  -3  -1  -2   16.60    5.10
  -3  -1  -2   16.80    5.80
  -3  -1  -2   13.80    2.60
  -3  -1  -2   12.20    5.40
   3   1   2   13.30    4.60
   3   1   2   12.70    2.60
  -4  -1  -2  131.39   12.40
  -4  -1  -2  124.59    7.70
   4   1   2  126.79   15.00
   4   1   2  116.09   12.30
   4   1   2  123.29    7.20
  -5  -1  -2   90.99    7.80
  -5  -1  -2   76.39   12.60
   5   1   2   85.09    7.20
   5   1   2   91.89   17.30
  -6  -1  -2   12.80    6.30
  -6  -1  -2   17.10    4.10
   6   1   2   19.80    8.00
   6   1   2   23.20    5.70
  -7  -1  -2   49.00    8.60
  -7  -1  -2   52.49   11.80
   7   1   2   46.00    7.10
   7   1   2   53.39   13.80
   7   1   2   54.39    8.70
  -8  -1  -2  590.54   24.90
  -8  -1  -2  577.14   33.30
   8   1   2  539.25   28.40
   8   1   2  577.14   24.80
   8   1   2  606.74   45.90
  -9  -1  -2   94.19   16.30
   9   1   2  135.99   26.70
 -10  -1  -2   94.89   17.90
  10   1   2  105.09   26.70
 -11  -1  -2   86.69   18.80
  11   1   2   76.19   21.90
  12  -2  -2  114.79   21.00
  12  -2  -2   87.79   24.40
  11  -2  -2    9.10   11.40
  11  -2  -2   10.10   14.20
 -11   2   2   10.50    9.00
  10  -2  -2   65.49   20.30
  10  -2  -2   21.30   12.20
 -10   2   2   40.70   10.20
   9  -2  -2  281.47   30.80
   9  -2  -2  351.46   30.60
  -9   2   2  307.77   19.10
  -9   2   2  357.36   31.50
   8  -2  -2  143.89   24.80
   8  -2  -2  182.48   21.30
  -8   2   2  143.29   12.60
  -8   2   2  184.28   21.70
   7  -2  -2  114.39   20.40
   7  -2  -2  134.89   11.70
   7  -2  -2  106.69   18.30
  -7   2   2  106.39   10.30
  -7   2   2  109.19   19.10
   6  -2  -2    3.80    4.80
   6  -2  -2    4.50    4.00
   6  -2  -2   10.50    3.90
  -6   2   2    5.40    5.30
   5  -2  -2  123.89   13.80
   5  -2  -2  120.49   17.60
   5  -2  -2  103.99    9.00
  -5   2   2  115.19   17.50
  -5   2   2  107.19    8.90
   4  -2  -2  197.68   11.20
   4  -2  -2  210.98   16.00
   4  -2  -2  196.18   17.30
  -4   2   2  191.58   14.00
  -4   2   2  232.98   19.60
  -4   2   2  199.48   11.50
   3  -2  -2   36.60    5.50
   3  -2  -2   35.80    6.40
   3  -2  -2   26.90    7.20
   3  -2  -2   30.60    7.40
  -3   2   2   28.80    5.20
  -3   2   2   28.60    5.60
  -3   2   2   22.30    6.50
   2  -2  -2  566.54   17.90
   2  -2  -2  588.24   26.90
   2  -2  -2  524.85   24.50
   2  -2  -2  564.74   19.00
  -2   2   2  571.74   16.90
  -2   2   2  570.94   25.60
  -2   2   2  559.84   25.90
  -2   2   2  579.04   20.10
   1  -2  -2  712.83   27.30
   1  -2  -2  710.63   22.90
   1  -2  -2  746.43   27.10
   1  -2  -2  694.13   15.90
   1  -2  -2  670.23   16.00
  -1   2   2  717.43   26.20
  -1   2   2  685.93   23.20
   0  -2  -2  362.46   12.90
   0  -2  -2  354.06   16.80
   0  -2  -2  369.76   16.90
   0   2   2  352.56   17.20
   0   2   2  369.46   12.50
   0   2   2  340.37   16.30
  -1  -2  -2   84.89    7.80
  -1  -2  -2   85.99    7.50
  -1  -2  -2   78.59    8.30
   1   2   2   73.19    8.40
   1   2   2   76.29    7.40
   1   2   2   91.59    7.50
  -2  -2  -2  422.36   21.20
  -2  -2  -2  399.96   15.90
  -2  -2  -2  410.46   21.00
   2   2   2  380.46   20.20
   2   2   2  356.16   14.80
   2   2   2  378.56   21.60
  -3  -2  -2  108.29    8.30
   3   2   2   97.39    7.80
   3   2   2  103.29   11.40
   3   2   2  104.79   12.00
  -4  -2  -2  893.41   35.40
  -4  -2  -2  811.92   26.00
   4   2   2  853.41   40.30
   4   2   2  850.51   25.60
   4   2   2  879.71   36.10
  -5  -2  -2   -1.00    3.60
  -5  -2  -2   -7.10    2.90
   5   2   2    2.30    3.50
   5   2   2    7.10    3.60
   5   2   2    1.40    4.50
  -6  -2  -2   38.80    8.90
  -6  -2  -2   36.30    7.00
   6   2   2   28.10    9.00
   6   2   2   24.40    6.30
   6   2   2   29.00   13.80
  -7  -2  -2  242.78   16.60
  -7  -2  -2  237.18   20.50
   7   2   2  240.08   26.40
  -8  -2  -2    8.10    6.10
  -8  -2  -2   26.10    9.00
   8   2   2   11.20    8.40
   8   2   2   -1.10    6.60
   9   2   2   52.29   19.00
 -10  -2  -2   52.69   13.90
  10   2   2   54.99   20.30
 -11  -2  -2   59.49   13.20
  11   2   2   55.59   23.30
  11  -3  -2  163.18   27.90
  11  -3  -2   80.89   22.80
 -11   3   2  110.09   17.10
  10  -3  -2    4.10   12.70
  10  -3  -2   45.80   16.40
 -10   3   2   11.20    7.60
   9  -3  -2   41.00   13.70
   9  -3  -2   65.09   18.30
  -9   3   2   62.99   11.50
   8  -3  -2   22.80   10.50
   8  -3  -2   42.60   13.10
  -8   3   2   22.30    7.30
   7  -3  -2  173.38   20.60
   7  -3  -2  154.48   22.80
  -7   3   2  164.98   13.10
   6  -3  -2   28.30    9.00
   6  -3  -2   29.90   10.00
  -6   3   2   24.40    6.10
  -6   3   2   22.10    8.50
   5  -3  -2  625.34   24.50
   5  -3  -2  669.93   36.30
   5  -3  -2  673.63   32.50
  -5   3   2  663.33   25.90
   4  -3  -2 2349.46   57.89
   4  -3  -2 2347.27   68.69
   4  -3  -2 2320.07   51.39
  -4   3   2 2354.66   54.19
  -4   3   2 2253.47   55.19
   3  -3  -2    0.70    2.00
   3  -3  -2    2.40    2.60
   3  -3  -2   -3.90    1.70
  -3   3   2    0.10    1.70
  -3   3   2   -1.90    1.50
   2  -3  -2   52.69    4.80
   2  -3  -2   57.59    8.20
   2  -3  -2   72.39   11.70
   2  -3  -2   58.29   10.70
  -2   3   2   49.50    4.10
  -2   3   2   66.19    9.50
  -2   3   2   58.79   10.20
   1  -3  -2  558.14   11.70
   1  -3  -2  554.64   22.50
   1  -3  -2  536.75   25.50
   1  -3  -2  591.34   12.70
  -1   3   2  575.04   24.00
  -1   3   2  554.64   25.40
   0  -3  -2  678.53   18.30
   0  -3  -2  641.14   26.40
   0  -3  -2  656.93   25.80
   0   3   2  648.24   17.30
   0   3   2  677.73   27.50
  -1  -3  -2  237.68   15.90
  -1  -3  -2  193.08   13.60
  -1  -3  -2  210.68   12.60
   1   3   2  217.28   12.60
   1   3   2  227.48   14.40
   1   3   2  210.68   15.60
  -2  -3  -2  442.36   22.10
  -2  -3  -2  427.76   20.40
   2   3   2  450.25   24.50
   2   3   2  457.55   20.50
   2   3   2  448.16   22.50
  -3  -3  -2  236.18   15.20
   3   3   2  269.47   20.10
   3   3   2  259.87   18.90
   3   3   2  261.27   15.70
  -4  -3  -2    9.20    3.70
   4   3   2   15.30    5.50
   4   3   2   12.00    5.40
   4   3   2   17.10    7.20
  -5  -3  -2  295.77   18.40
  -5  -3  -2  294.67   22.00
   5   3   2  293.47   22.60
   5   3   2  284.67   25.60
   5   3   2  279.97   17.20
  -6  -3  -2  163.88   17.40
  -6  -3  -2  184.38   15.20
   6   3   2  137.19   19.90
   6   3   2  177.78   14.30
   6   3   2  168.98   26.50
  -7  -3  -2   17.80    8.40
  -7  -3  -2    9.20    7.10
   7   3   2   31.00    6.80
   7   3   2   25.40    8.70
   7   3   2   20.20   11.80
  -8  -3  -2    7.30    6.00
  -8  -3  -2   -0.60    7.80
   8   3   2    2.70    7.60
   8   3   2    8.60    8.90
  -9  -3  -2  226.38   17.80
  -9  -3  -2  196.58   21.30
   9   3   2  145.69   45.90
 -10  -3  -2    4.90   11.60
  10   3   2    2.10   10.30
  11  -4  -2  254.07   39.40
  11  -4  -2  259.57   36.20
 -11   4   2  257.27   23.30
  10  -4  -2  142.09   26.30
  10  -4  -2  129.99   27.40
 -10   4   2  121.19   17.20
   9  -4  -2   59.49   18.20
   9  -4  -2   41.20   15.10
  -9   4   2   72.29   13.40
   8  -4  -2   41.80   13.50
  -8   4   2   55.49   10.40
   7  -4  -2  122.29   21.00
   7  -4  -2  124.19   19.90
  -7   4   2   99.29   11.70
   6  -4  -2    7.90    6.40
   6  -4  -2   34.00   11.50
  -6   4   2   13.70    5.10
   5  -4  -2   83.49   15.40
   5  -4  -2   76.29   12.40
  -5   4   2   65.49   10.90
   4  -4  -2  414.36   28.10
   4  -4  -2  409.26   20.50
  -4   4   2  371.16   21.00
   3  -4  -2   13.70    6.80
   3  -4  -2   25.10    5.00
  -3   4   2   11.00    4.40
  -3   4   2   29.30    4.20
   2  -4  -2  192.08   17.40
   2  -4  -2  184.38    6.00
   2  -4  -2  189.38    6.90
  -2   4   2  178.18   14.40
   1  -4  -2  177.18   15.90
  -1   4   2  156.58   13.80
   0  -4  -2   67.49   11.10
   0  -4  -2   81.09    5.60
   0   4   2   75.09    5.50
   0   4   2   83.09   12.50
   0   4   2   86.79   10.30
  -1  -4  -2  128.89   12.70
  -1  -4  -2  140.79   10.40
   1   4   2  154.18   10.90
   1   4   2  122.49   12.40
   1   4   2  128.19   13.30
  -2  -4  -2   85.59   10.20
  -2  -4  -2   90.89   12.90
   2   4   2   88.49   10.10
   2   4   2   92.79   14.30
   2   4   2   99.79   11.30
  -3  -4  -2  557.64   27.40
   3   4   2  535.25   29.40
   3   4   2  572.84   26.60
   3   4   2  523.55   29.80
  -4  -4  -2    5.80    4.00
   4   4   2    4.10    5.10
   4   4   2    2.50    4.50
   4   4   2   -4.20    3.00
  -5  -4  -2  370.16   23.00
   5   4   2  362.16   29.40
   5   4   2  363.76   26.80
   5   4   2  357.96   21.80
  -6  -4  -2   -0.20    5.60
  -6  -4  -2    5.20    6.00
   6   4   2    3.50    5.60
   6   4   2   -2.00    5.40
  -7  -4  -2    0.10    5.90
  -7  -4  -2   30.30    7.80
   7   4   2   -3.90    6.60
   7   4   2    5.10    7.50
  -8  -4  -2   23.60    9.90
  -8  -4  -2   29.40    9.20
   8   4   2    9.40    8.00
   8   4   2   27.10   13.40
  -9  -4  -2  298.27   21.50
  -9  -4  -2  234.88   25.90
   9   4   2  289.07   42.60
 -10  -4  -2   28.60   11.70
  10   4   2   35.80   19.50
  11  -5  -2  176.88   28.00
  11  -5  -2  113.29   27.30
 -11   5   2  137.89   21.90
  10  -5  -2  245.88   29.00
  10  -5  -2  186.98   29.00
 -10   5   2  234.78   20.90
   9  -5  -2   70.09   19.10
   9  -5  -2   59.59   15.70
   8  -5  -2    6.40    6.90
  -8   5   2   13.40    6.90
   7  -5  -2   23.00   10.60
   7  -5  -2    9.80    7.70
  -7   5   2    3.20    5.90
   6  -5  -2  140.49   22.60
   6  -5  -2  188.08   18.60
  -6   5   2  172.78   16.20
   5  -5  -2   16.80    8.60
   5  -5  -2   21.90    7.80
  -5   5   2   18.40    7.20
  -5   5   2   26.00    6.80
   4  -5  -2  243.18   23.00
   4  -5  -2  258.57   15.00
  -4   5   2  262.97   19.30
  -4   5   2  247.98   13.60
   3  -5  -2    3.40    4.20
   3  -5  -2    1.00    1.90
  -3   5   2   -1.30    3.40
  -3   5   2    6.10    2.00
   2  -5  -2    1.50    3.30
  -2   5   2    0.40    3.70
   1  -5  -2  134.79   15.30
  -1   5   2  146.59   14.60
   0  -5  -2  516.95   14.40
   0  -5  -2  505.65   29.40
   0   5   2  516.65   28.60
   0   5   2  542.15   15.30
  -1  -5  -2 1749.22   56.49
  -1  -5  -2 1690.13   40.50
   1   5   2 1689.13   56.29
   1   5   2 1704.43   42.20
  -2  -5  -2   -2.60    3.90
  -2  -5  -2   -2.60    3.40
   2   5   2    0.20    3.80
   2   5   2    6.20    4.40
  -3  -5  -2  526.55   29.80
   3   5   2  504.15   29.20
   3   5   2  510.35   31.70
  -4  -5  -2  122.49   14.40
   4   5   2  133.29   20.30
   4   5   2   89.69   15.70
   5   5   2   -0.70    4.10
   5   5   2    0.90    4.10
  -6  -5  -2   -2.40    4.50
  -6  -5  -2   16.90    7.20
   6   5   2    9.80    8.60
   6   5   2    3.90    5.40
  -7  -5  -2   -3.20    5.30
  -7  -5  -2    1.80    4.80
   7   5   2   -0.80    6.30
   7   5   2    7.40    7.70
  -8  -5  -2   10.10    9.80
  -8  -5  -2   32.10   11.40
   8   5   2   18.50   11.10
   8   5   2   24.20   11.90
  -9  -5  -2   36.70   11.70
  -9  -5  -2   66.99   18.90
   9   5   2   93.69   24.20
 -10  -5  -2   21.60   12.10
  10   5   2   -1.50   15.60
  11  -6  -2  104.59   35.90
  11  -6  -2   83.59   23.60
 -11   6   2   93.19   18.50
  10  -6  -2  114.89   24.50
  10  -6  -2  121.59   26.80
 -10   6   2  168.08   20.40
   9  -6  -2   -8.20    9.00
   9  -6  -2   10.40    8.50
  -9   6   2    7.70    7.30
   8  -6  -2  115.19   25.00
   8  -6  -2  117.69   20.60
  -8   6   2  106.29   17.90
   7  -6  -2   16.10    9.70
   7  -6  -2   15.90    8.00
   6  -6  -2  529.35   28.20
   6  -6  -2  536.55   39.50
  -6   6   2  522.95   30.90
   5  -6  -2  375.36   21.10
  -5   6   2  353.56   24.80
  -5   6   2  398.46   19.70
   4  -6  -2  356.46   29.00
   4  -6  -2  310.47   14.40
  -4   6   2  349.77   24.30
  -4   6   2  336.07   13.60
   3  -6  -2   43.40   12.30
  -3   6   2   37.10    9.70
   2  -6  -2   18.70    8.20
  -2   6   2   29.90    8.10
   1  -6  -2  239.08   22.40
  -1   6   2  212.28   19.10
   0  -6  -2  142.19    6.50
   0  -6  -2  155.78   17.80
   0   6   2  140.29    7.20
   0   6   2  165.98   17.40
  -1  -6  -2  160.38   17.60
  -1  -6  -2  146.19   10.40
   1   6   2  156.88   11.70
   1   6   2  154.58   17.20
  -2  -6  -2  559.64   25.30
  -2  -6  -2  543.15   32.50
   2   6   2  541.15   33.80
   2   6   2  590.14   28.00
  -3  -6  -2   25.30    8.90
   3   6   2   16.30    7.50
   3   6   2    6.00    5.30
  -4  -6  -2  103.59   17.80
   4   6   2  108.39   23.60
   4   6   2  108.39   18.60
  -5  -6  -2    0.60    5.60
   5   6   2   -0.60    6.70
   5   6   2    0.70    5.60
  -6  -6  -2   95.69   18.10
   6   6   2  122.19   22.80
   6   6   2  102.39   19.80
  -7  -6  -2   15.20   10.00
  -7  -6  -2    1.30    9.30
   7   6   2   20.40   10.60
   7   6   2   -3.20    6.80
  -8  -6  -2   -2.70    7.90
  -8  -6  -2  -11.40    7.50
   8   6   2   22.00   11.80
  -9  -6  -2   30.90   12.10
   9   6   2   -5.90   13.00
   9   6   2   27.70   14.20
  10  -7  -2   23.90   14.50
  10  -7  -2   26.50   11.60
 -10   7   2   -7.20    9.30
   9  -7  -2  420.46   34.50
   9  -7  -2  438.56   40.30
  -9   7   2  430.76   32.10
   8  -7  -2  879.71   56.99
   8  -7  -2  936.31   45.80
  -8   7   2  902.31   45.90
   7  -7  -2   32.80   10.30
   7  -7  -2   17.50   11.20
  -7   7   2   39.80   11.30
   6  -7  -2   56.89   10.80
   6  -7  -2   50.79   15.50
  -6   7   2   44.10   12.10
   5  -7  -2  229.48   14.20
   5  -7  -2  291.47   29.10
  -5   7   2  205.98   20.80
  -5   7   2  232.78   13.30
   4  -7  -2   32.20    3.20
  -4   7   2   44.20    3.40
  -4   7   2   37.50   11.20
  -3   7   2  551.04   33.50
   2  -7  -2   -1.60    3.90
  -2   7   2   -4.50    3.00
   1  -7  -2   -1.90    2.20
  -1   7   2   -3.50    3.60
   0  -7  -2  629.54   14.20
   0  -7  -2  678.23   40.80
   0   7   2  670.53   15.10
   0   7   2  638.84   37.40
   0   7   2  660.13   14.10
  -1  -7  -2  139.49   10.20
  -1  -7  -2  117.49   19.70
   1   7   2  150.68   23.10
   1   7   2  121.99   10.00
  -2  -7  -2  280.87   21.70
  -2  -7  -2  284.67   25.10
   2   7   2  221.48   25.00
   2   7   2  258.97   18.90
  -3  -7  -2  105.49   20.10
   3   7   2  110.19   19.90
   3   7   2   88.29   15.30
  -4  -7  -2   92.89   18.00
   4   7   2  111.79   19.30
   4   7   2   96.79   19.70
  -5  -7  -2    3.20    7.30
   5   7   2    3.60    8.50
   5   7   2    9.30    6.90
  -6  -7  -2    3.70    8.70
   6   7   2   -5.20   10.00
  -7  -7  -2  -10.80    6.00
  -7  -7  -2  -10.90    8.00
   7   7   2   20.00   10.20
   7   7   2   -5.00   10.10
  -8  -7  -2   50.99   13.90
   8   7   2   82.29   17.90
   8   7   2   93.79   20.80
   9   7   2   20.10   15.30
   9   7   2   38.00   18.00
  10  -8  -2  105.69   20.60
  10  -8  -2  146.49   25.30
 -10   8   2  106.89   21.40
   9  -8  -2  146.79   23.10
   9  -8  -2  127.89   26.10
  -9   8   2  182.58   26.60
   8  -8  -2   10.10   11.90
   8  -8  -2   -0.40    9.10
  -8   8   2    6.60    8.00
   7  -8  -2   22.90    7.50
   7  -8  -2    7.00   10.00
  -7   8   2   26.70   10.00
   6  -8  -2   21.00   11.30
   6  -8  -2    7.00    6.20
  -6   8   2   16.60    6.90
  -6   8   2    7.10    8.30
   5  -8  -2    0.10    2.20
   5  -8  -2   -2.80    5.60
  -5   8   2    7.40    6.20
  -5   8   2   -5.80    2.60
   4  -8  -2  169.08   28.40
  -4   8   2  158.78   23.20
   3  -8  -2 1673.73   73.89
  -3   8   2 1674.63   65.19
   2  -8  -2   70.09   17.90
  -2   8   2   88.19   16.80
   1  -8  -2    4.90    5.70
  -1   8   2    6.30    5.50
   0  -8  -2  143.49   24.40
   0   8   2  127.49   21.40
  -1  -8  -2  121.39    9.10
  -1  -8  -2  103.79   21.00
   1   8   2  116.39   20.50
   1   8   2  120.49   10.00
  -2  -8  -2  221.18   24.80
   2   8   2  218.68   17.40
   2   8   2  198.38   23.80
  -3  -8  -2    5.60    8.50
   3   8   2   32.60    9.30
   3   8   2   14.80   10.30
  -4  -8  -2  134.89   22.90
   4   8   2  106.39   17.30
   4   8   2  103.19   21.00
  -5  -8  -2  113.99   21.50
   5   8   2  118.59   23.30
   5   8   2  137.29   23.90
  -6  -8  -2    0.30   10.00
   6   8   2    3.10    8.40
   6   8   2    8.60    9.00
  -7  -8  -2  105.79   21.30
   7   8   2   81.39   18.50
   7   8   2  127.79   23.00
  -8  -8  -2   40.30   14.40
  -8  -8  -2   -4.90   12.50
   8   8   2   33.20   15.40
   8   8   2    0.10   13.10
   9  -9  -2  271.87   22.70
   9  -9  -2  177.38   33.30
   8  -9  -2   84.39   13.00
   8  -9  -2   45.80   16.30
  -8   9   2   54.29   11.40
   7  -9  -2   69.69   21.00
   7  -9  -2   66.89   10.00
  -7   9   2   86.69   17.30
   6  -9  -2    6.70   10.80
   6  -9  -2   13.30    3.60
  -6   9   2    2.80    9.70
  -6   9   2   -0.40    4.00
   5  -9  -2  107.09   25.70
  -5   9   2   80.59   18.40
   4  -9  -2  227.58   34.50
  -4   9   2  257.27   26.20
   3  -9  -2   29.00   12.80
  -3   9   2   17.20    9.80
   2  -9  -2  485.05   40.80
  -2   9   2  488.35   36.90
   1  -9  -2    7.70    7.10
  -1   9   2    1.80    5.40
   0  -9  -2   -4.00    6.30
   0   9   2   -2.50    3.70
  -1  -9  -2  437.96   37.40
  -1  -9  -2  341.57   14.90
   1   9   2  397.76   18.10
   1   9   2  404.96   15.70
   1   9   2  367.96   32.50
  -2  -9  -2  221.58   26.30
   2   9   2  220.28   32.10
   2   9   2  219.38   17.70
  -3  -9  -2  159.78   27.90
   3   9   2  145.09   25.10
   3   9   2  167.48   18.90
  -4  -9  -2   70.49   17.40
   4   9   2   72.99   18.10
   4   9   2   68.59   17.10
  -5  -9  -2   70.09   16.00
   5   9   2   65.69   16.00
   5   9   2   77.99   21.30
  -6  -9  -2  127.89   24.90
   6   9   2  151.48   28.80
   6   9   2   84.29   24.30
  -7  -9  -2    6.00   11.60
   7   9   2   16.60   14.10
   7   9   2   14.20   10.50
   8 -10  -2   53.89   22.40
  -8  10   2  102.29   21.50
   7 -10  -2    4.00   12.90
  -7  10   2   14.40   10.40
   6 -10  -2   40.30   14.30
  -6  10   2    2.30    8.00
   5 -10  -2   -2.70   10.30
  -5  10   2   -0.90    7.90
   4 -10  -2   32.20   15.00
  -4  10   2   38.40   13.30
   3 -10  -2  149.39   29.50
  -3  10   2  152.48   26.20
   2 -10  -2  390.76   38.00
  -2  10   2  368.36   33.40
   1 -10  -2  153.58   27.60
  -1  10   2  153.68   25.30
   0 -10  -2   10.60   10.70
   0  10   2    3.40    7.60
  -1 -10  -2    7.40    4.70
   1  10   2    9.00    4.00
   1  10   2    9.90    8.50
  -2 -10  -2   -3.40    9.60
   2  10   2    8.10   10.20
   2  10   2   16.20    6.40
  -3 -10  -2  147.19   27.90
   3  10   2  155.58   17.10
   3  10   2  110.69   24.90
  -4 -10  -2  158.08   27.00
   4  10   2  134.19   33.00
   4  10   2  192.78   22.00
  -5 -10  -2    0.00    9.50
   5  10   2   21.00   13.50
   5  10   2   23.20   10.70
  -6 -10  -2   52.59   15.80
   6  10   2   36.40   16.70
   6  10   2   37.40   18.20
   7 -11  -2   35.20   20.60
  -7  11   2   27.60   13.00
   6 -11  -2   30.40   15.70
  -6  11   2   33.40   13.40
   5 -11  -2   29.30   14.30
  -5  11   2   44.80   14.20
   4 -11  -2   26.40   14.20
  -4  11   2   28.50   14.00
   3 -11  -2   19.40   17.30
   2 -11  -2   50.89   17.80
  -2  11   2   43.30   14.90
   1 -11  -2   33.30   18.00
  -1  11   2    2.30   10.80
   0 -11  -2   55.69   16.90
   0  11   2   34.90   18.00
  -1 -11  -2  146.59   26.10
   1  11   2   89.59   21.90
  -2 -11  -2  174.88   31.00
   2  11   2  192.68   31.80
  -3 -11  -2  257.97   38.80
   3  11   2  239.88   24.10
   3  11   2  234.98   37.10
   4  11   2   50.89   20.30
  -5 -11  -2   91.09   24.20
   5  11   2   55.69   18.60
   5  11   2   61.59   20.40
   6 -12  -2   11.30   16.40
  -6  12   2   19.10   15.00
   5 -12  -2    6.90   10.70
  -5  12   2    8.50   11.20
   4 -12  -2  -22.50    8.10
  -4  12   2  -28.70    9.90
   3 -12  -2   66.49   22.90
  -3  12   2   90.89   24.60
   2 -12  -2   -8.70   10.80
  -2  12   2   11.80    8.10
   1 -12  -2   91.79   24.60
  -1  12   2  118.79   25.90
   0 -12  -2   42.20   18.20
   0  12   2   43.80   16.50
  -1 -12  -2   -8.80   10.10
   1  12   2   48.90   18.40
  -2 -12  -2  162.58   33.50
   2  12   2  145.79   29.00
  -3 -12  -2    3.00   14.50
   3  12   2   32.70   17.20
   4 -13  -2   20.50   15.50
  -4  13   2    9.80   12.00
   3 -13  -2   -8.70   11.20
  -3  13   2   49.40   17.10
   2 -13  -2   -1.20   16.50
  -2  13   2   -0.10   13.50
   1 -13  -2    1.40   12.80
  -1  13   2   22.30   12.90
   0 -13  -2   68.29   23.90
   0  13   2   67.49   21.60
  -1 -13  -2   -6.40   17.20
   1  13   2    5.50   12.90
   2  13  -3  186.88   31.50
   2  13  -3  180.38   26.30
  -2 -13   3  216.48   40.40
   1  13  -3   43.00   16.40
   1  13  -3   37.40   17.50
  -1 -13   3   62.09   23.70
   0  13  -3   60.19   18.10
   0 -13   3   72.39   21.70
  -1  13  -3  137.79   26.80
   1 -13   3  106.29   26.90
  -2  13  -3   16.90   12.30
   2 -13   3   16.80   14.00
  -3  13  -3  194.88   31.90
   3 -13   3  193.28   39.50
  -4  13  -3  231.88   36.90
   4 -13   3  233.78   41.80
  -5  13  -3   10.10   12.20
   4  12  -3   52.29   16.30
   4  12  -3   65.59   21.80
  -4 -12   3   78.59   26.90
   3  12  -3  -30.20   12.90
   3  12  -3  -14.30    7.40
  -3 -12   3   25.40   15.40
   2  12  -3   14.80    9.90
  -2 -12   3   16.10   13.00
   1  12  -3   20.20   10.50
   1  12  -3   14.10   13.90
  -1 -12   3   25.90   16.50
   0  12  -3   60.29   17.30
   0  12  -3   45.90   11.00
   0 -12   3   44.00   18.40
  -1  12  -3  130.29   24.60
  -1  12  -3  103.69   16.90
   1 -12   3  114.39   28.30
  -2  12  -3   -1.10    8.40
  -2  12  -3   12.20    8.50
   2 -12   3   -5.00   11.70
  -3  12  -3   62.09   14.40
  -3  12  -3   43.30   11.60
   3 -12   3   46.00   18.50
  -4  12  -3   69.49   19.60
  -4  12  -3   79.59   14.60
   4 -12   3   61.89   20.10
  -5  12  -3   97.29   16.40
  -5  12  -3   91.59   22.30
   5 -12   3   97.49   25.50
  -6  12  -3    0.60    7.70
   6 -12   3   18.50   15.80
   6  11  -3   91.99   22.20
   6  11  -3  124.89   29.20
  -6 -11   3  139.49   33.30
   5  11  -3   92.59   19.50
   5  11  -3   45.80   19.90
  -5 -11   3   87.59   24.40
   4  11  -3   15.30   17.20
   4  11  -3   11.30    7.60
  -4 -11   3  -11.70    9.90
   3  11  -3    0.20    9.60
   3  11  -3   13.50   11.20
  -3 -11   3    0.30   11.80
   2  11  -3    5.50    8.40
   2  11  -3   14.10    9.50
  -2 -11   3   -9.80   11.00
   1  11  -3    1.40    5.90
   1  11  -3    8.50    6.70
  -1 -11   3   18.30   11.60
   0  11  -3   18.10    8.70
   0  11  -3   24.10   11.20
   0 -11   3   22.30   14.70
  -1  11  -3    0.80    5.90
  -1  11  -3    1.50    6.80
   1 -11   3    9.30    8.10
  -2  11  -3  250.67   20.00
  -2  11  -3  323.37   31.70
   2 -11   3  388.56   40.10
  -3  11  -3 1021.50   57.09
  -3  11  -3  992.40   37.70
   3 -11   3 1061.09   66.09
  -4  11  -3   72.49   11.60
  -4  11  -3   64.19   17.00
   4 -11   3   80.09   25.70
   4 -11   3   83.29   12.40
  -5  11  -3  112.89   15.60
  -5  11  -3   98.29   22.30
   5 -11   3  126.39   14.80
   5 -11   3  108.99   26.80
  -6  11  -3   -4.80    6.80
   6 -11   3   10.60    6.70
   6 -11   3   15.30    9.30
  -7  11  -3   17.10   11.20
   7 -11   3   36.40   16.70
   7 -11   3   41.50   10.90
   7  10  -3  -10.30    8.30
   7  10  -3   13.40   11.70
  -7 -10   3    0.10   15.20
   6  10  -3   10.80   13.70
   6  10  -3   18.20    9.30
  -6 -10   3   37.00   17.60
   5  10  -3   90.89   19.00
   5  10  -3  113.99   20.80
  -5 -10   3   41.20   18.90
   4  10  -3  -12.30    7.30
   4  10  -3  -15.10    5.90
  -4 -10   3    8.30   11.10
   3  10  -3   37.40   13.60
   3  10  -3   48.10   12.20
  -3 -10   3   71.99   21.70
   2  10  -3    6.70    6.20
   2  10  -3    2.70    7.60
  -2 -10   3  -20.50    7.20
   1  10  -3  145.19   22.40
   1  10  -3  114.69   18.10
  -1 -10   3   71.89   18.70
   0  10  -3  153.18   16.50
   0  10  -3  190.38   27.80
   0 -10   3  190.58   32.20
  -1  10  -3  701.53   43.30
  -1  10  -3  613.84   29.90
   1 -10   3  737.63   51.19
  -2  10  -3  225.88   17.40
  -2  10  -3  212.18   24.10
   2 -10   3  261.97   30.50
  -3  10  -3  100.19   20.60
  -3  10  -3   98.19   13.50
   3 -10   3   72.39   19.70
   3 -10   3   87.79   12.80
  -4  10  -3    4.20    5.90
  -4  10  -3   -3.00    5.60
   4 -10   3   16.60   12.00
   4 -10   3   16.10    6.20
  -5  10  -3   41.70   13.00
   5 -10   3   54.99   10.90
   5 -10   3   58.79   19.00
  -6  10  -3   17.70   11.60
   6 -10   3   45.10   14.00
   6 -10   3    4.20    6.70
  -7  10  -3   -0.50    5.90
   7 -10   3   -3.50    7.00
   7 -10   3   17.60   12.80
  -8  10  -3   35.90   16.80
   8 -10   3   17.40   17.10
   8 -10   3   34.70   12.50
   8   9  -3   77.39   15.30
   8   9  -3   52.59   20.80
  -8  -9   3   40.30   19.30
   7   9  -3  -14.60   11.00
   7   9  -3   13.70    8.60
  -7  -9   3   25.00   10.40
   6   9  -3  191.58   21.40
   6   9  -3  206.28   32.70
  -6  -9   3  110.49   26.30
   5   9  -3  267.47   29.20
   5   9  -3  248.58   24.10
  -5  -9   3  271.67   32.30
   4   9  -3   39.70   14.00
   4   9  -3   80.79   17.60
  -4  -9   3   33.10   13.70
   3   9  -3   18.10    8.20
   3   9  -3    6.10    7.60
  -3  -9   3   -5.40    5.50
   2   9  -3   18.20    7.40
  -2  -9   3   21.50   10.70
   1   9  -3  186.68   17.40
   1   9  -3  225.18   22.40
  -1  -9   3  171.88   29.30
   0   9  -3   37.30   12.00
   0   9  -3   49.80   10.10
   0  -9   3   43.70   15.70
  -1   9  -3  169.68   15.10
  -1   9  -3  177.88   20.60
   1  -9   3  182.18   28.80
  -2   9  -3   52.79   10.50
  -2   9  -3   59.69   14.10
   2  -9   3   71.49   18.70
   2  -9   3   63.59   11.60
  -3   9  -3  117.79   12.50
  -3   9  -3  113.19   19.70
   3  -9   3   76.09   12.70
   3  -9   3  104.49   21.70
  -4   9  -3  145.99   22.40
   4  -9   3  143.99   25.80
   4  -9   3  135.19   14.20
  -5   9  -3   53.89   14.40
   5  -9   3   59.29   10.20
   5  -9   3   82.39   20.00
  -6   9  -3   -0.10    6.90
   6  -9   3  -17.40    6.70
   6  -9   3   -6.70    6.00
  -7   9  -3   13.70   13.60
   7  -9   3   31.40   11.00
   7  -9   3   28.30   15.20
  -8   9  -3  171.68   28.30
   8  -9   3  299.77   33.20
   8  -9   3  256.67   27.20
  -9   9  -3  -17.20    8.30
   9  -9   3  -17.00    7.50
   9  -9   3   -3.20   13.50
   9   8  -3  249.08   39.60
  -9  -8   3  233.78   38.60
   8   8  -3  189.38   19.80
   8   8  -3  218.68   35.60
  -8  -8   3  143.39   29.60
  -8  -8   3  194.88   21.40
   7   8  -3   -1.00    7.80
   7   8  -3   -2.40    9.20
  -7  -8   3   19.70   12.20
   6   8  -3   20.50    8.10
   6   8  -3   24.00    9.80
  -6  -8   3   22.90   13.60
   5   8  -3  110.19   21.40
   5   8  -3  107.19   17.80
  -5  -8   3  119.89   24.30
   4   8  -3  327.27   25.70
   4   8  -3  360.76   29.10
  -4  -8   3  297.57   32.60
   3   8  -3   23.00    7.70
   3   8  -3    8.40    6.00
  -3  -8   3    5.10    8.20
   2   8  -3  174.48   17.70
   2   8  -3  182.88   18.20
  -2  -8   3  171.98   27.70
   1   8  -3 1041.00   45.90
   1   8  -3 1097.09   42.10
  -1  -8   3  979.10   55.09
   0   8  -3  294.17   19.80
   0   8  -3  288.47   23.50
   0  -8   3  279.07   28.70
  -1   8  -3    0.80    4.10
  -1   8  -3    5.50    6.40
   1  -8   3   -2.40    7.20
  -2   8  -3  411.96   29.00
  -2   8  -3  403.06   21.80
   2  -8   3  469.15   24.00
   2  -8   3  474.45   36.10
  -3   8  -3   38.00   11.10
   3  -8   3   37.40    7.90
   3  -8   3   39.80   13.80
  -4   8  -3  476.65   32.00
   4  -8   3  491.25   37.30
   4  -8   3  442.36   25.50
  -5   8  -3   81.19   15.70
   5  -8   3   68.79   14.00
   5  -8   3   87.49   18.90
  -6   8  -3  101.39   19.60
   6  -8   3  126.79   19.10
   6  -8   3  121.19   21.70
  -7   8  -3   58.19   16.20
   7  -8   3   80.29   17.50
   7  -8   3   85.89   19.40
  -8   8  -3   65.29   15.50
   8  -8   3   46.20   15.20
   8  -8   3   50.69   17.90
  -9   8  -3    2.20    8.50
   9  -8   3   16.30   13.90
   9  -8   3   23.70   10.50
 -10   8  -3  113.39   23.20
  10  -8   3  145.59   26.70
  10  -8   3  118.79   25.10
   9   7  -3   -0.90   14.00
  -9  -7   3   36.10   14.50
   8   7  -3  286.27   21.30
   8   7  -3  289.87   34.50
  -8  -7   3  290.07   22.80
  -8  -7   3  316.07   35.60
   7   7  -3  126.59   14.20
   7   7  -3  143.49   27.80
  -7  -7   3   90.19   21.50
   6   7  -3    8.10    6.70
   6   7  -3    4.80    9.00
  -6  -7   3   -5.70   10.50
   5   7  -3   -6.50    5.20
   5   7  -3   -3.20    6.10
  -5  -7   3    5.50    8.00
   4   7  -3  240.78   23.80
   4   7  -3  258.97   21.20
  -4  -7   3  303.57   31.00
   3   7  -3  897.41   42.70
   3   7  -3  906.61   39.40
  -3  -7   3  857.61   50.99
   2   7  -3   32.20    8.30
   2   7  -3   37.60   10.00
  -2  -7   3   52.19   14.40
   1   7  -3    6.40    4.50
   1   7  -3    8.80    5.30
  -1  -7   3    2.20    5.00
   0   7  -3   15.60    6.20
   0   7  -3    0.80    3.60
   0  -7   3    7.10    6.20
  -1   7  -3   30.80    8.60
  -1   7  -3   29.40    6.60
   1  -7   3   33.10    7.30
   1  -7   3   28.70   10.70
  -2   7  -3  282.47   21.70
  -2   7  -3  272.37   17.60
   2  -7   3  262.77   25.20
   2  -7   3  263.17   17.40
  -3   7  -3   25.70    9.40
   3  -7   3   26.60    9.80
   3  -7   3   25.60    7.00
  -4   7  -3   50.69   11.80
   4  -7   3   53.29   13.80
   4  -7   3   59.59   11.90
  -5   7  -3  237.88   22.20
   5  -7   3  232.58   20.40
   5  -7   3  231.78   24.00
  -6   7  -3   24.40    9.20
   6  -7   3   -0.80    6.20
   6  -7   3   14.00    7.30
  -7   7  -3    1.00    7.80
   7  -7   3    6.20   10.30
   7  -7   3    5.40    8.50
  -8   7  -3   24.20   10.50
   8  -7   3    3.70    9.00
   8  -7   3   21.90   11.30
  -9   7  -3   80.49   30.00
   9  -7   3   92.39   22.20
   9  -7   3  110.29   21.90
 -10   7  -3   22.30   12.60
  10  -7   3   12.90   13.50
  10  -7   3    3.30   10.50
  10   6  -3  207.58   40.20
 -10  -6   3  185.48   38.00
   9   6  -3   66.09   22.50
  -9  -6   3   45.40   17.60
  -9  -6   3   27.00    8.80
   8   6  -3  166.28   31.30
   8   6  -3  204.98   16.80
  -8  -6   3  218.38   32.90
  -8  -6   3  197.48   15.70
   7   6  -3  403.26   37.40
   7   6  -3  353.66   22.10
  -7  -6   3  394.86   37.40
   6   6  -3   11.10    6.90
   6   6  -3   21.20   10.50
  -6  -6   3    9.30    6.90
   5   6  -3   55.69   14.10
   5   6  -3   47.60   10.10
  -5  -6   3   59.49   16.80
   4   6  -3  393.96   29.30
   4   6  -3  353.86   22.50
  -4  -6   3  408.56   34.00
   3   6  -3   67.69   13.60
   3   6  -3   68.89   12.00
  -3  -6   3   66.99   16.70
   2   6  -3  122.29   14.00
   2   6  -3  130.49   13.20
  -2  -6   3  122.79   20.80
   1   6  -3   65.59   11.10
   1   6  -3   56.59    9.90
  -1  -6   3   62.29   13.60
   0   6  -3    5.60    4.20
   0   6  -3    8.30    4.10
   0  -6   3    2.50    4.80
  -1   6  -3   66.99   10.20
  -1   6  -3   42.90    9.40
   1  -6   3   49.30   12.00
   1  -6   3   48.10    9.20
  -2   6  -3    0.70    2.80
   2  -6   3    5.10    4.80
   2  -6   3   -2.40    2.90
  -3   6  -3  492.25   28.70
   3  -6   3  504.05   26.00
   3  -6   3  510.85   31.80
  -4   6  -3 1025.90   43.90
   4  -6   3  985.30   45.90
   4  -6   3  997.00   40.40
  -5   6  -3  351.36   26.00
   5  -6   3  299.17   25.00
   5  -6   3  321.57   24.40
  -6   6  -3   49.50   12.20
   6  -6   3   34.70   10.50
   6  -6   3   48.90   12.80
  -7   6  -3    5.10    6.10
   7  -6   3    1.50    7.00
   7  -6   3    3.70    5.50
  -8   6  -3   26.40   10.30
   8  -6   3   11.80    9.90
   8  -6   3   19.40   10.00
  -9   6  -3  130.09   21.20
   9  -6   3  135.19   22.20
   9  -6   3  132.99   26.00
 -10   6  -3    9.80   11.80
  10  -6   3   24.00   15.00
  10  -6   3   -4.90   12.10
  10   5  -3   46.80   18.10
 -10  -5   3   63.29   17.50
   9   5  -3   24.50   11.00
  -9  -5   3    4.30   12.50
   8   5  -3   23.40   12.70
  -8  -5   3    8.70   10.40
  -8  -5   3   18.80    5.40
   7   5  -3  214.08   14.80
   7   5  -3  248.58   29.00
  -7  -5   3  225.58   27.50
  -7  -5   3  213.88   15.10
  -7  -5   3  198.88   15.40
   6   5  -3   84.39   19.00
   6   5  -3   76.39    8.60
  -6  -5   3   58.59    8.50
  -6  -5   3   91.39   20.00
   5   5  -3  652.13   27.70
   5   5  -3  697.93   41.30
  -5  -5   3  682.33   25.10
  -5  -5   3  756.02   45.20
   4   5  -3  253.67   22.70
   4   5  -3  275.07   17.50
  -4  -5   3  259.77   25.80
  -4  -5   3  280.67   15.60
   3   5  -3 1560.44   53.59
   3   5  -3 1664.33   45.80
  -3  -5   3 1628.14   63.89
  -3  -5   3 1584.94   41.70
   2   5  -3 1515.15   48.30
   2   5  -3 1511.05   43.20
  -2  -5   3 1565.04   43.00
  -2  -5   3 1573.04   59.99
   1   5  -3    1.10    2.80
   1   5  -3    0.40    2.10
  -1  -5   3    0.40    3.30
   0   5  -3  246.18   15.70
   0   5  -3  232.88   15.90
   0   5  -3  230.68   15.70
   0  -5   3  229.68   15.30
   0  -5   3  268.37   22.10
  -1   5  -3  496.85   23.50
  -1   5  -3  465.25   24.20
   1  -5   3  487.85   22.70
   1  -5   3  479.65   29.10
  -2   5  -3  598.84   28.60
   2  -5   3  599.14   31.90
   2  -5   3  600.24   26.30
  -3   5  -3  934.61   38.10
   3  -5   3  963.00   36.80
   3  -5   3  944.61   40.50
  -4   5  -3   25.30    7.80
   4  -5   3   39.30   10.00
   4  -5   3   42.70   10.30
  -5   5  -3  102.79   16.40
   5  -5   3   73.49   15.10
   5  -5   3  109.19   16.80
  -6   5  -3  142.69   17.20
   6  -5   3  136.29   21.30
   6  -5   3  130.69   19.00
  -7   5  -3   18.70    7.10
   7  -5   3   -1.80    7.10
   7  -5   3   -7.30    4.40
  -8   5  -3  295.67   26.40
   8  -5   3  245.38   28.00
   8  -5   3  297.97   25.10
  -9   5  -3  186.38   21.80
   9  -5   3  124.69   25.40
   9  -5   3  155.88   22.20
 -10   5  -3    2.40    7.40
  10  -5   3   31.20   14.20
  10  -5   3  -27.40   10.40
 -11   5  -3   49.80   15.60
  11  -5   3    9.00   15.80
  11   4  -3   -5.40   20.10
 -11  -4   3   60.09   18.70
  10   4  -3   45.30   18.60
 -10  -4   3   58.29   17.70
  -9  -4   3    2.30    5.20
  -9  -4   3    3.80   11.50
   8   4  -3   43.90   14.90
  -8  -4   3   36.20    6.60
  -8  -4   3   21.80   12.00
   7   4  -3  102.69   22.60
  -7  -4   3   89.89    8.80
  -7  -4   3  107.99   21.80
   6   4  -3  280.47   27.10
   6   4  -3  281.87   15.30
  -6  -4   3  278.57   14.70
  -6  -4   3  288.47   27.90
  -6  -4   3  257.17   13.40
   5   4  -3  282.47   15.50
   5   4  -3  285.47   25.40
  -5  -4   3  311.87   28.10
  -5  -4   3  301.57   14.00
   4   4  -3   34.80    6.60
   4   4  -3   33.80    8.10
  -4  -4   3   36.70   10.80
  -4  -4   3   44.50    6.20
   3   4  -3  678.73   32.50
   3   4  -3  689.43   24.30
  -3  -4   3  636.74   36.50
  -3  -4   3  689.33   22.40
   2   4  -3   20.00    6.60
   2   4  -3   19.70    5.20
  -2  -4   3   16.30    4.30
  -2  -4   3   27.70    8.90
   1   4  -3  157.88   12.70
   1   4  -3  165.28   11.70
   1   4  -3  149.49   12.20
  -1  -4   3  168.88   16.60
  -1  -4   3  146.89   11.80
  -1  -4   3  164.78   11.40
   0   4  -3   32.40    6.60
   0   4  -3   32.30    6.50
   0   4  -3   28.10    6.10
   0  -4   3   24.10    6.10
   0  -4   3   30.70    6.30
   0  -4   3   25.00    7.60
  -1   4  -3  117.49   11.00
  -1   4  -3  123.59   13.20
  -1   4  -3  132.19   11.70
   1  -4   3  128.79   13.40
   1  -4   3  119.99   10.70
  -2   4  -3   70.39   11.70
  -2   4  -3   74.99   11.70
  -2   4  -3   80.59   12.40
   2  -4   3   69.49   11.50
   2  -4   3   75.09   11.10
  -3   4  -3  196.28   16.00
  -3   4  -3  171.78   14.80
   3  -4   3  185.38   15.60
   3  -4   3  225.58   17.40
  -4   4  -3  273.87   19.70
  -4   4  -3  283.57   19.10
   4  -4   3  279.67   19.20
   4  -4   3  257.17   20.60
  -5   4  -3  368.16   24.80
   5  -4   3  422.06   29.50
   5  -4   3  415.66   24.50
  -6   4  -3  436.76   28.40
   6  -4   3  518.25   35.30
   6  -4   3  460.45   26.40
  -7   4  -3  510.45   31.70
   7  -4   3  488.15   27.70
   7  -4   3  438.96   35.60
  -8   4  -3   66.89   14.20
   8  -4   3   80.59   18.80
   8  -4   3   46.40   11.20
  -9   4  -3    2.80    6.00
   9  -4   3  -20.50    9.00
   9  -4   3    3.80    6.80
 -10   4  -3   59.59   13.30
  10  -4   3   69.19   21.20
  10  -4   3   48.30   13.70
 -11   4  -3   50.19   16.30
  11  -4   3   47.70   20.40
  11   3  -3   -2.00   14.60
 -11  -3   3   16.40   12.90
  10   3  -3   -0.40    8.50
 -10  -3   3    4.30   10.30
   9   3  -3   28.30   15.50
  -9  -3   3   95.49   21.30
  -9  -3   3   59.99    6.60
   8   3  -3  208.78   31.40
  -8  -3   3  187.28   10.20
  -8  -3   3  157.68   25.40
  -8  -3   3  194.08   10.50
   7   3  -3   98.29   20.30
  -7  -3   3   78.49    6.50
  -7  -3   3   67.19   16.10
  -7  -3   3   71.69    6.60
   6   3  -3   45.30   13.00
  -6  -3   3   53.99   13.70
  -6  -3   3   60.69    5.30
  -6  -3   3   53.69    5.40
   5   3  -3   34.40   10.00
   5   3  -3   45.90    5.10
  -5  -3   3   54.79   13.30
  -5  -3   3   50.19    4.70
  -5  -3   3   64.19    5.80
   4   3  -3   -0.50    3.10
   4   3  -3    4.50    2.10
  -4  -3   3    9.10    5.90
  -4  -3   3    4.80    2.20
   3   3  -3   86.69   12.80
   3   3  -3   85.09    6.90
  -3  -3   3   89.69    6.20
  -3  -3   3  107.59   16.90
   2   3  -3  804.92   34.50
   2   3  -3  782.52   22.30
   2   3  -3  774.92   30.20
  -2  -3   3  818.02   35.50
  -2  -3   3  745.23   35.20
  -2  -3   3  830.02   22.20
   1   3  -3 1206.08   41.70
   1   3  -3 1243.18   52.59
   1   3  -3 1252.67   31.00
   1   3  -3 1203.98   35.60
  -1  -3   3 1201.38   30.40
  -1  -3   3 1209.18   43.30
  -1  -3   3 1191.88   35.00
   0   3  -3 1829.42   44.10
   0   3  -3 1784.72   49.70
   0   3  -3 1786.62   41.80
   0   3  -3 1740.33   44.00
   0  -3   3 1663.73   49.60
   0  -3   3 1751.72   41.50
   0  -3   3 1785.22   44.20
  -1   3  -3  527.25   22.20
  -1   3  -3  520.75   23.90
  -1   3  -3  513.45   23.00
   1  -3   3  553.84   23.00
   1  -3   3  521.65   22.00
   1  -3   3  551.74   25.20
  -2   3  -3  108.69   10.20
  -2   3  -3   95.29   10.80
  -2   3  -3   99.29   10.20
   2  -3   3  115.39   11.10
   2  -3   3  104.19   10.60
  -3   3  -3   10.80    4.40
  -3   3  -3   10.80    4.10
   3  -3   3    7.50    3.60
   3  -3   3    9.30    5.60
  -4   3  -3  376.46   23.30
  -4   3  -3  374.76   22.50
   4  -3   3  358.96   24.90
   4  -3   3  369.36   19.30
  -5   3  -3  738.53   34.30
  -5   3  -3  711.43   27.60
   5  -3   3  760.22   31.00
   5  -3   3  687.73   38.10
   5  -3   3  724.53   28.50
  -6   3  -3   79.29   13.90
   6  -3   3  104.59   11.70
   6  -3   3  102.79   11.30
   6  -3   3   85.99   18.40
  -7   3  -3  185.58   18.70
   7  -3   3  160.88   26.30
   7  -3   3  172.78   15.90
   7  -3   3  176.88   15.00
  -8   3  -3   18.90    9.30
   8  -3   3   34.30   13.10
   8  -3   3   52.99   15.40
   8  -3   3   31.80    8.50
  -9   3  -3   -2.60    6.30
   9  -3   3    7.50    5.70
   9  -3   3    4.30   10.20
 -10   3  -3   14.90    7.70
  10  -3   3   19.60   10.10
  10  -3   3   10.60   11.40
 -11   3  -3  100.79   26.10
  11  -3   3   39.20   19.10
  11   2  -3  -17.60   10.60
  11   2  -3   15.50   10.20
 -11  -2   3    6.50    9.70
 -10  -2   3  -22.00   10.00
   9   2  -3    0.70   10.60
  -9  -2   3    5.40    3.10
  -9  -2   3   27.20   11.10
  -9  -2   3    8.40    3.80
   8   2  -3   11.60    8.10
  -8  -2   3    3.70    2.60
  -8  -2   3    5.80    8.80
  -8  -2   3    2.70    2.40
   7   2  -3  305.57   29.70
  -7  -2   3  257.37    9.80
  -7  -2   3  251.17   25.50
  -7  -2   3  288.37    9.70
   6   2  -3  127.59   21.10
  -6  -2   3  126.29    5.70
  -6  -2   3  119.79    5.50
  -6  -2   3  117.19   20.00
   5   2  -3  193.88   19.50
  -5  -2   3  206.08   20.90
  -5  -2   3  183.68    5.70
  -5  -2   3  187.88    5.60
   4   2  -3   36.50    9.50
   4   2  -3   45.90    2.70
  -4  -2   3   43.70   11.00
  -4  -2   3   39.40    2.40
  -4  -2   3   45.00    2.60
   3   2  -3  427.76   23.50
   3   2  -3  454.05   11.80
  -3  -2   3  447.36   27.10
  -3  -2   3  446.66   10.80
   2   2  -3    4.80    1.80
   2   2  -3    0.60    2.00
   2   2  -3    1.80    2.90
   2   2  -3    4.20    2.60
  -2  -2   3    3.10    3.70
  -2  -2   3    3.50    1.40
  -2  -2   3    1.20    2.10
   1   2  -3 1285.57   28.70
   1   2  -3 1265.27   35.30
   1   2  -3 1340.47   36.00
   1   2  -3 1310.47   40.90
  -1  -2   3 1260.47   41.00
  -1  -2   3 1278.97   28.70
  -1  -2   3 1306.07   36.10
  -1  -2   3 1347.77   35.60
   0   2  -3  316.67   14.20
   0   2  -3  318.07   17.50
   0  -2   3  304.77   17.60
   0  -2   3  330.67   16.20
   0  -2   3  308.77   14.20
  -1   2  -3   58.29    6.80
  -1   2  -3   59.59    9.00
  -1   2  -3   55.69    6.70
   1  -2   3   57.39    6.60
   1  -2   3   50.99    8.30
   1  -2   3   52.69    7.90
  -2   2  -3  760.22   23.90
  -2   2  -3  712.93   27.30
  -2   2  -3  748.33   30.50
   2  -2   3  776.62   28.50
   2  -2   3  779.62   24.80
   2  -2   3  770.02   30.20
  -3   2  -3   48.10    5.50
  -3   2  -3   55.29    9.80
   3  -2   3   49.50    5.90
   3  -2   3   42.20    8.90
  -4   2  -3  628.54   29.40
  -4   2  -3  638.74   21.00
   4  -2   3  666.13   22.10
   4  -2   3  669.83   34.40
   4  -2   3  663.33   21.80
  -5   2  -3  964.70   39.20
   5  -2   3  973.10   29.20
   5  -2   3  917.71   45.20
   5  -2   3 1007.50   28.70
  -6   2  -3   23.00    7.30
   6  -2   3   35.00    7.20
   6  -2   3   22.80   10.80
   6  -2   3   32.80    6.30
  -7   2  -3   39.30   12.10
   7  -2   3   30.20    6.30
   7  -2   3   20.40    6.00
   7  -2   3   11.70    9.70
  -8   2  -3  163.48   18.40
   8  -2   3  121.99   12.20
   8  -2   3  172.88   29.10
  -9   2  -3  -10.20    7.10
   9  -2   3  -12.30    6.10
   9  -2   3   -2.20    5.50
 -10   2  -3   63.09   14.70
  10  -2   3   30.60   17.10
 -11   2  -3  352.16   31.20
  11  -2   3  339.97   49.30
  11   1  -3   -1.30    9.90
  11   1  -3    7.70   11.40
  10   1  -3   10.40   13.10
  10   1  -3   26.60   15.90
 -10  -1   3    9.90   12.60
   9   1  -3  270.97   32.80
  -9  -1   3  263.77   10.70
  -9  -1   3  252.87   28.60
  -9  -1   3  278.77   12.10
   8   1  -3   45.50   14.20
  -8  -1   3   14.80   10.20
  -8  -1   3   33.50    4.50
  -8  -1   3   28.30    4.70
   7   1  -3  367.56   31.70
  -7  -1   3  365.36   10.80
  -7  -1   3  360.06   11.70
  -7  -1   3  380.36   31.60
   6   1  -3   27.20    9.80
  -6  -1   3   25.20    2.30
  -6  -1   3   28.60    2.20
  -6  -1   3    7.30    7.70
  -5  -1   3   -0.10    4.50
   4   1  -3  139.19   14.10
  -4  -1   3  120.69   17.80
   3   1  -3  199.38   15.10
   3   1  -3  191.58   17.20
  -3  -1   3  193.28   16.80
  -3  -1   3  186.98   14.40
   2   1  -3    1.00    2.50
   2   1  -3    1.80    1.10
   2   1  -3    1.40    0.80
   2   1  -3   -1.90    1.00
   2   1  -3   -2.90    2.10
  -2  -1   3   -0.20    1.00
  -2  -1   3   -4.00    1.90
  -2  -1   3    0.20    1.90
   1   1  -3   35.20    3.90
   1   1  -3   34.50    6.10
   1   1  -3   27.60    6.40
   1   1  -3   30.40    4.50
   1   1  -3   34.50    5.90
  -1  -1   3   30.30    5.50
  -1  -1   3   31.50    5.80
  -1  -1   3   32.70    4.50
  -1  -1   3   40.90    7.90
   0   1  -3  109.19    9.20
   0   1  -3  123.29    9.60
   0   1  -3  116.19    8.70
   0   1  -3  122.99    8.30
   0  -1   3  119.69    9.90
   0  -1   3  114.19    9.10
   0  -1   3  108.59    8.10
  -1   1  -3   10.60    2.90
  -1   1  -3    8.80    3.30
  -1   1  -3    8.40    3.80
  -1   1  -3   13.40    5.10
   1  -1   3    2.30    2.40
   1  -1   3    9.30    2.90
   1  -1   3    6.00    2.80
  -2   1  -3 1237.68   36.90
  -2   1  -3 1226.88   40.00
  -2   1  -3 1209.58   37.70
  -2   1  -3 1266.97   26.00
   2  -1   3 1226.48   26.40
   2  -1   3 1116.99   40.00
   2  -1   3 1233.28   36.70
  -3   1  -3 1098.79   37.00
  -3   1  -3 1082.79   20.90
   3  -1   3 1083.39   40.90
   3  -1   3 1102.29   21.60
  -4   1  -3  364.06   22.00
   4  -1   3  370.56   10.50
   4  -1   3  379.16   11.10
   4  -1   3  341.27   24.70
  -5   1  -3    3.70    3.90
   5  -1   3    9.10    2.70
   5  -1   3   10.10    2.40
   5  -1   3   20.30    7.70
  -6   1  -3  888.21   38.80
   6  -1   3  861.61   47.70
   6  -1   3  809.62   22.40
   6  -1   3  831.72   21.80
  -7   1  -3  203.28   19.20
   7  -1   3  233.68   11.80
   7  -1   3  201.38   29.50
   7  -1   3  206.48   11.70
  -8   1  -3  383.36   28.40
   8  -1   3  370.86   15.90
   8  -1   3  384.26   16.70
   8  -1   3  397.06   36.30
  -9   1  -3   -4.90    7.20
   9  -1   3   -1.80    4.30
   9  -1   3    7.20    5.40
   9  -1   3    3.90    9.60
 -10   1  -3   34.30   12.70
  10  -1   3   74.89   20.90
 -11   1  -3  -10.90   11.70
  11  -1   3   26.70   15.10
  11   0  -3  107.39   23.30
  11   0  -3  120.29   26.00
 -11   0   3  133.29   21.70
  10   0  -3   -8.60    9.50
  10   0  -3   -4.50    7.90
 -10   0   3  -16.90    6.90
 -10   0   3   -0.70    4.20
   9   0  -3   30.20   14.30
   9   0  -3   32.10   13.00
  -9   0   3   32.50   13.50
  -9   0   3   36.60    7.00
  -9   0   3   33.50    5.00
   8   0  -3   72.29   17.20
  -8   0   3   82.69   22.00
  -8   0   3   54.69    6.20
  -8   0   3   74.79    7.50
   7   0  -3  156.18   24.40
  -7   0   3  169.88    9.70
  -7   0   3  171.18    8.50
  -7   0   3  167.88   25.00
   6   0  -3  182.28   20.30
  -6   0   3  236.38   23.00
  -6   0   3  227.98    8.50
  -6   0   3  202.38    9.10
   5   0  -3  100.49   16.30
  -5   0   3  103.49   17.00
  -5   0   3   97.69    4.80
  -5   0   3   94.09    4.60
   4   0  -3  123.89    3.90
   4   0  -3  129.79   13.30
  -4   0   3  137.69   15.30
  -4   0   3  112.39    5.40
   3   0  -3  109.69   12.20
   3   0  -3  125.59   11.30
   3   0  -3  108.39    4.00
  -3   0   3  101.09    9.90
  -3   0   3  118.19   13.70
  -3   0   3  116.69    4.60
   2   0  -3  219.88    8.70
   2   0  -3  233.78   13.60
   2   0  -3  226.58   16.80
   2   0  -3  221.28   14.90
  -2   0   3  215.18   13.10
  -2   0   3  212.88   16.30
  -2   0   3  221.68    8.90
   1   0  -3  143.19    9.60
   1   0  -3  136.29   11.40
   1   0  -3  142.19    8.30
   1   0  -3  130.79    8.30
   1   0  -3  154.78    9.70
  -1   0   3  138.09    8.50
  -1   0   3  150.78   12.20
  -1   0   3  127.89    9.10
   0   0  -3    3.90    2.30
   0   0  -3   -0.60    1.90
   0   0  -3    1.40    1.40
   0   0  -3    1.40    2.10
   0   0   3    4.00    2.10
   0   0   3    4.10    2.30
   0   0   3    5.30    2.20
  -1   0  -3  107.89   10.00
  -1   0  -3  112.39    9.50
  -1   0  -3  126.59    7.70
   1   0   3  128.59   10.40
   1   0   3  130.39    8.00
   1   0   3  125.89   10.60
  -2   0  -3  770.42   28.40
  -2   0  -3  808.52   31.50
  -2   0  -3  729.03   13.70
  -2   0  -3  692.83   28.50
  -2   0  -3  744.43   13.40
   2   0   3  727.93   28.30
   2   0   3  756.22   37.80
   2   0   3  755.82   29.20
  -3   0  -3  148.19   13.30
   3   0   3  167.88   15.90
  -4   0  -3   72.69   12.30
   4   0   3   65.39   13.30
  -5   0  -3    1.90    3.70
   5   0   3   -3.00    2.60
  -6   0  -3  777.82   37.30
   6   0   3  903.21   68.59
  -7   0  -3   32.60    9.90
   7   0   3   29.30    3.70
   7   0   3   11.20   11.60
   7   0   3   33.80    3.40
  -8   0  -3   19.30    6.50
   8   0   3   13.10    9.50
   8   0   3   13.40    3.10
   8   0   3   13.50    3.20
  -9   0  -3  431.96   31.20
   9   0   3  354.06   38.60
 -10   0  -3  130.49   21.40
  10   0   3  112.29   24.00
 -11   0  -3   24.20   12.00
  11   0   3   -9.60   12.60
  11  -1  -3   -6.70    9.10
  11  -1  -3    8.00   11.30
 -11   1   3   19.10   11.00
  10  -1  -3   48.20   17.60
  10  -1  -3   99.29   25.20
 -10   1   3   66.89   19.30
   9  -1  -3  -12.30    8.70
   9  -1  -3   -5.50    4.80
  -9   1   3    3.90    6.30
  -9   1   3    2.20    9.30
  -9   1   3    6.60    4.50
   8  -1  -3   -0.50    6.40
   8  -1  -3    5.70    8.40
  -8   1   3    7.80    3.80
  -8   1   3    3.60    7.50
   7  -1  -3   43.10    6.40
   7  -1  -3   26.70   10.40
   7  -1  -3   42.50   12.70
  -7   1   3   28.60   10.70
  -7   1   3   39.60    6.10
  -7   1   3   32.00    5.80
   6  -1  -3  103.79   18.10
   6  -1  -3   97.89   17.50
   6  -1  -3  102.09    7.80
  -6   1   3  101.99    7.40
  -6   1   3   84.89   17.20
   5  -1  -3    7.00    5.10
   5  -1  -3    5.50    2.90
  -5   1   3    1.80    4.80
  -5   1   3    7.10    2.40
   4  -1  -3  147.89   13.90
   4  -1  -3  154.88    7.80
  -4   1   3  152.68    8.30
  -4   1   3  111.79   16.70
   3  -1  -3   86.39    9.00
   3  -1  -3  101.19   16.70
   3  -1  -3   83.09    5.60
  -3   1   3   75.19   12.70
  -3   1   3   82.39    8.50
  -3   1   3   89.59    6.50
   2  -1  -3  974.40   28.10
   2  -1  -3  979.80   36.80
   2  -1  -3 1034.00   25.40
   2  -1  -3 1002.60   27.90
  -2   1   3  987.90   27.20
  -2   1   3 1018.90   37.50
  -2   1   3  994.40   26.10
   1  -1  -3   -4.20    1.60
   1  -1  -3    0.20    1.10
   1  -1  -3    1.80    1.60
   1  -1  -3   -2.10    2.20
   1  -1  -3    4.00    2.20
  -1   1   3    0.00    2.70
  -1   1   3   -0.70    1.00
  -1   1   3   -0.10    1.80
   0  -1  -3  145.09   10.90
   0  -1  -3  133.49    9.40
   0  -1  -3  143.99   10.20
   0  -1  -3  131.39   10.40
   0   1   3  133.99    9.30
   0   1   3  135.59   10.40
   0   1   3  137.19   10.60
  -1  -1  -3   66.69   10.10
  -1  -1  -3   53.69    8.70
  -1  -1  -3   51.69    5.60
  -1  -1  -3   62.39    5.70
   1   1   3   62.59    9.60
   1   1   3   55.59    8.40
  -2  -1  -3   52.69    4.50
  -2  -1  -3   62.29   10.00
  -2  -1  -3   58.49   10.00
  -2  -1  -3   57.29   10.40
  -2  -1  -3   52.29    4.30
   2   1   3   61.89   10.50
   2   1   3   29.70    9.30
  -3  -1  -3   56.59   10.10
   3   1   3   56.69   11.10
   3   1   3   77.79   12.40
  -4  -1  -3  155.38   14.90
   4   1   3  144.59   14.60
   4   1   3  145.49   16.60
  -5  -1  -3   10.20    5.10
   5   1   3   20.80    6.80
   5   1   3    3.30    4.60
  -6  -1  -3  228.48   20.20
   6   1   3  246.98   25.90
  -7  -1  -3 1735.53   73.09
   7   1   3 1581.34   26.90
   7   1   3 1670.13   74.39
   7   1   3 1692.73   27.30
  -8  -1  -3   63.09   12.50
   8   1   3   63.29   17.40
  -9  -1  -3    8.50    6.70
   9   1   3   11.90   11.80
 -10  -1  -3  -11.10    9.20
  10   1   3   21.80   11.40
 -11  -1  -3   11.00   11.10
  11   1   3   19.30   13.80
  11  -2  -3    0.60   11.20
  11  -2  -3   13.50   13.30
  10  -2  -3  263.67   29.50
  10  -2  -3  174.98   31.30
 -10   2   3  218.28   16.70
 -10   2   3  220.58   26.40
   9  -2  -3   -1.30    4.70
   9  -2  -3   -0.20    6.50
  -9   2   3    0.30    4.50
  -9   2   3    0.90    7.60
   8  -2  -3   18.20    8.30
   8  -2  -3   -4.10    6.10
   8  -2  -3   -7.00    3.90
  -8   2   3   -5.50    4.70
  -8   2   3   -3.50    4.80
  -8   2   3   -1.90    3.10
   7  -2  -3   92.29   17.90
   7  -2  -3  123.69   10.40
   7  -2  -3   99.39   18.50
  -7   2   3  126.29   22.00
  -7   2   3  107.39   11.30
   6  -2  -3  611.94   22.70
   6  -2  -3  595.84   36.70
   6  -2  -3  643.44   36.20
  -6   2   3  586.34   37.50
  -6   2   3  614.14   22.60
   5  -2  -3  305.87   24.60
   5  -2  -3  314.47   14.70
   5  -2  -3  288.27   21.40
  -5   2   3  315.57   15.20
  -5   2   3  316.27   25.60
   4  -2  -3   51.89    9.80
   4  -2  -3   50.19    5.70
   4  -2  -3   48.40   11.40
  -4   2   3   51.29   11.40
  -4   2   3   55.79    6.40
  -4   2   3   45.20    7.70
   3  -2  -3  445.76   20.10
   3  -2  -3  441.96   17.10
   3  -2  -3  414.46   25.30
  -3   2   3  449.56   18.50
  -3   2   3  418.26   18.90
  -3   2   3  464.25   27.50
   2  -2  -3 1119.99   28.20
   2  -2  -3 1171.38   42.40
   2  -2  -3 1151.48   31.40
   2  -2  -3 1180.78   29.50
   2  -2  -3 1132.09   40.00
  -2   2   3 1121.89   32.50
  -2   2   3 1159.48   28.10
  -2   2   3 1142.79   41.70
   1  -2  -3   70.89   11.00
   1  -2  -3   56.99    5.10
   1  -2  -3   75.99    6.30
   1  -2  -3   65.79    9.90
  -1   2   3   72.69   10.60
  -1   2   3   55.99    9.80
  -1   2   3   74.69    8.00
  -1   2   3   67.69    5.70
   0  -2  -3  253.27   15.90
   0  -2  -3  282.97   13.70
   0  -2  -3  274.77   16.30
   0  -2  -3  251.07   15.00
   0   2   3  264.67   12.60
   0   2   3  285.37   16.10
   0   2   3  238.68   15.80
  -1  -2  -3  692.93   24.50
  -1  -2  -3  713.73   23.90
  -1  -2  -3  657.13   25.30
  -1  -2  -3  664.03   28.10
   1   2   3  698.53   25.50
   1   2   3  698.23   23.70
   1   2   3  654.73   28.40
  -2  -2  -3   92.29   10.70
  -2  -2  -3   86.79    7.50
   2   2   3  103.79   11.80
   2   2   3  111.99   11.60
   2   2   3   87.49    7.50
  -3  -2  -3  225.58   17.90
  -3  -2  -3  220.88   11.10
   3   2   3  211.38   10.50
   3   2   3  193.78   17.30
   3   2   3  207.58   17.90
  -4  -2  -3  220.38   10.80
  -4  -2  -3  251.87   20.00
   4   2   3  228.08   10.40
   4   2   3  234.18   21.10
   4   2   3  267.77   20.80
  -5  -2  -3   15.60    3.70
  -5  -2  -3   14.40    6.20
   5   2   3   18.70    8.50
   5   2   3   22.30    3.90
   5   2   3    9.40    5.10
  -6  -2  -3  133.29   15.40
  -6  -2  -3  129.29    8.30
   6   2   3  127.29   23.10
   6   2   3  112.59    7.70
   6   2   3  122.29   18.90
  -7  -2  -3  177.98   19.00
  -7  -2  -3  168.18    8.80
   7   2   3  172.58   27.50
   7   2   3  144.89    8.80
   7   2   3  160.48    9.30
  -8  -2  -3  244.08   23.50
   8   2   3  230.38    9.40
   8   2   3  210.48    9.40
   8   2   3  214.78   32.20
  -9  -2  -3   11.20    9.20
   9   2   3  -18.70   10.30
 -10  -2  -3   10.10   11.50
  10   2   3   33.80   13.70
  11  -3  -3   24.60   12.80
  11  -3  -3   11.70   12.00
 -11   3   3   -6.20   10.40
  10  -3  -3   -5.10    9.00
  10  -3  -3   -0.90    9.10
 -10   3   3   -4.50    5.80
   9  -3  -3   41.40   15.40
   9  -3  -3   42.50   13.90
  -9   3   3   62.09    9.70
   8  -3  -3   42.30   13.10
   8  -3  -3   19.80   11.00
  -8   3   3   29.60   13.60
  -8   3   3   24.50    6.70
   7  -3  -3    4.80    5.90
   7  -3  -3  -12.50    9.20
  -7   3   3    1.80    4.50
   6  -3  -3  464.35   29.70
   6  -3  -3  549.65   36.00
   6  -3  -3  423.76   24.60
  -6   3   3  435.56   21.40
  -6   3   3  442.46   33.40
   5  -3  -3  376.96   24.10
   5  -3  -3  368.86   18.20
   5  -3  -3  370.26   28.00
  -5   3   3  399.26   29.60
  -5   3   3  410.26   20.30
   4  -3  -3  294.97   28.00
   4  -3  -3  319.07   16.50
   4  -3  -3  349.17   25.50
  -4   3   3  332.87   18.20
  -4   3   3  333.47   25.60
  -4   3   3  309.57   16.70
   3  -3  -3    5.60    3.70
   3  -3  -3    5.70    3.00
   3  -3  -3    8.20    3.30
  -3   3   3    8.50    4.30
  -3   3   3    9.60    4.90
  -3   3   3    6.90    2.40
   2  -3  -3  847.42   21.80
   2  -3  -3  828.82   22.40
   2  -3  -3  795.82   28.40
   2  -3  -3  856.01   36.40
  -2   3   3  845.42   31.10
   1  -3  -3 4456.85   87.09
   1  -3  -3 4487.35   95.89
   1  -3  -3 4468.05   93.29
   1  -3  -3 4677.43   69.69
   1  -3  -3 4568.94   71.89
  -1   3   3 4486.25   89.79
  -1   3   3 4545.35   69.89
  -1   3   3 4623.84   93.79
   0  -3  -3  132.09   12.90
   0  -3  -3  133.69    9.00
   0  -3  -3  126.89   12.10
   0   3   3  130.39   12.70
   0   3   3  125.89    8.20
   0   3   3  133.29   12.00
  -1  -3  -3  219.38   14.30
  -1  -3  -3  206.58   14.60
   1   3   3  203.18   16.60
   1   3   3  209.28   13.40
   1   3   3  208.38   17.30
  -2  -3  -3  116.99   12.10
  -2  -3  -3  112.89   10.20
   2   3   3  116.99   13.00
   2   3   3  106.09    9.80
   2   3   3  125.89   12.30
  -3  -3  -3    7.20    3.20
   3   3   3    4.20    3.70
   3   3   3    9.50    3.60
   3   3   3    7.10    4.40
  -4  -3  -3   22.90    5.70
   4   3   3   29.60    9.00
   4   3   3   38.00    9.70
   4   3   3   29.70    6.00
  -5  -3  -3  179.38   18.30
  -5  -3  -3  163.28   12.50
   5   3   3  174.28   12.20
   5   3   3  168.18   20.40
   5   3   3  158.48   17.60
  -6  -3  -3  195.88   13.60
  -6  -3  -3  189.68   19.90
   6   3   3  170.78   26.30
   6   3   3  210.28   13.60
   6   3   3  222.78   22.20
  -7  -3  -3   20.50    5.70
  -7  -3  -3   31.00   10.10
   7   3   3   23.40    9.30
   7   3   3   13.80    9.30
   7   3   3   27.80    6.20
  -8  -3  -3   67.29    8.80
  -8  -3  -3   81.19   17.60
   8   3   3   73.89   20.20
   8   3   3   77.79    9.50
   8   3   3   63.49    9.00
  -9  -3  -3   21.10    8.30
   9   3   3   -7.90    4.90
 -10  -3  -3   24.60   14.10
  10   3   3   19.00   17.20
  11  -4  -3   33.40   14.80
  11  -4  -3   42.00   19.40
 -11   4   3    6.40   11.30
  10  -4  -3   31.70    9.00
  10  -4  -3   36.80   12.20
   9  -4  -3  140.99   24.60
   9  -4  -3  135.99   23.70
  -9   4   3  127.39   14.70
   8  -4  -3   75.49   17.80
   8  -4  -3   88.69   18.20
  -8   4   3   69.99   12.60
   7  -4  -3   16.50    9.20
   7  -4  -3   32.20   11.10
  -7   4   3   23.30    6.00
   6  -4  -3  561.24   37.90
   6  -4  -3  507.95   30.50
  -6   4   3  550.24   26.70
   5  -4  -3  597.24   29.20
   5  -4  -3  572.94   36.70
  -5   4   3  606.74   27.90
   4  -4  -3  880.91   43.80
   4  -4  -3  876.21   31.20
  -4   4   3  866.01   28.40
  -4   4   3  916.91   34.80
   3  -4  -3   44.80   11.20
   3  -4  -3   37.10    6.30
   3  -4  -3   39.90    5.80
  -3   4   3   42.70    4.70
  -3   4   3   39.40    8.70
   2  -4  -3   52.09    4.30
   2  -4  -3   45.30   10.70
   2  -4  -3   49.10    4.20
  -2   4   3   52.19   10.10
   1  -4  -3 1279.07   26.40
   1  -4  -3 1242.78   46.10
   1  -4  -3 1328.97   24.30
  -1   4   3 1259.17   24.30
  -1   4   3 1258.67   44.00
   0  -4  -3  108.29   12.50
   0  -4  -3  113.39    8.50
   0   4   3  121.59    7.70
   0   4   3  129.19   13.80
  -1  -4  -3    2.90    3.20
  -1  -4  -3    5.40    4.00
   1   4   3   10.80    3.50
   1   4   3    7.50    5.20
   1   4   3    6.00    4.30
  -2  -4  -3   13.20    5.50
  -2  -4  -3   12.10    4.90
   2   4   3   17.70    5.90
   2   4   3   15.90    5.50
   2   4   3    5.40    4.60
  -3  -4  -3  542.65   31.20
   3   4   3  543.15   30.20
   3   4   3  528.45   24.90
   3   4   3  530.15   31.90
   4   4   3  262.77   23.20
   4   4   3  246.58   16.60
   4   4   3  246.98   22.50
  -5  -4  -3  108.89   18.20
   5   4   3   98.59   17.70
   5   4   3  144.59   22.80
   5   4   3  102.99   11.00
  -6  -4  -3   37.70   11.70
   6   4   3   50.69   12.60
   6   4   3   37.00    8.50
   6   4   3   43.00   13.30
  -7  -4  -3  208.18   21.90
   7   4   3  192.58   31.10
   7   4   3  176.98   16.60
   7   4   3  176.88   21.30
  -8  -4  -3  147.69   14.00
  -8  -4  -3  198.48   23.00
   8   4   3  120.09   25.10
   8   4   3  178.68   21.70
  -9  -4  -3   14.40   12.10
   9   4   3    1.10   13.50
 -10  -4  -3    2.90   11.70
  10   4   3  -15.10   14.70
  11  -5  -3  -18.50   10.80
  11  -5  -3    9.60   13.10
 -11   5   3  -18.00    8.50
  10  -5  -3    9.90   12.60
  10  -5  -3   11.60   11.40
   9  -5  -3   98.59   20.90
   9  -5  -3  150.38   26.00
  -9   5   3  104.59   17.00
   8  -5  -3   75.89   16.50
   8  -5  -3   23.80   12.40
  -8   5   3   45.50   11.20
   7  -5  -3  206.58   20.40
   7  -5  -3  172.28   26.40
  -7   5   3  164.98   16.70
   6  -5  -3  663.93   33.30
   6  -5  -3  669.83   43.30
  -6   5   3  692.13   33.20
   5  -5  -3  664.63   29.50
   5  -5  -3  725.33   43.00
  -5   5   3  660.63   25.70
  -5   5   3  676.93   32.80
   4  -5  -3  596.04   37.30
   4  -5  -3  548.25   22.30
  -4   5   3  516.45   28.30
  -4   5   3  547.85   19.50
   3  -5  -3  804.22   21.40
   3  -5  -3  851.01   19.80
   3  -5  -3  831.02   43.40
  -3   5   3  872.61   37.20
   2  -5  -3  226.28   21.40
  -2   5   3  218.98   18.70
   1  -5  -3  155.98   16.80
  -1   5   3  163.08   16.20
   0  -5  -3 1167.98   46.50
   0  -5  -3 1199.28   28.60
   0   5   3 1078.69   44.90
   0   5   3 1161.08   26.50
  -1  -5  -3    0.10    3.10
  -1  -5  -3    1.70    2.70
   1   5   3    0.60    2.80
  -2  -5  -3    6.40    4.90
  -2  -5  -3   25.50    7.10
   2   5   3   12.30    6.40
   2   5   3   10.90    5.00
  -3  -5  -3   57.89   10.20
   3   5   3   56.79   11.70
   3   5   3   71.49   14.70
  -4  -5  -3  190.38   17.70
   4   5   3  177.98   20.00
   4   5   3  217.58   21.10
  -5  -5  -3   25.90    6.70
   5   5   3   10.60    8.30
   5   5   3    5.90    6.60
  -6  -5  -3    4.90    6.80
  -6  -5  -3   36.00    6.90
   6   5   3   20.00   10.20
   6   5   3   19.10    9.90
  -7  -5  -3  308.17   21.70
  -7  -5  -3  321.27   28.70
   7   5   3  298.27   30.80
   7   5   3  285.87   27.90
  -8  -5  -3   79.69   18.60
  -8  -5  -3   87.39   13.20
   8   5   3  106.89   19.70
   8   5   3  104.99   24.30
  -9  -5  -3   28.10   14.30
   9   5   3   33.60   14.30
  11  -6  -3   10.80   17.20
  11  -6  -3  -14.30   14.10
 -11   6   3   -6.00   13.00
  10  -6  -3   16.60   15.60
  10  -6  -3   15.60   12.80
 -10   6   3   -6.00    8.90
   9  -6  -3   45.40   15.70
   9  -6  -3   79.69   19.70
  -9   6   3   63.29   13.40
   8  -6  -3  414.66   39.50
   8  -6  -3  472.95   33.40
  -8   6   3  491.65   31.70
   7  -6  -3   46.40   12.00
   7  -6  -3   32.10   15.00
  -7   6   3   46.30   11.90
   6  -6  -3   12.20    8.60
   6  -6  -3   17.40    5.70
  -6   6   3   18.10    7.20
   5  -6  -3 1945.81   50.99
   5  -6  -3 2073.59   80.19
  -5   6   3 1965.90   45.60
  -5   6   3 2037.30   64.99
   4  -6  -3   34.90    5.70
   4  -6  -3   37.20    5.40
  -4   6   3   37.60    4.50
  -4   6   3   46.30   11.50
   3  -6  -3  373.76   30.10
  -3   6   3  329.27   24.70
   2  -6  -3  103.29   18.20
  -2   6   3  133.29   15.60
   1  -6  -3    4.30    4.40
  -1   6   3    0.40    4.50
   0  -6  -3  573.44   35.00
   0  -6  -3  585.04   16.50
   0   6   3  588.54   16.20
   0   6   3  576.44   34.30
  -1  -6  -3   11.10    4.60
  -1  -6  -3    5.50    4.70
   1   6   3    5.20    3.60
   1   6   3    7.70    5.10
  -2  -6  -3   -3.30    4.00
   2   6   3    6.60    6.90
   2   6   3   -2.70    4.70
  -3  -6  -3   -1.40    3.20
   3   6   3   -4.80    3.10
   3   6   3    1.90    4.90
  -4  -6  -3  113.29   18.10
   4   6   3  136.19   22.80
   4   6   3   98.99   17.40
  -5  -6  -3   60.39   12.50
   5   6   3   85.79   17.60
   5   6   3   81.09   18.00
  -6  -6  -3   52.99   13.30
   6   6   3   91.29   16.70
   6   6   3   73.69   17.00
  -7  -6  -3  279.87   23.70
  -7  -6  -3  227.68   26.30
   7   6   3  267.77   37.20
   7   6   3  282.17   29.20
  -8  -6  -3  429.16   35.50
   8   6   3  441.66   36.00
   8   6   3  381.56   41.20
  -9  -6  -3  101.79   21.50
   9   6   3  144.89   31.70
   9   6   3  121.89   23.10
  10  -7  -3  -17.30   12.90
 -10   7   3   14.00   12.10
   9  -7  -3   62.39   16.10
   9  -7  -3   79.59   25.10
  -9   7   3   74.99   16.90
   8  -7  -3  377.76   38.60
   8  -7  -3  371.96   27.50
  -8   7   3  347.07   28.80
   7  -7  -3  238.68   20.40
   7  -7  -3  237.88   35.50
  -7   7   3  254.27   24.30
   6  -7  -3    2.90    6.30
   6  -7  -3    9.60    5.20
  -6   7   3   -0.30    4.80
  -6   7   3    2.00    4.70
   5  -7  -3  588.24   21.00
   5  -7  -3  556.84   19.00
   5  -7  -3  573.94   42.40
  -5   7   3  626.24   37.10
  -5   7   3  555.94   18.60
   4  -7  -3  394.26   34.00
  -4   7   3  339.77   34.70
   3  -7  -3  106.59   21.00
  -3   7   3  107.69   21.30
  -2   7   3  364.86   29.50
   1  -7  -3  128.09   21.50
  -1   7   3  166.38   34.10
   0  -7  -3    5.40    5.40
   0  -7  -3    2.00    1.40
   0   7   3   -5.00    4.30
   0   7   3    0.40    1.20
  -1  -7  -3  485.65   19.80
  -1  -7  -3  510.55   35.00
   1   7   3  503.85   35.40
   1   7   3  521.95   21.50
  -2  -7  -3  217.98   22.20
   2   7   3  225.98   17.10
   2   7   3  216.48   23.40
  -3  -7  -3   99.79   18.10
   3   7   3   75.19   17.90
   3   7   3   73.99   14.20
  -4  -7  -3   72.99   16.40
   4   7   3   76.39   18.80
   4   7   3   85.99   16.40
  -5  -7  -3  195.98   21.40
   5   7   3  232.28   24.60
   5   7   3  205.98   24.90
  -6  -7  -3   -0.90    9.00
   6   7   3   15.80   11.20
   6   7   3   15.50   11.80
  -7  -7  -3   73.89   20.00
  -7  -7  -3   76.99   16.50
   7   7   3   83.49   21.80
   7   7   3   63.79   16.30
  -8  -7  -3  248.28   37.90
  -8  -7  -3  287.97   32.20
   8   7   3  229.28   37.10
   8   7   3  294.07   32.60
  10  -8  -3  142.29   27.60
  10  -8  -3  134.89   20.80
 -10   8   3   90.89   20.10
   9  -8  -3   15.20   13.30
  -9   8   3    8.50    9.30
   8  -8  -3   92.39   37.10
   8  -8  -3   68.39   15.00
  -8   8   3   73.19   18.10
   7  -8  -3  239.98   36.80
   7  -8  -3  263.87   19.00
  -7   8   3  264.97   26.00
   6  -8  -3  148.69   11.10
   6  -8  -3  168.98   30.20
  -6   8   3  155.28   23.80
  -6   8   3  121.59   10.60
   5  -8  -3    8.80    8.50
  -5   8   3   17.70    9.20
   4  -8  -3 1352.26   68.39
  -4   8   3 1316.57   58.39
   3  -8  -3   72.29   17.50
  -3   8   3   96.69   17.70
   2  -8  -3   77.29   18.10
  -2   8   3   61.59   14.70
   1  -8  -3  579.94   40.80
  -1   8   3  514.45   36.50
   0  -8  -3  316.77   30.30
   0   8   3  346.07   30.50
  -1  -8  -3   32.70    5.50
  -1  -8  -3   37.90   12.10
   1   8   3   33.50    7.00
   1   8   3   53.59   13.00
   2   8   3   -6.40    5.30
   2   8   3    5.50    6.20
  -3  -8  -3   34.50   12.30
   3   8   3   59.39   15.80
   3   8   3   50.69   11.30
  -4  -8  -3   10.90    7.60
   4   8   3   17.30   10.60
   4   8   3   -4.00    6.60
  -5  -8  -3  210.28   24.70
   5   8   3  245.28   29.70
   5   8   3  308.37   28.00
  -6  -8  -3   57.09   15.50
   6   8   3   42.70   12.80
   6   8   3   91.89   19.30
  -7  -8  -3    2.30   11.80
  -7  -8  -3   -5.80   10.70
   7   8   3   15.10   13.80
   7   8   3   -9.20   11.90
   9  -9  -3   54.39   21.20
  -9   9   3   58.59   26.80
   8  -9  -3   24.00   14.50
  -8   9   3    1.20   10.50
   7  -9  -3   86.99   22.20
   7  -9  -3  127.59    9.50
  -7   9   3  103.49   20.60
   6  -9  -3   84.29   22.60
  -6   9   3  109.99   20.60
   5  -9  -3   12.30   11.60
  -5   9   3  -14.00    6.50
   4  -9  -3  627.14   49.00
  -4   9   3  671.43   44.30
   3  -9  -3  223.28   24.40
  -3   9   3  133.79   23.90
   2  -9  -3  149.49   26.60
  -2   9   3  142.19   24.80
   1  -9  -3   35.30   14.40
  -1   9   3   28.10   10.90
   0  -9  -3   14.90   11.40
   0   9   3    9.40    7.50
  -1  -9  -3    2.00    2.80
  -1  -9  -3   16.80   12.30
   1   9   3    6.90    3.60
   1   9   3    9.40    7.90
   1   9   3   -3.00    3.30
  -2  -9  -3   71.89   17.90
   2   9   3   34.80   13.10
   2   9   3   48.70    9.30
  -3  -9  -3   54.99   14.60
   3   9   3   52.29   15.60
   3   9   3   67.99   13.70
  -4  -9  -3  113.39   21.90
   4   9   3  159.58   29.30
   4   9   3  139.59   21.50
  -5  -9  -3  209.88   25.00
   5   9   3  199.38   56.19
   5   9   3  204.98   23.80
  -6  -9  -3   75.69   17.10
   6   9   3   29.50   15.10
   6   9   3   46.80   16.30
  -7  -9  -3   12.20   13.80
   7   9   3   10.10   13.40
   7   9   3  -24.10    9.30
   8 -10  -3  -16.00   12.70
  -8  10   3    7.50    8.50
   7 -10  -3   72.89   21.40
  -7  10   3   60.09   18.20
   6 -10  -3  155.68   32.00
  -6  10   3  187.88   31.00
   5 -10  -3  172.98   41.80
  -5  10   3  175.38   28.60
   4 -10  -3   56.89   18.80
  -4  10   3   49.60   15.60
   3 -10  -3  466.65   42.70
  -3  10   3  422.16   37.50
   2 -10  -3  227.18   37.00
  -2  10   3  180.58   28.60
   1 -10  -3  -10.30    8.00
  -1  10   3   -0.90    8.40
   0 -10  -3    2.20    6.30
   0  10   3   10.30    8.70
  -1 -10  -3   17.90   11.50
  -2 -10  -3  -10.70    9.20
   2  10   3    6.60    6.70
  -3 -10  -3    1.70    9.20
   3  10   3    6.80    9.30
   3  10   3   -7.50   12.30
  -4 -10  -3  103.49   24.90
   4  10   3  129.59   26.50
   4  10   3  114.49   19.60
  -5 -10  -3   64.39   18.30
   5  10   3   47.90   17.80
   5  10   3   43.80   14.30
  -6 -10  -3  269.07   38.40
   6  10   3  271.57   33.00
   6  10   3  225.28   34.50
   7 -11  -3  104.89   28.70
  -7  11   3   59.59   16.90
   6 -11  -3   -7.90   12.90
  -6  11   3   15.40   11.70
   5 -11  -3  116.69   25.80
  -5  11   3   97.69   22.50
   4 -11  -3  194.38   35.10
  -4  11   3  178.88   28.60
   3 -11  -3  127.69   29.00
  -3  11   3  115.89   24.40
   2 -11  -3   -9.40    4.80
  -2  11   3   -2.40   10.60
   1 -11  -3   28.60   13.00
  -1  11   3   23.60   11.30
   0 -11  -3   28.50   12.90
   0  11   3   20.90    9.60
  -1 -11  -3   -3.40    9.50
   1  11   3  -14.50    7.50
  -2 -11  -3  -12.60    8.40
   2  11   3   18.50   14.00
  -3 -11  -3  -22.60   10.00
   3  11   3  -18.10   12.40
  -4 -11  -3   58.99   30.80
   4  11   3   50.29   16.00
   4  11   3   15.60   17.10
   6 -12  -3   44.60   19.00
  -6  12   3   75.09   22.90
   5 -12  -3  -27.70   12.30
  -5  12   3   -6.50    9.30
   4 -12  -3   26.40   18.70
  -4  12   3   18.70   11.40
   3 -12  -3   47.90   20.90
  -3  12   3   34.20   14.80
  -2  12   3   28.90   13.00
   1 -12  -3    9.20   14.10
  -1  12   3    7.20   12.10
   0 -12  -3   -9.20   13.60
   0  12   3  -18.70    9.80
  -1 -12  -3   22.00   11.70
   1  12   3   18.80   12.80
  -2 -12  -3   36.40   16.00
   2  12   3   28.00   14.00
  -3 -12  -3  -16.90   12.30
   3  12   3  -26.80   13.30
   2 -13  -3   -7.90   14.70
  -2  13   3   -8.10   11.90
   1 -13  -3   20.80   19.20
  -1  13   3   12.20   11.40
   2  13  -4  113.69   23.30
   2  13  -4  124.49   26.20
  -2 -13   4  115.09   29.70
   1  13  -4  124.29   24.10
   1  13  -4  161.28   29.80
  -1 -13   4  175.58   37.20
   0  13  -4   -0.40   16.60
   0  13  -4   37.30   15.80
   0 -13   4   13.50   14.60
  -1  13  -4   59.59   16.90
  -1  13  -4   38.00   16.40
   1 -13   4   87.29   29.30
  -2  13  -4   56.89   27.30
  -2  13  -4   71.29   21.00
   2 -13   4   65.49   22.30
  -3  13  -4    4.50   11.50
   3 -13   4   -9.70   16.30
  -4  13  -4  675.63   52.09
   4 -13   4  738.23   64.29
   4  12  -4    3.50   16.60
  -4 -12   4  -24.70   12.00
   3  12  -4  118.19   24.60
   3  12  -4   40.80   16.30
  -3 -12   4   38.10   16.90
   2  12  -4   21.00   18.80
   2  12  -4   36.30   14.10
  -2 -12   4   53.19   20.50
   1  12  -4  174.78   20.90
  -1 -12   4  125.69   30.20
   0  12  -4   -4.50    9.40
   0  12  -4   12.70   10.60
   0 -12   4   32.90   16.40
  -1  12  -4   17.30   11.10
  -1  12  -4    1.90    7.10
   1 -12   4   11.30   12.20
  -2  12  -4  190.08   19.50
  -2  12  -4  188.88   31.10
   2 -12   4  127.09   28.40
  -3  12  -4   89.39   21.60
  -3  12  -4   61.89   13.80
   3 -12   4   83.99   23.90
  -4  12  -4   -8.20    8.70
  -4  12  -4   50.99   16.20
   4 -12   4    4.00   13.50
  -5  12  -4   29.00   17.60
   5 -12   4  -23.10    9.60
  -6  12  -4    2.00   12.20
  -6  12  -4   -9.80    9.90
   6 -12   4   20.50   13.80
   6 -12   4   15.20   10.90
   6  11  -4    4.60   11.70
  -6 -11   4    0.00   15.70
   5  11  -4  101.69   21.70
   5  11  -4  132.29   27.00
  -5 -11   4  152.58   34.70
   4  11  -4  781.12   47.70
   4  11  -4  728.53   50.49
  -4 -11   4  707.13   59.29
   3  11  -4  119.19   20.50
   3  11  -4   56.89   18.70
  -3 -11   4   96.59   25.20
   2  11  -4   79.99   16.20
   2  11  -4   93.79   18.70
  -2 -11   4   65.69   21.20
   1  11  -4  308.67   29.40
   1  11  -4  405.76   45.10
  -1 -11   4  306.67   44.70
   0  11  -4  223.98   21.90
   0  11  -4  262.47   26.30
   0 -11   4  245.78   40.80
  -1  11  -4  185.38   18.90
  -1  11  -4  198.58   23.90
   1 -11   4  210.08   35.30
  -2  11  -4   26.60   11.00
  -2  11  -4   10.50    6.00
   2 -11   4    8.80   12.20
  -3  11  -4   20.40   15.50
  -3  11  -4  -11.30    6.50
   3 -11   4  -14.00   10.30
  -4  11  -4   47.90   11.40
  -4  11  -4   78.59   19.70
   4 -11   4   40.60   16.30
   4 -11   4   70.69   13.60
  -5  11  -4   39.00   11.90
   5 -11   4   18.70   14.70
   5 -11   4   35.70   19.20
  -6  11  -4   18.80   12.60
   6 -11   4   10.90    7.80
   6 -11   4    9.40   12.50
  -7  11  -4    3.00    9.90
   7 -11   4    7.40    8.40
   7 -11   4   -0.20   14.70
   7  10  -4   40.60   11.60
   7  10  -4   12.70   16.00
  -7 -10   4  -17.60   12.20
   6  10  -4   58.09   14.70
   6  10  -4   74.39   28.80
  -6 -10   4   50.09   16.50
   5  10  -4  178.38   27.30
   5  10  -4  187.18   22.40
  -5 -10   4  202.88   37.10
   4  10  -4  190.68   23.10
   4  10  -4  212.08   24.90
  -4 -10   4  154.08   32.50
   3  10  -4  419.16   33.60
   3  10  -4  372.26   31.10
  -3 -10   4  460.15   45.10
   2  10  -4  168.98   23.80
   2  10  -4  154.38   22.50
  -2 -10   4  164.78   30.90
   1  10  -4   66.09   15.90
   1  10  -4   79.59   15.60
  -1 -10   4  129.89   26.80
   0  10  -4   -1.10    4.90
   0  10  -4    5.10    6.90
   0 -10   4  -13.70    6.80
  -1  10  -4  395.76   32.00
  -1  10  -4  380.56   25.30
   1 -10   4  439.36   40.90
  -2  10  -4  257.77   26.90
  -2  10  -4  214.48   18.60
   2 -10   4  185.08   31.70
  -3  10  -4    5.60    5.10
  -3  10  -4    0.00    4.60
   3 -10   4    3.40    5.20
   3 -10   4   -8.50    6.70
  -4  10  -4   14.10    9.60
  -4  10  -4    4.50    6.50
   4 -10   4    9.80    6.40
   4 -10   4    0.20    8.40
  -5  10  -4   26.40   10.80
   5 -10   4   37.30   15.60
   5 -10   4   30.80   12.70
  -6  10  -4   -0.90    8.60
   6 -10   4  -17.90    6.80
   6 -10   4   -0.10    9.90
  -7  10  -4  167.98   28.40
   7 -10   4  165.68   19.60
   7 -10   4  163.48   30.50
  -8  10  -4  159.68   27.50
   8 -10   4  211.68   24.50
   8 -10   4  154.18   29.60
   8   9  -4   27.30   17.20
  -8  -9   4   45.10   14.30
   7   9  -4   63.89   16.80
   7   9  -4   67.09   20.20
  -7  -9   4   51.99   19.60
   6   9  -4   72.19   17.60
   6   9  -4   14.60   10.00
  -6  -9   4   14.70   15.10
   5   9  -4  282.17   29.90
   5   9  -4  341.97   27.40
  -5  -9   4  371.56   39.50
   4   9  -4    8.30    8.30
   4   9  -4   25.10    9.30
  -4  -9   4    7.10    8.70
   3   9  -4  468.75   34.00
   3   9  -4  484.15   32.00
  -3  -9   4  473.65   43.10
   2   9  -4   22.80    9.00
   2   9  -4   31.60   10.40
  -2  -9   4   29.20   10.50
   1   9  -4   98.89   18.50
   1   9  -4  103.19   16.30
  -1  -9   4   98.59   21.60
   0   9  -4  832.12   43.70
   0   9  -4  783.62   36.50
   0  -9   4  746.03   50.99
  -1   9  -4  722.23   33.80
  -1   9  -4  704.23   40.40
   1  -9   4  798.12   51.49
  -2   9  -4  289.57   20.90
  -2   9  -4  284.07   26.10
   2  -9   4  270.77   29.60
   2  -9   4  275.17   20.40
  -3   9  -4   21.80    7.80
  -3   9  -4   30.60   10.30
   3  -9   4   56.79   17.20
   3  -9   4   18.50    7.10
  -4   9  -4   40.50   13.40
   4  -9   4   34.00   13.10
   4  -9   4   23.00    7.70
  -5   9  -4  -10.10    6.10
   5  -9   4    5.10    5.50
   5  -9   4    5.00    9.40
  -6   9  -4    2.40    6.80
   6  -9   4   -5.20    5.60
   6  -9   4    5.20    8.70
  -7   9  -4   32.70   12.70
   7  -9   4   36.70   14.20
   7  -9   4   78.69   19.60
  -8   9  -4   74.29   19.10
   8  -9   4   83.39   18.60
   8  -9   4   97.69   21.90
  -9   9  -4  123.69   25.10
   9  -9   4  121.99   26.00
   8   8  -4  479.35   31.90
   8   8  -4  469.75   45.80
  -8  -8   4  468.85   29.50
  -8  -8   4  483.75   46.70
   7   8  -4   92.59   15.00
   7   8  -4   91.59   24.40
  -7  -8   4  134.59   28.40
   6   8  -4   27.90    9.00
   6   8  -4   27.80   13.60
  -6  -8   4   73.69   16.10
   5   8  -4  424.76   27.90
   5   8  -4  469.35   37.70
  -5  -8   4  422.46   40.70
   4   8  -4  206.78   23.20
   4   8  -4  221.08   20.70
  -4  -8   4  210.68   33.90
   3   8  -4  661.53   35.40
   3   8  -4  730.03   47.70
  -3  -8   4  679.03   49.60
   2   8  -4  607.74   34.10
   2   8  -4  565.54   33.30
  -2  -8   4  537.75   42.50
   1   8  -4  489.85   30.20
   1   8  -4  534.65   30.30
  -1  -8   4  496.55   39.60
   0   8  -4  325.17   26.20
   0   8  -4  373.46   23.80
   0  -8   4  373.96   33.60
  -1   8  -4  224.68   18.40
  -1   8  -4  222.08   20.90
   1  -8   4  222.38   25.70
   1  -8   4  226.68   18.80
  -2   8  -4   50.49   10.40
  -2   8  -4   66.99   14.40
   2  -8   4   62.59   16.50
   2  -8   4   59.89   11.40
  -3   8  -4  161.48   18.40
   3  -8   4  156.28   25.40
   3  -8   4  159.78   15.90
  -4   8  -4   -0.30    6.00
   4  -8   4   12.00    5.30
   4  -8   4   -0.70    5.10
  -5   8  -4  437.76   32.00
   5  -8   4  458.55   35.70
   5  -8   4  400.36   28.10
  -6   8  -4  198.08   23.10
   6  -8   4  180.18   21.00
   6  -8   4  176.68   27.20
  -7   8  -4    8.30    6.30
   7  -8   4    5.60    9.40
   7  -8   4   -1.80    7.20
  -8   8  -4  231.58   26.40
   8  -8   4  182.38   28.70
   8  -8   4  160.88   24.60
  -9   8  -4   90.29   20.40
   9  -8   4   78.39   20.10
   9  -8   4   74.99   21.60
   9   7  -4   22.60   15.10
  -9  -7   4  -11.20   13.60
   8   7  -4   18.50   12.70
   8   7  -4   -9.50    5.50
  -8  -7   4    0.40    6.80
  -8  -7   4   -3.70   13.00
   7   7  -4  224.68   18.50
   7   7  -4  203.78   33.40
  -7  -7   4  209.08   34.60
   6   7  -4   53.49   14.40
   6   7  -4   37.00   10.00
  -6  -7   4   80.59   19.70
   5   7  -4   11.10    7.60
   5   7  -4   12.50    7.30
  -5  -7   4   18.50   12.30
   4   7  -4  307.87   27.30
   4   7  -4  276.07   21.10
  -4  -7   4  369.86   35.00
   3   7  -4  467.05   31.00
   3   7  -4  395.66   24.90
  -3  -7   4  491.95   39.50
   2   7  -4 1046.00   44.10
   2   7  -4  983.80   40.00
  -2  -7   4  967.00   54.19
   1   7  -4  600.24   31.40
   1   7  -4  614.04   31.30
  -1  -7   4  649.14   42.50
   0   7  -4    4.80    4.00
   0   7  -4    0.50    3.60
   0  -7   4   -5.80    3.60
  -1   7  -4  277.47   18.90
  -1   7  -4  276.17   21.50
   1  -7   4  270.77   26.50
   1  -7   4  240.08   18.20
  -2   7  -4    1.90    4.90
   2  -7   4    8.10    4.20
   2  -7   4   -4.30    4.20
  -3   7  -4    7.90    6.10
   3  -7   4   12.10    9.20
   3  -7   4   19.20    6.60
  -4   7  -4   80.19   15.30
   4  -7   4   90.99   15.60
   4  -7   4   77.79   16.30
  -5   7  -4  263.97   24.10
   5  -7   4  320.17   25.70
   5  -7   4  265.47   26.30
  -6   7  -4   29.90   10.60
   6  -7   4   28.80   11.20
   6  -7   4   38.60   12.30
  -7   7  -4    9.80    4.80
   7  -7   4    0.30    7.00
   7  -7   4  -11.20    5.40
  -8   7  -4  134.19   23.30
   8  -7   4  131.29   23.40
   8  -7   4   91.89   19.80
  -9   7  -4  137.99   24.10
   9  -7   4  109.99   19.00
   9  -7   4  145.39   27.80
 -10   7  -4  270.37   29.70
  10  -7   4  285.97   33.10
  10  -7   4  296.77   33.50
  10   6  -4   13.90   15.10
 -10  -6   4   21.80   12.70
   9   6  -4  -21.40   12.10
  -9  -6   4   31.70   13.50
   8   6  -4   26.00   12.10
  -8  -6   4   29.60   10.60
   7   6  -4  168.08   28.90
   7   6  -4  175.58   14.20
  -7  -6   4  165.78   12.70
  -7  -6   4  169.88   30.30
   6   6  -4    2.80    4.90
   6   6  -4   -0.10    4.30
  -6  -6   4   -4.50    6.50
   5   6  -4  242.48   17.70
   5   6  -4  230.98   25.00
  -5  -6   4  243.08   28.50
   4   6  -4 2095.69   72.69
   4   6  -4 2097.99   57.19
  -4  -6   4 2181.58   84.39
   3   6  -4 1657.03   49.70
   3   6  -4 1673.23   59.49
  -3  -6   4 1801.12   73.39
   2   6  -4 1060.69   38.20
   2   6  -4  982.00   41.40
  -2  -6   4 1099.39   54.89
   1   6  -4  307.47   20.80
   1   6  -4  292.67   19.60
  -1  -6   4  266.67   25.00
   0   6  -4  283.07   19.60
   0   6  -4  262.17   18.70
   0  -6   4  270.27   25.20
   0  -6   4  268.37   18.90
  -1   6  -4   65.79   10.90
  -1   6  -4   88.69   13.80
   1  -6   4   78.79   15.30
   1  -6   4   87.59   10.60
  -2   6  -4  100.29   15.00
   2  -6   4  104.59   18.00
   2  -6   4   85.39   13.20
  -3   6  -4   18.40    7.50
   3  -6   4   18.40    7.00
   3  -6   4   19.70    7.20
  -4   6  -4   47.10   10.80
   4  -6   4   43.40   10.80
   4  -6   4   47.70   12.50
  -5   6  -4   32.20    9.30
   5  -6   4   29.10    9.90
   5  -6   4   35.20   10.30
  -6   6  -4  391.16   29.40
   6  -6   4  362.06   27.30
   6  -6   4  329.07   28.30
  -7   6  -4   58.89   15.00
   7  -6   4   56.09   15.10
   7  -6   4   54.09   13.90
  -8   6  -4  224.98   25.10
   8  -6   4  234.28   34.30
   8  -6   4  277.07   24.80
  -9   6  -4  360.56   38.40
   9  -6   4  389.26   38.50
   9  -6   4  404.46   29.00
 -10   6  -4   -6.50    8.80
  10  -6   4   -8.80   13.80
  10  -6   4   -4.90   11.50
  10   5  -4    3.50   16.20
   9   5  -4   26.60   12.00
  -9  -5   4   -2.70   14.20
   8   5  -4   10.70    9.10
  -8  -5   4   24.00    8.60
   7   5  -4  205.58   31.60
   7   5  -4  172.98   11.20
  -7  -5   4  204.08   32.30
  -7  -5   4  176.08   11.20
  -7  -5   4  172.88   10.60
   6   5  -4  443.46   19.80
   6   5  -4  518.75   38.20
  -6  -5   4  468.35   39.20
   5   5  -4  604.04   38.70
   5   5  -4  589.84   24.30
  -5  -5   4  581.14   21.00
  -5  -5   4  615.44   45.40
   4   5  -4  303.07   21.00
   4   5  -4  306.27   25.20
  -4  -5   4  337.57   30.40
  -4  -5   4  290.77   15.30
   3   5  -4  584.64   32.40
   3   5  -4  585.34   24.40
  -3  -5   4  514.05   36.40
  -3  -5   4  543.55   21.90
   2   5  -4   68.89   11.70
   2   5  -4   63.19    9.70
  -2  -5   4   82.09   15.80
  -2  -5   4   66.49   10.50
   1   5  -4  141.69   12.30
   1   5  -4  131.19   13.20
  -1  -5   4  118.79   19.30
   0   5  -4  394.46   21.80
   0   5  -4  396.76   21.70
   0  -5   4  405.56   28.30
   0  -5   4  407.76   22.50
  -1   5  -4  173.98   14.80
   1  -5   4  180.68   14.70
   1  -5   4  199.08   19.30
  -2   5  -4  314.97   21.10
   2  -5   4  285.57   22.60
   2  -5   4  293.67   19.80
  -3   5  -4   21.30    6.50
   3  -5   4   22.80    7.80
   3  -5   4    6.50    6.10
  -4   5  -4   45.00    9.90
   4  -5   4   47.90   11.30
   4  -5   4   45.40   11.80
  -5   5  -4    4.50    5.20
   5  -5   4   19.40    6.50
   5  -5   4    9.80    6.60
  -6   5  -4  783.92   41.30
   6  -5   4  814.52   46.30
   6  -5   4  868.11   38.90
  -7   5  -4    2.50    5.90
   7  -5   4   -2.10    6.50
   7  -5   4   -2.70    5.70
  -8   5  -4    3.90    6.40
   8  -5   4   10.90    8.40
   8  -5   4    0.00    7.30
  -9   5  -4  104.89   21.70
   9  -5   4  120.69   25.50
   9  -5   4  109.69   19.00
 -10   5  -4   55.99   15.40
  10  -5   4   48.90   17.40
  10   4  -4   14.20    9.00
 -10  -4   4   19.60   14.30
   9   4  -4   21.30   11.40
  -9  -4   4   32.00   12.70
   8   4  -4    1.10    7.70
  -8  -4   4   -2.60    7.70
   7   4  -4  183.48   28.50
  -7  -4   4  163.18    6.10
  -7  -4   4  159.28    6.00
  -7  -4   4  153.58   27.80
   6   4  -4  171.08    9.10
   6   4  -4  177.58   26.50
  -6  -4   4  222.78   26.50
  -6  -4   4  174.18    8.80
  -6  -4   4  174.38    8.50
   5   4  -4  282.07   25.20
   5   4  -4  277.97   13.30
  -5  -4   4  282.97   27.30
  -5  -4   4  292.27   12.10
   4   4  -4    1.30    4.10
   4   4  -4   12.70    3.50
  -4  -4   4    4.10    6.30
  -4  -4   4   11.50    3.50
   3   4  -4  814.52   25.60
   3   4  -4  781.62   36.30
  -3  -4   4  777.42   24.00
  -3  -4   4  813.02   43.20
   2   4  -4   25.70    7.10
   2   4  -4   23.70    5.20
  -2  -4   4   26.70    5.20
  -2  -4   4   19.80    7.90
   1   4  -4   40.40    7.30
   1   4  -4   39.50    8.10
  -1  -4   4   34.50    9.80
  -1  -4   4   46.60    8.90
  -1  -4   4   37.50    6.70
   0   4  -4  141.09   11.80
   0   4  -4  125.89   11.80
   0  -4   4  125.79   14.50
   0  -4   4  116.99   11.50
  -1   4  -4   26.70    7.40
   1  -4   4   40.40    9.50
   1  -4   4   21.40    6.00
  -2   4  -4  774.72   32.50
  -2   4  -4  763.02   33.10
   2  -4   4  776.92   33.10
   2  -4   4  809.82   34.90
  -3   4  -4   48.00    9.10
  -3   4  -4   26.70    7.20
   3  -4   4   36.20    8.20
   3  -4   4   38.50    9.00
  -4   4  -4  118.49   13.60
  -4   4  -4  129.49   12.90
   4  -4   4  119.79   18.00
   4  -4   4  118.49   12.70
  -5   4  -4   29.80    9.40
  -5   4  -4    1.50    4.50
   5  -4   4   -5.30    3.60
   5  -4   4    1.10    5.80
  -6   4  -4  646.04   36.00
  -6   4  -4  691.33   29.70
   6  -4   4  615.84   29.90
   6  -4   4  597.64   28.60
   6  -4   4  654.33   41.70
  -7   4  -4  129.49   20.10
   7  -4   4  140.09   17.10
   7  -4   4  160.48   15.20
   7  -4   4  193.28   29.30
  -8   4  -4   44.60   12.80
   8  -4   4   53.49   10.60
   8  -4   4   50.09   16.20
  -9   4  -4  107.19   19.30
   9  -4   4  146.69   29.60
   9  -4   4  140.09   15.20
  10  -4   4  208.48   35.40
 -11   4  -4   55.19   20.30
  11  -4   4   50.09   21.20
  11   3  -4   47.80   18.50
  10   3  -4   11.20    9.70
 -10  -3   4  -21.10   10.30
   9   3  -4  222.88   36.40
  -9  -3   4  218.58   34.80
   8   3  -4  305.47   32.80
  -8  -3   4  322.27   33.20
   7   3  -4  941.21   54.29
  -7  -3   4  864.91   52.39
   6   3  -4  346.97   29.80
  -6  -3   4  354.66   31.80
   5   3  -4    9.10    4.60
  -5  -3   4   -1.10    4.90
   4   3  -4  154.78   16.40
   4   3  -4  180.68    8.30
  -4  -3   4  181.18   20.30
  -4  -3   4  181.88    7.50
   3   3  -4   64.69    5.60
   3   3  -4   61.19   11.70
  -3  -3   4   63.09   14.00
  -3  -3   4   74.89    5.80
   2   3  -4  366.56   14.70
   2   3  -4  363.96   21.20
  -2  -3   4  332.47   24.30
  -2  -3   4  335.27   14.30
   1   3  -4  485.65   19.10
   1   3  -4  485.35   23.40
  -1  -3   4  458.65   23.10
  -1  -3   4  527.75   23.60
  -1  -3   4  500.25   28.50
   0   3  -4  189.38   15.90
   0   3  -4  203.18   16.40
   0   3  -4  222.18   15.10
   0  -3   4  195.08   14.40
   0  -3   4  203.58   13.40
   0  -3   4  218.88   17.50
  -1   3  -4  131.59   12.30
  -1   3  -4  125.69   11.40
   1  -3   4  115.79   11.40
   1  -3   4  126.69   12.50
  -2   3  -4  207.68   15.70
  -2   3  -4  216.78   15.00
   2  -3   4  207.38   15.40
   2  -3   4  204.18   16.50
  -3   3  -4   30.30    8.10
  -3   3  -4   38.30    7.30
   3  -3   4   35.00    9.00
   3  -3   4   30.70    6.80
  -4   3  -4  321.17   17.10
  -4   3  -4  300.27   21.20
   4  -3   4  283.77   23.30
   4  -3   4  330.17   18.10
  -5   3  -4  539.35   22.40
  -5   3  -4  545.45   30.90
   5  -3   4  608.34   23.90
   5  -3   4  556.74   23.60
   5  -3   4  538.35   35.00
  -6   3  -4  302.77   24.50
   6  -3   4  357.06   18.50
   6  -3   4  359.86   18.60
   6  -3   4  333.37   29.40
  -7   3  -4  300.67   25.40
   7  -3   4  321.47   17.00
   7  -3   4  309.67   18.10
   7  -3   4  314.87   30.30
  -8   3  -4   42.40   12.50
   8  -3   4   42.90    7.30
   8  -3   4   32.00   12.80
   8  -3   4   36.50    9.40
  -9   3  -4   80.39   17.30
   9  -3   4   74.79    9.40
   9  -3   4   93.99   22.70
 -10   3  -4  301.07   28.80
  10  -3   4  337.57   37.50
 -11   3  -4   31.20   11.20
  11  -3   4   20.20   15.90
  11   2  -4  -25.10   10.00
 -11  -2   4   29.90   14.20
  10   2  -4   18.90   13.10
 -10  -2   4   31.30   11.90
   9   2  -4   47.80   15.60
  -9  -2   4   34.30   15.90
   8   2  -4    4.20    7.50
  -8  -2   4    5.40    7.20
   7   2  -4    5.70    6.70
  -7  -2   4    3.50    7.40
  -6  -2   4    1.90    4.20
   5   2  -4   38.00   10.00
  -5  -2   4   53.79   12.90
   4   2  -4   -0.60    2.00
  -4  -2   4   -0.70    4.00
   3   2  -4    5.60    1.60
   3   2  -4    1.70    1.30
   3   2  -4   -2.60    2.40
  -3  -2   4    2.70    3.30
  -3  -2   4    2.50    1.30
   2   2  -4  370.26   13.10
   2   2  -4  368.66   20.40
  -2  -2   4  360.16   13.40
  -2  -2   4  347.07   23.70
   1   2  -4  190.98   10.90
   1   2  -4  186.48   13.50
   1   2  -4  190.78   16.00
   1   2  -4  200.68   14.20
  -1  -2   4  210.08   14.70
  -1  -2   4  223.88   11.90
  -1  -2   4  183.78   16.00
   0   2  -4   -3.40    2.10
   0   2  -4    1.00    2.20
   0   2  -4    0.30    1.90
   0  -2   4   -0.60    2.10
   0  -2   4    0.00    2.10
   0  -2   4    6.30    2.50
  -1   2  -4   -4.10    2.00
  -1   2  -4    1.10    2.20
  -1   2  -4    0.60    2.00
   1  -2   4    1.60    3.20
   1  -2   4    3.90    2.50
   1  -2   4    4.80    3.50
  -2   2  -4  801.82   31.20
  -2   2  -4  808.12   26.30
   2  -2   4  841.12   27.70
   2  -2   4  786.52   33.10
  -3   2  -4  129.09   13.00
  -3   2  -4  134.29    9.30
   3  -2   4  146.69    9.90
   3  -2   4  155.08   15.60
  -4   2  -4  818.52   35.90
  -4   2  -4  835.22   22.90
   4  -2   4  868.91   41.70
   4  -2   4  823.02   23.50
  -5   2  -4  137.59   15.00
   5  -2   4  119.89   20.50
   5  -2   4  127.59    7.90
   5  -2   4  108.69    8.00
  -6   2  -4   14.70    7.00
   6  -2   4   14.50    3.80
   6  -2   4   21.40    8.80
   6  -2   4   13.40    3.50
  -7   2  -4  297.17   25.00
   7  -2   4  290.87   30.00
   7  -2   4  320.07   11.20
   7  -2   4  333.07   11.00
  -8   2  -4    6.70    7.20
   8  -2   4   -0.20   10.30
  -9   2  -4   99.49   19.50
   9  -2   4   71.79   23.00
 -10   2  -4  108.99   20.70
  10  -2   4  100.89   27.30
 -11   2  -4  140.09   27.10
  11  -2   4  184.58   36.90
  11   1  -4   21.80   14.30
  11   1  -4    3.80   12.90
 -11  -1   4  -11.40   12.90
  10   1  -4   15.00   15.80
 -10  -1   4   73.69   18.10
   9   1  -4   12.70    9.40
  -9  -1   4   42.30   14.50
   8   1  -4  161.98   28.30
  -8  -1   4  126.49   24.80
   7   1  -4    1.70    4.50
  -7  -1   4   12.30   13.20
   6   1  -4   10.40    6.20
  -6  -1   4    0.60    5.10
   5   1  -4   15.00    7.40
  -5  -1   4    9.80    5.80
   4   1  -4  882.21   38.00
  -4  -1   4  863.71   43.00
   3   1  -4  467.15   24.60
   3   1  -4  483.35    9.90
   3   1  -4  479.15   10.60
  -3  -1   4  455.05   28.50
   2   1  -4  999.30   33.10
   2   1  -4  971.50   24.20
   2   1  -4 1059.59   41.00
   2   1  -4 1012.30   33.90
   2   1  -4 1018.10   23.20
  -2  -1   4  988.10   32.50
  -2  -1   4 1013.80   40.60
   1   1  -4  237.38   14.90
   1   1  -4  241.08   12.00
   1   1  -4  238.48   17.20
   1   1  -4  249.58   13.10
   1   1  -4  234.88   15.40
  -1  -1   4  254.77   18.20
  -1  -1   4  240.18   12.50
  -1  -1   4  237.88   15.60
   0   1  -4    2.30    2.20
   0   1  -4    4.20    3.20
   0   1  -4    3.40    4.60
   0  -1   4   -2.00    1.30
   0  -1   4   -0.80    2.80
  -1   1  -4   26.40    6.40
  -1   1  -4   19.80    6.60
  -1   1  -4   26.70    5.50
  -1   1  -4   22.30    5.70
   1  -1   4   22.20    4.80
   1  -1   4   23.70    6.60
   1  -1   4   22.50    5.40
  -2   1  -4 1030.80   36.40
  -2   1  -4 1125.59   27.30
   2  -1   4 1136.39   40.30
   2  -1   4 1097.99   28.00
  -3   1  -4   24.00    2.50
  -3   1  -4   17.30    6.30
   3  -1   4   22.80    3.20
   3  -1   4   27.80    8.40
  -4   1  -4   19.20    6.20
   4  -1   4    7.70    3.70
  -5   1  -4   63.79   12.60
   5  -1   4   90.89   17.40
  -6   1  -4  595.44   34.00
   6  -1   4  606.34   40.90
  -7   1  -4   94.89   15.80
   7  -1   4   92.69   19.60
  -8   1  -4  124.49   19.20
   8  -1   4  123.09   25.00
  -9   1  -4  657.53   41.10
   9  -1   4  628.34   60.49
 -10   1  -4  117.99   23.00
  10  -1   4   80.79   18.50
 -11   1  -4   31.70   13.20
  11  -1   4   20.70   15.00
  11   0  -4  256.27   31.30
  11   0  -4  249.38   39.60
 -11   0   4  278.47   29.10
  10   0  -4   24.20   11.90
 -10   0   4   17.00   12.40
   9   0  -4   50.49   16.50
   9   0  -4   66.59   17.90
  -9   0   4   69.19   17.80
   8   0  -4  145.49   25.40
  -8   0   4  113.79   22.80
   7   0  -4   63.39   16.00
  -7   0   4   96.19   23.40
   6   0  -4   41.50   11.30
  -6   0   4   44.40   13.30
   5   0  -4   54.99   12.00
  -5   0   4  101.99   18.00
   4   0  -4    2.30    0.70
   4   0  -4    3.20    3.50
   4   0  -4    1.80    0.60
  -4   0   4   -0.20    3.80
   3   0  -4   17.20    2.90
   3   0  -4   21.20    3.30
   3   0  -4   35.30    7.70
  -3   0   4   25.30    8.10
  -3   0   4   19.90    3.30
   2   0  -4   57.69    5.80
   2   0  -4   65.29    5.80
   2   0  -4   67.59    9.80
   2   0  -4   68.29    9.80
   2   0  -4   54.29   10.50
  -2   0   4   68.69    6.30
  -2   0   4   60.49   11.40
  -2   0   4   60.09    7.20
   1   0  -4  317.57   16.80
   1   0  -4  354.06   20.90
   1   0  -4  340.47   16.20
   1   0  -4  343.47   15.80
   1   0  -4  351.86   17.20
  -1   0   4  342.37   16.30
  -1   0   4  346.37   20.70
  -1   0   4  371.36   17.90
   0   0  -4   96.99    9.90
   0   0  -4  107.69    9.90
   0   0  -4   88.39    8.70
   0   0  -4   95.39    9.40
   0   0   4   93.99    9.40
   0   0   4   98.79    9.90
   0   0   4   93.99    9.00
  -1   0  -4   -1.50    1.80
  -1   0  -4   -2.30    1.80
  -1   0  -4    1.00    2.20
  -1   0  -4    1.60    2.40
   1   0   4    3.70    2.40
   1   0   4    4.70    3.10
   1   0   4    2.80    2.30
  -2   0  -4  938.71   21.30
  -2   0  -4  852.31   33.20
  -2   0  -4  896.51   21.50
   2   0   4  880.41   34.90
   2   0   4  926.61   36.20
   2   0   4  875.31   21.50
  -3   0  -4  107.69   12.30
   3   0   4  103.99   15.80
  -4   0  -4   49.99   10.60
   4   0   4   47.20   11.60
  -5   0  -4   57.79   12.60
   5   0   4   81.79   16.40
  -6   0  -4  321.37   25.00
   6   0   4  287.77   28.00
  -7   0  -4   53.19   13.60
   7   0   4   40.90   14.40
  -8   0  -4    9.70    6.70
   8   0   4    4.60    8.50
  -9   0  -4  306.07   27.50
   9   0   4  281.87   53.79
 -10   0  -4  -14.30    9.10
  10   0   4  -27.40   11.00
 -11   0  -4  137.49   23.20
  11  -1  -4  501.65   49.30
  11  -1  -4  522.75   43.70
 -11   1   4  501.75   45.50
  10  -1  -4   25.30   16.30
  10  -1  -4    2.70    9.60
 -10   1   4   28.20   12.70
   9  -1  -4   62.19   16.70
   9  -1  -4   31.10   15.40
  -9   1   4   41.20    4.70
  -9   1   4   47.20    5.50
  -9   1   4   49.00   16.90
   8  -1  -4  470.15   37.40
   8  -1  -4  390.86   34.60
  -8   1   4  380.16   13.30
  -8   1   4  413.26   36.10
  -8   1   4  378.26   13.50
   7  -1  -4  262.87   39.50
   7  -1  -4  256.87   10.90
  -7   1   4  278.97   11.20
  -7   1   4  262.07   11.10
   6  -1  -4  108.59    6.60
   6  -1  -4  142.49   21.40
  -6   1   4  120.79   21.30
  -6   1   4  117.69    7.30
   5  -1  -4   23.90    3.70
   5  -1  -4   25.60    7.60
  -5   1   4   24.40    4.30
  -5   1   4   28.60   10.10
   4  -1  -4  124.59   12.80
   4  -1  -4  104.29    6.60
  -4   1   4   99.99   16.40
  -4   1   4  117.19    8.10
   3  -1  -4  922.81   31.50
   3  -1  -4  951.60   24.80
   3  -1  -4  957.40   33.20
  -3   1   4  895.61   41.10
  -3   1   4  911.01   30.80
  -3   1   4  940.91   26.40
   2  -1  -4  443.06   19.40
   2  -1  -4  444.76   19.60
   2  -1  -4  418.66   26.30
   2  -1  -4  412.36   17.40
  -2   1   4  425.46   18.70
  -2   1   4  460.05   18.90
  -2   1   4  380.16   24.40
   1  -1  -4  130.59   12.70
   1  -1  -4  135.39   13.10
   1  -1  -4  141.49   10.30
  -1   1   4  129.69   10.70
  -1   1   4  132.69   10.20
  -1   1   4  119.39   12.40
   0  -1  -4 1914.61   47.60
   0  -1  -4 1868.61   46.70
   0  -1  -4 1854.81   49.10
   0  -1  -4 1815.62   48.30
   0   1   4 1894.71   48.90
   0   1   4 1881.41   57.19
   0   1   4 1929.91   45.80
  -1  -1  -4  703.43   28.80
  -1  -1  -4  693.83   24.40
  -1  -1  -4  701.33   23.20
  -1  -1  -4  711.03   29.50
   1   1   4  705.23   24.00
   1   1   4  660.53   40.60
   1   1   4  724.83   30.70
  -2  -1  -4    4.00    2.10
  -2  -1  -4    4.30    2.00
  -2  -1  -4    7.60    3.70
   2   1   4    0.50    2.40
   2   1   4    8.80    5.20
  -3  -1  -4  764.72   34.60
   3   1   4  804.32   36.60
   3   1   4  876.91   38.60
  -4  -1  -4   69.89   13.00
   4   1   4   82.29   15.00
   4   1   4   81.29   15.40
  -5  -1  -4   82.89   14.10
   5   1   4   65.39   15.20
   6   1   4    2.40    5.60
  -7  -1  -4  293.37   25.90
   7   1   4  295.57   31.60
  -8  -1  -4   30.20    8.30
   8   1   4   39.60   15.20
  -9  -1  -4   38.30   12.20
   9   1   4   45.30   18.90
 -10  -1  -4  104.09   21.30
  10   1   4  186.38   32.80
  11  -2  -4  245.78   36.40
  11  -2  -4  263.47   38.50
 -11   2   4  285.67   33.90
  10  -2  -4   80.89   20.90
  10  -2  -4   71.99   17.30
 -10   2   4   75.59   19.50
 -10   2   4   51.09    8.30
   9  -2  -4    8.90    8.40
   9  -2  -4    3.30    8.70
  -9   2   4   14.00    4.20
  -9   2   4   11.00    9.40
   8  -2  -4  386.66   34.50
   8  -2  -4  460.65   35.50
  -8   2   4  362.16   17.10
  -8   2   4  377.56   34.10
   7  -2  -4   63.69   15.90
   7  -2  -4   82.49   18.40
   7  -2  -4   77.39   10.70
  -7   2   4   86.39   18.70
  -7   2   4   94.69    8.80
   6  -2  -4    0.20    5.20
   6  -2  -4   -1.40    2.30
   6  -2  -4   -3.00    4.20
  -6   2   4    1.90    3.00
  -6   2   4   -8.10    4.80
   5  -2  -4  273.07   24.50
   5  -2  -4  264.17   20.50
   5  -2  -4  271.97   13.30
  -5   2   4  238.88   23.80
  -5   2   4  269.07   14.80
   4  -2  -4   22.20    7.80
   4  -2  -4   21.10    5.90
   4  -2  -4   19.00    4.30
  -4   2   4   22.30    5.20
  -4   2   4   18.60    8.20
   3  -2  -4  800.22   37.90
   3  -2  -4  816.42   27.70
   3  -2  -4  794.22   29.10
  -3   2   4  750.82   38.10
  -3   2   4  812.62   27.00
  -3   2   4  806.92   27.90
   2  -2  -4   98.29   11.60
   2  -2  -4   89.49    8.00
   2  -2  -4   99.19    9.50
   2  -2  -4  104.79    8.90
  -2   2   4   85.39    9.40
  -2   2   4   84.09   13.60
   1  -2  -4   11.90    4.50
   1  -2  -4    5.30    2.60
   1  -2  -4    9.70    4.70
   1  -2  -4    7.50    3.10
   1  -2  -4    7.40    3.80
  -1   2   4    6.20    3.70
  -1   2   4    0.20    2.40
  -1   2   4    4.60    2.30
   0  -2  -4   70.59   13.30
   0  -2  -4   80.69    9.20
   0  -2  -4   79.39   11.70
   0  -2  -4   74.49    8.60
   0   2   4   73.49   11.30
   0   2   4   80.09    8.20
  -1  -2  -4   -1.40    3.20
  -1  -2  -4    2.00    2.90
  -1  -2  -4    4.20    3.00
   1   2   4    7.20    3.60
   1   2   4    4.10    3.80
  -2  -2  -4   36.70    6.20
  -2  -2  -4   38.90    6.30
   2   2   4   38.50    8.80
   2   2   4   36.80    9.10
   2   2   4   40.00    6.30
  -3  -2  -4   70.49    6.40
  -3  -2  -4   75.39    6.80
  -3  -2  -4   66.49   12.50
   3   2   4   73.99   13.50
   3   2   4   71.19    6.30
   3   2   4   69.39   13.00
  -4  -2  -4   12.60    2.30
  -4  -2  -4    4.70    2.00
  -4  -2  -4   11.50    6.30
   4   2   4    7.40    5.90
   4   2   4    3.60    4.00
  -5  -2  -4   18.40    7.80
   5   2   4   34.90   10.90
   5   2   4   18.60    8.50
  -6  -2  -4   41.10   11.50
   6   2   4   28.50   10.80
   6   2   4   34.00   11.10
  -7  -2  -4  268.17   25.10
   7   2   4  295.67   31.80
  -8  -2  -4    7.30    6.60
   8   2   4   -9.30    8.30
   9   2   4    1.20   10.00
 -10  -2  -4    3.80   11.00
  10   2   4  -31.40   11.40
  11  -3  -4  160.68   28.50
  11  -3  -4  148.89   31.20
  10  -3  -4  215.18   32.70
  10  -3  -4  254.17   36.70
 -10   3   4  195.98   16.80
   9  -3  -4    2.80    7.60
   9  -3  -4   -3.30    9.20
  -9   3   4   18.10   12.10
  -9   3   4   -8.10    5.90
   8  -3  -4   10.30    8.20
   8  -3  -4   -1.30    6.70
  -8   3   4   -2.50    4.80
  -8   3   4   -5.00    9.30
   7  -3  -4  144.79   21.90
   7  -3  -4  182.08   27.10
  -7   3   4  163.78   25.90
  -7   3   4  138.39   12.60
   6  -3  -4  709.33   43.60
   6  -3  -4  700.33   37.10
   6  -3  -4  693.33   25.80
  -6   3   4  694.03   27.90
  -6   3   4  737.13   44.80
   5  -3  -4    2.30    4.50
   5  -3  -4    9.60    4.40
   5  -3  -4    6.90    3.40
  -5   3   4    6.60    3.80
  -5   3   4    2.20    5.70
   4  -3  -4    3.40    2.90
   4  -3  -4    0.40    3.20
   4  -3  -4   -2.10    3.90
  -4   3   4   -4.00    2.50
  -4   3   4   -1.70    2.80
  -4   3   4   -2.70    4.60
   3  -3  -4  140.09   10.90
   3  -3  -4  102.19   11.30
   3  -3  -4  123.99   10.90
   3  -3  -4   92.99   15.60
  -3   3   4  142.39   16.70
  -3   3   4  101.89   16.80
  -3   3   4  112.09   11.50
   2  -3  -4   22.40    5.00
   2  -3  -4   21.30    7.90
   2  -3  -4   29.50    5.50
  -2   3   4   43.70    9.00
   1  -3  -4 1171.38   29.50
   1  -3  -4 1196.38   43.50
   1  -3  -4 1228.78   32.20
  -1   3   4 1201.58   41.90
  -1   3   4 1166.08   30.10
   0  -3  -4    1.20    3.30
   0  -3  -4    6.20    3.20
   0  -3  -4   12.70    4.80
   0   3   4    1.10    3.90
   0   3   4    5.40    4.30
   0   3   4    6.50    2.80
  -1  -3  -4  194.98   14.80
  -1  -3  -4  166.28   14.60
  -1  -3  -4  168.68   13.80
   1   3   4  193.18   14.50
   1   3   4  142.99   15.10
   1   3   4  166.68   13.00
  -2  -3  -4  302.97   28.90
  -2  -3  -4  375.56   19.30
   2   3   4  315.57   20.90
   2   3   4  331.37   21.70
   2   3   4  331.97   23.80
  -3  -3  -4  135.69   11.00
  -3  -3  -4  127.89   10.60
   3   3   4  127.19   18.30
   3   3   4  138.79   10.60
   3   3   4  140.19   16.20
  -4  -3  -4   19.50    8.00
  -4  -3  -4   16.50    5.00
   4   3   4   30.30    9.80
   4   3   4   17.30    6.90
   4   3   4   20.10    4.10
  -5  -3  -4 2161.78   45.30
   5   3   4 2196.48   78.59
   5   3   4 2223.88   44.00
  -6  -3  -4  764.02   17.90
  -6  -3  -4  751.92   41.50
   6   3   4  756.82   47.70
   6   3   4  740.33   17.50
   6   3   4  729.03   42.60
  -7  -3  -4   18.00    6.90
   7   3   4    8.60   10.00
   7   3   4   10.70    7.20
  -8  -3  -4  206.48   23.60
   8   3   4  181.78   32.50
  -9  -3  -4   14.80    7.30
   9   3   4   18.70   10.90
 -10  -3  -4  -21.10    9.00
  10   3   4   35.90   17.50
  11  -4  -4   69.69   22.50
  11  -4  -4  114.49   23.90
  10  -4  -4  324.77   36.10
  10  -4  -4  380.46   36.00
 -10   4   4  287.77   21.70
   9  -4  -4  155.48   27.80
   9  -4  -4  172.78   28.10
  -9   4   4  138.49   15.30
   8  -4  -4   42.50   15.30
   8  -4  -4   32.00   12.40
  -8   4   4   47.80   10.20
   7  -4  -4  326.67   31.40
   7  -4  -4  328.67   27.30
  -7   4   4  383.56   23.30
   6  -4  -4   23.60    7.60
   6  -4  -4   11.40   10.10
  -6   4   4   16.30    6.60
   5  -4  -4  322.27   21.50
   5  -4  -4  326.17   28.80
  -5   4   4  293.47   19.80
   4  -4  -4  777.52   43.00
   4  -4  -4  878.91   31.60
   4  -4  -4  819.12   27.90
  -4   4   4  841.02   34.90
  -4   4   4  826.72   27.40
   3  -4  -4  254.37   22.70
   3  -4  -4  295.07   14.80
   3  -4  -4  289.67   13.90
  -3   4   4  298.57   20.40
   2  -4  -4  947.31   24.90
   2  -4  -4  961.10   25.50
   2  -4  -4  956.70   43.00
  -2   4   4  994.80   39.50
   1  -4  -4   86.79    6.60
   1  -4  -4   92.89   15.20
   1  -4  -4   84.19    7.50
  -1   4   4   88.19    6.70
  -1   4   4  109.99   13.30
   0  -4  -4   83.19    9.00
   0  -4  -4   89.99   14.10
   0   4   4   97.09   15.20
   0   4   4   87.59    7.80
  -1  -4  -4  267.67   19.80
  -1  -4  -4  254.07   16.90
   1   4   4  301.47   23.40
   1   4   4  281.17   17.10
  -2  -4  -4  432.76   24.10
   2   4   4  430.86   24.40
   2   4   4  394.26   22.60
   2   4   4  396.36   27.90
  -3  -4  -4  220.88   19.80
   3   4   4  190.18   19.00
   3   4   4  172.38   19.00
   3   4   4  212.38   15.70
  -4  -4  -4   69.29   11.00
   4   4   4   57.99   14.00
   4   4   4   65.39   10.30
   4   4   4   88.09   16.80
  -5  -4  -4   30.10    9.80
  -5  -4  -4   41.00    8.00
   5   4   4   43.60   12.70
   5   4   4   49.90   18.00
  -6  -4  -4    6.30    6.50
  -6  -4  -4    4.80    4.00
   6   4   4    5.10    4.30
   6   4   4   14.60   10.90
  -7  -4  -4   -8.60    6.60
  -7  -4  -4   10.20    4.20
   7   4   4   -5.30    5.70
   7   4   4    2.50    7.30
   7   4   4   -1.80    4.50
  -8  -4  -4   28.80    9.60
   8   4   4   17.80   11.00
   8   4   4   17.80   11.00
  -9  -4  -4   19.00   13.00
   9   4   4   45.80   19.80
  11  -5  -4   19.80   15.90
  11  -5  -4   30.30   15.00
  10  -5  -4   46.60   26.30
 -10   5   4   53.59   13.50
   9  -5  -4   62.29   17.50
   9  -5  -4   53.89   17.30
  -9   5   4   41.90   12.20
   8  -5  -4   63.39   15.30
   8  -5  -4   17.30    9.20
  -8   5   4   50.39   10.00
   7  -5  -4  202.78   30.60
   7  -5  -4  199.28   21.20
  -7   5   4  231.18   19.70
   6  -5  -4   -7.40    6.30
  -6   5   4    4.40    3.40
   5  -5  -4  230.08   25.10
   5  -5  -4  245.18   16.90
  -5   5   4  224.08   14.90
  -5   5   4  221.88   18.80
   4  -5  -4    3.60    2.70
   4  -5  -4    3.50    3.10
   4  -5  -4   -6.70    3.50
  -4   5   4   -5.60    4.40
  -4   5   4   -0.50    2.90
   3  -5  -4    0.90    4.60
   3  -5  -4    2.40    2.40
   3  -5  -4    3.30    2.10
  -3   5   4    7.70    3.50
   2  -5  -4   12.10    5.90
  -2   5   4   11.50    5.30
   1  -5  -4    9.90    2.90
   1  -5  -4   10.30    2.10
   1  -5  -4    6.70    4.40
  -1   5   4    3.20    4.90
  -1   5   4    5.50    2.30
   0  -5  -4  345.57   25.30
   0  -5  -4  333.47   16.30
   0   5   4  293.47   13.90
   0   5   4  295.87   23.90
  -1  -5  -4  191.38   18.90
  -1  -5  -4  184.88   14.50
   1   5   4  179.88   13.80
   1   5   4  196.48   20.00
  -2  -5  -4  275.87   21.30
   2   5   4  301.67   20.50
   2   5   4  240.98   22.90
  -3  -5  -4 1779.52   56.69
   3   5   4 1830.52   60.39
  -4  -5  -4  465.45   27.20
   4   5   4  458.85   33.80
   4   5   4  483.75   32.60
  -5  -5  -4   25.40    6.90
   5   5   4   22.10    9.80
  -6  -5  -4  192.08   15.70
  -6  -5  -4  188.88   27.80
   6   5   4  161.48   25.30
   6   5   4  174.48   27.10
   6   5   4  191.08   17.40
  -7  -5  -4   27.00   10.80
   7   5   4   32.90   13.20
   7   5   4    9.80    9.60
  -8  -5  -4   44.50   13.40
   8   5   4   44.90   15.10
   8   5   4   64.09   18.00
  -9  -5  -4   32.50   13.50
   9   5   4   29.20   12.40
  10  -6  -4  250.07   38.60
  10  -6  -4  242.28   28.40
 -10   6   4  250.97   23.20
   9  -6  -4   33.10   15.10
   9  -6  -4   41.40   16.50
  -9   6   4   64.89   14.40
   8  -6  -4   69.79   15.40
   8  -6  -4   74.79   19.50
  -8   6   4  135.89   25.50
   7  -6  -4   73.69   18.90
   7  -6  -4   90.49   15.90
  -7   6   4  111.09   17.70
   6  -6  -4   19.00   11.10
   6  -6  -4   39.10    9.60
  -6   6   4   30.30    9.40
   5  -6  -4   30.70    6.20
   5  -6  -4   20.90   10.40
   5  -6  -4   22.80    6.50
  -5   6   4   30.60    6.50
  -5   6   4   33.80   10.60
   4  -6  -4   -3.90    2.80
   4  -6  -4   -5.90    6.10
   4  -6  -4   -4.70    2.10
  -4   6   4   -7.90    3.50
   3  -6  -4   75.79   21.00
  -3   6   4   95.39   16.80
   2  -6  -4  436.16   32.60
  -2   6   4  387.46   28.00
   1  -6  -4   82.39   17.00
  -1   6   4   94.19   17.10
   0  -6  -4  416.46   17.10
   0  -6  -4  453.35   31.40
   0   6   4  453.45   16.10
   0   6   4  443.56   31.80
  -1  -6  -4 2539.95   59.09
  -1  -6  -4 2535.95   77.79
   1   6   4 2470.85   57.09
  -2  -6  -4 1484.35   56.89
   2   6   4 1471.55   48.20
   2   6   4 1606.24   65.59
  -3  -6  -4  142.19   20.30
   3   6   4  135.19   19.30
   3   6   4  128.49   22.70
  -4  -6  -4   32.90   10.40
   4   6   4   38.90   13.80
   4   6   4   55.79   14.00
  -5  -6  -4  121.69   14.40
   5   6   4   85.29   19.10
   5   6   4   65.49   16.90
  -6  -6  -4  154.98   17.20
  -6  -6  -4   74.29   19.60
   6   6   4  196.88   30.70
   6   6   4  127.19   25.00
  -7  -6  -4   36.00    9.50
  -7  -6  -4   17.30   10.70
   7   6   4   67.99   20.20
   7   6   4   56.59   15.80
  -8  -6  -4   17.60   11.70
   8   6   4   26.70   14.20
   8   6   4   30.80   16.20
  10  -7  -4   62.19   15.70
  10  -7  -4   62.19   24.40
 -10   7   4   48.20   13.10
   9  -7  -4  191.58   22.00
   9  -7  -4  202.48   33.80
  -9   7   4  211.28   24.00
   8  -7  -4   27.60   15.30
   8  -7  -4    3.60    8.10
  -8   7   4   27.80   10.10
   7  -7  -4   -2.70    6.70
   7  -7  -4   -0.70    7.80
  -7   7   4   -9.60    6.20
   6  -7  -4  378.06   19.10
   6  -7  -4  435.46   39.60
  -6   7   4  397.86   19.30
  -6   7   4  378.06   28.70
   5  -7  -4    2.90    2.90
   5  -7  -4   -1.80    3.10
   5  -7  -4    5.80    6.10
  -5   7   4   10.80    6.10
   4  -7  -4   49.30   15.30
  -4   7   4   38.90   11.10
   3  -7  -4  138.89   24.50
  -3   7   4  140.69   22.20
   2  -7  -4  109.09   20.80
  -2   7   4  119.89   20.20
   1  -7  -4  387.46   58.99
  -1   7   4  400.66   30.40
   0  -7  -4  401.36   13.40
   0  -7  -4  444.16   33.90
   0   7   4  404.56   12.70
   0   7   4  440.26   33.30
  -1  -7  -4   -1.50    5.00
  -1  -7  -4   26.60    5.40
   1   7   4    2.10    8.00
   1   7   4   15.10    4.70
  -2  -7  -4   25.10   10.60
   2   7   4   30.30    7.40
   2   7   4   15.30    9.30
  -3  -7  -4  215.78   22.40
   3   7   4  233.88   26.60
   3   7   4  233.68   20.70
  -4  -7  -4   32.50   12.50
   4   7   4   42.10   14.40
   4   7   4   26.30   10.10
  -5  -7  -4  113.29   19.70
   5   7   4  144.99   21.80
   5   7   4  111.59   24.10
  -6  -7  -4   22.30   11.50
   6   7   4   70.09   21.20
   6   7   4   46.10   16.40
  -7  -7  -4    5.40   13.90
  -7  -7  -4   32.70   12.20
   7   7   4   61.19   18.10
   7   7   4   46.20   16.10
  -8  -7  -4    4.40   13.80
   8   7   4   65.89   21.00
   8   7   4   45.00   22.20
   9  -8  -4  137.89   29.80
   9  -8  -4  167.88   18.50
  -9   8   4  117.59   22.30
   8  -8  -4   20.80   13.40
   8  -8  -4   34.30    9.80
  -8   8   4   21.60   10.40
   7  -8  -4  147.49   28.90
   7  -8  -4  142.29   13.90
  -7   8   4  176.88   27.00
   6  -8  -4   68.19    6.30
   6  -8  -4   54.29    6.00
   6  -8  -4   51.79   18.00
  -6   8   4   26.60   12.00
   5  -8  -4   19.60   11.40
  -5   8   4   -6.20    7.60
   4  -8  -4   71.49   19.80
  -4   8   4   62.39   15.20
   3  -8  -4  101.99   21.80
  -3   8   4   90.29   18.80
   2  -8  -4   67.39   17.10
  -2   8   4   83.29   17.60
   1  -8  -4  768.92   48.40
  -1   8   4  808.62   47.40
   0  -8  -4  667.43   44.30
   0   8   4  564.74   40.30
  -1  -8  -4  131.59   22.80
  -1  -8  -4  105.79   10.40
   1   8   4  112.29   20.80
   1   8   4  120.59    9.30
  -2  -8  -4  321.87   30.40
   2   8   4  349.87   22.10
   2   8   4  416.16   35.30
  -3  -8  -4  213.98   24.60
   3   8   4  243.18   21.80
   3   8   4  228.98   26.60
  -4  -8  -4  432.96   34.70
   4   8   4  455.05   32.80
   4   8   4  478.85   40.80
  -5  -8  -4   23.40    9.30
   5   8   4    7.30    8.50
   5   8   4   13.00   10.30
  -6  -8  -4  459.25   36.70
   6   8   4  469.95   41.00
   6   8   4  458.05   42.30
  -7  -8  -4  223.98   35.70
   7   8   4  309.37   34.90
   9  -9  -4   88.09   27.40
  -9   9   4   42.90   30.70
   8  -9  -4   -1.10   10.00
  -8   9   4    1.50    7.70
   7  -9  -4   -6.10   12.10
  -7   9   4    7.40    9.90
   6  -9  -4    2.80   14.20
  -6   9   4   11.30   10.60
   5  -9  -4    3.30    7.90
  -5   9   4   -2.10    8.70
   4  -9  -4  108.49   24.90
  -4   9   4  185.58   28.80
   3  -9  -4  489.35   43.60
  -3   9   4  494.55   39.40
   2  -9  -4  610.94   45.90
  -2   9   4  494.55   39.50
   1  -9  -4   -1.60    5.60
  -1   9   4    2.10    4.80
   0  -9  -4   -7.00    7.80
   0   9   4   -8.40    4.90
  -1  -9  -4  224.28   33.10
  -1  -9  -4  191.28    9.80
   1   9   4  203.58   31.20
   1   9   4  190.48   10.00
  -2  -9  -4  252.77   28.80
   2   9   4  226.98   17.20
   2   9   4  225.08   26.70
  -3  -9  -4  145.79   25.30
   3   9   4  130.09   27.90
   3   9   4  129.19   19.50
  -4  -9  -4  451.35   37.20
   4   9   4  502.55   33.10
   4   9   4  392.26   39.80
  -5  -9  -4  -17.20    8.10
   5   9   4    1.10    8.50
   5   9   4   24.40   11.30
  -6  -9  -4   66.99   17.00
   6   9   4   47.50   15.50
   6   9   4   25.20   20.90
   8 -10  -4   51.39   24.60
  -8  10   4   67.09   19.20
   7 -10  -4   54.39   14.00
  -7  10   4   16.80   14.60
   6 -10  -4   34.40   11.10
   5 -10  -4   12.20    8.90
  -5  10   4   13.60   11.30
  -4  10   4   78.59   19.40
   3 -10  -4   41.80   15.50
   2 -10  -4   32.60   13.50
  -2  10   4   26.00    9.90
   1 -10  -4   40.80   15.90
  -1  10   4   51.59   15.30
   0 -10  -4   75.09   19.20
   0  10   4   56.29   18.50
  -1 -10  -4  292.37   33.40
  -2 -10  -4  135.69   26.60
   2  10   4  149.49   28.80
  -3 -10  -4  143.79   28.90
   3  10   4  132.59   27.60
   3  10   4  113.39   17.70
  -4 -10  -4  329.27   31.50
   4  10   4  277.47   41.90
   4  10   4  272.67   40.70
  -5 -10  -4  110.39   22.20
   5  10   4   18.70   18.70
   5  10   4   77.09   22.70
   7 -11  -4   19.90   18.00
  -7  11   4   28.50   17.20
   6 -11  -4    7.30   11.10
  -6  11   4  -10.70   11.60
   5 -11  -4   28.80   16.80
  -5  11   4   -6.00    9.80
   4 -11  -4   19.20   11.10
  -4  11   4   23.50   10.40
   3 -11  -4   24.30   16.00
  -3  11   4   43.90   17.30
   2 -11  -4   70.79   23.50
  -2  11   4   64.99   18.80
   1 -11  -4  118.69   27.70
  -1  11   4  117.89   26.20
   0 -11  -4  192.48   42.00
   0  11   4  141.79   30.80
   1  11   4   55.29   16.30
  -2 -11  -4  484.45   81.79
   2  11   4  416.66   42.50
   3  11   4  337.77   48.70
  -4 -11  -4    6.00   16.70
   4  11   4   38.50   15.90
   5 -12  -4  102.99   27.40
  -5  12   4   72.89   24.10
   4 -12  -4   61.49   18.70
  -4  12   4   94.49   23.90
   3 -12  -4    6.30   17.50
  -3  12   4    5.30   11.50
   2 -12  -4  100.89   26.40
  -2  12   4   41.90   18.10
   1 -12  -4   41.70   18.10
  -1  12   4    5.60   12.10
   0 -12  -4  241.78   38.10
   0  12   4  136.49   31.90
  -1 -12  -4   20.10   18.30
   1  12   4   20.60   13.00
  -2 -12  -4   16.20   14.50
   2  12   4   -0.40   15.40
   2  13  -5  151.68   27.30
   2  13  -5  178.78   29.00
  -2 -13   5  112.69   31.70
   1  13  -5  -14.30   14.20
   1  13  -5   21.20   14.00
  -1 -13   5    6.10    9.80
   0  13  -5   31.50   17.20
   0  13  -5    5.60   12.10
   0 -13   5    5.90   14.20
  -1  13  -5   -0.60   10.40
  -1  13  -5    4.10   15.30
   1 -13   5   26.40   15.90
  -2  13  -5   93.99   24.10
  -2  13  -5   68.39   17.70
   2 -13   5  107.39   32.60
  -3  13  -5   59.79   19.20
  -3  13  -5   92.29   19.00
   3 -13   5  123.69   31.10
   4  12  -5   55.89   19.60
   4  12  -5  106.29   19.80
  -4 -12   5   14.70   21.10
   3  12  -5   39.90   13.20
   3  12  -5    7.70   15.40
  -3 -12   5   10.60   16.20
   2  12  -5   28.40   18.70
   2  12  -5   79.09   16.70
  -2 -12   5   18.70   12.20
   1  12  -5   60.39   14.90
   1  12  -5   40.40   18.50
  -1 -12   5   65.59   20.80
   0  12  -5    2.40   10.70
   0  12  -5    2.00    7.80
   0 -12   5    1.80    8.00
  -1  12  -5   27.70   10.90
  -1  12  -5   35.20   11.90
   1 -12   5    9.20    7.50
  -2  12  -5   26.50   13.30
  -2  12  -5   74.49   12.80
   2 -12   5   30.40   13.50
  -3  12  -5   34.90   16.20
  -3  12  -5   38.20   10.70
   3 -12   5   39.60   15.60
  -4  12  -5   69.79   17.50
  -4  12  -5   50.69   13.60
   4 -12   5   56.39   13.50
   4 -12   5   32.00   14.50
  -5  12  -5   14.50   14.20
  -5  12  -5   23.60   12.60
   5 -12   5   17.80    9.70
   5 -12   5   -1.20   14.00
   5  11  -5   93.09   21.20
  -5 -11   5  123.29   32.40
   4  11  -5   26.60   14.10
   4  11  -5   42.40   12.80
  -4 -11   5   37.40   16.40
   3  11  -5   -4.00    7.90
   3  11  -5    0.90    9.20
  -3 -11   5   -5.50   14.50
   2  11  -5   40.80   12.20
   2  11  -5   36.90   12.20
  -2 -11   5   17.00   11.50
   1  11  -5   22.20    8.70
   1  11  -5   16.30    9.40
  -1 -11   5   26.80   14.70
   0  11  -5   83.09   19.50
   0  11  -5   80.19   16.70
   0 -11   5  116.39   30.30
  -1  11  -5   18.10    8.60
  -1  11  -5   -2.30    7.40
   1 -11   5    8.80   10.20
  -2  11  -5  633.84   35.20
  -2  11  -5  569.34   42.70
   2 -11   5  632.84   53.19
  -3  11  -5  571.64   33.80
  -3  11  -5  551.44   42.50
   3 -11   5  541.65   32.40
   3 -11   5  555.74   48.90
  -4  11  -5   60.89   11.50
  -4  11  -5   45.00   13.70
   4 -11   5   68.39   13.00
   4 -11   5   51.69   19.40
  -5  11  -5    9.10    8.00
  -5  11  -5   31.60   11.90
   5 -11   5   39.70   12.50
  -6  11  -5   28.70   12.60
   6 -11   5   31.10   18.70
   6 -11   5   22.30   10.30
  -7  11  -5  124.79   24.30
   7 -11   5  171.58   20.40
   7 -11   5  121.99   31.50
   7  10  -5   22.50   14.30
  -7 -10   5   10.30   16.70
   6  10  -5   45.10   14.70
   6  10  -5   38.60   13.10
  -6 -10   5   55.09   20.10
   5  10  -5  361.86   34.70
   5  10  -5  290.47   26.50
  -5 -10   5  259.57   43.30
   4  10  -5   -2.80    8.50
   4  10  -5    1.90    7.00
  -4 -10   5    1.10    9.40
   3  10  -5   15.60    9.80
   3  10  -5   13.80    8.60
  -3 -10   5    9.30   12.20
   2  10  -5    7.00    5.90
   2  10  -5  -11.40    5.20
  -2 -10   5    6.50    7.90
   1  10  -5   33.20   11.20
   1  10  -5   33.50   11.00
  -1 -10   5   39.30   12.90
   0  10  -5  304.67   27.40
   0 -10   5  325.77   36.30
  -1  10  -5  309.07   28.70
  -1  10  -5  293.27   23.40
   1 -10   5  349.17   37.10
  -2  10  -5  232.08   24.70
  -2  10  -5  193.38   19.50
   2 -10   5  188.78   19.60
   2 -10   5  170.98   31.40
  -3  10  -5  244.88   40.50
  -3  10  -5  207.58   24.20
   3 -10   5  198.58   32.90
  -4  10  -5  156.58   18.10
  -4  10  -5  165.78   26.30
   4 -10   5  148.79   28.40
   4 -10   5  145.79   17.30
  -5  10  -5   58.89   16.70
   5 -10   5  108.19   17.70
   5 -10   5  124.39   24.30
  -6  10  -5   61.79   17.00
   6 -10   5   32.70   17.30
   6 -10   5  117.59   18.30
  -7  10  -5   22.60   10.40
   7 -10   5   17.40    8.50
  -8  10  -5   91.69   20.80
   8 -10   5   90.09   20.40
   8 -10   5  143.79   27.70
   8   9  -5  -12.00   13.00
  -8  -9   5   12.50   19.00
   7   9  -5   81.29   21.20
   7   9  -5   90.89   15.90
  -7  -9   5   57.89   23.70
   6   9  -5  280.87   32.50
   6   9  -5  274.17   24.10
  -6  -9   5  314.37   37.70
   5   9  -5    2.20    9.20
   5   9  -5   10.20    8.20
  -5  -9   5    8.30   14.50
   4   9  -5  295.87   29.00
   4   9  -5  282.47   25.20
  -4  -9   5  271.67   40.40
   3   9  -5    1.80    6.50
   3   9  -5   -8.70    4.10
  -3  -9   5   10.80    8.70
   2   9  -5   56.59   13.60
   2   9  -5   33.30    9.80
  -2  -9   5   33.80   16.00
   1   9  -5   63.79   15.60
   1   9  -5   77.09   15.20
  -1  -9   5   50.89   16.70
   0   9  -5  509.85   30.70
   0   9  -5  499.75   33.30
   0  -9   5  526.55   42.80
  -1   9  -5  122.29   17.70
  -1   9  -5  131.09   21.40
   1  -9   5  128.09   24.80
  -2   9  -5   50.29   14.40
  -2   9  -5   77.69   13.00
   2  -9   5   65.39   11.40
   2  -9   5   61.69   18.10
  -3   9  -5  462.25   34.10
  -3   9  -5  492.05   30.10
   3  -9   5  442.16   38.70
   3  -9   5  441.16   29.00
  -4   9  -5    8.90    7.00
   4  -9   5    7.40   10.20
   4  -9   5   22.70    7.80
  -5   9  -5   28.80   12.30
   5  -9   5   17.40   13.80
   5  -9   5   35.00   11.30
  -6   9  -5   65.59   18.80
   6  -9   5   76.29   16.70
   6  -9   5   73.59   19.80
  -7   9  -5   63.49   15.60
   7  -9   5   61.29   17.20
   7  -9   5   72.99   19.80
  -8   9  -5  157.18   27.00
   8  -9   5  155.78   24.90
   8  -9   5  132.29   25.40
   8   8  -5   53.19   22.40
  -8  -8   5   67.09   23.90
   7   8  -5  101.09   15.30
   7   8  -5   48.40   18.70
  -7  -8   5   48.90   19.80
   6   8  -5  257.67   21.10
   6   8  -5  272.07   30.30
  -6  -8   5  293.27   44.40
   5   8  -5   -9.50    5.00
   5   8  -5  -12.20    4.50
  -5  -8   5    5.10    7.90
   4   8  -5  586.04   32.50
   4   8  -5  544.15   39.00
  -4  -8   5  600.04   48.60
   3   8  -5    4.40    6.40
   3   8  -5    4.40    6.60
  -3  -8   5  -13.30    7.60
   2   8  -5  840.12   39.50
   2   8  -5  829.02   49.99
  -2  -8   5  816.32   53.89
   1   8  -5 1054.09   45.80
   1   8  -5 1120.49   47.10
  -1  -8   5 1073.79   60.29
   0   8  -5   85.39   15.70
   0   8  -5   77.39   13.80
   0  -8   5   69.39   17.80
  -1   8  -5  133.89   16.10
  -1   8  -5  138.59   15.50
   1  -8   5  167.28   17.20
   1  -8   5  172.98   28.60
  -2   8  -5  329.97   26.30
  -2   8  -5  311.37   23.20
   2  -8   5  337.17   24.30
   2  -8   5  390.16   33.80
  -3   8  -5  474.95   33.00
   3  -8   5  475.25   37.40
   3  -8   5  487.55   29.80
  -4   8  -5  439.86   32.60
   4  -8   5  328.77   36.90
   4  -8   5  431.66   35.90
  -5   8  -5  216.28   24.20
   5  -8   5  217.48   26.00
   5  -8   5  208.48   21.80
  -6   8  -5  284.17   28.40
   6  -8   5  256.97   25.50
   6  -8   5  233.18   26.40
  -7   8  -5  113.89   22.60
   7  -8   5  129.29   23.60
   7  -8   5  157.18   25.20
  -8   8  -5   14.30    9.60
   8  -8   5   44.30   10.50
   8  -8   5    9.40   11.90
  -9   8  -5  119.79   24.00
   9  -8   5  116.49   24.20
   9  -8   5  113.29   24.30
   9   7  -5  189.18   36.90
  -9  -7   5  263.87   41.00
   8   7  -5   41.00   17.90
  -8  -7   5   12.80   17.50
   7   7  -5   41.40    9.20
   7   7  -5   31.50   17.10
  -7  -7   5   63.89   16.60
   6   7  -5  127.79   13.80
   6   7  -5  111.79   22.10
  -6  -7   5  126.39   25.00
   5   7  -5   18.70    6.30
   5   7  -5    0.50    6.40
  -5  -7   5   13.10   10.60
   4   7  -5  220.48   23.40
   4   7  -5  147.89   14.90
  -4  -7   5  169.58   30.70
   3   7  -5  496.65   35.50
   3   7  -5  466.55   26.70
  -3  -7   5  516.35   41.60
   2   7  -5   -1.00    4.60
   2   7  -5    0.40    4.50
  -2  -7   5   13.70   11.10
   1   7  -5   52.39   10.10
   1   7  -5   31.80    9.20
  -1  -7   5   65.99   16.90
   0   7  -5  138.89   15.40
   0   7  -5  164.58   16.50
   0  -7   5  176.68   17.40
   0  -7   5  137.49   23.30
  -1   7  -5  133.09   15.20
  -1   7  -5  119.59   13.80
   1  -7   5  114.99   20.80
   1  -7   5  117.79   13.80
  -2   7  -5  390.66   27.40
   2  -7   5  385.36   25.40
   2  -7   5  400.86   32.40
  -3   7  -5   55.89   12.90
   3  -7   5   88.09   18.10
   3  -7   5   95.69   15.30
  -4   7  -5  609.74   37.00
   4  -7   5  608.64   35.20
   4  -7   5  602.74   38.70
  -5   7  -5   69.29   14.70
   5  -7   5   57.79   14.60
   5  -7   5   62.29   15.80
  -6   7  -5  362.06   30.10
   6  -7   5  334.07   29.00
   6  -7   5  317.27   28.40
  -7   7  -5  202.88   23.10
   7  -7   5  167.08   25.70
   7  -7   5  201.98   29.70
  -8   7  -5   45.80   14.10
   8  -7   5   46.20   11.70
  -9   7  -5   87.49   20.50
   9  -7   5   68.99   19.00
   9  -7   5  101.19   21.30
   9   6  -5  246.88   40.70
  -9  -6   5  225.18   36.60
   8   6  -5  131.29   27.40
  -8  -6   5  182.28   33.60
   7   6  -5   30.40   10.00
   7   6  -5   37.80    7.00
  -7  -6   5   29.70    6.40
  -7  -6   5   59.09   18.30
  -7  -6   5   37.90    7.20
   6   6  -5  136.19   19.70
   6   6  -5  154.08   25.00
  -6  -6   5  114.39   11.10
  -6  -6   5  155.18   28.40
   5   6  -5  341.07   30.70
   5   6  -5  353.56   19.80
  -5  -6   5  317.77   34.20
  -5  -6   5  369.06   18.50
   4   6  -5  106.39   19.00
   4   6  -5  118.39   12.30
  -4  -6   5  119.49   23.50
   3   6  -5    5.10    5.30
   3   6  -5   -2.20    3.70
  -3  -6   5  -13.00    4.60
   2   6  -5   25.10    6.50
   2   6  -5   32.80    9.50
  -2  -6   5   18.60   11.30
   1   6  -5  139.19   15.20
   1   6  -5  117.79   12.40
  -1  -6   5  129.79   21.80
   0   6  -5  188.48   16.80
   0   6  -5  163.28   15.30
   0  -6   5  174.48   16.60
   0  -6   5  163.38   20.00
  -1   6  -5   80.69   13.50
  -1   6  -5   64.59   12.50
   1  -6   5   91.59   17.70
   1  -6   5   67.89   12.50
  -2   6  -5  119.69   14.00
   2  -6   5  133.39   14.90
   2  -6   5  133.39   20.40
  -3   6  -5 1042.00   55.99
   3  -6   5  984.40   43.10
   3  -6   5  971.60   46.80
  -4   6  -5 1935.81   66.79
   4  -6   5 1946.81   66.69
   4  -6   5 1987.70   67.99
  -5   6  -5    9.20    6.30
   5  -6   5    1.80    6.80
   5  -6   5    0.90    5.00
  -6   6  -5  337.47   29.20
   6  -6   5  328.57   26.00
   6  -6   5  374.06   31.30
  -7   6  -5  179.78   26.60
   7  -6   5  140.39   25.10
   7  -6   5  143.19   17.30
  -8   6  -5   16.30   11.40
   8  -6   5   13.40   12.00
   8  -6   5   14.60   11.20
  -9   6  -5  -11.60    7.90
   9  -6   5    1.80   10.90
   9  -6   5  -27.90   10.60
 -10   6  -5   -9.50    7.70
  10  -6   5  -18.70   12.80
  10   5  -5   35.50   18.80
 -10  -5   5   59.49   19.00
   9   5  -5  116.69   25.20
  -9  -5   5   88.29   22.90
   8   5  -5  417.96   39.90
  -8  -5   5  333.67   36.40
   7   5  -5    6.90    6.90
  -7  -5   5   -3.80    5.20
   6   5  -5  334.67   14.00
   6   5  -5  345.27   32.40
  -6  -5   5  317.47   12.40
  -6  -5   5  313.67   32.70
   5   5  -5  483.15   34.70
   5   5  -5  450.25   19.20
  -5  -5   5  421.56   36.90
  -5  -5   5  426.86   16.80
   4   5  -5   16.40    7.90
   4   5  -5   24.50    5.50
  -4  -5   5    5.70    7.40
  -4  -5   5   27.20    5.90
   3   5  -5   16.70    7.70
   3   5  -5   28.90    6.40
  -3  -5   5   10.50    8.40
  -3  -5   5   16.30    5.50
   2   5  -5  577.44   31.10
   2   5  -5  541.35   23.90
  -2  -5   5  512.05   36.30
   1   5  -5  102.19   15.00
   1   5  -5   80.29    9.70
  -1  -5   5  114.69   13.40
  -1  -5   5  120.69   19.90
   0   5  -5  628.74   30.40
   0   5  -5  613.34   28.10
   0  -5   5  596.04   29.90
   0  -5   5  552.34   35.00
  -1   5  -5 1499.05   48.80
   1  -5   5 1524.65   50.29
   1  -5   5 1489.75   56.79
  -2   5  -5  642.24   32.10
   2  -5   5  592.44   31.00
   2  -5   5  600.24   34.10
  -3   5  -5  542.95   30.60
   3  -5   5  545.85   31.40
   3  -5   5  495.75   30.20
  -4   5  -5  328.77   25.40
   4  -5   5  360.86   26.70
   4  -5   5  338.67   24.40
  -5   5  -5  508.85   32.60
   5  -5   5  503.85   29.20
   5  -5   5  491.45   34.20
  -6   5  -5    7.40    6.30
   6  -5   5   12.60    6.90
   6  -5   5   35.70   12.20
  -7   5  -5  228.18   23.60
   7  -5   5  277.17   28.80
   7  -5   5  203.68   18.20
  -8   5  -5  338.47   30.10
   8  -5   5  322.17   33.40
   8  -5   5  328.27   22.80
  -9   5  -5    2.90    8.30
   9  -5   5   15.80   10.80
   9  -5   5   -4.20   10.30
 -10   5  -5  -21.00    9.00
  10  -5   5   -7.10   11.60
  10   4  -5    8.20   12.50
 -10  -4   5   -4.30   11.20
   9   4  -5    4.60   11.80
  -9  -4   5   18.40    9.80
   8   4  -5    7.50    6.50
  -8  -4   5   -9.80    8.50
   7   4  -5  238.08   27.10
  -7  -4   5  252.47   30.20
   6   4  -5   67.79   17.70
  -6  -4   5  105.29   22.20
   5   4  -5  436.86   13.90
   5   4  -5  474.05   33.90
  -5  -4   5  459.75   39.10
  -5  -4   5  462.25   13.00
   4   4  -5   39.50    6.50
   4   4  -5   35.60   10.00
  -4  -4   5   44.40    6.10
  -4  -4   5   56.49   15.00
   3   4  -5   10.30    5.70
   3   4  -5   24.30    4.60
  -3  -4   5   13.20    7.40
  -3  -4   5   21.40    4.90
   2   4  -5  109.19   11.40
   2   4  -5  123.49   13.40
  -2  -4   5  128.89   10.50
  -2  -4   5   96.99   17.50
   1   4  -5   99.29    9.70
   1   4  -5  105.59   12.00
  -1  -4   5   88.59   16.60
  -1  -4   5  114.29   10.80
  -1  -4   5  111.59   12.30
   0   4  -5  185.78   14.50
   0   4  -5  190.68   16.00
   0  -4   5  183.28   15.90
   0  -4   5  164.38   17.80
  -1   4  -5  454.75   24.30
   1  -4   5  442.96   27.80
   1  -4   5  414.06   24.60
  -2   4  -5  352.16   22.60
   2  -4   5  368.36   24.10
   2  -4   5  374.76   24.00
  -3   4  -5  347.47   22.40
  -3   4  -5  340.87   23.30
   3  -4   5  375.26   23.30
   3  -4   5  355.36   25.10
  -4   4  -5  243.78   17.10
  -4   4  -5  250.47   21.30
   4  -4   5  229.88   17.70
   4  -4   5  248.38   22.40
  -5   4  -5 1230.58   50.79
  -5   4  -5 1165.88   38.90
   5  -4   5 1249.68   41.90
   5  -4   5 1231.28   59.49
  -6   4  -5   17.80    8.30
  -6   4  -5   27.40    6.60
   6  -4   5   12.00    6.70
   6  -4   5    9.10    8.30
  -7   4  -5  215.48   22.80
   7  -4   5  223.68   26.10
   7  -4   5  232.28   18.20
   7  -4   5  237.08   16.90
  -8   4  -5    5.00    8.80
   8  -4   5    0.70    9.10
   8  -4   5    5.90    5.50
  -9   4  -5   -7.00    8.00
   9  -4   5  -15.50   10.20
 -10   4  -5   -3.30   10.70
  10  -4   5   -0.60   12.90
  11   3  -5   51.59   20.80
 -11  -3   5   47.50   19.10
  10   3  -5   -4.50   11.50
 -10  -3   5   40.40   13.60
  -9  -3   5   42.10   17.60
   8   3  -5   96.29   23.10
  -8  -3   5   77.79   23.20
   7   3  -5  300.07   30.80
  -7  -3   5  290.07   31.60
   6   3  -5   -1.00    3.90
  -6  -3   5    3.70    5.70
   5   3  -5   30.20   10.10
  -5  -3   5   35.90   11.90
   4   3  -5   15.80    6.30
   4   3  -5   19.40    3.00
  -4  -3   5   13.40    7.70
  -4  -3   5   21.20    2.90
   3   3  -5   92.49    6.60
   3   3  -5   65.19   12.10
  -3  -3   5   73.99    6.40
  -3  -3   5  111.29   19.30
   2   3  -5   -2.10    2.00
   2   3  -5    0.30    2.00
  -2  -3   5   -1.70    2.10
  -2  -3   5   -7.10    3.60
   1   3  -5 1588.64   48.10
  -1  -3   5 1585.84   49.00
  -1  -3   5 1505.35   40.30
  -1  -3   5 1523.45   54.89
   0   3  -5 3128.39   67.79
   0   3  -5 3223.18   74.29
   0  -3   5 3225.18   75.39
   0  -3   5 3225.58   81.09
  -1   3  -5   -0.70    2.40
  -1   3  -5    3.00    2.90
   1  -3   5   -2.00    3.00
   1  -3   5   -0.70    3.00
  -2   3  -5  353.56   20.20
  -2   3  -5  354.66   22.10
   2  -3   5  354.36   23.60
   2  -3   5  388.06   22.30
  -3   3  -5  152.88   15.60
  -3   3  -5  193.88   14.40
   3  -3   5  153.38   16.20
   3  -3   5  152.18   13.10
  -4   3  -5  249.08   15.10
  -4   3  -5  265.47   21.30
   4  -3   5  258.57   23.40
   4  -3   5  261.97   16.20
  -5   3  -5  230.28   13.60
  -5   3  -5  251.57   27.50
   5  -3   5  255.37   14.70
   5  -3   5  220.08   13.70
  -6   3  -5   55.29   13.40
   6  -3   5   65.19   16.00
   6  -3   5   60.79    7.00
   6  -3   5   54.29    7.40
  -7   3  -5    9.40    7.70
   7  -3   5   -3.10    5.10
   7  -3   5   -1.70    3.30
   7  -3   5    3.80    2.90
  -8   3  -5   -3.80    6.70
   8  -3   5    7.80    9.90
  -9   3  -5    4.10    8.60
   9  -3   5    6.10   11.90
 -10   3  -5   37.50   13.30
  10  -3   5   47.10   21.60
  11   2  -5   45.50   18.10
  10   2  -5  174.08   32.50
 -10  -2   5  181.28   31.60
   9   2  -5  218.08   35.10
  -9  -2   5  230.08   36.00
   8   2  -5  120.29   24.80
  -8  -2   5  142.59   27.80
   7   2  -5  314.87   30.30
  -7  -2   5  254.17   28.60
   6   2  -5   33.20   10.90
  -6  -2   5   16.40    8.70
   5   2  -5    2.20    3.30
  -5  -2   5    8.80    6.20
   4   2  -5   22.90    8.20
  -4  -2   5   42.10   11.80
   3   2  -5  333.17   12.80
   3   2  -5  350.46   11.60
   3   2  -5  321.67   22.00
  -3  -2   5  302.57   25.50
   2   2  -5  455.65   16.90
   2   2  -5  460.35   24.80
   2   2  -5  435.46   17.90
  -2  -2   5  483.85   18.00
  -2  -2   5  465.15   29.70
   1   2  -5    2.20    3.30
   1   2  -5    6.70    3.20
   1   2  -5    4.10    3.10
  -1  -2   5    4.40    3.20
  -1  -2   5    4.00    2.80
  -1  -2   5    5.50    4.80
   0   2  -5  149.69   12.10
   0   2  -5  168.98   14.70
   0   2  -5  130.29   11.80
   0  -2   5  161.58   14.10
   0  -2   5  151.78   12.10
   0  -2   5  161.28   15.20
  -1   2  -5  282.17   18.00
  -1   2  -5  300.87   18.60
   1  -2   5  299.87   19.10
   1  -2   5  263.07   18.80
  -2   2  -5   64.29   11.30
  -2   2  -5   85.39    8.90
   2  -2   5   67.49   12.10
   2  -2   5   73.09   10.60
  -3   2  -5  119.59    9.50
  -3   2  -5  143.09   14.60
   3  -2   5  117.09   17.60
   3  -2   5  132.59   10.30
  -4   2  -5 1001.50   42.40
  -4   2  -5  983.70   24.20
   4  -2   5  922.31   45.20
   4  -2   5 1002.30   25.70
  -5   2  -5  151.98   17.20
   5  -2   5  172.78   37.60
  -6   2  -5   62.09   13.50
   6  -2   5   57.39   15.80
  -7   2  -5   55.29   15.00
   7  -2   5   33.10   12.20
  -8   2  -5  123.29   21.90
   8  -2   5  109.89   23.00
  -9   2  -5   43.50   13.40
   9  -2   5   29.70   12.80
 -10   2  -5   38.70   13.10
  10  -2   5   18.30   10.80
  11   1  -5   23.60   19.20
  11   1  -5   12.70   15.30
 -11  -1   5    1.90   16.00
  10   1  -5   46.00   20.20
 -10  -1   5   49.20   15.40
   9   1  -5  541.15   44.70
  -9  -1   5  481.85   43.00
   8   1  -5  188.08   29.50
  -8  -1   5  187.18   30.50
   7   1  -5  175.88   27.60
  -7  -1   5  209.68   31.40
  -6  -1   5   15.30    8.60
   5   1  -5    0.70    4.50
  -5  -1   5    7.00    6.90
   4   1  -5  169.58   16.90
  -4  -1   5  151.48   22.30
   3   1  -5   49.50    9.40
   3   1  -5   44.70    4.10
   3   1  -5   43.90    4.90
  -3  -1   5   44.10   11.90
   2   1  -5  186.38   14.80
   2   1  -5  199.48   10.90
   2   1  -5  207.28   12.10
  -2  -1   5  187.98   18.20
   1   1  -5   81.19    9.10
   1   1  -5   78.89    8.00
   1   1  -5   91.69    9.90
   1   1  -5   84.89   13.40
  -1  -1   5   87.69   13.80
  -1  -1   5   69.39   10.80
   0   1  -5   64.69   10.90
   0   1  -5   52.79    9.30
   0   1  -5   68.59   10.10
   0  -1   5   55.09    9.70
   0  -1   5   45.80    8.60
   0  -1   5   57.19   10.40
  -1   1  -5 2091.29   51.09
  -1   1  -5 2001.90   54.09
   1  -1   5 2083.29   52.19
   1  -1   5 2091.49   57.39
  -2   1  -5   54.09   10.40
  -2   1  -5   66.19    7.20
   2  -1   5   49.60   10.30
   2  -1   5   75.49    7.60
  -3   1  -5   13.20    5.40
  -3   1  -5   23.20    3.80
   3  -1   5   13.90    5.40
   3  -1   5   26.30    4.10
  -4   1  -5  115.69   17.10
   4  -1   5  153.08   17.80
  -5   1  -5   95.59   16.50
  -6   1  -5   82.89   15.80
   6  -1   5  112.69   21.90
  -7   1  -5   49.00   12.80
   7  -1   5   49.00   15.90
  -8   1  -5   57.19   15.00
   8  -1   5   60.89   17.70
  -9   1  -5   17.60    9.90
   9  -1   5   17.10   11.20
 -10   1  -5   30.30   12.60
  10  -1   5   32.50   17.90
  11   0  -5  192.08   33.20
  11   0  -5  201.48   35.60
 -11   0   5  170.78   30.50
  10   0  -5   13.10   11.40
  10   0  -5  -10.10   10.10
 -10   0   5   -7.10    8.30
   9   0  -5    1.70    8.60
   9   0  -5   -1.60    9.50
  -9   0   5    5.10   10.40
   8   0  -5   -0.50    6.40
  -8   0   5   18.40    8.40
   7   0  -5  217.98   24.40
  -7   0   5  290.17   30.30
   6   0  -5   19.30    8.00
  -6   0   5    8.60    7.10
   5   0  -5  157.28   17.50
  -5   0   5  182.18   26.40
   4   0  -5  126.19    5.90
   4   0  -5  125.49    6.10
   4   0  -5  105.69   12.80
  -4   0   5  114.79   19.60
   3   0  -5    6.40    2.40
   3   0  -5    3.60    2.30
   3   0  -5    5.90    2.40
  -3   0   5    5.80    2.30
  -3   0   5    8.90    5.10
   2   0  -5  342.77   16.40
   2   0  -5  297.17   14.80
   2   0  -5  342.87   19.60
  -2   0   5  291.37   22.60
  -2   0   5  329.07   16.20
   1   0  -5    5.30    3.70
   1   0  -5    4.00    2.60
   1   0  -5    5.90    3.20
   1   0  -5    5.30    4.50
  -1   0   5    8.60    3.50
  -1   0   5   10.30    4.70
  -1   0   5   11.20    3.90
   0   0  -5  181.38   14.80
   0   0  -5  198.48   15.10
   0   0  -5  200.28   14.30
   0   0   5  195.28   14.80
   0   0   5  185.68   14.70
   0   0   5  171.78   15.00
  -1   0  -5  300.67   17.20
  -1   0  -5  345.37   20.70
   1   0   5  299.47   20.10
   1   0   5  293.87   19.40
   1   0   5  337.47   18.20
  -2   0  -5  312.27   14.30
  -2   0  -5  310.27   13.90
  -2   0  -5  308.97   20.90
   2   0   5  359.96   23.40
   2   0   5  303.17   14.10
   2   0   5  273.47   20.40
  -3   0  -5  438.66   26.60
   3   0   5  456.55   28.90
  -4   0  -5   35.50    9.90
   4   0   5   23.10    9.70
  -5   0  -5  155.38   17.50
   5   0   5  151.58   30.80
  -6   0  -5  120.79   19.50
   6   0   5   86.69   19.10
  -7   0  -5  146.19   22.40
   7   0   5  124.59   24.60
  -8   0  -5   -0.20    7.00
   8   0   5    9.30    8.80
  -9   0  -5  301.47   28.50
   9   0   5  328.97   37.40
 -10   0  -5  -23.20   10.30
  10   0   5   15.90   12.70
  11  -1  -5   22.00   13.70
  11  -1  -5   53.29   18.70
 -11   1   5   65.19   20.40
  10  -1  -5   40.90   12.90
 -10   1   5   46.00   16.50
   9  -1  -5    2.70    6.90
  -9   1   5   -6.80   10.90
   8  -1  -5    1.10    9.70
   8  -1  -5    6.80    9.20
  -8   1   5   -8.90    5.20
   7  -1  -5  104.99   20.70
   7  -1  -5  173.88   26.10
  -7   1   5  180.68   28.60
   6  -1  -5   54.99    4.20
   6  -1  -5   74.29   15.70
  -6   1   5   45.90    4.20
  -6   1   5   51.99   18.40
   5  -1  -5  194.08    8.90
   5  -1  -5  223.78   20.00
  -5   1   5  197.28   22.80
  -5   1   5  197.28   10.30
   4  -1  -5  673.33   20.30
   4  -1  -5  719.23   32.90
  -4   1   5  730.33   41.40
  -4   1   5  685.43   22.50
   3  -1  -5  303.37   15.00
   3  -1  -5  297.27   18.60
  -3   1   5  296.57   24.40
  -3   1   5  281.27   15.20
   2  -1  -5  104.19    9.80
   2  -1  -5  109.19   10.80
   2  -1  -5   95.39    9.70
  -2   1   5   97.59    9.60
  -2   1   5   98.59   16.00
   1  -1  -5   54.49    9.00
   1  -1  -5   47.70    8.60
   1  -1  -5   51.39    8.70
   1  -1  -5   44.80   12.00
  -1   1   5   55.99    9.90
  -1   1   5   52.59   10.30
  -1   1   5   42.00    7.80
   0  -1  -5    1.10    3.20
   0  -1  -5    6.70    3.40
   0  -1  -5   11.60    4.80
   0  -1  -5    3.40    3.40
   0   1   5   10.90    4.80
   0   1   5    8.20    3.70
   0   1   5    7.50    4.50
  -1  -1  -5    5.30    3.50
  -1  -1  -5    9.60    4.30
  -1  -1  -5    4.20    2.50
   1   1   5   10.20    4.90
   1   1   5    6.70    3.60
   1   1   5   16.30    5.10
  -2  -1  -5  237.78   13.30
  -2  -1  -5  241.38   12.50
  -2  -1  -5  241.28   19.20
   2   1   5  281.57   21.40
   2   1   5  250.97   19.40
  -3  -1  -5   51.19    3.70
  -3  -1  -5   71.49   13.40
  -3  -1  -5   57.19    4.00
   3   1   5   71.79   13.30
   3   1   5   56.39   12.30
  -4  -1  -5    0.80    4.00
   4   1   5    1.40    5.30
   4   1   5    4.90    4.70
  -5  -1  -5   47.20   12.30
   5   1   5   18.50    9.10
  -6  -1  -5  719.53   41.00
   6   1   5  784.22   48.20
  -7  -1  -5  580.04   38.00
   7   1   5  642.14   47.20
  -8  -1  -5   -8.70    7.70
  -9  -1  -5  103.39   20.70
   9   1   5  103.29   23.60
 -10  -1  -5   58.19   16.10
  10   1   5   25.50   17.80
  11  -2  -5    8.00   12.80
  11  -2  -5   13.60   14.80
 -11   2   5    6.50   13.10
  10  -2  -5   92.49   23.30
  10  -2  -5  119.49   25.60
 -10   2   5  120.09   24.40
   9  -2  -5   -2.30    8.80
   9  -2  -5   12.50    9.10
  -9   2   5    5.20    3.50
  -9   2   5   -6.70    3.10
  -9   2   5   -8.90    7.40
   8  -2  -5   13.10   11.50
   8  -2  -5   20.70    8.80
  -8   2   5    5.90    8.90
  -8   2   5    7.80    4.20
   7  -2  -5  133.89   23.40
   7  -2  -5  142.19    9.30
  -7   2   5  162.08   27.10
  -7   2   5  149.09   10.50
   6  -2  -5  969.00   52.79
   6  -2  -5 1012.20   27.50
   6  -2  -5 1033.00   46.90
  -6   2   5  960.80   54.59
  -6   2   5 1079.19   31.20
   5  -2  -5   54.89   14.40
   5  -2  -5   58.59   11.70
   5  -2  -5   75.39   14.30
  -5   2   5   62.59    8.70
  -5   2   5   48.00   12.90
   4  -2  -5   37.00    6.80
   4  -2  -5   46.90    9.20
   4  -2  -5   30.30   10.40
  -4   2   5   41.70   12.60
  -4   2   5   53.39    8.20
   3  -2  -5  320.97   25.10
   3  -2  -5  318.27   17.20
   3  -2  -5  309.97   18.50
  -3   2   5  336.97   19.00
  -3   2   5  304.57   25.20
  -3   2   5  338.97   29.70
   2  -2  -5  306.17   17.10
   2  -2  -5  306.07   23.00
   2  -2  -5  278.87   17.90
   2  -2  -5  315.77   17.20
  -2   2   5  360.26   25.70
  -2   2   5  329.97   19.80
   1  -2  -5  226.28   18.20
   1  -2  -5  263.47   16.20
  -1   2   5  274.37   18.90
  -1   2   5  241.88   19.80
   0  -2  -5 1794.62   49.99
   0  -2  -5 1803.12   54.09
   0  -2  -5 1792.52   51.39
   0   2   5 1835.62   53.19
   0   2   5 1771.22   54.59
   0   2   5 1789.52   47.20
  -1  -2  -5  472.65   24.00
  -1  -2  -5  475.85   22.40
   1   2   5  492.35   28.40
   1   2   5  487.95   24.60
  -2  -2  -5   29.00    8.40
  -2  -2  -5   42.80    7.10
  -2  -2  -5   46.90    8.00
   2   2   5   39.00   10.50
   2   2   5   52.49   10.60
  -3  -2  -5    0.10    2.90
  -3  -2  -5   -0.20    2.00
  -3  -2  -5    0.70    2.20
   3   2   5   -2.90    3.30
   3   2   5   -2.70    1.80
  -4  -2  -5    5.40    4.60
   4   2   5    3.10    4.50
   4   2   5    1.10    5.30
  -5  -2  -5   -0.20    3.60
   5   2   5    6.20    6.10
   5   2   5   -0.60    5.20
  -6  -2  -5   56.19   14.00
   6   2   5   57.69   16.40
   6   2   5   36.10   11.00
  -7  -2  -5   50.89   13.90
   7   2   5   41.30   14.60
  -8  -2  -5   70.39   15.20
   8   2   5   67.39   19.10
  -9  -2  -5   -3.40   10.20
   9   2   5    2.50   14.80
 -10  -2  -5   37.80   15.40
  10   2   5   63.49   22.40
  11  -3  -5   -2.00   13.10
  11  -3  -5    3.20   12.60
  10  -3  -5   -9.40    7.90
  10  -3  -5   17.80   10.60
 -10   3   5   12.50   10.80
   9  -3  -5    0.50    8.20
   9  -3  -5    0.40    8.50
  -9   3   5   -0.30    5.40
   8  -3  -5    1.60    8.40
   8  -3  -5   18.50    9.80
  -8   3   5   -3.70    4.50
  -8   3   5    9.20    8.50
   7  -3  -5    6.00    5.90
   7  -3  -5   -6.90    4.10
   7  -3  -5    4.00    6.70
  -7   3   5    1.50    6.30
  -7   3   5    6.30    5.30
   6  -3  -5 1311.27   52.19
   6  -3  -5 1333.67   62.89
   6  -3  -5 1210.68   36.00
  -6   3   5 1246.28   40.00
  -6   3   5 1256.57   63.19
   5  -3  -5   16.10    6.80
   5  -3  -5   27.60    9.50
   5  -3  -5   28.30    7.20
  -5   3   5   17.50    6.60
  -5   3   5   10.00    5.50
   4  -3  -5  107.29   19.00
   4  -3  -5  100.89   11.30
  -4   3   5   83.79   16.90
  -4   3   5  100.89   13.80
   3  -3  -5  538.65   23.60
   3  -3  -5  523.35   22.70
   3  -3  -5  504.75   32.60
  -3   3   5  558.54   27.40
  -3   3   5  544.55   34.50
   2  -3  -5 1534.95   39.80
   2  -3  -5 1512.35   55.39
   2  -3  -5 1515.35   40.60
  -2   3   5 1532.65   57.09
  -2   3   5 1613.94   50.49
   1  -3  -5  976.40   32.30
   1  -3  -5  999.60   41.50
   1  -3  -5  954.90   29.70
  -1   3   5 1023.70   41.20
  -1   3   5 1022.80   31.10
   0  -3  -5   21.90    6.70
   0  -3  -5   18.40    5.60
   0   3   5   17.50    6.30
   0   3   5   18.20    6.90
  -1  -3  -5  107.49   14.90
  -1  -3  -5  105.09   11.90
   1   3   5  116.29   11.70
   1   3   5  101.69   16.20
  -2  -3  -5    5.10    4.00
   2   3   5   -2.70    3.70
   2   3   5    1.10    2.50
  -3  -3  -5   -3.30    1.70
  -3  -3  -5   -4.60    2.10
  -3  -3  -5   -1.20    4.00
   3   3   5   -1.30    3.80
   3   3   5   -0.80    3.10
   3   3   5    5.10    4.30
  -4  -3  -5    0.70    3.50
  -4  -3  -5   -2.00    2.40
  -4  -3  -5   10.20    3.10
   4   3   5   -7.80    5.40
   4   3   5    2.30    4.10
  -5  -3  -5  207.18   22.20
   5   3   5  206.58   23.40
   5   3   5  241.48   24.80
  -6  -3  -5   71.59   15.30
   6   3   5   85.39   18.20
   6   3   5   68.89   19.30
  -7  -3  -5  129.69   22.70
   7   3   5  124.19   23.30
   7   3   5  190.18   31.60
  -8  -3  -5   43.60   11.20
   8   3   5   39.40   24.00
  -9  -3  -5   -3.10   11.10
   9   3   5   25.50   15.10
  11  -4  -5   -6.10   15.60
  11  -4  -5   26.60   12.60
  10  -4  -5   43.20   13.00
  10  -4  -5   39.10   14.10
 -10   4   5   50.49   12.00
   9  -4  -5  155.48   25.40
   9  -4  -5  172.48   31.40
  -9   4   5  141.39   15.30
   8  -4  -5  568.24   45.60
   8  -4  -5  494.25   36.10
  -8   4   5  501.15   26.60
   7  -4  -5   43.30   10.20
   7  -4  -5   35.70   12.80
  -7   4   5   58.29   11.40
   6  -4  -5  464.25   37.20
   6  -4  -5  436.66   28.30
  -6   4   5  456.45   38.10
  -6   4   5  453.45   25.80
   5  -4  -5  253.47   26.20
   5  -4  -5  300.87   21.40
  -5   4   5  285.97   20.40
   4  -4  -5   53.39   14.10
   4  -4  -5   49.40    8.70
   4  -4  -5   44.80    8.60
  -4   4   5   61.59   11.90
  -4   4   5   40.20    7.70
   3  -4  -5  129.49   10.90
   3  -4  -5  147.19   10.80
   3  -4  -5  149.79   18.20
  -3   4   5  127.19   14.30
   2  -4  -5  318.17   16.10
   2  -4  -5  304.67   14.90
   2  -4  -5  300.27   24.60
  -2   4   5  317.17   23.00
   1  -4  -5  100.79    9.80
   1  -4  -5   90.59    8.10
   1  -4  -5  126.99   18.20
  -1   4   5   93.39    8.60
  -1   4   5  109.09   16.90
   0  -4  -5    6.80    4.30
   0  -4  -5    9.90    5.20
   0   4   5    5.80    3.70
   0   4   5    7.50    5.00
  -1  -4  -5   12.00    6.30
   1   4   5   18.90    5.80
   1   4   5   27.90    8.30
  -2  -4  -5   96.59   11.10
   2   4   5  113.69   13.30
   2   4   5  114.29   19.00
  -3  -4  -5  589.64   27.20
  -3  -4  -5  569.74   27.30
   3   4   5  544.15   32.50
   3   4   5  581.74   26.70
   3   4   5  602.34   38.40
  -4  -4  -5  142.89   22.10
  -4  -4  -5  145.99   12.70
  -4  -4  -5  149.88   13.20
   4   4   5  192.68   20.80
   4   4   5  152.38   12.40
   4   4   5  147.29   22.90
  -5  -4  -5  356.56   17.40
  -5  -4  -5  353.76   18.00
  -5  -4  -5  352.36   30.00
   5   4   5  313.87   29.10
   5   4   5  336.97   29.70
   5   4   5  317.57   16.50
  -6  -4  -5   34.70   12.70
  -6  -4  -5   21.40    3.80
  -6  -4  -5   26.70    4.10
   6   4   5   43.80   14.00
   6   4   5   15.60   10.00
  -7  -4  -5  183.18   28.00
   7   4   5  155.88   29.20
   7   4   5  225.68   26.40
  -8  -4  -5   15.30    8.40
   8   4   5   33.10   16.20
  -9  -4  -5  132.49   23.30
   9   4   5  125.39   30.00
  11  -5  -5   44.00   16.90
  11  -5  -5    8.00   16.40
  10  -5  -5  141.79   23.00
  10  -5  -5   95.19   25.80
 -10   5   5  124.29   20.00
   9  -5  -5  -10.10   10.00
   9  -5  -5   15.70    9.00
  -9   5   5   14.20    8.40
   8  -5  -5   44.10   13.60
   8  -5  -5   19.40   11.00
  -8   5   5   15.10    8.60
   7  -5  -5  137.39   24.70
   7  -5  -5  155.78   17.30
  -7   5   5  132.29   15.30
   6  -5  -5   15.20    6.60
   6  -5  -5   55.69   16.40
  -6   5   5   28.70    9.30
   5  -5  -5  979.50   54.49
   5  -5  -5  916.31   35.70
  -5   5   5  936.51   41.40
   4  -5  -5  609.54   40.80
   4  -5  -5  568.34   22.40
   4  -5  -5  559.74   24.00
  -4   5   5  636.24   34.40
   3  -5  -5  616.84   39.30
   3  -5  -5  594.64   21.20
   3  -5  -5  586.34   21.50
  -3   5   5  646.64   35.00
   2  -5  -5  234.98   23.30
   2  -5  -5  260.37   13.70
   2  -5  -5  285.87   13.10
  -2   5   5  225.98   20.80
   1  -5  -5  117.59   19.00
   1  -5  -5  145.19   10.90
   1  -5  -5  141.39    8.90
  -1   5   5  133.69   19.80
  -1   5   5  133.19    9.00
   0  -5  -5  266.37   22.60
   0  -5  -5  244.08   16.50
   0   5   5  250.37   22.80
   0   5   5  294.37   15.60
  -1  -5  -5   17.90    6.90
  -1  -5  -5    3.80    5.20
   1   5   5    9.30    5.20
   1   5   5    9.40    5.10
  -2  -5  -5   -2.50    4.30
   2   5   5   -3.30    3.80
   2   5   5   -0.10    3.70
  -3  -5  -5 1237.18   46.20
   3   5   5 1236.98   58.19
   3   5   5 1277.77   50.79
  -4  -5  -5   63.09   11.40
   4   5   5   37.90   12.30
   4   5   5   55.99   15.10
  -5  -5  -5   56.19   11.00
  -5  -5  -5   81.69    9.90
  -5  -5  -5   58.99   16.00
   5   5   5   26.90   11.60
   5   5   5   62.79   17.80
   5   5   5   69.09   13.50
  -6  -5  -5   58.49   14.80
  -6  -5  -5   69.29   10.70
   6   5   5   80.09   20.00
   6   5   5   85.89   19.50
  -7  -5  -5  107.59   22.40
   7   5   5  118.39   24.30
   7   5   5  153.48   27.10
  -8  -5  -5   53.39   13.70
   8   5   5   37.10   13.90
   8   5   5   40.40   15.10
  -9  -5  -5  112.89   23.30
   9   5   5   73.59   22.80
  10  -6  -5  130.19   29.60
  10  -6  -5  156.78   26.40
 -10   6   5  142.89   22.50
   9  -6  -5    9.10    9.20
   9  -6  -5    8.10    9.80
  -9   6   5   -8.90    7.60
   8  -6  -5   38.70   10.60
   8  -6  -5   45.30   16.00
   7  -6  -5  328.27   34.70
   7  -6  -5  267.27   22.30
  -7   6   5  222.08   22.10
   6  -6  -5  328.37   33.20
   6  -6  -5  371.26   23.00
  -6   6   5  356.36   27.90
   5  -6  -5 1023.40   57.89
   5  -6  -5  958.00   36.10
   5  -6  -5  967.90   30.80
  -5   6   5 1089.19   48.40
   4  -6  -5   25.40    5.90
   4  -6  -5   18.90    9.60
   4  -6  -5   26.00    5.50
  -4   6   5   44.20   11.80
   3  -6  -5   85.79    6.60
   3  -6  -5   96.39    6.80
   3  -6  -5  108.59   21.40
  -3   6   5  107.09   18.60
   2  -6  -5  116.89    7.10
   2  -6  -5   91.09   22.10
   2  -6  -5  117.99    6.30
  -2   6   5  110.39   18.20
   1  -6  -5   89.59    7.80
   1  -6  -5   88.49    6.20
   1  -6  -5  100.09   17.70
   0  -6  -5  149.19   12.00
   0  -6  -5  158.48   18.60
   0   6   5  152.78   10.50
   0   6   5  170.38   24.80
  -1  -6  -5    5.60    6.70
  -1  -6  -5   -6.00    5.30
   1   6   5    4.80    4.60
   1   6   5   14.30    6.60
  -2  -6  -5   35.10   11.10
   2   6   5   33.70    8.20
   2   6   5   38.20   12.30
  -3  -6  -5   90.09   16.00
   3   6   5   78.39   19.10
   3   6   5   98.99   16.60
  -4  -6  -5   -0.60    6.30
   4   6   5    1.40    6.80
   4   6   5   20.00    8.80
  -5  -6  -5  280.17   22.30
   5   6   5  229.48   25.50
   5   6   5  318.07   32.00
  -6  -6  -5  169.18   17.60
  -6  -6  -5  201.78   30.20
   6   6   5  179.68   28.40
   6   6   5  183.08   30.20
  -7  -6  -5   94.79   20.00
   7   6   5   85.99   22.10
   7   6   5   97.39   21.90
  -8  -6  -5  428.26   39.70
   8   6   5  408.46   41.40
   8   6   5  448.76   40.50
  10  -7  -5  110.79   20.20
  10  -7  -5   34.50   22.00
 -10   7   5   93.19   23.00
   9  -7  -5   36.20   13.70
   9  -7  -5   57.89   21.50
  -9   7   5   31.40   14.20
   8  -7  -5   -9.00    8.90
   8  -7  -5   12.90   12.50
  -8   7   5   22.80    9.70
   7  -7  -5  111.29   24.60
   7  -7  -5   83.29   14.90
  -7   7   5   60.79   14.50
   6  -7  -5  153.88   28.10
   6  -7  -5   95.29   10.30
  -6   7   5  108.49   20.60
   5  -7  -5   35.30    6.20
   5  -7  -5   43.10    6.20
   5  -7  -5   54.59   17.30
  -5   7   5   42.20   13.00
   4  -7  -5  163.48   28.20
  -4   7   5  233.58   24.00
   3  -7  -5   52.09   15.30
  -3   7   5   58.39   14.60
   2  -7  -5   57.19   16.40
  -2   7   5   47.50   12.80
   1  -7  -5   51.79   13.70
  -1   7   5   58.99   15.30
   0  -7  -5    7.10    3.90
   0  -7  -5   11.00    8.00
   0   7   5    2.40    5.90
   0   7   5    7.10    3.20
  -1  -7  -5 1024.80   51.19
  -1  -7  -5  902.31   33.50
   1   7   5  951.10   53.29
  -2  -7  -5  275.27   25.80
   2   7   5  297.87   20.90
   2   7   5  282.07   29.20
  -3  -7  -5  468.85   33.90
   3   7   5  475.15   39.10
   3   7   5  521.15   31.80
  -4  -7  -5   58.69   14.60
   4   7   5   61.49   18.60
   4   7   5   82.09   17.70
  -5  -7  -5  148.49   17.60
   5   7   5  146.89   28.00
   5   7   5  183.08   27.10
  -6  -7  -5  165.28   19.10
  -6  -7  -5  126.79   26.50
   6   7   5  166.28   30.20
   6   7   5  161.88   29.50
  -7  -7  -5   61.79   17.40
   7   7   5  139.09   25.90
   9  -8  -5  133.69   33.90
   9  -8  -5  217.98   31.20
  -9   8   5  172.58   24.90
   8  -8  -5   19.20   18.20
   8  -8  -5  106.69   12.70
  -8   8   5   54.99   17.10
   7  -8  -5   76.99   20.30
  -7   8   5   85.29   18.20
   6  -8  -5  190.18   33.00
   6  -8  -5  184.58    8.70
  -6   8   5  219.18   24.40
   5  -8  -5   99.69   22.90
  -5   8   5  104.29   20.80
   4  -8  -5  242.68   28.90
  -4   8   5  252.07   26.90
   3  -8  -5   87.19   20.90
  -3   8   5   62.09   16.20
   2  -8  -5  159.48   27.80
  -2   8   5  179.88   27.30
   1  -8  -5 1452.65   69.19
  -1   8   5 1416.46   66.89
   0  -8  -5  315.37    8.20
   0  -8  -5  272.37   28.20
   0  -8  -5  309.57    7.90
   0   8   5  298.47   29.30
  -1  -8  -5  -11.80    4.10
  -1  -8  -5    4.70    8.40
   1   8   5    3.80    4.20
   1   8   5    1.70    7.20
  -2  -8  -5  -15.60    5.80
   2   8   5    0.10    4.50
   2   8   5    4.50    8.30
  -3  -8  -5  368.36   33.00
   3   8   5  407.56   27.90
   3   8   5  406.86   38.20
  -4  -8  -5   27.70   11.10
   4   8   5   36.00   13.30
   4   8   5   31.70   14.20
   5   8   5    8.50    8.00
   5   8   5    1.40   11.60
  -6  -8  -5  227.28   23.50
  -6  -8  -5  160.78   30.00
   6   8   5  203.68   33.70
   6   8   5  199.28   30.50
   8  -9  -5  -17.40    8.40
  -8   9   5   -7.00   10.80
   7  -9  -5  -12.00   11.10
  -7   9   5   -3.80   10.90
   6  -9  -5  -19.50   10.80
  -6   9   5   29.40   11.50
  -5   9   5  219.28   25.10
   4  -9  -5  102.79   22.20
  -4   9   5   57.19   15.50
   3  -9  -5   59.89   19.20
  -3   9   5   92.19   23.00
   2  -9  -5   73.69   20.90
  -2   9   5   64.29   18.30
   1  -9  -5   -1.50    3.80
  -1   9   5   -8.90    5.00
   0  -9  -5   32.90   11.20
   0   9   5    7.00    8.00
  -1  -9  -5   26.00   13.20
   1   9   5   15.90   11.30
   1   9   5   20.70    4.70
  -2  -9  -5    8.70    7.40
   2   9   5   12.50    6.80
   2   9   5   21.00    6.40
  -3  -9  -5   36.90   10.40
   3   9   5   17.40   12.90
   3   9   5   18.10    8.60
  -4  -9  -5  941.71   54.89
   4   9   5  845.32   44.50
   4   9   5  839.12   59.39
  -5  -9  -5   -1.70    9.90
   5   9   5   33.30   14.40
   5   9   5   -0.40   11.80
  -6  -9  -5   -0.70   14.50
   6   9   5   -3.30   13.60
   7 -10  -5   10.80   10.40
  -7  10   5    6.80   11.90
   6 -10  -5   10.10   10.50
  -6  10   5   -3.30   11.90
   5 -10  -5   20.10   13.60
  -5  10   5    9.10    8.40
   4 -10  -5  110.39   24.80
   3 -10  -5  454.35   54.49
  -3  10   5  481.55   58.49
   2 -10  -5  343.57   37.20
   1 -10  -5   32.80   11.40
  -1  10   5   11.90    8.80
   0 -10  -5   22.50   15.00
   0  10   5   14.30   11.80
  -1 -10  -5   -6.60    9.80
   1  10   5   18.10   12.10
  -2 -10  -5   -9.20    7.60
   2  10   5   23.40   12.20
  -3 -10  -5    2.50    7.40
   3  10   5    0.20   11.40
   3  10   5    9.70    9.90
  -4 -10  -5   47.40   17.10
   4  10   5   68.99   20.70
   4  10   5   24.20   19.80
   6 -11  -5   42.40   22.20
  -6  11   5   30.40   15.30
   5 -11  -5  355.06   42.20
  -5  11   5  443.56   42.50
   4 -11  -5  644.04   56.89
  -4  11   5  605.74   49.90
   3 -11  -5   15.60    9.10
  -3  11   5   28.30   13.40
   2 -11  -5   25.00   17.00
  -2  11   5   14.50    9.80
   1 -11  -5   -5.90    8.20
  -1  11   5    3.60    7.40
   0 -11  -5    9.50    8.10
   0  11   5  -10.40   11.10
  -1 -11  -5   31.70   12.10
   1  11   5   23.00    8.40
  -2 -11  -5   -7.20   11.20
   2  11   5   18.70   14.10
  -3 -11  -5    7.80   14.50
   3  11   5   17.60   13.30
   4 -12  -5   19.90   18.20
  -4  12   5  -10.40   12.90
   3 -12  -5   -9.20   11.60
  -3  12   5   -8.60   13.10
   2 -12  -5   -2.50    9.60
  -2  12   5   16.40   10.70
   1 -12  -5   64.59   22.70
  -1  12   5   49.30   18.80
   0 -12  -5   22.20   17.50
   0  12   5   20.00   15.90
   1  13  -6   41.10   18.60
   1  13  -6   30.80   18.00
  -1 -13   6   29.80   18.80
   0  13  -6    1.50   12.20
   0  13  -6    4.40   13.80
   0 -13   6   24.30   16.40
  -1  13  -6   35.60   15.60
  -1  13  -6   35.80   15.10
   1 -13   6   49.10   22.40
  -2  13  -6    3.20   12.00
  -2  13  -6  -12.40   12.50
   2 -13   6  -26.50   16.20
   4  12  -6   17.50   17.90
   4  12  -6   11.30   13.70
   3  12  -6  120.69   27.70
   3  12  -6   68.19   21.00
  -3 -12   6   84.79   26.70
   2  12  -6   40.70   16.10
  -2 -12   6   66.99   20.30
   1  12  -6   36.20   13.80
   1  12  -6   87.99   19.40
  -1 -12   6   58.99   17.30
   0  12  -6   52.39   14.00
   0  12  -6   34.20   13.20
   0 -12   6   24.60   17.10
  -1  12  -6   37.70   14.10
  -1  12  -6   63.49   17.50
   1 -12   6   27.50   14.30
  -2  12  -6   -5.60   10.10
  -2  12  -6    1.60   10.50
   2 -12   6   -1.00   14.60
  -3  12  -6   27.20   11.70
  -3  12  -6   20.20   11.90
   3 -12   6   20.60   17.90
  -4  12  -6   28.00   14.50
  -4  12  -6    0.70    9.60
   4 -12   6    9.80    9.90
   4 -12   6   -4.10    7.20
  -5  12  -6    1.40   10.30
  -5  12  -6    3.60    9.60
   5 -12   6   39.10   14.10
   5 -12   6   32.90   10.40
   5  11  -6  303.37   27.00
   5  11  -6  251.27   36.10
  -5 -11   6  297.77   50.69
   4  11  -6  223.68   26.00
   4  11  -6  191.48   23.20
  -4 -11   6  157.98   34.70
   3  11  -6  116.69   20.90
   3  11  -6   57.79   16.10
  -3 -11   6   77.39   21.70
   2  11  -6  278.37   26.10
   2  11  -6  251.17   26.30
  -2 -11   6  289.47   47.10
   1  11  -6    7.70   12.00
   1  11  -6   63.59   15.60
  -1 -11   6   38.10   19.10
   0  11  -6   86.09   18.50
   0  11  -6   88.79   16.80
   0 -11   6  113.19   25.00
  -1  11  -6   77.29   18.80
  -1  11  -6   63.09   13.20
  -2  11  -6   11.40    8.20
  -2  11  -6    6.40    7.40
   2 -11   6    6.40   14.10
  -3  11  -6   18.50   10.90
  -3  11  -6   26.50   12.20
   3 -11   6    1.10    8.30
   3 -11   6   26.50   13.30
  -4  11  -6   10.30    9.10
  -4  11  -6    7.40    7.50
   4 -11   6    0.80    7.80
  -5  11  -6    2.70    7.10
  -5  11  -6    0.60    8.80
   5 -11   6    3.10    8.10
   5 -11   6    2.80   11.80
  -6  11  -6   73.79   20.30
   6 -11   6   63.59   20.00
   6 -11   6   67.99   16.00
   6  10  -6   31.80   10.60
   6  10  -6   13.30   11.80
  -6 -10   6    5.60   14.90
   5  10  -6  465.15   76.79
   5  10  -6  409.26   31.10
  -5 -10   6  449.66   48.30
   4  10  -6    6.30   10.90
   4  10  -6   -2.40    8.70
  -4 -10   6   35.50   15.70
   3  10  -6  110.09   21.00
   3  10  -6  123.39   20.00
  -3 -10   6  114.49   29.50
   2  10  -6  164.28   19.70
   2  10  -6  113.19   22.20
  -2 -10   6  147.19   30.80
   1  10  -6   86.49   16.10
   1  10  -6   60.29   14.40
  -1 -10   6   50.79   17.40
   0  10  -6    1.50    6.30
   0  10  -6    7.00    8.40
   0 -10   6   -4.40    8.00
  -1  10  -6    3.60    6.80
  -1  10  -6   11.90    9.80
   1 -10   6   10.40    9.30
  -2  10  -6  130.49   18.70
  -2  10  -6  133.09   23.20
   2 -10   6  137.29   20.80
   2 -10   6  110.39   26.20
  -3  10  -6   26.10   11.40
  -3  10  -6   18.80    8.00
   3 -10   6   25.30   10.20
   3 -10   6   24.70   14.00
  -4  10  -6   27.90   12.80
  -4  10  -6   33.40   12.10
   4 -10   6   18.20   14.80
   4 -10   6    5.40    7.70
  -5  10  -6    9.30    9.10
   5 -10   6   16.40    9.80
   5 -10   6    4.30    6.60
  -6  10  -6   31.00   14.80
   6 -10   6   51.79   14.80
   6 -10   6   52.79   19.50
  -7  10  -6    4.30    7.50
   7 -10   6   17.20   10.80
   7 -10   6   14.40   16.50
   7   9  -6  158.68   30.10
  -7  -9   6   83.99   26.90
   6   9  -6   20.30    9.90
   6   9  -6   13.90    7.70
  -6  -9   6   35.40   15.90
   5   9  -6  274.97   23.00
   5   9  -6  260.77   29.00
  -5  -9   6  292.97   35.80
   4   9  -6  109.69   22.10
  -4  -9   6   98.79   24.60
   3   9  -6  197.68   23.20
   3   9  -6  205.48   21.50
  -3  -9   6  192.78   34.20
   2   9  -6   -4.20    4.90
  -2  -9   6    6.00    8.60
   1   9  -6   11.50    6.40
   1   9  -6   20.70    8.70
  -1  -9   6   30.80   13.80
   0   9  -6  548.25   35.50
   0   9  -6  631.74   36.40
   0  -9   6  591.94   47.10
  -1   9  -6  141.99   20.40
  -1   9  -6  103.69   19.00
   1  -9   6  138.09   26.40
   1  -9   6  147.29   17.80
  -2   9  -6    8.00    7.50
  -2   9  -6   18.20    7.40
   2  -9   6    7.20    9.00
   2  -9   6   10.00    8.00
  -3   9  -6   -6.70    5.10
  -3   9  -6    5.60    6.50
   3  -9   6   14.00    7.90
   3  -9   6   24.80   11.50
  -4   9  -6   27.60    8.80
   4  -9   6   22.70   11.30
   4  -9   6   29.10   10.50
  -5   9  -6   20.70   11.50
   5  -9   6   33.30   13.70
   5  -9   6    7.60    7.10
  -6   9  -6   33.70   11.90
   6  -9   6   24.60   11.00
   6  -9   6   38.90   19.00
  -7   9  -6   95.79   20.50
   7  -9   6  105.69   20.60
   7  -9   6   71.09   18.60
  -8   9  -6  170.38   30.70
   8  -9   6  153.68   28.30
   8  -9   6  224.48   25.50
   8   8  -6  109.09   26.60
  -8  -8   6  127.89   29.00
   7   8  -6   59.19   17.70
  -7  -8   6   77.39   24.10
   6   8  -6  138.09   26.30
   6   8  -6  151.68   15.90
  -6  -8   6  106.39   43.30
   5   8  -6   35.80   13.60
   5   8  -6   54.89   12.20
  -5  -8   6   69.69   19.70
   4   8  -6  320.67   23.70
   4   8  -6  323.57   30.90
  -4  -8   6  369.36   38.80
   3   8  -6  228.18   24.20
   3   8  -6  186.78   18.10
  -3  -8   6  207.08   33.50
   2   8  -6  227.78   20.20
   2   8  -6  214.08   21.90
  -2  -8   6  199.58   32.20
   1   8  -6  279.07   23.90
  -1  -8   6  263.67   30.60
   0   8  -6  176.18   27.70
   0   8  -6  129.89   19.50
   0  -8   6  136.09   25.30
  -1   8  -6  353.06   27.10
   1  -8   6  337.47   32.60
  -2   8  -6  222.68   20.90
  -2   8  -6  210.18   21.70
   2  -8   6  253.27   27.60
   2  -8   6  240.88   21.80
  -3   8  -6   99.79   18.30
   3  -8   6   78.39   15.80
   3  -8   6   93.79   19.50
  -4   8  -6  131.89   21.30
   4  -8   6   74.09   18.00
   4  -8   6  143.59   21.60
  -5   8  -6  216.78   24.50
   5  -8   6  255.97   25.30
   5  -8   6  194.28   29.10
  -6   8  -6    2.20    7.10
   6  -8   6  -10.20    6.80
   6  -8   6   13.30    9.40
  -7   8  -6  106.69   21.50
   7  -8   6   80.79   20.60
   7  -8   6   80.89   16.80
  -8   8  -6  273.57   31.20
   8  -8   6  209.98   32.70
   8  -8   6  239.98   28.30
  -9   8  -6   21.90   13.10
   9  -8   6   33.90   14.80
   9   7  -6   91.69   27.00
  -9  -7   6   48.10   20.50
   8   7  -6    8.90   12.60
  -8  -7   6   30.50   19.40
   7   7  -6   26.70   13.20
   7   7  -6   17.30    6.10
  -7  -7   6   10.20   16.70
   6   7  -6   85.29   22.30
   6   7  -6   75.49   11.00
  -6  -7   6   89.39   22.80
   5   7  -6   11.60    9.60
   5   7  -6    9.40    4.90
  -5  -7   6   11.00   10.90
   4   7  -6    8.90    4.90
   4   7  -6   10.50    9.80
  -4  -7   6   13.70    9.40
   3   7  -6   22.20    7.80
   3   7  -6   17.70    9.90
  -3  -7   6   26.70   10.60
   2   7  -6  841.62   43.00
   2   7  -6  879.01   37.30
  -2  -7   6  802.12   52.09
   1   7  -6  205.88   20.50
   1   7  -6  263.87   20.60
  -1  -7   6  235.88   27.70
   0   7  -6   13.30    6.20
   0   7  -6    7.70    6.20
   0  -7   6    9.60    7.80
   0  -7   6   21.10    7.30
  -1   7  -6  313.27   25.70
  -1   7  -6  365.56   25.80
   1  -7   6  329.97   24.80
  -2   7  -6   90.89   16.20
   2  -7   6   80.69   18.00
   2  -7   6   91.99   16.30
  -3   7  -6  228.28   22.40
   3  -7   6  203.68   23.30
   3  -7   6  225.28   21.60
  -4   7  -6   79.19   16.30
   4  -7   6   48.50   11.50
   4  -7   6   59.39   14.60
  -5   7  -6    4.30    6.10
   5  -7   6  -13.40    4.90
   5  -7   6    2.80    8.90
  -6   7  -6  234.68   25.40
   6  -7   6  223.38   25.30
   6  -7   6  200.48   23.00
   7  -7   6  417.66   35.60
   7  -7   6  368.66   30.90
  -8   7  -6   50.89   15.70
   8  -7   6   49.70   14.40
   8  -7   6   47.90   15.10
  -9   7  -6   43.90   14.90
   9  -7   6   42.70   15.10
   9   6  -6   44.90   18.70
  -9  -6   6   29.90   19.10
   8   6  -6   -1.20   12.80
  -8  -6   6    8.90   16.90
   7   6  -6   -3.70    7.50
  -7  -6   6   -3.30    9.50
   6   6  -6   28.00    5.70
   6   6  -6    7.50    8.50
  -6  -6   6   18.10    5.20
  -6  -6   6   17.70   11.50
   5   6  -6   11.20    8.20
  -5  -6   6   17.20    5.30
  -5  -6   6   18.10   11.90
   4   6  -6  934.71   34.10
   4   6  -6 1026.00   51.39
  -4  -6   6 1024.90   60.19
   3   6  -6  745.23   41.00
   3   6  -6  818.12   32.00
  -3  -6   6  820.42   51.59
   2   6  -6  270.67   18.70
   2   6  -6  252.77   22.50
  -2  -6   6  257.27   28.10
   1   6  -6  394.56   27.10
   1   6  -6  417.46   24.40
  -1  -6   6  409.56   34.30
   0   6  -6   37.00    9.60
   0   6  -6   45.60    9.40
   0  -6   6   42.80   10.10
   0  -6   6   25.90   10.40
  -1   6  -6    2.10    3.70
  -1   6  -6    7.70    4.40
   1  -6   6   11.50    5.70
   1  -6   6    9.90    6.20
  -2   6  -6  453.45   41.20
   2  -6   6  389.26   27.00
   2  -6   6  398.86   30.70
  -3   6  -6   12.30    6.20
   3  -6   6   11.20    6.10
   3  -6   6   17.00    6.70
  -4   6  -6  884.71   44.50
   4  -6   6  827.62   43.10
   4  -6   6  875.11   45.40
  -5   6  -6   18.20    7.50
   5  -6   6   19.00    8.90
   5  -6   6   12.50    8.10
  -6   6  -6   59.69   14.70
   6  -6   6   59.19   14.40
   6  -6   6   75.09   17.60
  -7   6  -6    1.80    8.60
   7  -6   6    1.70    7.00
   7  -6   6  -11.00    7.20
  -8   6  -6  266.57   29.20
   8  -6   6  222.88   23.00
   8  -6   6  329.97   68.19
  -9   6  -6  146.49   26.70
   9  -6   6  169.38   32.30
  10   5  -6   54.09   18.60
 -10  -5   6   69.29   20.70
   9   5  -6    6.80    9.20
  -9  -5   6  -15.20    9.80
   8   5  -6   62.49   19.90
  -8  -5   6  110.79   24.80
   7   5  -6    2.00    9.40
  -7  -5   6   -0.90    5.10
   6   5  -6  177.48   26.90
  -6  -5   6  155.58   29.30
   5   5  -6  415.06   32.50
   5   5  -6  382.96   16.40
  -5  -5   6  356.46   14.90
  -5  -5   6  391.06   37.80
   4   5  -6  205.38   21.90
   4   5  -6  185.18   12.90
  -4  -5   6  202.78   13.70
  -4  -5   6  222.38   26.40
   3   5  -6  231.58   21.80
   3   5  -6  204.28   14.10
  -3  -5   6  170.98   13.00
   2   5  -6  521.75   31.20
   2   5  -6  533.95   24.20
  -2  -5   6  495.15   36.40
   1   5  -6   99.49   13.80
   1   5  -6   84.79   14.50
  -1  -5   6  117.39   21.10
  -1  -5   6   85.69   14.70
   0   5  -6  266.27   19.20
   0   5  -6  280.77   21.80
   0  -5   6  312.07   26.90
   0  -5   6  258.07   20.90
  -1   5  -6  713.53   33.70
   1  -5   6  724.03   36.00
   1  -5   6  643.74   37.90
  -2   5  -6   86.49   14.50
   2  -5   6   90.09   16.30
   2  -5   6   96.39   16.10
  -3   5  -6  443.16   36.00
   3  -5   6  479.85   31.40
   3  -5   6  462.45   29.50
  -4   5  -6  688.43   38.50
   4  -5   6  643.64   38.90
   4  -5   6  718.33   36.00
  -5   5  -6   48.20   11.90
   5  -5   6   12.40    7.50
   5  -5   6   29.50   11.10
  -6   5  -6   13.50    7.40
   6  -5   6    7.80    8.60
   6  -5   6   14.00    7.90
  -7   5  -6   -7.60    5.90
   7  -5   6   14.70    5.90
   7  -5   6   13.70   11.30
  -8   5  -6  219.38   47.90
   8  -5   6  164.18   29.80
  -9   5  -6  222.18   26.90
   9  -5   6  225.08   36.90
 -10   5  -6   59.99   18.30
  10  -5   6   21.40   12.50
  10   4  -6   44.00   22.40
 -10  -4   6   68.69   22.30
   9   4  -6   98.79   22.10
  -9  -4   6  154.18   33.70
   8   4  -6   19.90   12.90
  -8  -4   6   26.00   12.30
   7   4  -6    2.30    7.70
  -7  -4   6    1.10    7.00
   6   4  -6  291.47   28.70
  -6  -4   6  296.97   32.00
   5   4  -6   26.60    2.70
   5   4  -6   44.90   12.80
   5   4  -6   25.00    2.50
  -5  -4   6   45.90   15.20
   4   4  -6   85.29    7.40
   4   4  -6   63.19   17.50
  -4  -4   6   67.89   20.00
  -4  -4   6   93.79    7.70
   3   4  -6   39.90   10.60
   3   4  -6   52.09    7.40
  -3  -4   6   42.00    7.00
  -3  -4   6   40.70   11.70
   2   4  -6  223.68   19.50
   2   4  -6  221.48   14.30
  -2  -4   6  223.98   14.40
  -2  -4   6  217.88   23.20
   1   4  -6   12.50    5.60
   1   4  -6   21.70    4.70
  -1  -4   6   16.10    5.50
  -1  -4   6   10.80    6.90
   0   4  -6   34.30    8.60
   0   4  -6   30.30    8.10
   0  -4   6   37.60   11.10
   0  -4   6   37.40    9.70
  -1   4  -6    3.60    3.70
   1  -4   6   -0.30    3.20
   1  -4   6    4.20    5.60
  -2   4  -6   14.20    6.00
   2  -4   6    8.10    6.00
   2  -4   6   16.30    5.90
  -3   4  -6   27.10    7.70
   3  -4   6   22.10    8.00
   3  -4   6   28.20    8.10
  -4   4  -6   31.80    7.00
  -4   4  -6   31.10    9.10
   4  -4   6   23.80    9.20
   4  -4   6   25.40    7.10
  -5   4  -6  522.35   24.00
  -5   4  -6  520.35   33.60
   5  -4   6  526.85   37.20
  -6   4  -6  108.79   18.70
   6  -4   6   71.29   10.00
   6  -4   6   75.69   17.90
  -7   4  -6   56.89   14.70
   7  -4   6   36.70    6.80
   7  -4   6   55.29   16.20
   7  -4   6   40.70    8.50
  -8   4  -6  186.38   28.70
   8  -4   6  199.38   32.10
  -9   4  -6  283.47   30.40
   9  -4   6  347.57   39.20
 -10   4  -6  326.27   33.10
  10  -4   6  264.77   40.30
  10   3  -6  113.89   28.00
 -10  -3   6   49.80   20.70
   9   3  -6   87.89   23.10
  -9  -3   6  118.49   26.30
   8   3  -6  334.27   34.00
  -8  -3   6  338.07   36.40
   7   3  -6  685.33   47.20
  -7  -3   6  751.72   53.19
   6   3  -6    8.30    6.50
  -6  -3   6   13.00    8.10
   5   3  -6   54.09   14.00
  -5  -3   6   56.19   16.40
   4   3  -6  128.99   19.50
   4   3  -6  135.79    7.60
   4   3  -6  140.09    7.00
  -4  -3   6  121.69   21.40
   3   3  -6   57.49    7.00
   3   3  -6   62.49   12.80
   3   3  -6   64.19    6.30
  -3  -3   6   56.29    6.10
  -3  -3   6   65.39   16.10
   2   3  -6  163.08   16.00
   2   3  -6  139.19   10.70
   2   3  -6  154.58   12.40
  -2  -3   6  143.59   10.90
  -2  -3   6  145.69   21.70
   1   3  -6  737.93   27.90
   1   3  -6  739.43   33.70
  -1  -3   6  710.23   33.90
  -1  -3   6  716.23   38.90
   0   3  -6   13.00    4.60
   0   3  -6    8.00    4.30
   0  -3   6   18.30    6.50
   0  -3   6    7.20    3.90
  -1   3  -6  107.09   12.10
   1  -3   6  100.09   15.20
   1  -3   6  100.79   15.30
  -2   3  -6   67.39   12.30
  -2   3  -6   66.89   10.70
   2  -3   6   67.09   13.20
   2  -3   6   54.99   11.00
  -3   3  -6  202.68   15.40
  -3   3  -6  182.18   17.80
   3  -3   6  202.08   19.90
   3  -3   6  209.48   16.30
  -4   3  -6    5.20    3.80
  -4   3  -6    8.50    8.30
   4  -3   6    8.00    8.20
   4  -3   6    1.20    3.70
  -5   3  -6  402.26   29.30
  -5   3  -6  345.77   15.60
   5  -3   6  355.06   16.70
   5  -3   6  418.26   32.90
  -6   3  -6    3.50    6.40
   6  -3   6  -11.20    5.30
  -7   3  -6   43.50   12.90
   7  -3   6   61.49   16.70
  -8   3  -6   52.69   14.50
   8  -3   6   35.20   15.20
  -9   3  -6  124.79   24.00
   9  -3   6  155.58   30.80
 -10   3  -6  345.57   34.60
  10  -3   6  214.58   38.10
  11   2  -6   62.99   23.80
 -11  -2   6   25.80   15.20
  10   2  -6   -3.90   12.30
 -10  -2   6   15.90   14.90
   9   2  -6   64.99   29.70
  -9  -2   6   47.30   20.40
   8   2  -6   11.20    8.80
  -8  -2   6   16.10   13.00
   7   2  -6   24.70   12.00
  -7  -2   6   42.70   15.20
   6   2  -6   44.10   12.90
  -6  -2   6   23.30   10.90
  -5  -2   6    3.40   15.60
   4   2  -6   14.60    2.20
   4   2  -6   26.40    8.70
   4   2  -6   18.70    2.70
  -4  -2   6   15.70    7.50
   3   2  -6   36.50    5.40
   3   2  -6   43.00   10.10
   3   2  -6   41.30    6.80
  -3  -2   6   39.30   11.40
   2   2  -6  158.28   12.10
   2   2  -6  142.89   14.60
   2   2  -6  139.49   10.30
  -2  -2   6  144.49   11.20
  -2  -2   6  172.08   19.60
  -2  -2   6  133.89   14.30
   1   2  -6 1074.19   40.30
   1   2  -6  979.20   34.80
   1   2  -6  999.10   33.00
  -1  -2   6 1067.39   40.90
  -1  -2   6 1054.59   34.80
  -1  -2   6 1061.39   46.20
   0   2  -6   25.80    6.80
   0  -2   6   22.40    7.60
   0  -2   6   26.30    6.90
  -1   2  -6   25.40    7.10
  -1   2  -6   35.80    8.20
   1  -2   6   36.70    8.90
   1  -2   6   31.90    8.40
  -2   2  -6   27.20    8.20
  -2   2  -6   37.70    7.70
   2  -2   6   39.10    8.80
   2  -2   6   21.70    7.60
  -3   2  -6  103.39   16.20
  -3   2  -6  121.69   10.30
   3  -2   6  129.29   11.10
   3  -2   6  127.79   18.70
  -4   2  -6  146.19    8.80
  -4   2  -6  131.49   19.50
   4  -2   6  144.69    9.10
   4  -2   6  142.29   22.00
  -5   2  -6   55.79   12.90
   5  -2   6   55.89   14.50
  -6   2  -6  258.27   24.70
   6  -2   6  306.67   29.90
  -7   2  -6  107.19   20.10
   7  -2   6   97.19   21.60
  -8   2  -6   44.70   13.20
   8  -2   6   25.70   12.30
  -9   2  -6   -2.50    9.40
   9  -2   6  -18.90    8.40
 -10   2  -6   58.39   18.40
  10  -2   6   59.69   22.50
  11   1  -6    7.60   12.60
  11   1  -6   12.00   16.40
 -11  -1   6  -17.30   12.60
  10   1  -6   -0.50   12.00
 -10  -1   6  -17.60    9.30
   9   1  -6  157.98   29.10
  -9  -1   6  144.89   29.70
   8   1  -6   13.40    9.30
  -8  -1   6   11.50    7.50
   7   1  -6  109.39   21.40
  -7  -1   6   81.29   20.50
   6   1  -6   -2.90    6.10
  -6  -1   6   10.40    9.60
   5   1  -6   10.60    6.60
  -5  -1   6    9.90    7.40
   4   1  -6   83.99    4.70
   4   1  -6   90.69   15.40
   4   1  -6   78.49    4.90
  -4  -1   6   66.09   14.90
   3   1  -6  891.81   24.70
   3   1  -6  900.01   26.40
   3   1  -6  927.61   39.20
  -3  -1   6  869.11   45.80
   2   1  -6  177.88   15.50
   2   1  -6  176.68   12.60
   2   1  -6  140.59   10.60
  -2  -1   6  147.19   14.70
  -2  -1   6  167.68   18.90
   1   1  -6   16.40    4.90
   1   1  -6   15.50    5.40
   1   1  -6    9.40    4.30
  -1  -1   6   23.60    7.10
  -1  -1   6   21.80    8.40
   0   1  -6  571.34   26.70
   0   1  -6  547.35   34.40
   0  -1   6  591.54   29.10
   0  -1   6  523.45   28.90
  -1   1  -6    0.10    3.10
  -1   1  -6   -3.00    1.20
   1  -1   6   -0.30    1.80
   1  -1   6    0.10    3.30
  -2   1  -6   50.29   10.90
  -2   1  -6   46.00    7.70
   2  -1   6   55.89   11.90
   2  -1   6   53.39    9.10
  -3   1  -6   -1.50    2.10
  -3   1  -6    3.80    4.70
   3  -1   6    0.00    2.50
  -4   1  -6   -2.40    5.30
   4  -1   6   -3.40    3.10
  -5   1  -6   57.19   13.00
   5  -1   6   23.30   10.20
  -6   1  -6  242.18   24.00
   6  -1   6  265.17   28.10
  -7   1  -6  103.09   19.80
   7  -1   6  154.38   27.70
  -8   1  -6   12.70    9.30
   8  -1   6   -3.70    8.90
  -9   1  -6  273.87   28.40
   9  -1   6  242.68   40.40
 -10   1  -6   23.50   11.40
  10  -1   6    0.60   14.30
  11   0  -6  117.39   27.20
  11   0  -6  131.09   29.00
 -11   0   6  132.69   25.90
  10   0  -6    3.90   11.60
  10   0  -6   26.10   16.10
 -10   0   6   13.00   17.40
   9   0  -6  139.89   28.90
   9   0  -6  212.18   33.60
  -9   0   6  216.58   36.60
   8   0  -6  -12.40    5.60
  -8   0   6  -16.90    6.90
   7   0  -6    2.10    6.40
  -7   0   6   -4.60    7.50
   6   0  -6   -3.40    5.20
  -6   0   6    4.70    6.50
   5   0  -6  226.28   21.20
  -5   0   6  201.78   29.90
   4   0  -6  359.66   24.90
   4   0  -6  321.17   13.10
   4   0  -6  346.47   13.40
  -4   0   6  330.97   29.00
   3   0  -6   13.80    5.60
   3   0  -6   12.70    3.40
   3   0  -6   16.70    4.50
  -3   0   6   10.30    6.00
  -3   0   6   13.30    4.00
   2   0  -6  324.87   20.60
   2   0  -6  328.37   20.90
   2   0  -6  327.27   18.20
  -2   0   6  326.37   25.50
  -2   0   6  342.07   21.50
  -2   0   6  318.87   18.10
   1   0  -6   61.59   10.10
   1   0  -6   87.79   10.60
  -1   0   6   84.39   12.90
  -1   0   6   85.89   10.40
  -1   0   6   58.29   12.10
   0   0  -6   90.19   13.10
   0   0  -6  121.89   12.30
   0   0   6  124.89   13.00
   0   0   6   80.89   13.30
   0   0   6  119.49   12.90
  -1   0  -6  148.79   13.00
  -1   0  -6  137.39   14.00
   1   0   6  101.79   15.10
   1   0   6  140.29   13.10
   1   0   6  124.79   14.00
  -2   0  -6  195.98   13.10
  -2   0  -6  185.58   12.60
  -2   0  -6  237.28   19.60
   2   0   6  170.88   16.60
   2   0   6  201.58   18.80
   2   0   6  195.58   13.10
  -3   0  -6   -0.90    1.70
  -3   0  -6   -5.50    2.00
  -3   0  -6    4.70    1.50
   3   0   6    0.80    3.30
  -4   0  -6   66.39   16.70
   4   0   6   98.49   18.60
  -5   0  -6    5.20    5.40
   5   0   6    2.10    4.30
  -6   0  -6    0.10    4.40
   6   0   6    7.20    7.20
  -7   0  -6   18.10   11.30
   7   0   6   55.89   16.30
  -8   0  -6   38.70   12.20
  -9   0  -6   -0.20    9.40
   9   0   6   -9.90    5.30
 -10   0  -6   18.40   13.80
  10   0   6  -16.40   10.70
  11  -1  -6  227.68   38.20
  11  -1  -6  224.08   40.70
 -11   1   6  226.98   37.50
  10  -1  -6   32.40   10.70
  10  -1  -6   28.20   14.70
 -10   1   6   39.50   13.50
   9  -1  -6   53.09   17.10
   9  -1  -6   47.80   16.80
  -9   1   6   44.70   16.20
   8  -1  -6  367.76   34.80
   8  -1  -6  390.66   37.40
  -8   1   6  424.66   39.90
   7  -1  -6   75.89   19.60
   7  -1  -6   80.89   16.40
  -7   1   6  104.19   23.70
   6  -1  -6  180.58   20.60
   6  -1  -6  158.98    6.80
   6  -1  -6  150.48    6.50
  -6   1   6  192.78   29.40
  -6   1   6  165.78    7.00
   5  -1  -6   88.59    6.70
   5  -1  -6   77.89   15.10
  -5   1   6   95.49   20.20
  -5   1   6   87.59    7.60
   4  -1  -6  143.99   15.10
   4  -1  -6  138.29   10.10
  -4   1   6  147.49   23.50
  -4   1   6  149.29   11.50
   3  -1  -6   16.30    6.70
   3  -1  -6   13.00    4.50
  -3   1   6   18.10    8.40
  -3   1   6   23.60    6.30
   2  -1  -6  294.87   19.00
   2  -1  -6  305.67   18.20
  -2   1   6  291.47   19.10
  -2   1   6  269.37   18.40
  -2   1   6  303.87   25.00
   1  -1  -6  121.69   12.30
   1  -1  -6  125.49   12.20
  -1   1   6  121.09   14.70
  -1   1   6  133.29   13.50
  -1   1   6  138.79   12.90
   0  -1  -6  945.01   45.60
   0  -1  -6  899.11   36.50
   0  -1  -6  897.61   36.90
   0   1   6  863.81   37.50
   0   1   6  860.61   36.90
   0   1   6  893.91   35.10
  -1  -1  -6  306.87   18.40
  -1  -1  -6  276.47   18.70
  -1  -1  -6  275.57   21.20
   1   1   6  289.27   18.90
   1   1   6  336.67   22.10
   1   1   6  292.17   22.50
  -2  -1  -6   76.69   13.50
  -2  -1  -6   62.49    7.50
  -2  -1  -6   91.79    9.20
   2   1   6   86.09   14.90
   2   1   6   80.99   15.10
  -3  -1  -6    7.30    4.00
  -3  -1  -6    8.80    2.10
  -3  -1  -6    4.90    2.50
   3   1   6    2.70    4.90
   3   1   6    9.60    5.30
  -4  -1  -6   23.20    8.70
   4   1   6   40.60   11.80
   4   1   6   26.50    9.10
  -5  -1  -6   49.20   13.60
   5   1   6   65.09   16.60
  -6  -1  -6    6.60    6.30
   6   1   6  -11.40    4.50
  -7  -1  -6   53.79   14.00
   7   1   6   55.49   16.70
  -8  -1  -6   67.99   18.60
   8   1   6   77.69   20.00
  -9  -1  -6    3.50    8.90
   9   1   6   21.60   10.20
 -10  -1  -6   15.80   16.90
  11  -2  -6  129.09   29.60
  11  -2  -6  107.29   28.50
 -11   2   6  136.59   25.70
  10  -2  -6   28.00   14.60
  10  -2  -6    9.70   10.00
 -10   2   6   -7.70   10.00
   9  -2  -6   26.50   13.10
   9  -2  -6   -5.40    7.80
  -9   2   6  -14.20    7.40
   8  -2  -6  496.95   38.20
   8  -2  -6  516.25   43.40
   8  -2  -6  472.05   11.70
  -8   2   6  555.44   45.70
  -8   2   6  452.85   11.30
   7  -2  -6  324.77   32.40
   7  -2  -6  278.77   27.10
   7  -2  -6  287.87   12.80
  -7   2   6  297.27   32.30
  -7   2   6  305.27   14.50
   6  -2  -6  234.08   22.40
   6  -2  -6  213.58   25.10
   6  -2  -6  181.68   11.50
  -6   2   6  195.58   12.80
  -6   2   6  217.18   26.50
   5  -2  -6    8.20    3.10
   5  -2  -6    8.20    5.80
   5  -2  -6    3.70    6.90
  -5   2   6   -2.00    3.10
  -5   2   6   -0.80    4.20
   4  -2  -6   22.10    7.20
   4  -2  -6   25.40   10.80
   4  -2  -6   18.60    5.30
  -4   2   6   29.30    8.80
  -4   2   6   28.90    7.00
   3  -2  -6   67.59   11.10
   3  -2  -6   74.49   15.20
  -3   2   6   85.09   12.60
  -3   2   6   50.39   13.40
   2  -2  -6   33.70    9.60
   2  -2  -6   23.20    6.60
  -2   2   6   33.20    7.80
  -2   2   6   17.20    5.70
  -2   2   6   34.40   10.40
   1  -2  -6   72.79   13.00
   1  -2  -6   59.39   10.30
  -1   2   6   65.29   10.10
  -1   2   6   78.89   13.60
  -1   2   6   69.19   13.50
   0  -2  -6   13.20    5.40
   0   2   6   19.30    6.10
   0   2   6   15.40    6.30
   0   2   6   19.90    7.00
  -1  -2  -6   17.90    7.00
  -1  -2  -6   15.80    6.50
  -1  -2  -6    8.60    4.80
   1   2   6   13.90    5.30
   1   2   6    9.50    4.90
  -2  -2  -6   42.40   11.40
  -2  -2  -6   73.39    8.20
   2   2   6   53.09   11.40
   2   2   6   76.89   15.30
  -3  -2  -6   -2.30    2.10
  -3  -2  -6   -3.60    2.50
  -3  -2  -6   -0.70    3.80
   3   2   6    4.80    5.50
  -4  -2  -6   16.30    6.90
   4   2   6   47.80   13.40
   4   2   6   35.30   11.30
  -5  -2  -6    1.40    5.30
   5   2   6    8.20    7.00
   5   2   6    0.00    6.10
  -6  -2  -6   12.20    9.20
   6   2   6    7.10    6.30
  -7  -2  -6  244.48   26.50
   7   2   6  210.18   33.60
  -8  -2  -6   47.30   16.40
   8   2   6  103.59   24.00
   9   2   6  -12.60   10.70
  11  -3  -6   30.10   16.70
  11  -3  -6   22.40   16.00
  10  -3  -6   11.60   14.80
  10  -3  -6  -33.40   11.90
 -10   3   6   29.90   14.60
   9  -3  -6   48.00   14.70
   9  -3  -6   31.90   15.40
  -9   3   6   18.80   15.20
  -9   3   6   27.30    7.20
   8  -3  -6   20.70   10.80
   8  -3  -6   19.20    5.90
   8  -3  -6    9.60   11.20
  -8   3   6   25.10   11.40
   7  -3  -6  300.17   31.90
   7  -3  -6  320.67   16.10
  -7   3   6  306.87   18.70
  -7   3   6  344.67   34.20
   6  -3  -6  110.99   18.30
   6  -3  -6  129.99   22.60
  -6   3   6   77.29   17.80
  -6   3   6   94.59   11.10
   5  -3  -6    1.40    6.60
   5  -3  -6   -6.30    3.90
  -5   3   6   -1.20    2.90
  -5   3   6   -1.70    6.00
   4  -3  -6   16.00    6.70
   4  -3  -6   12.10    6.70
  -4   3   6   20.10    8.10
  -4   3   6   10.40    5.30
   3  -3  -6  263.27   17.40
   3  -3  -6  210.18   21.70
  -3   3   6  247.18   24.20
  -3   3   6  260.37   20.10
   2  -3  -6  294.37   24.40
   2  -3  -6  313.77   18.00
  -2   3   6  320.47   22.90
  -2   3   6  283.27   25.00
   1  -3  -6  337.77   24.70
   1  -3  -6  300.17   17.60
  -1   3   6  299.77   18.10
  -1   3   6  311.17   23.00
   0  -3  -6  279.27   20.70
   0   3   6  271.47   22.30
   0   3   6  245.58   17.10
  -1  -3  -6   25.50    7.60
   1   3   6   19.10    6.40
   1   3   6   15.20    6.90
  -2  -3  -6  625.84   28.20
  -2  -3  -6  617.14   29.20
   2   3   6  609.14   37.40
   2   3   6  641.44   33.40
  -3  -3  -6    7.50    4.50
  -3  -3  -6    9.80    7.60
   3   3   6   27.50    9.40
   3   3   6   14.10    7.60
  -4  -3  -6  426.86   16.50
  -4  -3  -6  412.86   16.90
  -4  -3  -6  487.35   34.40
   4   3   6  552.44   52.99
   4   3   6  436.66   33.70
  -5  -3  -6  885.71   48.50
   5   3   6  818.02   48.50
   5   3   6  826.92   49.00
  -6  -3  -6    7.60    8.30
   6   3   6   19.50    9.50
   6   3   6    9.00    7.30
  -7  -3  -6   -2.10    6.60
   7   3   6    9.20   10.70
  -8  -3  -6    1.00    8.00
   8   3   6    6.60   11.60
  -9  -3  -6   -1.80   10.10
   9   3   6    4.20   13.70
  11  -4  -6   25.10   15.60
  10  -4  -6   60.99   22.30
  10  -4  -6  115.49   22.50
   9  -4  -6   -0.40    9.70
   9  -4  -6   28.70   18.90
  -9   4   6   -2.10    7.20
   8  -4  -6   10.70    9.50
   8  -4  -6    0.00    7.60
  -8   4   6  -12.80    5.60
  -8   4   6   -8.60    8.80
   7  -4  -6  366.66   35.80
   7  -4  -6  323.97   27.10
  -7   4   6  377.46   36.60
  -7   4   6  347.47   23.00
   6  -4  -6   35.90   13.10
   6  -4  -6   26.90    8.50
  -6   4   6   40.10   12.80
  -6   4   6   35.20    8.70
   5  -4  -6   52.09   11.40
   5  -4  -6   51.09   14.50
  -5   4   6   42.90   10.10
  -5   4   6   42.30   13.90
   4  -4  -6  348.57   31.30
   4  -4  -6  332.37   20.90
  -4   4   6  333.97   23.30
   3  -4  -6   42.30    8.30
   3  -4  -6   48.70    8.60
   3  -4  -6   45.20   12.60
  -3   4   6   37.20    9.80
   2  -4  -6   72.69   15.60
   2  -4  -6   80.69    9.00
   2  -4  -6   85.59   11.70
  -2   4   6   91.19   15.80
   1  -4  -6   39.10   10.60
   1  -4  -6   37.40    8.20
   1  -4  -6   50.09    8.30
  -1   4   6   54.09   12.40
  -1   4   6   50.79    9.00
   0  -4  -6  257.97   21.80
   0   4   6  239.28   22.90
   0   4   6  222.38   15.80
  -1  -4  -6  143.29   14.90
   1   4   6  161.18   14.70
   1   4   6  155.68   23.00
  -2  -4  -6  128.29   14.50
   2   4   6  128.19   14.50
   2   4   6  161.78   23.90
  -3  -4  -6   81.99   12.70
  -3  -4  -6   76.89   12.20
   3   4   6   70.49   15.50
   3   4   6   81.49   18.20
  -4  -4  -6   -3.70    4.80
  -4  -4  -6    3.00    5.40
  -4  -4  -6   -8.90    3.70
   4   4   6   10.70    8.00
   4   4   6   -2.80    6.30
  -5  -4  -6   10.90    7.40
  -5  -4  -6   -7.60    3.50
  -5  -4  -6   -1.70    2.90
   5   4   6    0.00    6.70
   5   4   6   10.50    5.70
  -6  -4  -6   24.60   11.10
   6   4   6   12.20   10.10
   6   4   6    2.60    9.70
  -7  -4  -6   33.70   12.80
   7   4   6   43.70   12.80
   7   4   6   39.00   13.40
  -8  -4  -6  -18.70    8.00
   8   4   6    3.70    9.80
  10  -5  -6    5.50   14.10
  10  -5  -6   -3.20   11.00
   9  -5  -6   27.00   15.30
   9  -5  -6    9.50   11.20
  -9   5   6   27.90    9.30
   8  -5  -6   41.10   18.50
   8  -5  -6   19.10   10.20
  -8   5   6   25.10    9.30
   7  -5  -6   28.80    9.50
   7  -5  -6   22.50   10.70
  -7   5   6   51.19   10.60
   6  -5  -6   23.50    9.10
   6  -5  -6   30.50   12.10
  -6   5   6   21.90    8.10
   5  -5  -6   25.70    7.50
   5  -5  -6    8.80    7.30
  -5   5   6   30.20    9.10
   4  -5  -6   15.30    8.70
   4  -5  -6   29.00    6.50
   4  -5  -6   15.10    5.60
  -4   5   6   14.20    7.50
   3  -5  -6   -3.90    5.20
   3  -5  -6    2.30    3.00
   3  -5  -6    0.60    4.20
  -3   5   6    8.70    4.60
   2  -5  -6   31.50    5.80
   2  -5  -6   25.50   10.10
   2  -5  -6   33.00    7.20
  -2   5   6   27.50    9.60
   1  -5  -6   53.09    8.10
   1  -5  -6   26.50    7.60
   1  -5  -6   34.90   10.80
  -1   5   6   42.40    7.40
  -1   5   6   34.10   10.60
   0  -5  -6  311.07   25.60
   0  -5  -6  289.67   19.70
   0   5   6  285.57   17.30
   0   5   6  347.17   29.20
  -1  -5  -6  277.17   23.20
   1   5   6  235.88   17.40
   1   5   6  298.67   27.20
  -2  -5  -6    9.30    6.70
   2   5   6    3.50    6.60
   2   5   6    8.10    5.80
  -3  -5  -6 1289.77   48.00
   3   5   6 1321.87   53.69
   3   5   6 1276.87   62.39
  -4  -5  -6   35.80   12.70
  -4  -5  -6   22.10    7.90
   4   5   6   47.30   12.20
   4   5   6    0.10    8.00
  -5  -5  -6   83.69   19.40
   5   5   6   84.19   19.10
   5   5   6   63.89   16.90
  -6  -5  -6   85.59    8.40
  -6  -5  -6   94.09   22.80
   6   5   6  119.29   22.10
   6   5   6  156.18   27.60
  -7  -5  -6   50.29   17.50
   7   5   6   34.40   16.40
   7   5   6    6.90   14.60
  -8  -5  -6    7.20    9.70
   8   5   6   -9.80    9.40
   8   5   6  -19.50    9.90
  10  -6  -6   33.40   18.70
  10  -6  -6   56.39   16.50
   9  -6  -6   22.40   14.20
   9  -6  -6   25.70   14.40
  -9   6   6   54.69   15.30
   8  -6  -6   66.69   14.40
   8  -6  -6   60.69   18.50
  -8   6   6   56.99   14.30
   7  -6  -6    9.20    8.50
   7  -6  -6   -1.20    7.20
   6  -6  -6   -0.60    7.60
   6  -6  -6    3.30    5.30
   5  -6  -6    7.30    5.00
   5  -6  -6    3.70    5.20
   5  -6  -6   22.40    6.60
   4  -6  -6   57.69    6.80
   4  -6  -6   43.10   15.50
  -4   6   6   64.59   13.40
   3  -6  -6   52.59    8.10
   3  -6  -6   64.69   16.70
   3  -6  -6   61.59    6.90
  -3   6   6   69.49   15.40
   2  -6  -6  208.28   11.20
   2  -6  -6  177.58   12.40
   2  -6  -6  219.68   25.50
  -2   6   6  201.78   21.90
   1  -6  -6    8.10    5.00
   1  -6  -6    5.20    3.20
  -1   6   6    6.70    3.00
  -1   6   6    8.00    6.40
   0  -6  -6  473.05   33.80
   0  -6  -6  485.55   24.60
   0   6   6  453.65   35.10
   0   6   6  500.85   31.60
  -1  -6  -6 2761.82   85.59
   1   6   6 2830.62   67.09
   1   6   6 2665.53   92.89
  -2  -6  -6   22.50    7.60
   2   6   6   34.20   12.00
   2   6   6   32.70    9.10
  -3  -6  -6    0.70    5.50
   3   6   6   12.30    5.90
   3   6   6    5.10    6.60
  -4  -6  -6   20.10    9.50
   4   6   6   27.60    9.20
   4   6   6   23.70   10.20
  -5  -6  -6   53.29   16.10
  -5  -6  -6   75.79   13.30
   5   6   6   68.49   18.50
   5   6   6   95.59   20.20
  -6  -6  -6   11.30   11.00
   6   6   6   22.80   14.90
   6   6   6    6.90   10.50
  -7  -6  -6   24.30   12.20
   7   6   6  -12.50   10.40
   7   6   6    4.00    8.80
   9  -7  -6  -26.30   10.60
   9  -7  -6   15.30   16.30
  -9   7   6   46.70   10.80
   8  -7  -6   15.80   14.80
   8  -7  -6   32.00   11.60
  -8   7   6   21.30   12.00
   7  -7  -6   20.00   14.70
   7  -7  -6   29.10   10.60
  -7   7   6   75.99   18.80
   6  -7  -6  120.29   13.20
   6  -7  -6   93.09   25.40
  -6   7   6  111.39   19.40
   5  -7  -6   93.99    9.20
   5  -7  -6   83.89    8.30
   5  -7  -6   71.39   18.20
  -5   7   6   67.49   13.50
   4  -7  -6    3.30    2.10
   4  -7  -6  -13.70    7.10
   4  -7  -6    3.90    2.10
  -4   7   6    1.10    7.50
   3  -7  -6   42.90   15.20
  -3   7   6   64.29   17.30
   2  -7  -6  122.29   22.80
  -2   7   6  117.29   21.80
   1  -7  -6   24.90    4.00
   1  -7  -6   27.50   10.30
   1  -7  -6   26.70    5.30
  -1   7   6   30.30   12.60
   0  -7  -6   16.90   10.10
   0   7   6    1.50    5.10
   0   7   6   16.50    3.50
  -1  -7  -6   15.20    9.80
   1   7   6    9.00    5.20
   1   7   6   15.50    7.70
  -2  -7  -6  196.28   21.90
   2   7   6  270.57   30.20
   2   7   6  221.78   18.00
  -3  -7  -6   33.40   12.40
   3   7   6   44.80   14.10
   3   7   6   39.90   13.40
  -4  -7  -6   36.80   12.40
   4   7   6   37.90   12.40
   4   7   6   40.40   13.20
  -5  -7  -6   41.70   12.30
   5   7   6   53.19   20.30
   5   7   6   77.09   19.60
  -6  -7  -6    1.30    9.70
   6   7   6    9.70   10.80
   6   7   6  -23.80   10.10
  -7  -7  -6   27.00   14.00
   7   7   6   13.00   13.90
   7   7   6  -26.60   13.30
   9  -8  -6   13.40   16.50
  -9   8   6   22.30   13.90
   8  -8  -6  135.99   25.80
  -8   8   6  110.69   20.70
   7  -8  -6  199.68   35.50
  -7   8   6  145.79   23.70
   6  -8  -6  -10.50   10.40
  -6   8   6    6.60    9.50
   5  -8  -6    1.60    8.20
  -5   8   6    5.80    6.20
   4  -8  -6   24.40   11.00
  -4   8   6    4.20    6.60
   3  -8  -6   -3.80    7.10
  -3   8   6   14.40    9.40
   2  -8  -6  147.49   26.50
  -2   8   6  134.99   25.20
   1  -8  -6  484.55   40.40
  -1   8   6  541.75   42.20
   0  -8  -6   11.30    2.70
   0  -8  -6    7.70    9.30
   0  -8  -6   15.30    4.10
   0   8   6   13.00    8.90
   0   8   6    3.40    3.10
  -1  -8  -6  107.19   20.40
   1   8   6   99.79    8.60
   1   8   6   76.39   20.30
  -2  -8  -6  775.72   48.10
   2   8   6  721.33   33.10
   2   8   6  832.12   55.69
  -3  -8  -6    6.50    7.50
   3   8   6    1.80    9.20
   3   8   6   12.70    8.60
  -4  -8  -6   32.10   13.60
   4   8   6   39.30   15.40
   4   8   6   30.20   11.30
  -5  -8  -6   82.89   20.80
   5   8   6  118.89   20.20
   5   8   6   54.59   18.50
  -6  -8  -6  365.16   40.60
   6   8   6  416.06   39.50
   6   8   6  397.96   38.20
   8  -9  -6  -29.70   10.30
  -8   9   6   -2.00   15.60
   7  -9  -6   14.00   14.80
  -7   9   6    6.30   11.20
   6  -9  -6   60.79   18.90
  -6   9   6   84.49   19.70
   5  -9  -6   27.10   16.30
  -5   9   6    6.20    9.80
  -4   9   6   14.50   10.90
   3  -9  -6  427.36   40.70
  -3   9   6  409.76   37.50
   2  -9  -6   94.49   21.90
  -2   9   6   51.79   17.30
   1  -9  -6   11.70   10.80
  -1   9   6    8.60    8.80
   0  -9  -6   33.40   14.20
   0   9   6   46.90   15.80
  -1  -9  -6    8.40   11.70
   1   9   6   10.30    5.00
   1   9   6   -7.50    7.00
  -2  -9  -6  185.98   30.80
   2   9   6  203.08   17.20
   2   9   6  225.88   35.30
  -3  -9  -6  203.68   31.40
   3   9   6  236.28   36.70
   3   9   6  218.28   22.20
  -4  -9  -6   -8.00   12.40
   4   9   6  -19.80   10.40
   4   9   6    6.70   10.90
  -5  -9  -6    0.80   12.00
   5   9   6   14.00   14.60
   5   9   6   23.90   13.70
   7 -10  -6    9.10   14.20
  -7  10   6   11.80   13.90
   6 -10  -6  130.09   29.50
  -6  10   6  120.09   26.00
   5 -10  -6    3.90   10.80
  -5  10   6   -2.80    9.20
   4 -10  -6   16.50   15.10
  -4  10   6    1.90   13.10
   3 -10  -6  343.57   41.80
  -3  10   6  423.26   39.50
   2 -10  -6   59.29   19.50
  -2  10   6    6.20    8.70
   1 -10  -6   52.49   19.20
  -1  10   6   47.80   17.20
   0 -10  -6   49.30   19.30
   0  10   6   48.90   18.10
  -1 -10  -6   22.70   12.20
   1  10   6    4.10   11.00
  -2 -10  -6   68.69   18.80
   2  10   6   27.50   17.10
  -3 -10  -6  345.57   33.50
   3  10   6  339.17   39.40
   5 -11  -6   20.30   18.70
  -5  11   6   31.60   17.90
   4 -11  -6   48.70   22.30
  -4  11   6   32.40   16.70
   3 -11  -6   -7.90   10.70
  -3  11   6  -11.90    6.60
   2 -11  -6  -10.70   13.10
  -2  11   6   -6.30   12.90
   1 -11  -6   58.89   19.80
  -1  11   6   43.40   19.30
   0 -11  -6  144.49   30.60
   0  11   6  117.59   27.60
  -1 -11  -6   19.30   15.50
   1  11   6   32.60   15.80
  -2 -11  -6  260.47   31.80
   2  11   6  236.48   39.80
   3  12  -7   25.50   16.10
   3  12  -7    1.40   17.20
  -3 -12   7    9.20   12.30
   2  12  -7   21.80   13.60
   2  12  -7   51.69   19.20
  -2 -12   7   54.49   25.50
   1  12  -7    1.00   10.30
   1  12  -7   -0.30   10.20
  -1 -12   7    2.40   13.00
   0  12  -7   12.80   11.10
   0  12  -7   43.80   12.60
   0 -12   7  -14.80   14.20
  -1  12  -7  111.39   24.00
  -1  12  -7  119.19   22.30
   1 -12   7  125.09   31.80
  -2  12  -7  148.39   24.10
  -2  12  -7  125.19   26.70
   2 -12   7  132.39   29.90
  -3  12  -7   20.30    9.80
  -3  12  -7  -14.30   10.60
   3 -12   7   15.30   15.20
   3 -12   7   -1.20    8.00
  -4  12  -7   98.59   18.90
  -4  12  -7  112.29   24.90
   4 -12   7   74.69   20.60
   4 -12   7   91.09   27.80
   5  11  -7    4.70   12.20
   5  11  -7   25.60   11.10
  -5 -11   7   22.80   18.50
   4  11  -7    3.40   12.10
   4  11  -7    4.20   10.60
  -4 -11   7   16.00   13.40
   3  11  -7   38.20   11.40
   3  11  -7    6.00   10.50
  -3 -11   7   16.00   16.90
   2  11  -7    6.00    9.80
   2  11  -7   18.70   10.40
  -2 -11   7   -9.90    9.00
   1  11  -7   59.29   14.60
   1  11  -7  108.69   20.30
  -1 -11   7   82.69   26.10
   0  11  -7   54.49   13.30
   0  11  -7   44.30   14.70
   0 -11   7   48.30   21.00
  -1  11  -7   45.00   13.50
   1 -11   7   46.00   17.60
  -2  11  -7  116.79   21.90
  -2  11  -7  127.39   21.20
   2 -11   7   95.69   28.10
   2 -11   7  148.19   22.40
  -3  11  -7  -12.60    7.50
  -3  11  -7    1.60    9.50
   3 -11   7   -6.90    9.90
   3 -11   7    2.40    8.20
  -4  11  -7   13.30   13.20
  -4  11  -7   -9.30    9.30
   4 -11   7   -3.70    9.60
   4 -11   7   -7.30    8.00
  -5  11  -7  282.27   31.30
  -5  11  -7  183.98   26.90
   5 -11   7  208.18   28.00
   5 -11   7  240.38   41.40
   6  10  -7   37.50   15.20
  -6 -10   7    2.60   17.40
   5  10  -7    5.00    7.80
   5  10  -7    4.80    8.90
  -5 -10   7    5.70   13.80
   4  10  -7   -5.40   11.10
   4  10  -7  -17.70    7.60
  -4 -10   7   -5.80    6.80
   3  10  -7    5.40   10.30
  -3 -10   7   11.10   14.70
   2  10  -7   28.20   12.10
   2  10  -7   15.10    7.30
  -2 -10   7   43.20   18.40
   1  10  -7   -4.30    4.50
   1  10  -7   -6.80    6.40
  -1 -10   7    3.10   11.30
   0  10  -7   51.39   13.60
   0  10  -7   48.30   13.90
   0 -10   7   50.09   16.50
  -1  10  -7  206.48   23.10
  -1  10  -7  227.28   23.80
   1 -10   7  224.88   36.80
  -2  10  -7   39.20   12.60
  -2  10  -7   34.10   11.80
   2 -10   7   26.70   10.80
   2 -10   7   32.60   12.90
  -3  10  -7  585.44   53.79
  -3  10  -7  662.03   41.00
   3 -10   7  721.53   42.70
   3 -10   7  704.23   52.79
  -4  10  -7   -2.50    5.80
  -4  10  -7   -0.30    7.30
   4 -10   7    8.70   10.70
   4 -10   7    0.60    8.10
  -5  10  -7   93.19   21.90
   5 -10   7  134.49   27.30
   5 -10   7  159.58   25.30
  -6  10  -7   87.09   21.90
   6 -10   7  159.88   30.20
   6 -10   7   81.09   20.30
  -7  10  -7    5.90   12.30
   7 -10   7   18.40   10.40
   7 -10   7   32.90   16.10
   7   9  -7   20.30   14.10
  -7  -9   7   -4.70   12.60
   6   9  -7  304.17   34.40
   6   9  -7  228.28   21.10
  -6  -9   7  188.78   39.90
   5   9  -7   71.29   12.30
   5   9  -7   75.59   30.00
  -5  -9   7   77.09   25.10
   4   9  -7   43.00   14.30
   4   9  -7   44.20   16.10
   3   9  -7  107.09   17.90
   3   9  -7   69.09   16.40
  -3  -9   7   64.89   22.90
   2   9  -7   90.19   18.20
   2   9  -7   66.09   14.10
  -2  -9   7   78.39   20.60
   1   9  -7   10.10    7.10
   1   9  -7   -6.20    4.20
  -1  -9   7   -6.80    8.50
   0   9  -7  101.99   19.00
   0   9  -7  135.89   21.00
   0  -9   7  119.19   28.30
  -1   9  -7  266.27   24.40
  -1   9  -7  258.07   23.80
   1  -9   7  338.47   35.50
   1  -9   7  235.88   22.90
  -2   9  -7   40.10   13.30
  -2   9  -7   73.49   14.90
   2  -9   7   66.99   14.10
   2  -9   7   49.10   16.80
  -3   9  -7  223.88   23.50
  -3   9  -7  246.78   26.00
   3  -9   7  259.17   29.80
   3  -9   7  236.88   24.40
  -4   9  -7   15.60    8.80
   4  -9   7   18.90   11.30
   4  -9   7    8.40    6.60
  -5   9  -7   82.39   16.50
   5  -9   7   56.89   15.90
   5  -9   7   34.10   17.10
  -6   9  -7   99.09   20.70
   6  -9   7  103.09   21.70
   6  -9   7   79.09   17.90
  -7   9  -7    2.60    8.10
   7  -9   7  -18.50   11.60
   7  -9   7   -5.00    9.30
   8   8  -7   64.09   22.10
  -8  -8   7  100.89   28.30
   7   8  -7   23.10   14.00
  -7  -8   7   15.40   15.60
   6   8  -7    7.80    6.50
   6   8  -7  -17.10    7.60
  -6  -8   7    6.30   11.50
   5   8  -7    8.20    6.60
   5   8  -7   -6.80    4.80
  -5  -8   7    9.90    9.40
   4   8  -7   55.59   10.20
   4   8  -7   33.00   13.70
  -4  -8   7   29.00   13.00
   3   8  -7  -13.00    4.30
   3   8  -7   10.20    7.50
  -3  -8   7  -12.30    5.60
   2   8  -7  314.97   24.70
   2   8  -7  323.77   28.50
  -2  -8   7  318.87   35.30
   1   8  -7   34.40    9.60
   1   8  -7   10.60    7.00
  -1  -8   7    7.20    7.20
   0   8  -7   40.40   11.30
   0   8  -7   43.40   11.20
   0  -8   7   32.00   10.70
   0  -8   7   47.20   18.20
  -1   8  -7  301.07   25.80
  -1   8  -7  363.76   27.50
   1  -8   7  378.76   35.70
   1  -8   7  361.36   28.30
  -2   8  -7  516.75   34.50
  -2   8  -7  496.45   33.40
   2  -8   7  452.25   31.50
   2  -8   7  497.35   40.30
  -3   8  -7    9.40    7.40
   3  -8   7  -10.50    5.20
   3  -8   7    6.90    8.10
  -4   8  -7  302.17   28.30
   4  -8   7  249.28   28.60
   4  -8   7  244.78   25.20
  -5   8  -7   20.10    8.10
   5  -8   7   15.50   10.80
   5  -8   7   19.90    9.20
  -6   8  -7   69.49   16.10
   6  -8   7   37.70   11.90
   6  -8   7   46.90   15.70
  -7   8  -7  165.08   28.70
   7  -8   7  171.28   26.60
   7  -8   7  174.98   30.20
  -8   8  -7   97.69   22.60
   8  -8   7  104.19   21.90
   8  -8   7   89.29   19.30
   8   7  -7   17.00   14.80
  -8  -7   7    5.50   15.20
   7   7  -7  112.39   25.60
  -7  -7   7  101.39   27.80
   6   7  -7   29.10   13.40
  -6  -7   7   16.00   13.40
   5   7  -7   28.00    9.70
   5   7  -7   11.70    5.80
  -5  -7   7    7.10   10.70
   4   7  -7   39.10   12.20
   4   7  -7   25.30    7.60
  -4  -7   7   36.90   15.30
   3   7  -7    6.60    6.40
   3   7  -7   -2.30    3.90
   2   7  -7   12.00    6.30
   2   7  -7    2.00    4.40
  -2  -7   7    7.80    5.60
   1   7  -7  745.03   35.80
   1   7  -7  660.03   38.50
  -1  -7   7  722.43   50.19
   0   7  -7   15.30    7.40
   0   7  -7    8.20    8.70
   0  -7   7    1.50    8.40
   0  -7   7   13.00    7.40
  -1   7  -7    3.40    5.70
  -1   7  -7    3.30    3.90
   1  -7   7  -15.70    5.20
   1  -7   7    2.00    5.30
  -2   7  -7  842.32   43.00
   2  -7   7  879.91   51.29
   2  -7   7  762.22   41.60
  -3   7  -7    5.80    6.20
   3  -7   7   17.80    9.30
   3  -7   7   -3.30    4.30
  -4   7  -7  380.96   31.00
   4  -7   7  386.36   31.20
   4  -7   7  331.07   29.00
  -5   7  -7   15.40    7.80
   5  -7   7   14.50    7.00
   5  -7   7   12.00    8.40
  -6   7  -7  185.88   32.30
   6  -7   7  169.18   27.60
   6  -7   7  225.38   23.20
  -7   7  -7  270.17   29.00
   7  -7   7  289.27   25.40
   7  -7   7  212.18   34.90
  -8   7  -7   -7.80    7.50
   8  -7   7  -17.80   10.70
   9   6  -7   93.09   27.30
  -9  -6   7   66.79   25.60
   8   6  -7   69.39   20.50
  -8  -6   7   73.39   22.90
   7   6  -7    7.30   10.30
  -7  -6   7   18.80   14.20
   6   6  -7  225.68   26.60
   6   6  -7  171.98    8.90
  -6  -6   7  182.28    8.70
  -6  -6   7  199.68   36.20
   5   6  -7   10.10    5.80
   5   6  -7   18.70    8.30
  -5  -6   7   46.10   13.20
  -5  -6   7   22.10    6.80
   4   6  -7    1.50    7.20
   4   6  -7    4.00    4.50
  -4  -6   7   -2.30    7.80
   3   6  -7   46.00    8.50
   3   6  -7   55.69   13.80
  -3  -6   7   25.10   10.30
   2   6  -7   25.70    7.50
   2   6  -7   25.10    9.70
  -2  -6   7   36.90   13.60
   1   6  -7  360.86   23.00
   1   6  -7  305.17   25.00
  -1  -6   7  349.67   27.30
  -1  -6   7  368.86   33.20
   0   6  -7    0.60    2.80
   0   6  -7    3.80    3.90
   0  -6   7    0.60    3.30
   0  -6   7   -0.30    7.10
  -1   6  -7  110.79   20.10
  -1   6  -7  103.29   17.40
   1  -6   7   94.99   17.20
   1  -6   7  109.59   20.40
  -2   6  -7  151.08   17.80
   2  -6   7  164.48   24.20
   2  -6   7  144.39   21.30
  -3   6  -7  518.45   34.00
   3  -6   7  553.64   35.60
   3  -6   7  490.35   34.30
  -4   6  -7   20.70    8.20
   4  -6   7    8.00    9.10
   4  -6   7   15.40    9.20
  -5   6  -7    1.50    6.10
   5  -6   7    4.20    7.10
   5  -6   7    1.10    7.80
  -6   6  -7  372.46   31.30
   6  -6   7  402.16   36.00
   6  -6   7  387.96   28.10
  -7   6  -7  100.79   20.70
   7  -6   7   82.89   20.40
   7  -6   7   96.39   16.70
  -8   6  -7   -2.90   10.00
   8  -6   7  -21.20    9.40
  -9   6  -7   30.40   12.80
   9  -6   7   11.80   17.50
   9   5  -7   79.19   25.30
  -9  -5   7   89.69   29.70
   8   5  -7   43.20   16.60
  -8  -5   7   52.59   19.70
  -7  -5   7   46.10   16.60
   6   5  -7   19.40    9.60
  -6  -5   7   20.40   12.10
   5   5  -7   -3.90    3.00
   5   5  -7    1.40    5.10
  -5  -5   7   10.40    3.00
  -5  -5   7   17.90   10.10
   4   5  -7   59.69   13.10
   4   5  -7   84.99   16.90
  -4  -5   7   74.59    7.90
  -4  -5   7   30.20   13.50
   3   5  -7   37.10   11.30
   3   5  -7   39.70    7.30
  -3  -5   7   38.60   13.60
   2   5  -7    5.00    3.90
   2   5  -7   -4.00    3.00
  -2  -5   7   -1.30    6.60
   1   5  -7   20.10    8.30
   1   5  -7   11.30    6.10
  -1  -5   7    9.30    4.60
  -1  -5   7   16.50    8.60
   0   5  -7  482.45   30.60
   0   5  -7  570.94   29.60
   0  -5   7  603.14   34.40
   0  -5   7  514.35   36.40
  -1   5  -7   46.90   10.10
   1  -5   7   25.60    9.20
   1  -5   7   43.40   13.00
  -2   5  -7   -1.10    3.90
   2  -5   7    7.50    6.40
   2  -5   7   -3.10    4.40
  -3   5  -7 1150.58   50.09
   3  -5   7 1106.59   48.60
   3  -5   7 1149.48   52.09
  -4   5  -7 1075.79   50.49
   4  -5   7  994.80   44.40
   4  -5   7 1046.50   52.29
  -5   5  -7  457.35   33.70
   5  -5   7  423.86   34.80
   5  -5   7  376.76   26.00
  -6   5  -7    0.00    5.90
   6  -5   7   -5.40    6.50
   6  -5   7   -1.80    6.60
  -7   5  -7   51.09   14.50
   7  -5   7   34.50   13.90
   7  -5   7   80.19   17.70
  -8   5  -7   95.89   19.60
   8  -5   7  113.69   25.50
  -9   5  -7    2.90   11.00
   9  -5   7   -6.10   13.20
 -10  -4   7  132.99   26.90
   9   4  -7  126.79   30.70
  -9  -4   7  136.79   28.40
   8   4  -7   41.80   13.80
  -8  -4   7   16.80   11.90
   7   4  -7    4.30    6.10
  -7  -4   7    3.60    7.60
   6   4  -7  238.18   26.70
  -6  -4   7  236.68   28.20
   5   4  -7  315.87   29.20
  -5  -4   7  294.27   32.10
   4   4  -7   62.69    6.60
   4   4  -7   65.79    8.90
   4   4  -7   65.89   15.20
  -4  -4   7   60.29    8.10
  -4  -4   7   68.19   18.30
   3   4  -7  269.97   15.30
   3   4  -7  313.77   25.90
   3   4  -7  303.97   17.40
  -3  -4   7  310.17   16.90
  -3  -4   7  296.47   31.50
   2   4  -7   19.80    8.00
   2   4  -7   10.80    4.80
  -2  -4   7   19.20    9.50
   1   4  -7   13.30    6.20
   1   4  -7   22.00    6.50
  -1  -4   7   32.70    8.80
  -1  -4   7   21.10    9.30
   0   4  -7  500.65   30.40
   0   4  -7  505.95   27.00
   0  -4   7  470.05   33.00
   0  -4   7  497.45   30.80
  -1   4  -7   98.89   16.10
   1  -4   7   76.49   14.90
   1  -4   7   94.89   15.80
  -2   4  -7   41.00   10.00
   2  -4   7   56.49   13.00
   2  -4   7   48.50   11.40
  -3   4  -7  277.97   23.90
   3  -4   7  259.27   24.50
   3  -4   7  276.87   21.90
  -4   4  -7  382.36   29.20
   4  -4   7  411.36   32.30
   4  -4   7  414.96   25.00
  -5   4  -7   25.10    7.80
  -5   4  -7   17.70    9.10
   5  -4   7    1.10    5.70
  -6   4  -7   11.70    7.60
   6  -4   7    0.90    6.30
   6  -4   7   10.70    4.20
   6  -4   7   -9.40    4.60
  -7   4  -7   16.00    8.90
   7  -4   7   25.70   13.70
  -8   4  -7   22.40   13.10
   8  -4   7   49.80   17.40
  -9   4  -7    5.50    9.90
   9  -4   7   -5.80   11.10
  10   3  -7   65.49   23.90
 -10  -3   7   59.99   22.20
   9   3  -7    2.90    9.90
  -9  -3   7    3.80   10.20
   8   3  -7  350.36   36.00
  -8  -3   7  400.06   41.40
   7   3  -7  105.89   20.60
  -7  -3   7   68.69   19.20
   6   3  -7   66.59   16.70
  -6  -3   7   50.89   17.10
   5   3  -7  688.93   42.40
  -5  -3   7  708.03   49.30
   4   3  -7   26.70   10.00
   4   3  -7   47.40    5.30
   4   3  -7   39.30    4.40
  -4  -3   7   38.80   13.10
   3   3  -7  136.69   16.20
   3   3  -7  105.49   10.30
   3   3  -7   98.19    8.70
  -3  -3   7   96.09    9.80
  -3  -3   7   89.09   17.70
   2   3  -7   75.79   14.20
   2   3  -7   70.09    7.90
  -2  -3   7   63.69   15.00
  -2  -3   7   50.99   11.70
   1   3  -7   27.60    6.70
   1   3  -7   26.70    8.00
  -1  -3   7   13.70    8.30
  -1  -3   7   24.60    7.80
   0   3  -7   37.30    8.30
   0   3  -7   20.30    6.90
   0  -3   7   27.60    9.30
   0  -3   7   26.80    9.40
  -1   3  -7   28.80    8.90
   1  -3   7   48.40   11.30
   1  -3   7   53.89   12.30
  -2   3  -7  278.17   22.00
   2  -3   7  286.77   23.80
   2  -3   7  302.17   22.00
  -3   3  -7   23.50    8.10
  -3   3  -7   19.60    5.20
   3  -3   7    8.20    5.60
   3  -3   7   14.40    7.10
  -4   3  -7  140.09   21.60
   4  -3   7  107.29   19.60
   4  -3   7  109.49   11.70
  -5   3  -7  230.68   11.80
  -5   3  -7  234.58   23.50
   5  -3   7  296.87   29.00
   5  -3   7  230.48   12.80
  -6   3  -7   -1.00    4.40
   6  -3   7    3.70    4.70
  -7   3  -7   -9.90    6.40
   7  -3   7   -2.50    8.90
  -8   3  -7   22.70   10.30
   8  -3   7   -2.10    9.10
  -9   3  -7  322.17   32.70
   9  -3   7  337.47   37.60
  10   2  -7   -6.70   11.40
 -10  -2   7    5.00   12.90
   9   2  -7  -24.90    8.70
  -9  -2   7   33.20   24.80
   8   2  -7  598.24   46.20
  -8  -2   7  558.44   48.60
   7   2  -7  192.08   29.80
  -7  -2   7  233.48   36.20
   6   2  -7   20.30    8.60
  -6  -2   7   26.10   10.70
   5   2  -7  139.59   21.70
  -5  -2   7  136.89   25.40
   4   2  -7  263.77   11.90
   4   2  -7  282.47   25.60
   4   2  -7  255.77   10.60
   3   2  -7   64.69    7.10
   3   2  -7   60.89   12.90
  -3  -2   7   79.69   17.40
   2   2  -7   20.50    5.90
   2   2  -7   22.20    7.60
   2   2  -7   16.20    6.10
  -2  -2   7   21.00    8.90
  -2  -2   7   12.20    6.50
   1   2  -7   -2.50    2.00
   1   2  -7    6.60    2.90
  -1  -2   7   -0.90    2.40
  -1  -2   7    0.80    4.10
   0   2  -7  646.24   30.30
   0  -2   7  651.83   35.80
   0  -2   7  688.63   34.70
  -1   2  -7  611.34   31.60
   1  -2   7  627.84   33.90
   1  -2   7  629.94   32.60
  -2   2  -7   10.50    5.50
  -2   2  -7    1.20    4.80
   2  -2   7   10.60    5.90
   2  -2   7   10.20    5.00
  -3   2  -7  102.09   11.40
   3  -2   7  103.39   11.10
  -4   2  -7   54.79   12.80
  -4   2  -7   59.19    6.20
   4  -2   7   50.09    6.90
   4  -2   7   36.30   11.50
  -5   2  -7  421.76   31.00
   5  -2   7  468.05   36.60
  -6   2  -7  153.48   23.80
   6  -2   7  131.89   23.70
  -7   2  -7   48.70   14.60
   7  -2   7   48.60   16.90
  -8   2  -7    7.40    9.10
   8  -2   7    7.30    9.00
  -9   2  -7  104.59   22.70
   9  -2   7   75.39   20.90
  10   1  -7  143.89   31.60
 -10  -1   7  156.38   31.50
  -9  -1   7  503.65   50.29
   8   1  -7   -0.90    6.80
  -8  -1   7   -8.30    8.70
   7   1  -7  672.23   45.40
  -7  -1   7  649.83   50.79
   6   1  -7  119.79   21.90
  -6  -1   7  154.68   27.60
   5   1  -7   21.20    8.90
  -5  -1   7   -3.00    3.60
   4   1  -7  547.15   18.60
   4   1  -7  554.74   17.50
   4   1  -7  557.64   33.40
  -4  -1   7  575.34   41.40
   3   1  -7    1.60    2.30
   3   1  -7    1.90    3.00
  -3  -1   7    6.50    4.90
   2   1  -7   -9.60    3.10
   2   1  -7    1.80    2.40
   2   1  -7   -1.80    2.70
  -2  -1   7    2.30    3.70
  -2  -1   7    0.90    2.50
   1   1  -7    0.40    3.50
   1   1  -7    1.50    2.70
  -1  -1   7   -2.10    3.60
   0   1  -7   -5.10    2.70
   0  -1   7   -0.40    3.70
   0  -1   7   -3.80    3.30
  -1   1  -7   28.00    8.20
  -1   1  -7   15.30    7.10
   1  -1   7    7.40    3.80
   1  -1   7   16.40    5.80
  -2   1  -7   27.80    9.10
  -2   1  -7   39.80    8.00
   2  -1   7   20.70    7.10
   2  -1   7   31.60    7.80
  -3   1  -7  202.98   23.90
  -3   1  -7  167.68   11.20
   3  -1   7  177.58   11.80
   3  -1   7  165.08   18.90
  -4   1  -7   27.10    9.40
   4  -1   7   24.90    8.80
  -5   1  -7   91.69   17.90
   5  -1   7  101.69   20.80
  -6   1  -7  197.78   23.40
   6  -1   7  225.18   32.60
  -7   1  -7  132.99   22.90
   7  -1   7  157.28   27.10
  -8   1  -7   -7.60    6.50
   8  -1   7    7.00   11.40
  -9   1  -7   19.20   12.50
   9  -1   7   -9.50   10.20
  11   0  -7   78.29   25.10
  11   0  -7  148.99   30.00
 -11   0   7  101.99   28.00
  10   0  -7    5.20   10.70
  10   0  -7   -5.30   10.70
 -10   0   7  -12.40    9.50
   9   0  -7  438.96   42.30
   9   0  -7  487.35   42.40
  -9   0   7  403.76   42.60
   8   0  -7   33.20   13.50
  -8   0   7   24.50   14.60
   7   0  -7  386.86   33.80
  -7   0   7  319.47   35.80
   6   0  -7  161.48   24.90
  -6   0   7  116.79   23.40
   5   0  -7    3.10    6.20
   5   0  -7    3.90    2.10
   5   0  -7    7.00    2.40
  -5   0   7   -2.90    4.80
   4   0  -7   64.29    8.50
   4   0  -7   59.79    8.00
   4   0  -7   58.39   12.60
  -4   0   7   60.79   15.50
   3   0  -7  354.86   22.20
   3   0  -7  413.86   26.10
   3   0  -7  397.46   20.10
  -3   0   7  386.36   31.30
   2   0  -7    0.20    2.40
   2   0  -7   -1.50    3.50
  -2   0   7    5.00    3.80
  -2   0   7    5.10    3.30
  -2   0   7    7.20    5.10
   1   0  -7    8.30    3.90
   1   0  -7    9.70    5.40
  -1   0   7   11.20    5.00
  -1   0   7    8.40    5.20
  -1   0   7   10.40    5.00
   0   0  -7   15.30    5.70
   0   0   7   16.50    5.90
   0   0   7   13.60    6.10
   0   0   7   18.20    5.50
  -1   0  -7   24.80    7.70
  -1   0  -7   27.10    8.00
   1   0   7   39.70    9.80
   1   0   7   43.60    9.80
   1   0   7   38.70   10.50
  -2   0  -7   -3.00    2.70
  -2   0  -7    4.00    3.20
  -2   0  -7   15.30    4.50
   2   0   7   -4.60    2.80
   2   0   7    0.50    4.00
  -3   0  -7  153.58   17.80
  -3   0  -7  145.19    9.50
  -3   0  -7  149.49    9.70
   3   0   7  137.89   21.10
  -4   0  -7  371.76   29.10
   4   0   7  338.57   29.00
  -5   0  -7   85.79   16.80
   5   0   7   90.09   18.80
  -6   0  -7  448.36   34.80
   6   0   7  348.97   34.80
  -7   0  -7   14.60   11.10
   7   0   7   28.80   11.30
  -8   0  -7   49.60   15.50
   8   0   7   60.29   17.70
  -9   0  -7  -20.40    8.90
   9   0   7  -21.30    9.40
  11  -1  -7   92.99   23.40
  11  -1  -7   47.70   19.70
 -11   1   7   95.19   26.80
  10  -1  -7   17.10   11.80
  10  -1  -7    0.50   12.00
 -10   1   7   36.30   15.70
   9  -1  -7   29.00   11.30
   9  -1  -7   31.20   19.80
  -9   1   7   36.80   20.00
   8  -1  -7  229.18   26.70
   8  -1  -7  139.09   28.00
  -8   1   7  191.48   32.70
   7  -1  -7    4.70    6.20
   7  -1  -7    4.20    7.80
  -7   1   7    0.20    3.90
   6  -1  -7   95.79    5.70
   6  -1  -7   75.39    5.70
   6  -1  -7  123.99   21.30
  -6   1   7  106.19   21.50
   5  -1  -7  278.77   24.00
   5  -1  -7  254.47   13.00
   5  -1  -7  268.77   14.10
  -5   1   7  283.17   14.80
  -5   1   7  290.27   30.00
   4  -1  -7   73.79    8.20
   4  -1  -7   49.10   11.80
  -4   1   7   65.89   15.30
  -4   1   7   39.10   10.00
   3  -1  -7    7.80    4.20
   3  -1  -7   14.30    5.90
  -3   1   7    9.60    6.00
  -3   1   7   13.50    5.90
   2  -1  -7  355.26   22.50
   2  -1  -7  315.67   20.60
  -2   1   7  325.07   21.30
  -2   1   7  331.27   22.20
  -2   1   7  302.87   26.10
   1  -1  -7    5.30    5.00
   1  -1  -7   -1.50    2.90
   1  -1  -7    5.50    3.90
  -1   1   7   -0.30    2.70
  -1   1   7    6.40    5.30
  -1   1   7    1.10    4.70
   0  -1  -7   39.80    9.60
   0  -1  -7   42.00   11.20
   0   1   7   36.70    9.80
   0   1   7   41.10   10.70
   0   1   7   42.80    9.70
  -1  -1  -7  468.85   29.50
  -1  -1  -7  505.35   25.30
  -1  -1  -7  422.86   26.20
   1   1   7  456.75   28.10
   1   1   7  460.65   26.00
   1   1   7  484.75   31.20
  -2  -1  -7    6.40    4.90
  -2  -1  -7   -6.20    2.90
   2   1   7   -4.50    2.80
   2   1   7    3.30    3.30
  -3  -1  -7  162.28   10.00
  -3  -1  -7  158.08   18.80
  -3  -1  -7  161.08   10.50
   3   1   7  148.89   23.40
   3   1   7  158.08   18.70
  -4  -1  -7  730.43   41.30
   4   1   7  667.33   42.30
   4   1   7  633.84   40.30
  -5  -1  -7   47.90   13.70
   5   1   7   38.60   12.70
  -6  -1  -7  101.39   21.00
   6   1   7  147.69   26.10
  -7  -1  -7  184.48   28.50
   7   1   7  142.29   27.00
  -8  -1  -7   38.60   15.70
   8   1   7   64.19   18.10
  -9  -1  -7   30.70   11.40
   9   1   7   19.00   15.20
  10  -2  -7   53.09   20.50
  10  -2  -7   63.79   21.40
 -10   2   7   16.90   15.90
   9  -2  -7   -9.30    9.70
   9  -2  -7   -8.90   12.10
  -9   2   7   -0.30   12.20
   8  -2  -7  397.56   39.20
   8  -2  -7  414.26   36.00
  -8   2   7  384.86   39.90
   7  -2  -7   35.80    4.90
   7  -2  -7   48.00   14.50
   7  -2  -7   31.40   12.30
  -7   2   7   35.90    6.40
  -7   2   7   36.00   13.60
   6  -2  -7  258.77   25.40
   6  -2  -7  220.88   14.10
   6  -2  -7  223.18   26.80
  -6   2   7  236.98   15.10
  -6   2   7  196.68   31.80
   5  -2  -7   71.29   14.50
   5  -2  -7   96.19   19.40
   5  -2  -7   71.99    9.50
  -5   2   7   65.69   17.10
  -5   2   7   79.89   11.50
   4  -2  -7  171.48   25.70
   4  -2  -7  192.28   17.70
  -4   2   7  249.68   27.30
  -4   2   7  182.68   15.80
   3  -2  -7  146.09   22.40
   3  -2  -7  140.69   13.90
  -3   2   7  130.29   22.60
  -3   2   7  126.19   13.90
   2  -2  -7   19.20    7.60
   2  -2  -7   34.30    7.90
  -2   2   7   23.80    7.40
  -2   2   7   31.10    9.80
  -2   2   7   39.00   10.20
   1  -2  -7  100.69   11.60
   1  -2  -7   83.69   15.20
  -1   2   7  116.19   17.90
  -1   2   7   83.79   12.70
  -1   2   7   97.49   17.40
   0  -2  -7    1.50    4.90
   0  -2  -7   12.20    6.10
   0   2   7   13.50    5.20
   0   2   7    8.40    6.20
   0   2   7    5.50    5.90
  -1  -2  -7  421.86   24.80
  -1  -2  -7  493.75   31.50
   1   2   7  511.95   33.30
   1   2   7  440.96   27.40
  -2  -2  -7    4.30    4.10
  -2  -2  -7   18.70    5.40
   2   2   7    1.30    6.60
   2   2   7  -10.10    3.40
  -3  -2  -7   54.69    6.50
  -3  -2  -7   68.99    8.10
  -3  -2  -7   62.99   14.60
   3   2   7   42.30   12.50
   3   2   7   56.29   14.30
  -4  -2  -7  276.07   24.40
   4   2   7  270.47   26.30
   4   2   7  227.18   24.30
  -5  -2  -7  178.08   26.30
   5   2   7  212.58   24.50
   5   2   7  201.08   23.90
  -6  -2  -7   -2.30    6.80
   6   2   7    4.20    8.30
  -7  -2  -7  138.89   23.80
   7   2   7   86.29   19.50
  -8  -2  -7  261.57   29.50
   8   2   7  172.98   33.30
  -9  -2  -7   -8.10    8.90
   9   2   7   -0.30    9.80
  10  -3  -7   -0.10   13.10
 -10   3   7    1.40   12.90
   9  -3  -7   44.60   16.60
   9  -3  -7   40.40   12.90
  -9   3   7   11.00   11.70
   8  -3  -7   16.90   13.00
   8  -3  -7   20.30   12.60
  -8   3   7   24.20    7.10
  -8   3   7   21.50   12.60
   7  -3  -7  261.67   16.20
   7  -3  -7  225.48   23.70
   7  -3  -7  210.78   32.50
  -7   3   7  202.68   35.10
  -7   3   7  207.08   16.30
   6  -3  -7  231.88   28.00
   6  -3  -7  197.48   20.90
  -6   3   7  174.48   29.70
  -6   3   7  198.18   16.20
   5  -3  -7   35.10   12.50
   5  -3  -7   10.50    6.70
  -5   3   7   37.30    9.50
  -5   3   7   37.30   12.10
   4  -3  -7   71.89   13.10
   4  -3  -7   59.59   15.30
  -4   3   7   59.09   11.50
  -4   3   7   53.69   16.40
   3  -3  -7    0.90    3.90
   3  -3  -7    1.80    6.00
  -3   3   7   10.40    4.60
  -3   3   7    7.10    7.90
   2  -3  -7  111.49   19.30
   2  -3  -7   90.29   10.90
  -2   3   7   84.19   15.30
  -2   3   7   84.79   12.40
  -2   3   7   83.99   17.90
   1  -3  -7   62.19   13.10
   1  -3  -7  104.79   11.40
  -1   3   7   99.09   16.90
  -1   3   7   70.89   11.90
   0  -3  -7  133.99   15.50
   0   3   7  107.99   18.60
   0   3   7   84.89   13.50
  -1  -3  -7  143.19   14.80
   1   3   7  148.49   15.50
   1   3   7  152.68   32.70
  -2  -3  -7  694.53   30.80
  -2  -3  -7  663.43   39.70
   2   3   7  677.33   36.00
   2   3   7  752.32   43.50
  -3  -3  -7  148.89   12.20
  -3  -3  -7  118.09   21.30
  -3  -3  -7  129.09   11.90
   3   3   7  130.19   20.50
   3   3   7  105.69   21.80
  -4  -3  -7   65.49    7.30
  -4  -3  -7   60.69   15.20
  -4  -3  -7   71.39    7.00
   4   3   7   71.09   16.30
   4   3   7   71.19   16.70
  -5  -3  -7  642.34   42.80
   5   3   7  680.43   45.10
   5   3   7  691.13   46.80
  -6  -3  -7   46.70   14.60
   6   3   7   65.29   17.30
   6   3   7   44.70   15.40
  -7  -3  -7   65.99   15.50
  -8  -3  -7   33.50   15.50
   8   3   7   -1.30   13.20
  10  -4  -7    7.60   12.40
  10  -4  -7    5.40   11.30
   9  -4  -7   89.89   22.30
   9  -4  -7   63.19   20.90
  -9   4   7   83.69   13.00
   8  -4  -7   21.60   11.30
   8  -4  -7  -18.40    8.60
  -8   4   7   16.30    7.50
  -8   4   7   -1.70   12.60
   7  -4  -7   25.10   14.20
   7  -4  -7   26.90   14.70
  -7   4   7   42.80    8.80
  -7   4   7    5.20    8.60
   6  -4  -7  159.48   18.10
   6  -4  -7  166.58   29.00
  -6   4   7  173.18   29.00
  -6   4   7  146.89   16.00
   5  -4  -7   47.80   14.50
   5  -4  -7   97.29   15.70
  -5   4   7   96.59   16.20
  -5   4   7   98.19   22.00
   4  -4  -7   14.00    6.80
   4  -4  -7   21.30    9.50
  -4   4   7    5.00    7.80
  -4   4   7   14.90    7.00
   3  -4  -7   10.80    7.60
   3  -4  -7   -6.00    3.30
  -3   4   7   -1.90    4.20
   2  -4  -7    3.80    3.60
   2  -4  -7    8.80    5.30
  -2   4   7   -1.00    5.30
   1  -4  -7   16.70    5.40
  -1   4   7    7.90    4.40
  -1   4   7    7.00    7.00
   0  -4  -7  100.89   17.20
   0   4   7  113.19   15.30
   0   4   7  127.09   20.50
  -1  -4  -7    4.20    5.40
   1   4   7    3.20    5.70
   1   4   7   -5.30    4.00
  -2  -4  -7  773.42   35.10
   2   4   7  645.64   42.90
   2   4   7  782.42   38.30
  -3  -4  -7   31.10   11.00
  -3  -4  -7   36.40    8.30
   3   4   7   12.40    8.10
   3   4   7   31.40   11.00
  -4  -4  -7    7.10    5.60
  -4  -4  -7   16.80    5.60
   4   4   7    4.60    8.10
   4   4   7   13.00    4.70
  -5  -4  -7  170.78   27.40
   5   4   7  208.08   32.90
   5   4   7  170.18   27.80
  -6  -4  -7  297.27   35.90
   6   4   7  298.87   45.70
   6   4   7  277.17   30.00
  -7  -4  -7   10.10   10.20
   7   4   7   15.90   13.70
   7   4   7   12.10   11.50
  -8  -4  -7   20.00   11.70
   8   4   7  -23.60   11.50
  10  -5  -7  141.89   24.80
  10  -5  -7   91.99   25.30
   9  -5  -7   21.80   10.10
   9  -5  -7    4.20   16.20
  -9   5   7    4.90   10.80
   8  -5  -7   85.39   22.90
   8  -5  -7   89.79   17.90
  -8   5   7   66.19   14.30
   7  -5  -7   16.70    9.50
   7  -5  -7   45.90   10.40
  -7   5   7   40.30   11.40
   6  -5  -7    5.90    7.80
   6  -5  -7    0.20    8.70
  -6   5   7   11.00    7.00
   5  -5  -7  168.98   28.80
   5  -5  -7  180.68   16.80
  -5   5   7  189.08   20.50
   4  -5  -7  187.08   29.10
   4  -5  -7  157.48   14.60
  -4   5   7  176.68   20.80
   3  -5  -7    0.20    4.20
   3  -5  -7   -0.10    6.80
  -3   5   7   -6.50    4.40
   2  -5  -7   -2.80    2.70
   2  -5  -7    8.60    6.20
  -2   5   7   -4.80    4.40
   1  -5  -7   -1.20    6.70
   1  -5  -7   11.40    4.40
  -1   5   7    8.30    8.20
  -1   5   7    8.80    4.30
   0  -5  -7   32.40   11.30
   0   5   7   21.50   10.90
   0   5   7   26.60    7.70
  -1  -5  -7   12.80    7.90
   1   5   7   15.10    5.80
   1   5   7   33.70    9.20
  -2  -5  -7   28.00   10.40
   2   5   7   31.40    8.70
   2   5   7   27.50   10.00
  -3  -5  -7   -1.80    4.50
   3   5   7   -1.50    6.30
  -4  -5  -7   28.80   10.80
  -4  -5  -7   41.60    8.90
   4   5   7   24.20   12.80
   4   5   7   27.40   12.10
  -5  -5  -7   24.20   10.90
  -5  -5  -7   27.40    6.60
   5   5   7   23.70   11.10
   5   5   7   33.30   11.00
  -6  -5  -7   57.69   16.50
   6   5   7   39.30   16.60
   6   5   7   47.80   16.30
  -7  -5  -7    8.80   12.40
   7   5   7   41.20   15.40
   7   5   7   54.59   17.20
   9  -6  -7   -4.60   11.10
   9  -6  -7  -15.10   10.40
  -9   6   7    4.00   15.80
   8  -6  -7   18.30   12.40
   8  -6  -7   -3.20   13.00
  -8   6   7   -2.40    8.70
   7  -6  -7    8.90    9.40
   7  -6  -7    6.30   13.50
  -7   6   7   -1.00    9.30
   6  -6  -7   89.99   13.40
   6  -6  -7   50.39   17.70
  -6   6   7   46.00   14.80
   5  -6  -7   51.89   11.40
   5  -6  -7   80.19   20.50
  -5   6   7   49.00   11.90
   4  -6  -7   11.90    5.10
   4  -6  -7   10.10    5.80
   4  -6  -7    0.30    7.20
  -4   6   7   30.60    7.90
   3  -6  -7    5.20    3.40
   3  -6  -7   -3.90    7.00
   3  -6  -7   -1.60    5.00
  -3   6   7   -5.50    5.20
   2  -6  -7   77.09   18.40
   2  -6  -7   63.99   11.20
   2  -6  -7   49.80    8.20
  -2   6   7   85.59   18.70
   1  -6  -7   51.99   10.30
   1  -6  -7   50.59   14.00
   1  -6  -7   49.40    8.30
  -1   6   7   52.99    8.60
  -1   6   7   65.59   17.10
   0  -6  -7   85.59   21.40
   0   6   7   89.79   12.20
   0   6   7   71.49   17.70
  -1  -6  -7  105.69   19.30
   1   6   7  130.69   24.30
   1   6   7  113.09   12.40
  -2  -6  -7   20.40   11.90
   2   6   7   32.00   10.20
   2   6   7   13.20    9.80
  -3  -6  -7  336.47   26.60
   3   6   7  369.66   36.00
   3   6   7  309.77   26.30
  -4  -6  -7   31.90   12.90
  -4  -6  -7   34.60   10.80
   4   6   7   30.30   11.40
   4   6   7   17.70   12.20
  -5  -6  -7   16.30    8.50
  -5  -6  -7   27.50   15.20
   5   6   7   45.20   18.70
   5   6   7   57.49   15.50
  -6  -6  -7  122.39   25.00
   6   6   7  141.59   29.10
   6   6   7  173.38   28.90
  -7  -6  -7  133.19   28.30
   7   6   7  147.79   29.80
   7   6   7  109.39   22.20
   9  -7  -7   -2.90   11.90
   9  -7  -7  -17.50   13.80
  -9   7   7   16.00   14.90
   8  -7  -7  -19.10   11.30
  -8   7   7   -9.90   10.50
   7  -7  -7   68.79   12.60
   7  -7  -7   39.80   18.40
  -7   7   7   62.19   16.10
   6  -7  -7  -13.30   10.60
   6  -7  -7   14.10    8.20
  -6   7   7   23.80    9.40
   5  -7  -7    8.90   11.00
   5  -7  -7   13.70    5.60
   4  -7  -7   29.10    5.50
   4  -7  -7   26.90   12.90
   4  -7  -7   12.40    4.00
  -4   7   7    5.30    9.50
   3  -7  -7  131.19   25.90
   3  -7  -7  135.69    8.30
   3  -7  -7  147.99    9.40
  -3   7   7  161.88   26.90
   2  -7  -7   50.29   16.30
   2  -7  -7   59.89    5.90
   2  -7  -7   53.19    7.70
  -2   7   7   37.40   12.80
   1  -7  -7   25.60    5.20
   1  -7  -7    3.70    6.20
  -1   7   7   31.00   13.10
   0  -7  -7  104.39   16.00
   0  -7  -7  102.69   19.90
   0  -7  -7   84.69    9.60
   0   7   7   98.19   10.40
   0   7   7  112.99   23.20
  -1  -7  -7  118.79   21.60
   1   7   7  122.99   12.40
   1   7   7  106.29   22.40
  -2  -7  -7   38.30   12.00
   2   7   7    8.80   10.40
   2   7   7    9.30    8.10
  -3  -7  -7  116.39   20.90
   3   7   7  113.79   18.80
  -4  -7  -7    5.50    9.60
   4   7   7   38.60   11.30
   4   7   7  -14.30   10.50
  -5  -7  -7   34.40   11.00
  -5  -7  -7   57.79   18.80
   5   7   7   39.40   17.30
   5   7   7   21.40   15.70
  -6  -7  -7   62.69   18.30
   6   7   7   85.59   23.60
   6   7   7   81.29   20.90
   8  -8  -7    4.40   12.40
  -8   8   7    9.80   12.70
   7  -8  -7   71.29   19.60
  -7   8   7   64.29   19.10
   6  -8  -7   -6.80   10.50
  -6   8   7   11.50   11.60
   5  -8  -7    1.90   11.30
  -5   8   7   14.30    9.00
   4  -8  -7   66.49   20.50
  -4   8   7   72.89   18.20
   3  -8  -7  153.68   28.40
  -3   8   7  203.18   30.90
   2  -8  -7   85.69   23.40
  -2   8   7  101.49   23.00
   1  -8  -7  139.09   25.80
  -1   8   7  158.18   27.50
   0  -8  -7   29.90    4.90
   0  -8  -7   47.80   16.30
   0   8   7   20.00    5.20
   0   8   7   46.10   12.10
  -1  -8  -7   28.60   11.40
   1   8   7   25.70   12.50
   1   8   7   50.19    8.90
  -2  -8  -7   -1.70    8.80
   2   8   7    8.70   11.30
   2   8   7   11.60    7.50
  -3  -8  -7   66.79   16.60
   3   8   7   62.49   13.30
   3   8   7   58.29   17.60
  -4  -8  -7    4.40    9.90
   4   8   7  -11.90   10.00
   4   8   7   12.20   14.90
  -5  -8  -7    0.70    8.30
   5   8   7   12.60   15.70
   5   8   7   -6.60   11.20
   7  -9  -7   -6.80   11.10
   6  -9  -7   64.59   19.10
  -6   9   7   88.39   23.70
   5  -9  -7    4.60   11.20
  -5   9   7  -24.30    9.20
   4  -9  -7   25.20   13.20
  -4   9   7   17.00   12.30
   3  -9  -7   48.50   17.70
  -3   9   7   38.20   17.40
   2  -9  -7   41.20   18.50
   1  -9  -7  136.89   28.90
  -1   9   7   50.89   14.40
   0  -9  -7   39.00   16.00
   0   9   7    4.20   11.30
  -1  -9  -7   17.30   15.00
   1   9   7   -3.10    9.70
  -2  -9  -7   27.10   14.90
   2   9   7   -8.40    7.80
   2   9   7   -1.50   11.80
  -3  -9  -7   39.00   14.90
   3   9   7   68.99   19.80
   3   9   7   68.49   16.30
  -4  -9  -7  139.19   25.90
   4   9   7  148.29   32.70
   4   9   7  130.09   23.20
   6 -10  -7  113.89   26.70
  -6  10   7   47.50   19.40
   5 -10  -7   25.50   17.00
  -5  10   7  -20.70   10.90
   4 -10  -7   82.19   26.80
  -4  10   7  120.49   26.30
   3 -10  -7  252.97   40.30
  -3  10   7  305.57   36.00
   2 -10  -7  298.87   44.40
  -2  10   7  270.37   39.90
   1 -10  -7   23.40   14.20
  -1  10   7   25.10   16.30
   0 -10  -7   18.70   15.80
   0  10   7   23.60   13.90
  -1 -10  -7    2.20   14.90
   1  10   7    8.50   13.40
  -2 -10  -7    8.90   13.60
   2  10   7   18.40   13.90
   3 -11  -7   12.70   17.00
  -3  11   7    3.00   11.50
   2 -11  -7   93.39   25.80
  -2  11   7   74.39   22.40
   1 -11  -7   95.39   26.00
  -1  11   7   61.29   21.30
   0 -11  -7    5.70   11.00
   2  12  -8  -20.20    7.90
   2  12  -8  -28.70   14.00
  -2 -12   8  -27.10   11.90
   1  12  -8   60.59   19.30
   1  12  -8   86.79   19.50
  -1 -12   8   41.30   23.10
   0  12  -8   20.20   14.30
   0 -12   8   16.00   19.40
  -1  12  -8    0.80   15.20
  -1  12  -8   23.50   12.30
   1 -12   8   22.50   17.30
  -2  12  -8  121.59   24.10
  -2  12  -8  146.09   25.60
   2 -12   8  124.29   29.90
  -3  12  -8   11.70   10.80
  -3  12  -8   10.50   10.90
   3 -12   8   17.70   14.70
   3 -12   8   29.80   11.60
   4  11  -8  231.88   25.50
   4  11  -8  207.18   33.40
  -4 -11   8  296.37   48.10
   3  11  -8   57.39   17.20
   3  11  -8   60.39   14.10
  -3 -11   8    4.90   14.90
   2  11  -8   56.89   21.20
   2  11  -8   -0.10   10.90
  -2 -11   8   19.40   17.00
   1  11  -8    4.30   11.10
   1  11  -8   46.50   14.10
  -1 -11   8   36.00   14.60
   0  11  -8   58.79   15.50
   0 -11   8   55.99   23.10
  -1  11  -8   52.99   15.00
  -1  11  -8   47.30   14.30
   1 -11   8   82.59   22.50
  -2  11  -8  503.45   40.20
  -2  11  -8  470.75   36.30
   2 -11   8  459.25   46.70
   2 -11   8  525.55   37.20
  -3  11  -8  -15.20    8.60
  -3  11  -8   -1.80   10.50
   3 -11   8    2.70   10.50
   3 -11   8   -5.50   12.00
  -4  11  -8    4.50   10.90
   4 -11   8    1.80   12.60
  -5  11  -8    7.10    7.50
  -5  11  -8    3.80   11.20
   5 -11   8  -17.80   10.40
   5 -11   8   32.50   17.10
   5  10  -8   11.70    8.80
   5  10  -8   17.00   10.30
  -5 -10   8    4.30   16.40
   4  10  -8    2.00    8.10
   4  10  -8  -10.90   11.30
  -4 -10   8    4.80   12.90
   3  10  -8    9.30   10.00
   3  10  -8   -6.10    8.30
  -3 -10   8    8.90   10.80
   2  10  -8   23.80    8.90
   2  10  -8   17.40    8.30
  -2 -10   8   54.29   17.00
   1  10  -8   39.20   10.90
   1  10  -8   40.50   14.00
  -1 -10   8   18.90   10.60
   0  10  -8   63.49   16.10
   0  10  -8   80.09   18.30
   0 -10   8   58.89   35.90
  -1  10  -8  105.79   17.90
  -1  10  -8   82.79   18.70
   1 -10   8  127.89   30.30
   1 -10   8   86.29   19.60
  -2  10  -8   28.20   11.90
   2 -10   8   50.59   11.50
   2 -10   8   29.10   16.70
  -3  10  -8  319.57   31.70
  -3  10  -8  270.67   28.00
   3 -10   8  325.67   30.50
   3 -10   8  380.46   38.20
  -4  10  -8   22.00    9.80
  -4  10  -8   25.00   12.80
   4 -10   8   15.10   12.20
   4 -10   8   43.50   15.60
  -5  10  -8  -24.10    8.50
   5 -10   8  -21.60   11.60
   5 -10   8    9.20    8.30
  -6  10  -8  137.79   27.50
   6 -10   8   94.79   22.60
   6 -10   8  141.59   26.40
   6   9  -8    7.50    8.40
  -6  -9   8    4.90   13.90
   5   9  -8   65.59   11.50
   5   9  -8   36.50   15.10
  -5  -9   8   47.90   20.70
   4   9  -8   35.20   16.60
  -4  -9   8   50.19   18.60
   3   9  -8  284.07   23.40
   3   9  -8  330.57   31.60
  -3  -9   8  323.07   39.60
   2   9  -8   10.60    7.80
   2   9  -8   -7.50    7.30
  -2  -9   8    4.90    9.00
   1   9  -8   -0.60    5.50
   1   9  -8    4.20    6.80
  -1  -9   8  -12.60    5.70
   0   9  -8    1.00    4.20
   0   9  -8   13.00    6.80
   0  -9   8   -8.40    9.40
  -1   9  -8   83.79   18.30
  -1   9  -8   88.19   17.30
   1  -9   8   89.29   17.90
   1  -9   8   68.29   21.30
  -2   9  -8   75.79   17.70
  -2   9  -8   69.69   16.40
   2  -9   8   59.79   17.00
   2  -9   8   73.09   17.10
  -3   9  -8  203.18   24.40
  -3   9  -8  184.68   27.00
   3  -9   8  223.48   23.70
   3  -9   8  190.28   32.20
  -4   9  -8    3.30    8.20
   4  -9   8   -1.10    7.40
   4  -9   8   -1.60    9.90
  -5   9  -8   17.70   10.80
   5  -9   8   26.80   14.40
   5  -9   8    0.00    9.00
  -6   9  -8   38.40   16.90
   6  -9   8   99.89   22.50
   6  -9   8  104.09   21.80
  -7   9  -8  283.77   32.20
   7  -9   8  178.88   31.70
   7  -9   8  250.37   29.30
   7   8  -8   55.59   22.90
  -7  -8   8   70.89   27.10
   6   8  -8   33.40   11.70
  -6  -8   8   11.30   12.80
   5   8  -8   -8.80   10.00
   5   8  -8   10.50    7.30
  -5  -8   8   -7.60   10.80
   4   8  -8   62.49   16.40
   4   8  -8   29.70    7.80
  -4  -8   8   27.50   16.10
   3   8  -8  165.18   25.90
   3   8  -8  133.59   16.20
  -3  -8   8  149.99   29.90
   2   8  -8    6.20    6.90
   2   8  -8   20.80    7.60
  -2  -8   8   -2.40    6.30
   1   8  -8    4.80    6.30
   1   8  -8    7.70    6.10
  -1  -8   8    6.10    7.80
   0   8  -8    6.50    7.50
   0   8  -8   10.40    6.90
   0  -8   8    9.70   10.50
   0  -8   8   12.00    6.20
  -1   8  -8  237.08   24.60
  -1   8  -8  263.87   24.90
   1  -8   8  235.18   24.70
   1  -8   8  274.97   31.80
  -2   8  -8  109.89   20.80
  -2   8  -8   99.69   19.40
   2  -8   8   97.49   20.20
   2  -8   8  145.99   27.60
  -3   8  -8   44.90   14.20
   3  -8   8   35.40   12.40
   3  -8   8   42.00   15.80
  -4   8  -8    2.70    5.10
   4  -8   8   13.00   11.80
   4  -8   8  -10.70    3.80
  -5   8  -8   -5.80    6.80
   5  -8   8    1.40   10.80
   5  -8   8    2.00    7.00
  -6   8  -8   65.29   18.60
   6  -8   8   82.79   19.50
   6  -8   8   73.29   18.70
  -7   8  -8   79.69   19.80
   7  -8   8  120.49   22.40
   7  -8   8   97.49   22.60
   8   7  -8  167.98   33.00
  -8  -7   8  136.59   32.80
   7   7  -8   44.50   11.90
  -7  -7   8   18.80   12.60
   6   7  -8   17.90    9.80
  -6  -7   8    9.30   13.60
   5   7  -8   61.39   16.10
   5   7  -8   51.49   10.50
  -5  -7   8   44.10   18.30
   4   7  -8    7.70    5.00
   4   7  -8   10.50    5.40
  -4  -7   8    9.80    9.80
   3   7  -8  224.48   18.30
   3   7  -8  222.38   25.40
  -3  -7   8  230.68   36.90
   2   7  -8  130.89   14.70
   2   7  -8  126.19   21.20
  -2  -7   8  115.09   24.80
   1   7  -8    4.60    6.20
  -1  -7   8    0.20    7.30
   0   7  -8    7.70    5.70
   0   7  -8   19.70    8.70
   0  -7   8    6.90    6.80
   0  -7   8   15.80   10.00
  -1   7  -8  114.19   19.90
  -1   7  -8  145.99   17.20
   1  -7   8  165.68   28.10
   1  -7   8  132.09   21.60
  -2   7  -8    7.00    6.50
  -2   7  -8    2.10    6.20
   2  -7   8   -0.60    5.90
   2  -7   8    2.10    5.80
  -3   7  -8    5.30    7.60
   3  -7   8   21.90    8.20
   3  -7   8   -3.40    6.10
  -4   7  -8   72.69   16.60
   4  -7   8  101.19   20.00
   4  -7   8   67.19   24.30
  -5   7  -8  268.97   27.80
   5  -7   8  270.97   27.10
   5  -7   8  261.07   27.80
  -6   7  -8  566.04   42.50
   6  -7   8  590.34   38.10
   6  -7   8  551.84   45.90
  -7   7  -8  106.69   21.40
   7  -7   8   67.49   18.70
   7  -7   8   79.69   18.30
  -8   7  -8   -7.50    9.90
   8  -7   8   18.30   14.30
  -9  -6   8   30.00   18.20
   8   6  -8  -12.70   12.50
  -8  -6   8   18.00   14.70
   7   6  -8   -4.40   10.40
  -7  -6   8   41.10   14.00
   6   6  -8   80.29   19.90
  -6  -6   8  101.59   27.10
   5   6  -8    8.20    5.80
   5   6  -8   17.30   10.20
   5   6  -8    2.30    4.60
  -5  -6   8   -3.00    5.70
  -5  -6   8    5.00   11.20
   4   6  -8   15.40    5.50
   4   6  -8   -0.60    8.80
  -4  -6   8   10.60    8.30
   3   6  -8   -1.20    4.50
   3   6  -8   10.00    5.60
  -3  -6   8   15.30   10.20
   2   6  -8  299.47   21.10
   2   6  -8  314.47   27.20
  -2  -6   8  285.87   32.00
   1   6  -8  115.89   20.00
   1   6  -8   96.39   14.20
  -1  -6   8   77.59   17.10
  -1  -6   8   84.59   20.40
   0   6  -8   42.90   13.20
   0   6  -8   28.80   10.40
   0  -6   8   17.40   11.40
   0  -6   8   38.70   11.00
  -1   6  -8    4.50    5.00
  -1   6  -8   13.30    7.00
   1  -6   8    1.30    5.50
  -2   6  -8  119.29   19.10
   2  -6   8  101.89   20.10
   2  -6   8  102.39   19.00
  -3   6  -8   42.10   13.00
   3  -6   8   46.90   12.90
   3  -6   8   74.39   17.30
  -4   6  -8  164.28   24.50
   4  -6   8  241.08   26.00
   4  -6   8  189.78   21.70
  -5   6  -8    0.40    7.00
   5  -6   8    7.90    9.20
   5  -6   8   -5.20    7.50
  -6   6  -8   62.39   17.80
   6  -6   8   63.19   14.50
   6  -6   8   69.19   18.40
  -7   6  -8   36.10   12.90
   7  -6   8   61.59   19.50
   7  -6   8   49.80   12.90
  -8   6  -8   -4.00    8.90
   9   5  -8   -3.20   13.80
  -9  -5   8    9.50   16.90
   8   5  -8   10.40   10.80
  -8  -5   8   -6.00    9.80
   7   5  -8   43.80   17.00
   6   5  -8   65.69   17.60
  -6  -5   8   54.69   19.40
   5   5  -8   -0.50    3.20
   5   5  -8    6.10    6.80
   5   5  -8    8.90    4.10
  -5  -5   8  -17.10    7.90
   4   5  -8  106.39   20.50
   4   5  -8  118.79   11.10
   4   5  -8  112.99   11.70
  -4  -5   8  141.09   11.00
  -4  -5   8  130.99   26.40
   3   5  -8  215.58   23.40
   3   5  -8  218.88   15.50
  -3  -5   8  236.88   27.50
   2   5  -8  445.66   24.20
   2   5  -8  484.85   33.40
  -2  -5   8  477.55   39.30
   1   5  -8   69.69   14.50
   1   5  -8   82.89   13.20
  -1  -5   8   50.89   13.60
  -1  -5   8   58.99   17.10
   0   5  -8  164.48   18.40
   0   5  -8  161.28   16.60
   0  -5   8  185.68   27.60
   0  -5   8  127.69   20.10
  -1   5  -8   17.10    7.20
  -1   5  -8   20.80    8.50
   1  -5   8   20.30    8.40
   1  -5   8   16.30    8.00
  -2   5  -8  490.85   32.10
   2  -5   8  504.95   34.70
   2  -5   8  501.95   34.30
  -3   5  -8   69.09   14.80
   3  -5   8   69.79   15.10
   3  -5   8   63.99   15.10
  -4   5  -8   58.39   14.90
   4  -5   8   68.49   17.90
   4  -5   8   73.39   14.40
  -5   5  -8   46.30   13.30
   5  -5   8   27.00    9.10
   5  -5   8   27.20    8.60
  -6   5  -8    0.40    6.30
   6  -5   8    4.50    9.50
   6  -5   8   -1.20    5.90
  -7   5  -8   18.00    7.90
   7  -5   8   41.10   14.30
  -8   5  -8   -2.00   11.50
   8  -5   8  -10.40   11.90
   9   4  -8   28.60   15.40
  -9  -4   8   50.79   19.30
  -8  -4   8  -13.40    7.50
   7   4  -8    1.70    9.60
  -7  -4   8  -11.00    4.90
   6   4  -8   -1.50    7.90
  -6  -4   8   14.00   13.90
   5   4  -8   50.09    3.90
   5   4  -8   48.60    3.50
   5   4  -8   68.89   17.70
  -5  -4   8   46.00   13.80
   4   4  -8  112.29   19.60
   4   4  -8  105.69    9.00
   4   4  -8   95.69    9.70
  -4  -4   8  112.09   24.10
   3   4  -8   84.19   11.30
   3   4  -8   53.59   12.80
  -3  -4   8   86.79   21.00
   2   4  -8  168.98   14.50
   2   4  -8  197.48   20.90
  -2  -4   8  210.58   25.50
   1   4  -8  161.78   18.40
   1   4  -8  204.18   16.60
  -1  -4   8  150.38   24.70
  -1  -4   8  180.78   19.60
   0   4  -8   68.19   12.10
   0   4  -8   53.69   12.50
   0  -4   8   85.99   17.80
   0  -4   8   69.69   15.00
  -1   4  -8    1.00    4.10
   1  -4   8    0.90    5.10
   1  -4   8   -4.60    2.80
  -2   4  -8  330.97   25.80
   2  -4   8  389.56   29.80
   2  -4   8  382.76   28.40
  -3   4  -8  143.59   21.60
   3  -4   8  123.59   18.40
   3  -4   8  158.78   24.40
  -4   4  -8  273.17   25.80
   4  -4   8  264.87   27.10
   4  -4   8  254.97   20.50
  -5   4  -8    7.60    6.70
   5  -4   8   14.70    9.40
   5  -4   8   -3.90    7.10
  -6   4  -8   41.00    8.40
  -6   4  -8   52.99   12.60
   6  -4   8   23.80    6.00
   6  -4   8   36.00   13.80
   6  -4   8   33.50    6.30
  -7   4  -8    0.60    6.20
   7  -4   8    9.20   11.80
  -8   4  -8  200.68   30.90
   8  -4   8   99.89   23.90
  -9   4  -8   14.10   11.60
   9  -4   8    6.80   14.50
  10   3  -8   99.09   24.80
 -10  -3   8   33.40   21.10
   9   3  -8   87.79   18.80
  -9  -3   8  140.19   32.90
   8   3  -8   57.79   19.50
  -8  -3   8  113.69   26.50
   7   3  -8   27.20    9.90
  -7  -3   8   -4.20    9.00
   6   3  -8   16.90   10.40
  -6  -3   8   15.00   12.30
   5   3  -8  318.07   29.20
  -5  -3   8  344.27   34.90
   4   3  -8   77.59    7.20
   4   3  -8   81.49   17.40
   4   3  -8   75.29    8.50
  -4  -3   8  123.99   24.20
   3   3  -8  179.98   20.10
   3   3  -8  176.48   14.30
   3   3  -8  190.38   12.70
  -3  -3   8  179.68   28.50
   2   3  -8  283.67   24.20
   2   3  -8  282.97   18.00
  -2  -3   8  290.27   24.50
  -2  -3   8  278.97   27.90
   1   3  -8   74.29   12.70
   1   3  -8   50.89   13.90
  -1  -3   8   88.29   17.60
   0   3  -8   10.50    7.30
   0   3  -8   13.60    7.80
   0  -3   8   33.50   12.40
   0  -3   8   26.10    8.80
  -1   3  -8  601.34   33.20
   1  -3   8  579.24   35.50
   1  -3   8  620.04   36.50
  -2   3  -8 1029.00   46.30
   2  -3   8 1042.10   44.40
   2  -3   8  985.40   48.20
  -3   3  -8  880.91   44.60
   3  -3   8  882.31   38.00
   3  -3   8  868.51   47.10
  -4   3  -8   52.99    9.40
  -4   3  -8   42.20   11.30
   4  -3   8   47.90    9.20
   4  -3   8   42.90   12.80
  -5   3  -8    1.60    4.90
  -5   3  -8    0.90    2.60
   5  -3   8    2.50    5.30
   5  -3   8   -6.20    3.00
  -6   3  -8   -2.20    6.80
   6  -3   8   33.40   12.20
  -7   3  -8    0.00    5.60
   7  -3   8   -2.80    4.20
  -8   3  -8   15.00   10.50
   8  -3   8   19.20   13.00
  -9   3  -8  -12.00    9.50
   9  -3   8   12.80   15.70
  10   2  -8   19.40   14.50
 -10  -2   8  -14.50   10.20
   9   2  -8  164.58   31.10
  -9  -2   8  199.38   35.60
   8   2  -8   39.80   15.60
  -8  -2   8   78.89   21.20
   7   2  -8  121.49   24.30
  -7  -2   8  123.59   26.20
   6   2  -8   65.69   17.70
  -6  -2   8   92.69   22.50
   5   2  -8   11.00    8.20
  -5  -2   8   23.80   10.20
   4   2  -8   71.19   15.60
   4   2  -8   74.99    8.10
   4   2  -8   94.79    7.60
  -4  -2   8   84.79   19.60
   3   2  -8  360.76   20.10
   3   2  -8  378.76   18.60
   3   2  -8  388.46   28.40
  -3  -2   8  426.46   45.50
   2   2  -8  538.35   33.00
   2   2  -8  512.75   24.60
  -2  -2   8  463.25   35.80
  -2  -2   8  565.94   33.70
   1   2  -8  588.04   28.60
   1   2  -8  589.14   33.50
  -1  -2   8  534.15   32.30
  -1  -2   8  533.35   36.20
   0   2  -8  221.58   18.80
   0  -2   8  257.57   23.20
   0  -2   8  218.68   20.70
  -1   2  -8  523.45   30.80
   1  -2   8  537.25   32.50
   1  -2   8  671.63   53.19
  -2   2  -8  335.07   27.50
   2  -2   8  289.87   25.30
   2  -2   8  294.87   22.10
  -3   2  -8    2.90    5.90
  -3   2  -8    9.40    4.20
   3  -2   8    2.40    5.00
   3  -2   8    2.20    3.90
  -4   2  -8   80.69   17.50
  -4   2  -8   41.60    6.70
   4  -2   8   54.39    7.60
   4  -2   8   28.00   10.60
  -5   2  -8    1.70    4.90
  -6   2  -8    3.70    5.30
   6  -2   8   -0.20    4.20
  -7   2  -8  260.07   37.00
   7  -2   8  296.67   33.80
  -8   2  -8    7.00   11.00
   8  -2   8    6.30   11.00
  -9   2  -8  -19.40   10.00
   9  -2   8   26.60   17.20
  10   1  -8    7.10   10.10
 -10  -1   8   18.90   14.50
   9   1  -8   95.49   24.50
  -9  -1   8   77.39   23.90
   8   1  -8   -9.40    5.90
  -8  -1   8    1.80   14.20
   7   1  -8   29.30   12.40
  -7  -1   8    6.20    8.40
   6   1  -8  106.19   20.50
  -6  -1   8   89.59   22.20
   5   1  -8    5.60    5.90
   5   1  -8    1.30    1.80
   5   1  -8   -0.10    1.40
  -5  -1   8   -5.70    8.70
   4   1  -8   35.60   10.40
   4   1  -8   39.00    6.20
  -4  -1   8   22.60    9.90
   3   1  -8  218.18   15.20
   3   1  -8  241.18   17.20
   3   1  -8  258.47   22.00
  -3  -1   8  219.08   25.20
   2   1  -8   22.60    7.10
   2   1  -8   13.60    6.60
  -2  -1   8   19.20   10.30
  -2  -1   8   21.30    7.80
   1   1  -8  559.24   32.00
   1   1  -8  503.25   27.30
  -1  -1   8  546.95   36.00
  -1  -1   8  554.34   32.30
   0   1  -8  627.54   32.30
   0  -1   8  561.94   33.00
   0  -1   8  567.24   34.40
  -1   1  -8  545.95   31.90
   1  -1   8  529.75   31.10
   1  -1   8  563.04   33.70
  -2   1  -8  210.88   16.30
  -2   1  -8  213.98   21.10
   2  -1   8  190.68   20.60
   2  -1   8  200.88   17.10
  -3   1  -8   20.80    6.40
  -3   1  -8   23.40    6.00
  -3   1  -8   19.70    8.90
   3  -1   8   18.70    7.30
   3  -1   8   20.80    5.50
  -4   1  -8   11.00    6.40
   4  -1   8   13.70    6.40
  -5   1  -8    4.90    6.10
   5  -1   8    3.30    4.20
  -6   1  -8   21.80    8.50
   6  -1   8    8.30    6.80
  -7   1  -8    4.80    8.20
   7  -1   8   -1.00    7.30
  -8   1  -8   -4.00   11.60
   8  -1   8   -6.40    9.20
  -9   1  -8   27.80   15.40
   9  -1   8   30.10   13.10
  10   0  -8   61.79   19.10
  10   0  -8   59.99   22.40
 -10   0   8   41.00   20.70
   9   0  -8   15.50   13.10
   9   0  -8   18.50   15.10
  -9   0   8    9.20   14.50
   8   0  -8   63.09   16.10
  -8   0   8   64.89   19.40
   7   0  -8   31.60   12.30
  -7   0   8   28.20   15.60
   6   0  -8  122.79   22.50
  -6   0   8   95.69   22.70
   5   0  -8  183.18   20.70
   5   0  -8  196.08   10.60
   5   0  -8  195.78   10.50
  -5   0   8  162.08   28.80
   4   0  -8   21.60    5.80
   4   0  -8   16.10    7.30
  -4   0   8   17.80    7.90
   3   0  -8  260.97   21.90
   3   0  -8  259.17   17.50
  -3   0   8  325.37   30.40
   2   0  -8 2834.22   77.89
   2   0  -8 2943.51   71.59
  -2   0   8 2881.41   79.79
  -2   0   8 2871.51   92.59
   1   0  -8 2761.12   72.89
   1   0  -8 2846.52   76.99
  -1   0   8 2668.13   76.39
  -1   0   8 2789.92   86.39
  -1   0   8 2761.52   75.39
   0   0  -8    3.40    5.20
   0   0   8   -1.50    4.40
   0   0   8   -1.10    4.10
   0   0   8   14.10    5.80
  -1   0  -8  213.28   20.20
   1   0   8  233.48   19.70
   1   0   8  230.08   21.10
  -2   0  -8  188.68   15.30
  -2   0  -8  192.98   20.30
  -2   0  -8  172.18   15.40
   2   0   8  225.68   34.50
   2   0   8  203.28   16.20
  -3   0  -8  218.48   13.90
  -3   0  -8  269.97   24.20
  -3   0  -8  234.08   13.70
   3   0   8  227.48   23.20
  -4   0  -8   10.60    7.20
   4   0   8   17.50    6.80
  -5   0  -8    4.50    5.10
   5   0   8    6.70    8.20
  -6   0  -8   26.20   10.20
   6   0   8   33.10   12.70
  -7   0  -8   13.40    7.80
   7   0   8   11.00   11.10
  -8   0  -8  145.09   25.80
   8   0   8  135.19   25.50
  -9   0  -8   62.09   19.10
   9   0   8   63.49   21.90
  10  -1  -8  -15.90   12.10
  10  -1  -8    6.30   11.10
 -10   1   8    7.60   15.40
   9  -1  -8  -16.10    8.10
   9  -1  -8  -11.90   10.60
  -9   1   8    2.60   11.80
   8  -1  -8   16.70   14.90
   8  -1  -8   67.99   20.70
  -8   1   8   70.39   22.20
   7  -1  -8    2.40    8.50
   7  -1  -8    1.50    7.70
  -7   1   8   21.30   12.40
   6  -1  -8   56.69   16.60
   6  -1  -8   44.30    5.50
   6  -1  -8   26.00    4.60
   6  -1  -8   46.80   13.60
  -6   1   8   24.30   14.10
   5  -1  -8  559.04   26.70
   5  -1  -8  582.94   22.40
   5  -1  -8  585.94   36.30
  -5   1   8  606.54   24.30
  -5   1   8  639.64   47.00
   4  -1  -8  420.76   22.00
   4  -1  -8  431.76   28.90
  -4   1   8  386.46   22.20
  -4   1   8  407.66   35.30
   3  -1  -8   42.40    9.80
   3  -1  -8   29.80    9.30
  -3   1   8   31.20    8.70
  -3   1   8   24.30   12.70
   2  -1  -8  254.57   20.50
   2  -1  -8  263.17   19.90
   2  -1  -8  274.57   25.60
  -2   1   8  237.38   24.40
  -2   1   8  251.27   20.90
  -2   1   8  236.58   20.20
   1  -1  -8  553.44   31.00
   1  -1  -8  563.84   35.10
   1  -1  -8  567.54   31.00
  -1   1   8  574.54   36.40
  -1   1   8  558.14   31.20
  -1   1   8  513.45   31.20
   0  -1  -8  233.98   20.70
   0  -1  -8  222.58   20.30
   0   1   8  218.58   19.90
   0   1   8  231.88   21.70
   0   1   8  236.18   22.30
  -1  -1  -8   12.60    6.80
  -1  -1  -8   11.00    5.10
   1   1   8   17.10    6.30
   1   1   8   12.60    6.60
   1   1   8   27.40    8.20
  -2  -1  -8  228.08   16.70
  -2  -1  -8  264.57   18.50
  -2  -1  -8  251.87   23.80
   2   1   8  232.58   23.50
   2   1   8  255.17   27.40
  -3  -1  -8   68.79   14.40
  -3  -1  -8   64.49    9.30
  -3  -1  -8   57.59    8.30
   3   1   8   84.49   18.40
   3   1   8   54.19   14.30
  -4  -1  -8   -0.30    4.80
   4   1   8    3.90    5.80
  -5  -1  -8   35.30   12.00
   5   1   8   75.69   18.10
  -6  -1  -8   -4.80    6.60
   6   1   8  -13.00    6.60
  -7  -1  -8   15.10   11.10
   7   1   8   28.10    9.80
  -8  -1  -8   49.20   18.00
   8   1   8   86.49   21.80
  10  -2  -8   41.10   17.60
  10  -2  -8   43.00   22.00
 -10   2   8   72.99   23.60
   9  -2  -8    8.80   10.70
   9  -2  -8   26.50   13.00
  -9   2   8    4.60   14.80
  -8   2   8   34.50   21.40
   7  -2  -8   13.80    9.90
   7  -2  -8    9.40    3.80
   7  -2  -8    6.60    7.20
   7  -2  -8    5.70    3.30
  -7   2   8   12.90    9.70
  -7   2   8   11.70    4.50
   6  -2  -8    5.60    3.70
   6  -2  -8    6.00    9.50
   6  -2  -8   -4.50    4.10
   6  -2  -8    8.80    6.30
  -6   2   8   -4.80    7.60
   5  -2  -8   70.69   18.50
   5  -2  -8  106.89   17.90
  -5   2   8   97.39   13.90
  -5   2   8  101.89   22.00
   4  -2  -8  902.11   41.70
   4  -2  -8  978.00   55.29
  -4   2   8  869.41   53.79
  -4   2   8  910.31   38.00
   3  -2  -8  113.89   13.60
   3  -2  -8   90.89   18.80
  -3   2   8  104.49   15.80
  -3   2   8   85.79   19.20
   2  -2  -8    0.00    4.40
   2  -2  -8    3.40    4.10
   2  -2  -8    3.60    5.30
  -2   2   8   11.30    4.70
  -2   2   8   14.40    5.90
  -2   2   8   12.10    8.20
   1  -2  -8  464.65   29.80
   1  -2  -8  428.06   26.10
   1  -2  -8  440.56   31.20
  -1   2   8  453.05   32.70
  -1   2   8  400.46   28.60
  -1   2   8  416.16   26.20
   0  -2  -8 1324.47   51.59
   0  -2  -8 1265.67   52.89
   0   2   8 1345.17   53.29
   0   2   8 1360.96   56.19
   0   2   8 1256.87   48.30
  -1  -2  -8  204.48   20.80
  -1  -2  -8  190.38   17.60
   1   2   8  180.98   18.20
   1   2   8  159.68   18.90
  -2  -2  -8  210.98   16.60
  -2  -2  -8  187.78   21.80
   2   2   8  199.28   21.00
   2   2   8  161.48   25.10
  -3  -2  -8  313.47   27.70
  -3  -2  -8  329.17   17.60
   3   2   8  318.27   29.10
   3   2   8  395.96   30.50
  -4  -2  -8  216.08   24.80
   4   2   8  200.18   24.20
   4   2   8  251.77   27.10
  -5  -2  -8   15.90    8.80
   5   2   8   18.80   10.40
   5   2   8    8.60    5.60
  -6  -2  -8   91.59   26.10
   6   2   8   58.89   16.30
  -7  -2  -8   25.00   11.10
   7   2   8   42.30   14.80
  -8  -2  -8  111.39   24.90
   8   2   8   97.99   24.60
  10  -3  -8    8.20   15.00
  10  -3  -8   17.20   12.90
 -10   3   8   27.30   17.60
   9  -3  -8   11.70   10.60
   9  -3  -8   -8.40    9.40
  -9   3   8    4.80    6.50
   8  -3  -8   -3.00   10.60
   8  -3  -8   -1.50   10.50
  -8   3   8   37.10   16.10
  -8   3   8    6.10    6.40
   7  -3  -8   -2.90    6.90
   7  -3  -8    4.90    6.70
  -7   3   8   -2.70    6.00
  -7   3   8    5.00    9.40
   6  -3  -8  517.95   43.60
   6  -3  -8  495.35   33.80
  -6   3   8  485.35   43.90
  -6   3   8  455.45   25.50
   5  -3  -8  385.16   27.80
   5  -3  -8  461.95   39.10
  -5   3   8  399.76   25.20
  -5   3   8  405.16   38.90
   4  -3  -8   59.89   16.10
   4  -3  -8   82.99   13.50
  -4   3   8   79.29   18.90
  -4   3   8  104.19   16.40
   3  -3  -8  223.08   18.50
   3  -3  -8  246.18   26.40
  -3   3   8  251.77   28.10
  -3   3   8  265.57   22.60
   2  -3  -8    8.10    5.40
   2  -3  -8    5.40    5.50
  -2   3   8    1.90    7.00
  -2   3   8    6.70    4.70
  -2   3   8    2.90    5.80
   1  -3  -8   97.69   17.40
   1  -3  -8  116.89   13.00
  -1   3   8   94.69   17.60
  -1   3   8  115.69   13.40
   0  -3  -8 1291.17   52.69
   0  -3  -8 1309.57   56.59
   0   3   8 1426.06   50.19
   0   3   8 1300.97   58.19
  -1  -3  -8   53.29   14.50
  -1  -3  -8   39.30   10.20
   1   3   8   29.60    9.80
   1   3   8   54.09   14.20
  -2  -3  -8   20.60    8.40
  -2  -3  -8   22.40    6.90
   2   3   8   22.20    8.10
   2   3   8   20.90    8.50
  -3  -3  -8   33.10    8.00
   3   3   8   25.30   10.30
   3   3   8   32.70   10.10
  -4  -3  -8   53.99    6.10
  -4  -3  -8   36.60   12.40
  -4  -3  -8   67.79    6.90
   4   3   8   90.79   21.40
   4   3   8   59.09   15.30
  -5  -3  -8   -0.80    6.30
   5   3   8   21.60   11.40
   5   3   8   22.00   10.00
  -6  -3  -8  122.09   23.00
   6   3   8   93.29   22.80
   6   3   8  152.18   26.50
  -7  -3  -8   38.30   15.10
   7   3   8   37.90   17.80
  -8  -3  -8   12.00   11.60
   8   3   8   -2.70   13.50
  10  -4  -8    8.60   19.10
  10  -4  -8   11.60   20.40
   9  -4  -8   -9.40    7.70
   9  -4  -8  -24.60    9.60
  -9   4   8    2.60    8.80
   8  -4  -8   18.30   10.50
   8  -4  -8   37.60    9.90
  -8   4   8    6.00    8.10
  -8   4   8   45.90   16.00
   7  -4  -8   25.90   11.30
   7  -4  -8    0.10    7.90
  -7   4   8    4.40    8.70
  -7   4   8   13.70   13.10
   6  -4  -8   39.00   17.90
   6  -4  -8   34.80   12.20
  -6   4   8   37.60   13.80
  -6   4   8   47.80   11.20
   5  -4  -8    9.00    6.10
  -5   4   8   -4.90    5.40
  -5   4   8    1.80    7.10
   4  -4  -8   48.30   11.90
   4  -4  -8   40.70   15.20
  -4   4   8   38.70   14.80
  -4   4   8   76.59   16.40
   3  -4  -8   99.49   20.50
   3  -4  -8  111.09   12.80
  -3   4   8  180.08   19.50
   2  -4  -8    8.30    8.00
   2  -4  -8    9.00    5.50
   1  -4  -8    6.60    4.10
   1  -4  -8   -1.20    5.20
  -1   4   8   -0.40    5.30
  -1   4   8    2.90    4.90
   0  -4  -8  170.78   19.00
   0   4   8  237.48   24.90
   0   4   8  176.28   16.60
  -1  -4  -8  884.81   42.50
   1   4   8  906.81   51.09
   1   4   8  886.31   40.30
  -2  -4  -8   86.49   17.70
  -2  -4  -8   72.49   13.10
   2   4   8   60.39   15.30
   2   4   8   82.79   15.20
  -3  -4  -8   -4.60    5.40
   3   4   8    1.70    5.30
   3   4   8   -2.30    7.50
  -4  -4  -8   29.10   10.10
  -4  -4  -8    5.70    5.30
   4   4   8    0.70    6.60
   4   4   8   15.80    8.30
  -5  -4  -8   68.89   19.60
   5   4   8   52.59   20.10
   5   4   8   53.59   14.80
  -6  -4  -8   16.90   10.30
   6   4   8   43.60   14.70
   6   4   8    5.80   11.40
  -7  -4  -8   74.49   19.30
   7   4   8  114.79   25.00
   9  -5  -8   83.99   18.80
   9  -5  -8   87.39   25.50
   8  -5  -8   25.30    9.80
   8  -5  -8   -1.50    6.40
  -8   5   8   16.40   11.80
   7  -5  -8   18.40    9.20
   7  -5  -8   -5.70   11.50
  -7   5   8    3.40    8.80
   6  -5  -8   -1.10    5.40
   6  -5  -8    3.40    6.40
  -6   5   8    1.90    6.80
   5  -5  -8   17.60   11.10
   5  -5  -8    8.30    6.60
   4  -5  -8   74.09   18.30
   4  -5  -8   56.99   11.20
  -4   5   8   79.79   17.50
   3  -5  -8   15.30    6.50
   3  -5  -8    6.90    9.90
  -3   5   8   33.90   13.20
   2  -5  -8  141.29   22.00
   2  -5  -8  161.08   14.30
  -2   5   8  181.88   21.30
   1  -5  -8   39.00   12.30
   1  -5  -8   53.19    9.60
  -1   5   8   39.30    8.20
  -1   5   8   50.69   13.30
   0  -5  -8  110.99   19.90
   0   5   8  112.69   21.50
   0   5   8   87.49   14.10
  -1  -5  -8  337.47   27.80
   1   5   8  333.77   23.50
   1   5   8  323.27   31.60
  -2  -5  -8   25.90   10.50
   2   5   8   10.80    8.20
   2   5   8   29.40    9.30
  -3  -5  -8   25.10    6.20
  -3  -5  -8   -1.10    7.30
   3   5   8    3.50    8.90
   3   5   8   13.60    7.70
  -4  -5  -8    0.50    6.70
  -4  -5  -8   19.70   18.20
   4   5   8    7.90    8.40
   4   5   8    4.20    7.00
  -5  -5  -8    3.80    9.40
   5   5   8   11.50    9.60
   5   5   8    3.00   11.70
  -6  -5  -8   14.60    9.50
   6   5   8    9.90   14.90
  -7  -5  -8  114.29   25.00
   7   5   8  166.48   31.50
   7   5   8  128.49   28.70
   9  -6  -8  -12.20   12.40
   8  -6  -8   32.90   13.40
   8  -6  -8   65.89   19.20
  -8   6   8   54.19   15.90
   7  -6  -8   35.10   15.50
   7  -6  -8   71.79   14.30
  -7   6   8   67.89   12.80
   6  -6  -8    2.50   10.10
   6  -6  -8   22.00    7.20
  -6   6   8   12.40    8.70
   5  -6  -8   19.00   13.70
   5  -6  -8   23.60    8.30
  -5   6   8   21.40   10.60
   4  -6  -8   60.29   10.80
   4  -6  -8   45.50   12.40
  -4   6   8   59.99   15.40
   3  -6  -8   14.10   11.00
   3  -6  -8   24.40    7.20
  -3   6   8   54.09   12.70
   2  -6  -8  130.89   25.00
   2  -6  -8  143.69   12.20
  -2   6   8  127.99   23.70
   1  -6  -8   -2.20    2.70
   1  -6  -8    3.40    7.40
  -1   6   8    4.90    4.00
  -1   6   8  -11.20    6.10
   0  -6  -8    1.20    3.30
   0  -6  -8   -2.60    5.30
   0   6   8  -12.50    6.70
   0   6   8   -6.40    4.00
  -1  -6  -8   91.79   19.80
   1   6   8   97.39   14.70
   1   6   8  115.49   23.40
  -2  -6  -8   26.80    9.20
   2   6   8   20.30    9.70
   2   6   8   15.90    9.90
  -3  -6  -8   23.00    9.40
   3   6   8   28.90   11.30
  -4  -6  -8   57.99   12.60
  -4  -6  -8   65.39   19.00
   4   6   8   54.49   16.10
   4   6   8   73.09   19.60
  -5  -6  -8   -1.70    8.70
   5   6   8  -11.60    8.80
   5   6   8   -3.70    8.60
  -6  -6  -8   25.30   14.60
   6   6   8    2.30   13.20
   6   6   8    6.80   13.40
   8  -7  -8   11.90   18.40
  -8   7   8   26.70    9.90
   7  -7  -8   88.89   14.40
   7  -7  -8   56.49   20.40
  -7   7   8   89.59   17.30
   6  -7  -8  -20.00   10.80
  -6   7   8   30.90   11.70
   5  -7  -8   46.70   10.20
  -5   7   8    7.80   11.00
   4  -7  -8   27.80   10.10
   4  -7  -8   20.50    5.90
  -4   7   8    9.30   10.80
   3  -7  -8   56.79   17.10
   3  -7  -8   37.80    7.30
  -3   7   8   69.29   16.30
   2  -7  -8    5.70    4.30
  -2   7   8   -2.20    7.00
   1  -7  -8   26.20    5.10
   1  -7  -8   18.00    6.90
  -1   7   8   36.80   14.90
   0  -7  -8   10.40    6.10
   0  -7  -8    6.10    8.80
   0   7   8    4.90    5.70
   0   7   8   10.90   10.70
  -1  -7  -8   38.90   14.50
   1   7   8   25.50   13.70
   1   7   8   28.80    9.40
  -2  -7  -8  238.28   25.70
   2   7   8  228.18   35.10
   2   7   8  259.27   22.30
   3   7   8   19.80    9.10
   3   7   8   21.10   12.70
  -4  -7  -8   45.80   13.80
  -4  -7  -8   21.30   13.70
   4   7   8   66.19   18.30
   4   7   8   11.10   13.40
  -5  -7  -8   -4.90   11.90
   5   7   8    4.30   13.30
   5   7   8   -6.40   12.70
   7  -8  -8   20.00   15.30
  -7   8   8   11.40   11.90
   6  -8  -8   76.89   22.10
  -6   8   8   52.29   16.70
   5  -8  -8   62.09   20.00
   4  -8  -8    6.60   10.30
  -4   8   8    6.60   10.30
   3  -8  -8   -2.40    8.30
  -3   8   8    2.80   10.00
   2  -8  -8    4.30    8.20
  -2   8   8   -3.10    7.80
   1  -8  -8   20.20   12.10
   1  -8  -8   39.70    7.00
   0  -8  -8   17.90   11.50
   0   8   8    1.60    5.60
   0   8   8   -4.50    6.60
  -1  -8  -8   23.50   10.70
   1   8   8   55.49   16.60
   1   8   8   27.80    9.70
  -2  -8  -8   17.60    8.60
   2   8   8   29.80   13.10
   2   8   8   11.90    9.30
  -3  -8  -8  -17.90   10.10
   3   8   8   13.60   13.00
   3   8   8    0.10   10.40
  -4  -8  -8   17.10   10.10
  -4  -8  -8    0.90   11.00
   4   8   8   -6.50    9.00
   4   8   8   10.80   13.60
   6  -9  -8   12.50   18.10
  -6   9   8   76.09   21.80
   5  -9  -8   21.50   14.80
  -5   9   8   42.40   15.80
   4  -9  -8   19.20   12.20
  -4   9   8   22.60   12.20
   3  -9  -8    1.90    9.40
  -3   9   8   22.10   12.80
   2  -9  -8  -15.80    9.70
  -2   9   8   13.80   12.20
   1  -9  -8   19.50   15.00
  -1   9   8   -7.90   10.20
   0  -9  -8   66.99   19.80
   0   9   8   64.79   20.10
  -1  -9  -8   21.10   11.70
   1   9   8    8.50   12.40
  -2  -9  -8    4.70   10.20
   2   9   8   27.30   13.90
  -3  -9  -8   22.50   15.80
   3   9   8   48.10   20.20
   4 -10  -8   36.00   18.10
  -4  10   8   36.30   17.10
   3 -10  -8   37.20   19.40
  -3  10   8    9.10   12.30
   2 -10  -8   12.60   14.10
  -2  10   8   28.20   16.20
   1 -10  -8   16.20   11.30
  -1  10   8    5.90   10.00
   0 -10  -8   46.20   17.80
   0  10   8   43.90   21.00
  -1 -10  -8   28.30   13.30
   1  10   8  -15.30   11.30
   3  11  -9  224.18   30.30
   3  11  -9  249.88   29.90
  -3 -11   9  267.67   47.80
   2  11  -9   92.39   22.20
   2  11  -9  116.19   19.30
  -2 -11   9  138.19   34.10
   1  11  -9   25.30   12.00
   1  11  -9   13.30   12.10
  -1 -11   9   19.40   19.00
   0  11  -9   46.10   13.90
   0  11  -9   29.20   14.60
   0 -11   9   35.20   20.00
  -1  11  -9  305.57   32.60
  -1  11  -9  315.97   32.40
   1 -11   9  290.67   46.00
  -2  11  -9   13.50   10.30
  -2  11  -9   23.50   14.30
   2 -11   9   26.00   16.40
   2 -11   9   36.30   14.50
  -3  11  -9  -27.20    9.10
  -3  11  -9  -13.20    8.80
   3 -11   9    7.40   11.70
   3 -11   9   -5.20   15.10
   5  10  -9   -3.50   11.80
  -5 -10   9   -5.80   15.50
   4  10  -9    3.30   15.00
   4  10  -9   56.39   10.70
  -4 -10   9   32.30   20.40
   3  10  -9   21.50    8.70
   3  10  -9    3.40    9.40
   2  10  -9  372.96   30.90
   2  10  -9  429.06   37.20
  -2 -10   9  422.16   45.70
   1  10  -9    8.20    9.20
  -1 -10   9   18.10   16.60
   0  10  -9   -2.50   10.30
   0  10  -9   22.90   12.90
   0 -10   9   18.70   14.80
  -1  10  -9  340.37   32.60
  -1  10  -9  314.17   37.30
   1 -10   9  310.87   29.90
   1 -10   9  285.77   33.70
  -2  10  -9   83.79   24.70
  -2  10  -9  113.69   23.10
   2 -10   9  143.59   30.00
  -3  10  -9  280.87   28.10
  -3  10  -9  276.77   31.10
   3 -10   9  218.38   38.00
   3 -10   9  307.77   30.70
  -4  10  -9    7.80   10.20
  -4  10  -9   24.60   12.30
   4 -10   9  -15.40    8.50
   4 -10   9   -0.60   13.20
  -5  10  -9   38.70   13.80
   5 -10   9    7.00   17.50
   5 -10   9   33.10   13.30
   6   9  -9   89.29   24.00
  -6  -9   9   89.99   27.20
   5   9  -9   35.10   15.90
   5   9  -9   37.00   10.70
  -5  -9   9   52.89   22.10
   4   9  -9   56.69   13.80
   4   9  -9   56.99   19.00
  -4  -9   9   49.40   21.00
   3   9  -9   21.60    9.00
   3   9  -9   24.70   12.50
  -3  -9   9   19.40    9.40
   2   9  -9  120.09   22.20
   2   9  -9   90.39   18.50
  -2  -9   9  105.99   25.90
   1   9  -9   14.20   10.20
   1   9  -9   51.49   15.50
  -1  -9   9   22.70   14.00
   0   9  -9    4.00    6.20
   0   9  -9   -0.10    7.90
   0  -9   9   -5.70   11.20
  -1   9  -9   34.20    8.90
  -1   9  -9   13.30    9.40
   1  -9   9   33.30    9.10
   1  -9   9   33.90   13.00
  -2   9  -9  192.68   27.70
  -2   9  -9  188.78   27.60
   2  -9   9  212.18   36.10
   2  -9   9  218.18   25.70
  -3   9  -9   -2.10    8.30
  -3   9  -9    0.40    7.90
   3  -9   9   15.60    8.60
   3  -9   9   -1.50   11.90
  -4   9  -9   -5.60    8.90
   4  -9   9    6.60   11.30
   4  -9   9    6.90    9.20
  -5   9  -9    7.30   12.30
   5  -9   9   45.10   11.70
   5  -9   9  -22.10   12.80
  -6   9  -9   26.60   12.70
   6  -9   9   11.10   13.60
   6  -9   9   -0.30   16.00
   7   8  -9    5.40    7.60
  -7  -8   9   -3.70   15.30
   6   8  -9    5.60   13.30
  -6  -8   9   -5.10   13.70
   5   8  -9   73.49   20.80
   5   8  -9   55.79   10.00
  -5  -8   9   34.40   18.40
   4   8  -9    3.10    9.80
   4   8  -9   20.50    8.00
  -4  -8   9    7.80    7.10
   3   8  -9   -1.80    9.10
  -3  -8   9   42.20   16.50
   2   8  -9   48.50    9.10
   2   8  -9   47.20   14.10
  -2  -8   9   77.39   22.40
   1   8  -9   45.60   10.70
   1   8  -9   -2.60    5.30
  -1  -8   9   14.60   11.70
   0   8  -9    6.70    5.90
   0   8  -9   -8.70    5.50
   0  -8   9   -4.30    7.80
   0  -8   9  -10.30    8.60
  -1   8  -9   40.10   11.60
  -1   8  -9   34.50   12.00
   1  -8   9   24.90   17.00
   1  -8   9   45.60   14.50
  -2   8  -9   31.10   11.50
  -2   8  -9   52.79   13.70
   2  -8   9   71.49   17.70
   2  -8   9   37.20   13.20
  -3   8  -9   20.10    9.70
  -3   8  -9    5.70    6.30
   3  -8   9   -8.00    8.80
   3  -8   9   -3.60    5.00
  -4   8  -9   -6.80    8.90
   4  -8   9   24.30   11.50
   4  -8   9   21.20   14.50
  -5   8  -9   68.69   17.40
   5  -8   9   74.49   19.80
   5  -8   9   95.49   21.90
  -6   8  -9   22.50    9.70
   6  -8   9    9.60   11.50
   6  -8   9   -6.80   12.00
  -7   8  -9  315.37   34.50
   7  -8   9  229.38   36.00
   7   7  -9   19.50   16.00
  -7  -7   9   52.39   23.30
   6   7  -9   59.59   18.30
  -6  -7   9   16.90   17.90
   5   7  -9   21.30   11.10
   5   7  -9   31.30    7.90
  -5  -7   9   25.10   15.50
   4   7  -9  123.49   23.40
   4   7  -9  154.58   15.20
  -4  -7   9  153.68   31.20
   3   7  -9   -3.50    4.60
   3   7  -9    5.20    6.40
  -3  -7   9    5.90    9.00
   2   7  -9    1.70    5.70
   2   7  -9    3.00    6.20
  -2  -7   9    2.70    8.10
   1   7  -9  343.37   25.90
   1   7  -9  371.86   32.00
  -1  -7   9  374.36   38.60
   0   7  -9   15.20    8.10
   0   7  -9    3.10    5.50
   0  -7   9    4.30    4.90
   0  -7   9    4.70    8.60
  -1   7  -9   17.10    7.70
  -1   7  -9   -0.40    6.20
   1  -7   9    4.60    9.20
   1  -7   9   -6.90    5.60
  -2   7  -9    5.10    7.80
  -2   7  -9   12.10    9.00
   2  -7   9   33.10   11.40
   2  -7   9   34.20   13.20
  -3   7  -9   39.30   13.30
   3  -7   9   19.30    8.00
   3  -7   9   28.00   13.20
  -4   7  -9  134.79   24.00
   4  -7   9  201.48   28.40
   4  -7   9  231.28   27.50
  -5   7  -9   35.50   12.40
   5  -7   9    3.50    9.30
   5  -7   9   37.70   13.10
  -6   7  -9    8.10   11.10
   6  -7   9    5.20   11.50
   6  -7   9   11.40   13.80
  -7   7  -9   52.59   15.20
   7  -7   9   67.99   21.20
   8   6  -9   14.20   12.40
  -8  -6   9  -20.00    8.10
   7   6  -9   23.60    9.20
  -7  -6   9  -19.40    9.50
   6   6  -9  101.89   23.40
  -6  -6   9   89.09   21.50
   5   6  -9   21.10   14.90
   5   6  -9   22.50    8.80
  -5  -6   9   10.90   11.40
   4   6  -9   69.09   16.40
   4   6  -9   60.69   11.00
  -4  -6   9   22.30   13.60
   3   6  -9    3.40    8.00
   3   6  -9    1.90    4.60
  -3  -6   9    6.90    8.00
   2   6  -9   -1.00    4.50
   2   6  -9   -4.40    5.10
  -2  -6   9   -1.50    7.80
   1   6  -9  105.99   19.50
   1   6  -9  114.49   19.80
  -1  -6   9   81.29   20.30
  -1  -6   9  100.69   20.00
   0   6  -9   -2.60    3.30
   0   6  -9    8.10    5.80
   0  -6   9   -4.70    6.40
   0  -6   9    1.40    4.50
  -1   6  -9   -6.30    3.60
  -1   6  -9    2.50    5.00
   1  -6   9  -13.80    5.80
   1  -6   9    4.10    4.70
  -2   6  -9    7.70    5.20
   2  -6   9  -10.00    3.60
   2  -6   9   -3.40    5.40
  -3   6  -9  105.79   20.60
   3  -6   9   73.29   17.20
   3  -6   9   87.09   16.80
  -4   6  -9   51.59   14.80
   4  -6   9   49.20   13.50
   4  -6   9   60.79   16.90
  -5   6  -9  153.38   26.10
   5  -6   9  131.49   25.90
   5  -6   9  162.48   23.00
  -6   6  -9  118.99   23.90
   6  -6   9  184.58   22.40
   6  -6   9  115.69   24.40
  -7   6  -9   86.59   19.90
   7  -6   9  112.99   26.60
   9   5  -9    9.70   11.90
   8   5  -9   76.19   22.80
  -8  -5   9  149.09   31.30
   7   5  -9  180.08   31.80
  -7  -5   9  170.68   35.90
   6   5  -9  182.58   43.80
  -6  -5   9  115.89   48.80
   5   5  -9  318.97   31.50
   5   5  -9  384.46   16.00
   5   5  -9  303.77   14.00
  -5  -5   9  344.07   38.10
   4   5  -9   44.60    7.50
   4   5  -9   38.50   12.50
  -4  -5   9   22.50   12.50
   3   5  -9    8.70    4.70
   3   5  -9    0.70    6.00
  -3  -5   9   -2.00    5.00
   2   5  -9   11.90    8.10
   2   5  -9    5.40    3.80
  -2  -5   9   -4.30    8.10
   1   5  -9   33.10    9.50
   1   5  -9   53.99   13.80
  -1  -5   9   50.09   14.40
  -1  -5   9   39.20   13.80
   0   5  -9    2.60    3.10
   0   5  -9    9.70    6.10
   0  -5   9    4.50    6.30
   0  -5   9   13.60    8.00
  -1   5  -9   38.10   11.20
  -1   5  -9   20.80    8.10
   1  -5   9   15.60    8.40
   1  -5   9   42.70   12.90
  -2   5  -9   44.70   12.10
   2  -5   9   99.89   19.70
   2  -5   9   57.89   16.00
  -3   5  -9  307.67   27.60
   3  -5   9  315.97   27.90
   3  -5   9  326.97   29.50
  -4   5  -9  987.60   52.79
   4  -5   9  945.81   45.50
   4  -5   9 1057.79   57.19
  -5   5  -9  163.58   26.20
   5  -5   9  151.98   17.20
   5  -5   9  121.49   24.80
  -6   5  -9   18.20   12.00
   6  -5   9   35.70   14.50
  -7   5  -9   48.30   14.40
   7  -5   9   31.70   13.40
  -8   5  -9   40.20   15.80
   8  -5   9   29.10   18.10
   9   4  -9   47.50   18.70
  -9  -4   9   58.19   23.70
   8   4  -9  361.86   38.10
  -8  -4   9  329.57   50.79
   7   4  -9   48.40   16.10
  -7  -4   9   29.00   18.70
   6   4  -9    7.60    8.30
  -6  -4   9  -18.50    8.40
   5   4  -9   20.20   10.50
   5   4  -9   18.80    3.90
   5   4  -9   15.80    3.20
  -5  -4   9   22.80   10.80
   4   4  -9  148.69   11.70
   4   4  -9  107.79   21.60
   4   4  -9  114.69   10.30
  -4  -4   9  116.79   24.70
   3   4  -9  242.98   16.50
   3   4  -9  213.38   23.90
  -3  -4   9  213.58   32.20
   2   4  -9   17.70    7.00
   2   4  -9   -0.20    4.60
  -2  -4   9    7.20    8.40
   1   4  -9   -0.80    5.20
   1   4  -9   17.20    5.40
  -1  -4   9    8.40    7.10
  -1  -4   9    3.40    4.50
   0   4  -9   14.20    7.70
   0   4  -9   14.80    6.60
   0  -4   9   19.10    8.70
   0  -4   9   15.70    9.60
  -1   4  -9   88.59   16.40
   1  -4   9   69.89   15.50
   1  -4   9   81.19   17.60
  -2   4  -9  275.97   24.20
   2  -4   9  229.28   23.90
   2  -4   9  311.07   26.80
  -3   4  -9   97.29   18.10
   3  -4   9   80.99   15.00
   3  -4   9   75.89   17.30
  -4   4  -9    8.00    8.60
   4  -4   9    9.50    6.60
   4  -4   9   14.70    6.00
  -5   4  -9   -1.20    7.10
   5  -4   9   12.40    7.90
   5  -4   9    0.20    6.90
  -6   4  -9   40.00   15.60
   6  -4   9   62.29   18.40
  -7   4  -9   49.10   15.90
   7  -4   9   25.10   13.10
  -8   4  -9   30.80   14.80
   8  -4   9   41.50   17.90
   9   3  -9   36.80   19.60
  -9  -3   9   35.30   20.10
   8   3  -9  169.58   31.70
  -8  -3   9  154.78   33.50
   7   3  -9   81.69   20.60
   6   3  -9   89.99   21.00
  -6  -3   9   73.69   20.50
   5   3  -9  380.36   33.20
   5   3  -9  421.56   11.60
   5   3  -9  402.76   10.60
  -5  -3   9  355.36   37.10
   4   3  -9  352.86   19.30
   4   3  -9  389.26   32.10
  -4  -3   9  420.16   39.40
   3   3  -9  237.28   24.30
   3   3  -9  234.28   15.70
  -3  -3   9  227.18   27.20
   2   3  -9   32.30    8.70
   2   3  -9   39.10   11.60
  -2  -3   9   36.50   12.20
  -2  -3   9   28.00   11.20
   1   3  -9   40.60   12.20
   1   3  -9   37.60    8.00
  -1  -3   9   86.29   18.20
  -1  -3   9   39.10   11.30
   0   3  -9  195.58   21.00
   0   3  -9  196.28   18.90
   0  -3   9  169.28   25.80
   0  -3   9  180.68   20.40
  -1   3  -9    6.50    6.90
   1  -3   9    0.70    3.80
   1  -3   9    3.40    5.20
  -2   3  -9  410.86   30.50
   2  -3   9  395.86   28.30
   2  -3   9  425.76   32.60
  -3   3  -9  137.49   21.30
   3  -3   9  112.09   20.20
   3  -3   9  103.59   16.40
  -4   3  -9   -8.90    5.60
  -4   3  -9   11.00    5.90
   4  -3   9    3.70    5.70
  -5   3  -9  198.68    7.60
  -5   3  -9  216.88   25.90
   5  -3   9  222.08   26.50
   5  -3   9  193.28    8.80
  -6   3  -9    3.00   10.90
   6  -3   9   22.80   12.00
  -7   3  -9  135.59   24.30
   7  -3   9  118.79   24.90
  -8   3  -9   24.10   13.40
   8  -3   9   28.40   15.50
   9   2  -9  335.97   39.00
  -9  -2   9  182.68   35.10
   8   2  -9   90.49   22.90
  -8  -2   9   59.29   22.60
   7   2  -9  199.58   31.30
  -7  -2   9  221.58   38.40
   6   2  -9  124.69   22.20
  -6  -2   9  135.69   29.40
   5   2  -9   30.40    4.30
   5   2  -9   33.20    3.70
  -5  -2   9   30.80   13.80
   4   2  -9  284.77   26.40
   4   2  -9  297.77   17.30
  -4  -2   9  346.37   34.20
   3   2  -9  326.97   27.60
   3   2  -9  314.07   18.60
  -3  -2   9  338.37   33.10
   2   2  -9    4.90    4.30
   2   2  -9    1.40    3.00
  -2  -2   9   -3.40    4.00
  -2  -2   9   -4.50    5.50
   1   2  -9  190.68   17.30
   1   2  -9  203.38   20.70
  -1  -2   9  192.98   21.00
  -1  -2   9  235.98   24.80
   0   2  -9 2319.47   69.79
   0   2  -9 2226.18   73.99
   0  -2   9 2272.77   78.99
   0  -2   9 2200.68   74.59
  -1   2  -9    2.00    5.20
   1  -2   9    3.80    6.00
   1  -2   9   15.60    6.70
  -2   2  -9   18.80    8.50
   2  -2   9   17.30    6.60
   2  -2   9    8.40    7.30
  -3   2  -9  246.68   24.40
  -3   2  -9  206.78   17.20
   3  -2   9  259.37   26.10
   3  -2   9  223.98   18.70
  -4   2  -9   53.89    7.70
  -4   2  -9   41.80   12.40
  -4   2  -9   38.50    7.00
   4  -2   9   44.50    7.30
   4  -2   9   54.19   16.10
  -5   2  -9  321.27   30.20
   5  -2   9  323.67   31.70
  -6   2  -9  219.68   32.20
   6  -2   9  198.88   34.90
  -7   2  -9  132.39   23.70
   7  -2   9  149.99   29.00
  -8   2  -9  125.99   25.10
   8  -2   9  125.99   29.00
  10   1  -9   13.50   12.60
  10   1  -9    5.80   12.60
 -10  -1   9   -2.50   11.50
   9   1  -9   33.10   16.50
  -9  -1   9   10.50   16.50
   8   1  -9   57.39   22.80
  -8  -1   9   66.29   22.50
   7   1  -9  729.23   49.70
  -7  -1   9  601.04   51.89
   6   1  -9  225.48   26.10
  -6  -1   9  210.78   34.60
   5   1  -9   -3.40    3.00
   5   1  -9   -9.90    5.40
   5   1  -9    0.80    2.80
  -5  -1   9    7.50   11.60
   4   1  -9  149.88   23.20
   4   1  -9   93.99   13.10
   4   1  -9  114.19    9.80
  -4  -1   9  114.89   24.50
   3   1  -9   53.79   13.80
   3   1  -9   85.09    9.80
  -3  -1   9   84.99   20.20
   2   1  -9   76.39   15.20
   2   1  -9   57.89   11.00
  -2  -1   9   51.99   22.70
  -2  -1   9   63.09   14.10
   1   1  -9    3.20    5.60
   1   1  -9   -4.10    3.50
  -1  -1   9    3.70    3.00
  -1  -1   9    7.50    7.50
   0   1  -9   91.89   16.10
   0  -1   9  100.09   17.60
   0  -1   9   61.89   15.20
  -1   1  -9  117.19   18.50
   1  -1   9   84.59   15.60
   1  -1   9  111.59   19.40
  -2   1  -9   -2.50    6.20
   2  -1   9    7.10    4.90
   2  -1   9    2.80    3.70
  -3   1  -9  221.58   15.50
  -3   1  -9  209.48   23.70
  -3   1  -9  192.08   16.00
   3  -1   9  226.18   24.40
   3  -1   9  211.18   16.40
  -4   1  -9  216.78   24.50
   4  -1   9  241.88   26.80
  -5   1  -9    9.70    9.20
   5  -1   9   19.30   12.90
  -6   1  -9  251.77   28.10
   6  -1   9  291.27   49.99
  -7   1  -9  231.48   27.70
   7  -1   9  217.88   35.10
  -8   1  -9   64.39   17.30
   8  -1   9   38.80   13.90
  10   0  -9   70.09   23.00
  10   0  -9   71.99   22.20
 -10   0   9   98.39   25.70
   9   0  -9  236.48   40.70
   9   0  -9  173.38   32.20
  -9   0   9  295.47   45.10
   8   0  -9  180.98   31.40
  -8   0   9  216.08   38.10
   7   0  -9  294.87   30.00
  -7   0   9  254.77   41.10
   6   0  -9  375.76   32.50
  -6   0   9  352.96   38.20
   5   0  -9   35.40    6.80
   5   0  -9   29.60   11.00
   5   0  -9   39.00    8.30
  -5   0   9   33.50   12.90
   4   0  -9   46.20    9.20
   4   0  -9   42.00   12.20
  -4   0   9   54.69   16.20
   3   0  -9  200.28   16.50
   3   0  -9  221.88   21.70
  -3   0   9  228.78   27.20
   2   0  -9   25.50    8.80
   2   0  -9   22.40    7.80
  -2   0   9   27.00    9.10
  -2   0   9   11.50   12.30
   1   0  -9  140.29   16.30
   1   0  -9  121.79   18.90
  -1   0   9  143.99   17.40
  -1   0   9  136.09   22.80
   0   0  -9   39.00   10.60
   0   0   9   45.80   13.10
   0   0   9   35.40   11.30
  -1   0  -9  501.15   33.30
  -1   0  -9  561.74   32.30
   1   0   9  566.54   35.50
   1   0   9  515.35   31.40
  -2   0  -9   25.00    7.20
  -2   0  -9   16.10    9.00
   2   0   9   33.80    9.70
   2   0   9   23.90    8.60
  -3   0  -9  141.79   23.20
  -3   0  -9  151.08   12.40
   3   0   9  149.99   24.20
  -4   0  -9  778.22   47.40
   4   0   9  803.92   48.70
  -5   0  -9  476.05   37.80
   5   0   9  540.05   41.50
  -6   0  -9  325.97   32.10
   6   0   9  320.07   36.70
  -7   0  -9   60.39   18.60
   7   0   9   71.39   19.90
  -8   0  -9   -2.70   11.10
   8   0   9    1.00    8.50
  10  -1  -9   94.89   26.30
  10  -1  -9   85.89   22.70
 -10   1   9  106.99   28.20
   9  -1  -9   22.90   13.30
   9  -1  -9   22.40   13.10
   8  -1  -9   55.39   15.70
   8  -1  -9   31.40   14.10
  -8   1   9   11.30   12.50
   7  -1  -9   45.60   17.60
   7  -1  -9   46.00   13.80
  -7   1   9   63.89   22.70
   6  -1  -9  222.08   12.20
   6  -1  -9  214.48   33.30
   6  -1  -9  196.78   23.00
   6  -1  -9  215.88   11.50
  -6   1   9  196.48   33.20
   5  -1  -9    2.70    5.90
   5  -1  -9    1.80    6.90
   5  -1  -9    4.40    4.50
  -5   1   9    1.90    8.00
   4  -1  -9 1367.36   68.59
   4  -1  -9 1211.28   42.00
   4  -1  -9 1285.27   53.89
  -4   1   9 1293.97   44.80
  -4   1   9 1298.27   67.99
   3  -1  -9    6.50    7.90
   3  -1  -9    0.10    5.10
   3  -1  -9   13.00    6.50
  -3   1   9    8.10    8.60
  -3   1   9   11.10    6.50
   2  -1  -9 1091.69   46.90
   2  -1  -9 1051.99   43.80
  -2   1   9 1097.09   46.60
  -2   1   9 1056.99   67.29
  -2   1   9 1113.59   48.10
   1  -1  -9  134.49   21.30
   1  -1  -9  163.68   17.90
   1  -1  -9  159.98   17.80
  -1   1   9  149.39   17.90
  -1   1   9  141.89   21.30
  -1   1   9  122.79   21.50
   0  -1  -9    4.00    6.50
   0  -1  -9    4.50    5.50
   0   1   9   15.00    9.10
   0   1   9    3.90    6.20
   0   1   9   12.70    7.40
  -1  -1  -9  377.26   29.60
  -1  -1  -9  398.76   26.40
   1   1   9  424.66   30.40
   1   1   9  372.96   31.00
   1   1   9  410.66   27.70
  -2  -1  -9  138.09   22.20
  -2  -1  -9  154.18   14.50
   2   1   9  141.59   23.60
   2   1   9  141.89   22.50
  -3  -1  -9  291.57   16.50
  -3  -1  -9  277.27   26.90
   3   1   9  284.67   27.10
  -4  -1  -9  376.56   33.80
   4   1   9  381.96   33.30
  -5  -1  -9   75.89   18.50
   5   1   9   70.09   17.70
  -6  -1  -9   79.49   18.60
   6   1   9  114.79   24.00
  -7  -1  -9   91.89   21.80
   7   1   9  108.99   26.00
  -8  -1  -9   56.99   18.40
   8   1   9   63.49   19.80
   9  -2  -9   89.49   29.80
   9  -2  -9  107.29   20.70
  -9   2   9   57.49   23.20
   8  -2  -9   19.60   13.80
   8  -2  -9    0.20   10.90
  -8   2   9   15.30   12.10
   7  -2  -9    4.00    8.10
   7  -2  -9   12.00    9.60
   7  -2  -9    5.70    3.90
  -7   2   9    1.90    6.90
   6  -2  -9   22.90    7.30
   6  -2  -9   10.70    8.70
   6  -2  -9    8.80    5.30
  -6   2   9   18.40   10.60
  -6   2   9   -2.00    5.70
   5  -2  -9  410.26   30.70
   5  -2  -9  467.15   25.50
   5  -2  -9  523.45   43.00
  -5   2   9  511.95   45.00
  -5   2   9  442.86   26.20
   4  -2  -9  402.06   25.50
   4  -2  -9  404.26   35.40
   4  -2  -9  408.06   37.20
  -4   2   9  419.26   27.20
  -4   2   9  446.86   39.50
   3  -2  -9   81.09   15.10
   3  -2  -9   84.59   15.20
   3  -2  -9   82.99   20.60
  -3   2   9  103.69   17.70
  -3   2   9   60.99   16.40
   2  -2  -9  211.48   19.30
   2  -2  -9  179.18   18.30
   2  -2  -9  215.78   24.20
  -2   2   9  188.48   18.90
  -2   2   9  195.18   19.50
  -2   2   9  186.98   28.50
   1  -2  -9    3.70    7.10
   1  -2  -9    2.60    4.40
   1  -2  -9    3.70    7.50
  -1   2   9   -6.10    3.60
  -1   2   9    7.20    4.80
   0  -2  -9  534.15   33.10
   0  -2  -9  461.95   33.10
   0   2   9  532.85   36.50
   0   2   9  500.65   33.40
   0   2   9  481.85   31.10
  -1  -2  -9    7.00    6.20
  -1  -2  -9    7.20    7.00
   1   2   9   22.50    9.90
   1   2   9   17.40    8.00
  -2  -2  -9  206.18   17.80
  -2  -2  -9  188.18   21.70
   2   2   9  165.78   23.50
   2   2   9  175.98   26.70
  -3  -2  -9  236.88   16.00
  -3  -2  -9  258.77   16.30
  -3  -2  -9  203.98   24.30
   3   2   9  243.58   27.60
   3   2   9  202.28   24.20
  -4  -2  -9  139.89   24.60
   4   2   9  115.69   22.40
   4   2   9   98.19   22.00
  -5  -2  -9  275.77   44.60
   5   2   9  349.57   33.40
  -6  -2  -9  180.28   28.50
   6   2   9  289.87   33.60
  -7  -2  -9  257.97   37.40
   7   2   9  278.47   40.80
   9  -3  -9   57.09   21.80
   9  -3  -9   39.50   15.60
  -9   3   9   36.30   21.00
   8  -3  -9   74.39   22.00
   8  -3  -9   82.19   20.20
  -8   3   9   80.19   21.50
   7  -3  -9   26.70   11.40
   7  -3  -9   16.40   13.90
   7  -3  -9   15.40    6.60
  -7   3   9   19.50   15.30
  -7   3   9   19.60    9.20
   6  -3  -9   26.60   12.20
   6  -3  -9   57.99   15.60
  -6   3   9   64.39   11.10
  -6   3   9   90.89   23.60
   5  -3  -9  137.49   26.70
   5  -3  -9  156.68   18.50
  -5   3   9  149.29   16.90
  -5   3   9  154.48   29.30
   4  -3  -9   57.49   18.00
   4  -3  -9   99.09   16.70
  -4   3   9   83.49   20.30
  -4   3   9   99.99   16.10
   3  -3  -9  314.57   23.20
   3  -3  -9  283.97   30.20
  -3   3   9  298.67   26.00
  -3   3   9  227.68   27.00
   2  -3  -9   -0.50    7.50
   2  -3  -9   14.40    7.60
   2  -3  -9    8.60    6.10
  -2   3   9   15.40    8.70
  -2   3   9   19.40    8.60
  -2   3   9   -2.60    5.20
   1  -3  -9  110.29   16.60
   1  -3  -9   94.49   21.60
   1  -3  -9   91.59   17.70
  -1   3   9  100.19   16.00
  -1   3   9  108.69   20.00
   0  -3  -9  525.75   36.50
   0  -3  -9  526.95   34.60
   0   3   9  495.35   36.30
   0   3   9  511.55   31.00
  -1  -3  -9  347.77   25.60
  -1  -3  -9  346.97   31.00
   1   3   9  371.96   27.80
   1   3   9  394.16   33.70
  -2  -3  -9  326.47   30.70
  -2  -3  -9  369.66   23.70
   2   3   9  344.77   28.20
   2   3   9  335.67   33.10
  -3  -3  -9    3.40    5.40
  -3  -3  -9   -3.10    3.60
  -3  -3  -9    9.30   13.70
   3   3   9   -8.30    4.20
   3   3   9   13.40    4.90
  -4  -3  -9   68.29   17.90
  -4  -3  -9   58.59    5.90
   4   3   9   89.79   19.40
   4   3   9  104.09   22.80
  -5  -3  -9  167.38   27.20
   5   3   9  252.17   36.70
   5   3   9  230.98   25.40
  -6  -3  -9   80.19   20.00
   6   3   9   32.40   14.90
  -7  -3  -9   40.60   12.70
   7   3   9   22.40   16.10
   9  -4  -9  -16.60    8.60
   9  -4  -9    9.80    8.00
  -9   4   9    9.40   11.00
   8  -4  -9   13.30   10.40
  -8   4   9   -7.00   13.20
  -8   4   9   -8.10    5.50
   7  -4  -9   11.50   13.60
   7  -4  -9    6.80    9.30
  -7   4   9    4.00    6.60
  -7   4   9    7.50   11.80
   6  -4  -9  337.97   37.00
   6  -4  -9  315.67   27.70
  -6   4   9  368.36   27.50
  -6   4   9  397.96   41.50
   5  -4  -9   32.30   12.60
   5  -4  -9   31.60   11.20
  -5   4   9   41.60   15.20
  -5   4   9   40.20   12.30
   4  -4  -9  116.39   16.90
   4  -4  -9  142.69   26.20
  -4   4   9   99.59   23.60
  -4   4   9  119.69   27.60
   3  -4  -9   40.60   10.20
   3  -4  -9   42.00   11.70
  -3   4   9   48.10   14.00
   2  -4  -9   70.59   12.30
   2  -4  -9   78.49   18.90
  -2   4   9   98.79   20.30
   1  -4  -9    8.70    5.00
   1  -4  -9  -10.10    4.20
  -1   4   9   -3.80    5.00
  -1   4   9    4.20    4.70
   0  -4  -9   -5.40    7.40
   0   4   9   21.60   11.80
   0   4   9   21.60    7.30
  -1  -4  -9   -4.40    7.00
  -1  -4  -9    9.90    7.90
   1   4   9    7.80    8.80
  -2  -4  -9   45.70   11.30
  -2  -4  -9   11.30   11.20
   2   4   9   32.10   14.70
   2   4   9   47.30   12.90
  -3  -4  -9   33.90   10.40
  -3  -4  -9   52.79   10.00
   3   4   9   42.60   13.30
   3   4   9   40.80   13.20
  -4  -4  -9   69.99   17.30
  -4  -4  -9  120.49   10.30
   4   4   9  102.09   24.00
   4   4   9   88.79   19.30
  -5  -4  -9  332.37   34.40
   5   4   9  356.26   36.90
   5   4   9  303.37   31.40
  -6  -4  -9  271.87   33.00
   6   4   9  271.37   41.20
   6   4   9  333.27   34.30
   9  -5  -9   -8.20   15.30
   9  -5  -9   18.40   11.00
   8  -5  -9  613.34   42.80
   8  -5  -9  640.34   57.09
  -8   5   9  715.13   39.10
   7  -5  -9  203.68   24.70
   7  -5  -9  250.27   38.30
  -7   5   9  231.08   22.50
   6  -5  -9   17.30    9.10
   6  -5  -9   10.60   11.30
  -6   5   9   13.30   10.20
   5  -5  -9   -3.30    8.50
   5  -5  -9    6.00    6.30
  -5   5   9   13.90    8.30
   4  -5  -9    3.80    5.20
   4  -5  -9    5.50    9.90
  -4   5   9   20.30    8.90
   3  -5  -9   56.39   10.30
   3  -5  -9   53.59   14.00
  -3   5   9   17.70   10.30
   2  -5  -9   12.60    6.60
   2  -5  -9   22.60   11.20
  -2   5   9    1.60   11.50
   1  -5  -9    3.10   10.30
   1  -5  -9   -1.00    4.00
  -1   5   9    7.60    5.90
  -1   5   9    6.40    4.60
   0  -5  -9   30.40    9.30
   0  -5  -9   11.90   10.20
   0   5   9   27.60    8.50
   0   5   9   20.50   12.70
  -1  -5  -9   57.59   15.30
   1   5   9   35.00   15.50
   1   5   9   66.59   13.90
  -2  -5  -9  174.28   28.50
  -2  -5  -9  144.49   17.30
   2   5   9  117.09   23.70
   2   5   9  154.28   17.70
  -3  -5  -9  222.58   33.90
  -3  -5  -9  245.08   21.20
   3   5   9  221.58   24.70
   3   5   9  243.18   29.40
  -4  -5  -9  145.59   13.90
  -4  -5  -9  147.69   26.80
   4   5   9  122.09   26.80
   4   5   9  141.09   25.00
  -5  -5  -9   76.99   19.90
   5   5   9   50.89   15.20
   5   5   9   83.49   22.00
  -6  -5  -9    9.90   13.50
   6   5   9   35.30   19.10
   6   5   9   37.20   15.30
   8  -6  -9   28.50   12.60
   8  -6  -9    7.30   15.60
  -8   6   9   11.50   13.00
   7  -6  -9   15.50   14.50
  -7   6   9   42.50   15.40
   6  -6  -9  -12.10    6.90
   6  -6  -9  -23.00    9.60
  -6   6   9   -6.30    9.00
   5  -6  -9   23.00   10.60
   5  -6  -9    5.90    7.50
  -5   6   9   22.40   12.80
   4  -6  -9   32.10   12.20
   4  -6  -9    3.90    6.00
  -4   6   9   -7.90    7.90
   3  -6  -9   -2.60    5.50
   3  -6  -9   11.10    5.60
  -3   6   9   -4.20    7.90
   2  -6  -9    2.40    5.00
   2  -6  -9   -4.40    8.20
  -2   6   9   14.30   11.90
   1  -6  -9   58.49   16.70
   1  -6  -9   70.99   11.70
  -1   6   9   64.09   19.20
  -1   6   9   67.29   11.80
   0  -6  -9    0.90    4.90
   0  -6  -9  -14.40    7.00
   0   6   9   -8.20    9.40
   0   6   9   18.90    6.30
  -1  -6  -9   -3.90    7.10
   1   6   9    7.30    9.70
   1   6   9   19.20    8.00
  -2  -6  -9   26.20   17.60
   2   6   9   -8.60   10.40
   2   6   9   22.60   10.60
  -3  -6  -9   -9.20    8.30
  -3  -6  -9   15.30    7.50
   3   6   9    8.00   11.70
   3   6   9   10.10    8.20
  -4  -6  -9  -12.60    8.10
   4   6   9   11.20   11.20
   4   6   9   17.30   12.70
  -5  -6  -9   -4.70    6.60
   5   6   9  -10.30   13.70
   5   6   9    1.40    9.70
   7  -7  -9   22.90   16.60
  -7   7   9   40.00   15.50
   6  -7  -9   17.90   15.30
  -6   7   9   13.10   13.70
   5  -7  -9  -21.80   10.50
  -5   7   9  -21.70    9.50
   4  -7  -9    8.40   14.40
  -4   7   9    6.90   10.30
   3  -7  -9  124.09   24.60
   3  -7  -9  181.58   13.00
  -3   7   9  162.08   27.20
   2  -7  -9   85.19   23.90
   2  -7  -9  144.59   12.30
  -2   7   9  130.39   25.80
   1  -7  -9   45.00    7.20
   1  -7  -9   41.20   15.10
  -1   7   9   43.40   15.10
   0  -7  -9    2.80    5.80
   0  -7  -9   16.90   10.10
   0   7   9   20.60   13.50
   0   7   9   20.70    7.60
  -1  -7  -9   38.10   12.40
   1   7   9   39.40   16.00
   1   7   9   37.50    9.10
  -2  -7  -9    0.20   10.80
   2   7   9   22.00   10.00
   2   7   9    8.80   11.60
  -3  -7  -9   12.80   11.20
  -3  -7  -9   -6.10   11.30
   3   7   9   -6.80    8.50
   3   7   9   16.50   10.50
  -4  -7  -9   28.60   13.00
   4   7   9   34.20   12.80
   4   7   9   20.10   13.80
   6  -8  -9   50.49   25.10
  -6   8   9   52.99   21.40
   5  -8  -9   98.79   26.90
  -5   8   9   94.19   26.10
   4  -8  -9   45.50   20.30
  -4   8   9   85.09   27.20
   3  -8  -9   -2.90   10.00
  -3   8   9    6.10    9.60
   2  -8  -9   -3.60   17.80
  -2   8   9    6.60   12.60
   1  -8  -9   34.70   12.90
  -1   8   9   36.30   16.50
   0  -8  -9   46.70   12.10
   0   8   9   22.80   15.00
  -1  -8  -9   30.50   11.70
  -1  -8  -9   21.20    8.60
   1   8   9    6.60   13.20
   1   8   9   14.30    9.90
  -2  -8  -9  213.38   30.60
   2   8   9  171.78   32.70
  -3  -8  -9  -19.30   10.40
   3   8   9    6.40   16.70
   3   8   9   18.80   13.40
   5  -9  -9  112.69   27.20
  -5   9   9  223.38   33.60
   4  -9  -9   59.99   21.00
  -4   9   9   55.99   17.70
   3  -9  -9   29.40   16.90
  -3   9   9   37.70   15.20
   2  -9  -9   22.00   12.20
  -2   9   9   -0.30   13.70
   1  -9  -9  206.08   31.90
  -1   9   9  197.58   34.80
   0  -9  -9  308.37   36.20
   0   9   9  260.57   40.20
  -1  -9  -9   44.50   19.10
   1   9   9   66.39   23.40
   1  11 -10   27.50   16.20
   1  11 -10   27.20   11.50
  -1 -11  10   13.40   14.40
   0  11 -10   36.60   14.10
   0  11 -10   31.40   13.70
   0 -11  10   18.50   16.70
  -1  11 -10   22.50   12.30
  -1  11 -10   27.80   12.30
   1 -11  10    3.10   19.50
   3  10 -10   68.89   13.60
   3  10 -10   66.89   17.90
  -3 -10  10   47.40   19.90
   2  10 -10   -8.10    7.20
   2  10 -10    5.50    9.60
  -2 -10  10   22.60   17.90
   1  10 -10   10.20    9.10
   1  10 -10   14.10   11.00
  -1 -10  10  -35.80   11.70
   0  10 -10    3.00   11.90
   0  10 -10    8.00    9.80
   0 -10  10   30.30   19.90
  -1  10 -10    3.50    8.60
  -1  10 -10   17.60   11.30
   1 -10  10  -15.10   13.00
   1 -10  10    6.00    9.00
  -2  10 -10    7.70   10.40
  -2  10 -10   30.50   11.70
   2 -10  10    3.50   12.10
   2 -10  10  -10.70    7.80
  -3  10 -10   91.99   19.90
  -3  10 -10   50.69   17.20
   3 -10  10  119.79   29.10
   3 -10  10  118.09   24.80
  -4  10 -10    5.10   11.60
   5   9 -10   66.89   22.00
  -5  -9  10   88.79   29.00
   4   9 -10   22.60   13.40
   4   9 -10   32.00   10.50
  -4  -9  10   -3.00   12.00
   3   9 -10  149.69   29.10
   3   9 -10  159.68   22.80
  -3  -9  10  124.79   32.80
   2   9 -10   -2.10    8.00
   2   9 -10   -4.70    7.80
  -2  -9  10   17.70   16.90
   1   9 -10    1.70    8.90
   1   9 -10    1.10    7.00
  -1  -9  10    0.90    8.50
   0   9 -10    4.10    9.00
   0   9 -10    1.00   10.70
   0  -9  10   10.60    8.50
  -1   9 -10   36.30   12.30
  -1   9 -10   36.30   12.40
   1  -9  10   12.80   15.70
   1  -9  10   29.20   12.60
  -2   9 -10    0.40    7.80
  -2   9 -10   -6.70    8.00
   2  -9  10    5.60    8.60
   2  -9  10   17.00   11.30
  -3   9 -10    3.40    9.00
  -3   9 -10   11.80   11.40
   3  -9  10   -1.50   10.40
   3  -9  10  -11.70   12.30
  -4   9 -10   42.60   16.90
  -4   9 -10   46.30   15.40
   4  -9  10   49.00   17.30
   4  -9  10   59.79   20.20
  -5   9 -10   19.70   12.40
   5  -9  10    2.30   14.10
   5  -9  10  -18.10    9.20
   6   8 -10   32.10   16.60
  -6  -8  10   90.19   28.00
   5   8 -10   79.69   22.60
  -5  -8  10   26.20   21.00
   4   8 -10  103.59   16.10
   4   8 -10   61.29   19.20
  -4  -8  10  111.79   27.80
   3   8 -10    0.50    6.10
   3   8 -10   -9.90    4.80
  -3  -8  10  -13.70    7.50
   2   8 -10   12.00    8.90
   2   8 -10    7.80    8.50
  -2  -8  10   35.70   16.00
   1   8 -10   31.70   12.20
   1   8 -10    5.50    9.40
  -1  -8  10   54.99   17.80
   0   8 -10   14.80    9.20
   0   8 -10   -5.20    8.30
   0  -8  10   -5.10    8.50
   0  -8  10   20.80    9.60
  -1   8 -10   92.99   19.80
  -1   8 -10   76.89   16.50
   1  -8  10   78.49   18.90
   1  -8  10   82.99   22.00
  -2   8 -10   16.30   11.00
   2  -8  10   15.60   15.60
  -3   8 -10    4.50    9.50
  -3   8 -10    4.30    9.30
   3  -8  10   14.90    9.40
   3  -8  10    6.00   11.10
  -4   8 -10   36.90   13.30
   4  -8  10   14.20   17.10
   4  -8  10   37.50   15.00
  -5   8 -10    7.10   11.50
   5  -8  10    6.80   11.10
   5  -8  10   39.90   17.60
  -6   8 -10   75.49   20.80
   6  -8  10   39.90   23.20
   6  -8  10   77.99   20.20
   7   7 -10   47.20   20.30
  -7  -7  10   12.40   15.60
   6   7 -10   69.99   19.70
  -6  -7  10   61.69   19.70
   5   7 -10   51.79   15.60
  -5  -7  10   59.59   20.90
   4   7 -10   95.89   22.60
   4   7 -10  109.99   15.20
  -4  -7  10  113.19   28.50
   3   7 -10   -2.30   12.50
   3   7 -10   25.80    8.30
  -3  -7  10    7.40   13.30
   2   7 -10   -3.10    6.30
   2   7 -10   -5.70    7.50
  -2  -7  10  -13.00   10.00
   1   7 -10   28.90   10.70
   1   7 -10   53.59   15.40
  -1  -7  10   27.20   16.50
   0   7 -10  132.59   20.60
   0   7 -10  100.09   21.00
   0  -7  10  102.89   20.20
   0  -7  10  175.08   31.40
  -1   7 -10   22.10   10.50
  -1   7 -10   31.00   12.20
   1  -7  10    4.80    9.40
   1  -7  10   19.00   10.90
  -2   7 -10   -5.50    6.00
  -2   7 -10   12.20    6.00
   2  -7  10   -6.60    9.20
   2  -7  10    3.40    7.60
  -3   7 -10   -6.70    4.50
   3  -7  10   -9.70    8.20
  -4   7 -10   16.70    9.90
   4  -7  10   18.50    9.80
  -5   7 -10  496.95   40.80
   5  -7  10  443.36   47.70
   5  -7  10  430.56   40.60
  -6   7 -10    5.70   11.00
   6  -7  10   18.40   12.60
   7   6 -10   -6.20   10.30
  -7  -6  10  -10.70   10.00
   6   6 -10    6.00   13.60
  -6  -6  10    1.70   13.70
   5   6 -10  -10.40    6.90
  -5  -6  10   -7.40    7.00
   4   6 -10   40.00    9.50
   4   6 -10   24.30   14.50
  -4  -6  10   -1.70   12.70
   3   6 -10   46.30    9.70
   3   6 -10   27.00   12.20
  -3  -6  10   33.90   15.00
   2   6 -10    5.50    5.70
   2   6 -10   10.70    5.30
  -2  -6  10    6.70    9.50
   1   6 -10  132.39   15.90
   1   6 -10  132.99   22.40
  -1  -6  10  147.59   25.10
  -1  -6  10  181.68   31.20
   0   6 -10  109.39   19.50
   0   6 -10  157.08   22.40
   0  -6  10  154.58   27.20
   0  -6  10  120.39   22.20
  -1   6 -10   -6.90    4.30
  -1   6 -10    1.60    5.40
   1  -6  10   -5.70    5.70
   1  -6  10    9.30    7.70
  -2   6 -10   11.70    7.90
  -2   6 -10    0.50    2.90
   2  -6  10    1.70    7.40
   2  -6  10  -19.70    8.90
  -3   6 -10   19.80    7.80
   3  -6  10  -26.00    8.70
   3  -6  10    5.20   10.40
   4  -6  10   -4.00    9.50
   4  -6  10  -20.00    7.40
  -5   6 -10   10.70    7.80
   5  -6  10  -17.80   10.20
   5  -6  10    6.60    8.80
  -6   6 -10   19.40   10.20
  -7   6 -10   37.70   16.10
   7  -6  10   52.29   20.20
   8   5 -10   56.39   19.10
  -8  -5  10   70.19   20.80
   7   5 -10   14.00   13.20
  -7  -5  10   10.70    9.40
   6   5 -10   12.40    9.90
  -6  -5  10    4.70   11.70
   5   5 -10    0.20    3.90
   5   5 -10    3.10   10.30
   4   5 -10  257.07   28.60
   4   5 -10  257.57   16.00
  -4  -5  10  274.97   33.20
   3   5 -10  719.03   46.10
   3   5 -10  698.13   31.10
  -3  -5  10  732.83   55.09
   2   5 -10   53.79   14.50
   2   5 -10   62.99   12.10
  -2  -5  10   56.39   15.60
   1   5 -10    6.10    7.40
   1   5 -10    6.20    4.90
  -1  -5  10    1.10    6.00
  -1  -5  10  -13.00    7.80
   0   5 -10  264.17   26.10
   0   5 -10  219.08   20.80
   0  -5  10  247.18   26.00
   0  -5  10  228.18   27.20
  -1   5 -10  206.78   24.30
  -1   5 -10  171.68   24.10
   1  -5  10  196.78   23.00
   1  -5  10  230.18   26.80
  -2   5 -10   35.00   11.00
   2  -5  10   33.20   12.20
   2  -5  10   26.50   12.30
  -3   5 -10   21.70    9.90
   3  -5  10   35.10   13.00
   3  -5  10   33.90   12.30
  -4   5 -10    7.50    6.00
   4  -5  10    4.80    7.10
   4  -5  10   -5.50    8.10
  -5   5 -10   60.59   15.60
   5  -5  10   78.69   20.20
   5  -5  10   56.89   12.60
  -6   5 -10   41.80   14.70
   6  -5  10   20.70   13.50
  -7   5 -10   37.60   12.50
   7  -5  10   23.60   14.70
   8   4 -10   14.10   11.00
  -8  -4  10   11.40   12.10
   7   4 -10  129.39   26.70
  -7  -4  10   87.99   27.10
   6   4 -10  -22.20    9.50
  -6  -4  10   -3.30    7.00
   5   4 -10    0.40    7.40
   5   4 -10    2.80    3.10
  -5  -4  10    0.80   10.10
   4   4 -10  101.49   10.50
   4   4 -10   85.89   19.10
  -4  -4  10   90.69   23.40
   3   4 -10   81.39   18.00
   3   4 -10  107.49   12.10
  -3  -4  10  144.39   29.70
   2   4 -10  315.87   29.40
   2   4 -10  391.56   24.80
  -2  -4  10  412.26   38.80
   1   4 -10   46.00   13.60
   1   4 -10   61.79   13.10
  -1  -4  10   60.59   15.00
  -1  -4  10   62.89   18.20
   0   4 -10  148.29   16.40
   0   4 -10  130.99   21.90
   0  -4  10  128.49   22.50
   0  -4  10   82.89   19.00
  -1   4 -10   13.90    7.90
  -1   4 -10    4.30    6.50
   1  -4  10    7.20    7.60
   1  -4  10   20.50    9.40
  -2   4 -10  179.88   21.30
   2  -4  10  170.78   26.70
   2  -4  10  157.88   24.80
  -3   4 -10  239.98   25.40
   3  -4  10  220.18   25.40
   3  -4  10  245.08   23.00
  -4   4 -10   64.29   17.40
   4  -4  10   70.09   14.10
   4  -4  10   39.70   16.00
  -5   4 -10    0.10    7.40
   5  -4  10   -4.70    6.40
   5  -4  10    6.80    7.10
  -6   4 -10    0.50   11.00
   6  -4  10   -6.40    6.00
  -7   4 -10   13.20    8.20
   7  -4  10   26.30   14.30
   9   3 -10   65.39   21.40
  -9  -3  10  121.49   33.80
   8   3 -10   73.79   20.40
  -8  -3  10   30.60   14.30
   7   3 -10   17.40   13.30
  -7  -3  10   26.60   17.10
   6   3 -10  127.79   25.30
   5   3 -10   59.09    6.20
   5   3 -10   53.19   15.30
   5   3 -10   72.09    6.90
  -5  -3  10   68.09   19.10
   4   3 -10   12.70    7.80
   4   3 -10   15.60    6.20
  -4  -3  10   15.40   12.40
   3   3 -10   68.69   15.60
   3   3 -10   75.09   11.80
  -3  -3  10   95.19   21.20
   2   3 -10  717.13   33.50
   2   3 -10  676.43   42.50
  -2  -3  10  715.43   50.09
  -2  -3  10  676.43   42.80
   1   3 -10    9.70    6.90
   1   3 -10   18.20    9.20
  -1  -3  10   23.70    9.20
  -1  -3  10   24.60   11.60
   0   3 -10   31.20    8.70
   0   3 -10   24.70   11.50
   0  -3  10   11.50    4.70
   0  -3  10   21.90   12.30
  -1   3 -10  981.20   47.40
   1  -3  10  887.91   49.40
   1  -3  10  931.51   50.09
  -2   3 -10  867.81   46.50
   2  -3  10  840.42   44.30
   2  -3  10  931.81   51.69
  -3   3 -10   64.99   16.80
   3  -3  10  117.19   13.00
   3  -3  10   68.19   17.30
  -4   3 -10   33.00   13.40
   4  -3  10   39.20    8.20
   4  -3  10   30.60   12.60
  -5   3 -10    6.70    8.30
   5  -3  10    0.10    7.80
  -6   3 -10   -0.20    9.30
   6  -3  10   -5.70    7.30
  -7   3 -10   15.60    9.30
   7  -3  10   -0.20   10.20
  -9  -2  10    8.90   19.80
   8   2 -10    9.50   10.50
  -8  -2  10   13.40   10.30
   7   2 -10  223.98   34.10
  -7  -2  10  178.08   36.20
   6   2 -10  152.28   27.00
  -6  -2  10  185.58   33.50
   5   2 -10   17.80    9.70
   5   2 -10   17.00    4.90
  -5  -2  10    6.10   13.20
   4   2 -10   14.70    4.60
   4   2 -10   13.10    7.00
  -4  -2  10   32.00   14.80
   3   2 -10  189.68   22.20
   3   2 -10  177.68   16.20
  -3  -2  10  211.58   33.70
   2   2 -10  473.05   26.90
   2   2 -10  434.36   33.20
  -2  -2  10  387.36   36.40
  -2  -2  10  427.96   32.70
   1   2 -10  746.93   42.60
   1   2 -10  725.23   36.70
  -1  -2  10  718.23   42.90
  -1  -2  10  776.62   48.90
   0   2 -10    2.40    4.10
   0   2 -10    6.40    5.90
   0  -2  10   -0.80    5.40
   0  -2  10    8.90    7.30
  -1   2 -10  416.86   30.70
   1  -2  10  360.16   29.70
   1  -2  10  350.56   29.90
  -2   2 -10  254.97   25.40
   2  -2  10  313.97   28.90
   2  -2  10  293.57   24.60
  -3   2 -10    4.50    7.50
   3  -2  10   -6.10    6.80
   3  -2  10   12.20    6.80
  -4   2 -10   62.29   18.00
  -4   2 -10   60.89    8.60
   4  -2  10  100.49   20.60
   4  -2  10   63.69    9.30
  -5   2 -10    0.60    6.50
   5  -2  10   -1.80    5.80
  -6   2 -10   66.69   20.70
   6  -2  10  100.59   24.20
  -7   2 -10   63.39   17.10
   7  -2  10   19.00   11.90
   9   1 -10    1.70   13.70
  -9  -1  10   10.40   15.50
   8   1 -10   -0.90   12.40
  -8  -1  10  -11.20    6.80
   7   1 -10   26.90   12.30
  -7  -1  10   33.20   15.00
   6   1 -10   87.19   20.30
  -6  -1  10   64.69   20.90
   5   1 -10   29.40   11.30
   5   1 -10   13.80    4.50
   5   1 -10   32.20    6.60
  -5  -1  10    9.80    9.00
   4   1 -10   10.90    4.70
   4   1 -10   10.90    7.20
  -4  -1  10   16.20    9.60
   3   1 -10    8.90    5.10
   3   1 -10    2.00    5.70
  -3  -1  10   -2.50    7.40
   2   1 -10  110.39   19.50
   2   1 -10   91.59   15.20
  -2  -1  10  102.29   18.90
  -2  -1  10  110.39   23.30
   1   1 -10 1658.03   64.49
   1   1 -10 1688.13   59.59
  -1  -1  10 1630.04   65.09
  -1  -1  10 1736.23   77.19
   0   1 -10  199.08   21.70
   0   1 -10  160.68   18.30
   0  -1  10  174.68   20.30
   0  -1  10  185.58   27.00
  -1   1 -10   69.69   13.90
   1  -1  10   51.79   13.70
   1  -1  10   52.59   14.10
  -2   1 -10   98.39   16.10
  -2   1 -10  131.29   21.60
   2  -1  10  136.39   16.50
   2  -1  10  172.08   26.10
  -3   1 -10   57.19    9.90
  -3   1 -10   45.90   10.30
  -3   1 -10   64.09   14.80
   3  -1  10   50.79    9.50
   3  -1  10   66.59   17.00
  -4   1 -10   -0.30    2.10
  -4   1 -10    6.80    2.60
   4  -1  10    1.70    4.00
  -5   1 -10   -8.10    8.10
   5  -1  10   -6.90   10.40
  -6   1 -10   -4.80    7.90
   6  -1  10    7.80    6.90
  -7   1 -10  -10.30    8.80
   7  -1  10   -4.20   10.80
   9   0 -10   24.60   18.20
   9   0 -10   12.60   11.00
  -9   0  10   -1.90   15.20
   8   0 -10    4.90   14.40
   8   0 -10    7.00    9.90
  -8   0  10   -1.90   13.60
   7   0 -10   13.20   11.80
  -7   0  10  -14.50    5.10
   6   0 -10   83.79   16.90
   6   0 -10   66.79    5.10
  -6   0  10   30.40   14.60
   5   0 -10   23.00    6.00
   5   0 -10   45.30   13.00
  -5   0  10   16.60   10.50
   4   0 -10   31.20   11.00
  -4   0  10   26.60   14.20
   3   0 -10  711.03   41.20
   3   0 -10  727.93   34.70
  -3   0  10  711.03   50.09
   2   0 -10 1478.25   54.69
   2   0 -10 1588.44   61.89
  -2   0  10 1619.74   63.59
  -2   0  10 1553.94   72.29
   1   0 -10  595.74   37.10
   1   0 -10  639.74   38.10
  -1   0  10  600.14   37.50
   0   0 -10  170.08   20.00
   0   0 -10  152.48   22.60
   0   0 -10  141.99   21.50
   0   0  10  181.88   20.50
   0   0  10  162.98   26.10
  -1   0 -10   63.39   14.10
  -1   0 -10   52.19   14.40
   1   0  10   56.49   12.80
   1   0  10   52.79   14.30
  -2   0 -10   38.90    8.20
  -2   0 -10   31.30   10.90
   2   0  10   41.20   13.10
   2   0  10   26.20    9.20
  -3   0 -10  274.07   17.70
  -3   0 -10  213.98   25.30
   3   0  10  207.98   24.60
  -4   0 -10   15.30   11.60
   4   0  10   15.60   11.60
  -5   0 -10   -6.40    6.80
   5   0  10    9.50   10.80
   6   0  10    4.40   12.30
  -7   0 -10  169.58   30.00
   7   0  10  150.78   28.40
   9  -1 -10   22.10   17.30
   9  -1 -10   54.29   17.30
  -9   1  10    5.20   17.80
   8  -1 -10  -13.20   10.90
   8  -1 -10    8.30   13.20
  -8   1  10    7.40   15.20
   7  -1 -10   -1.50    8.10
   7  -1 -10   -6.40   10.00
  -7   1  10  -24.20    9.70
   6  -1 -10   11.60   10.30
   6  -1 -10   23.80   11.30
  -6   1  10    6.60   12.60
   5  -1 -10  275.37   19.20
   5  -1 -10  279.07   27.00
   5  -1 -10  276.27   33.40
  -5   1  10  273.67   40.40
   4  -1 -10  144.19   15.20
   4  -1 -10  147.39   22.80
   4  -1 -10  169.18   30.00
  -4   1  10  118.79   26.00
   3  -1 -10   54.59   13.10
   3  -1 -10   68.89   19.20
   3  -1 -10   50.29   10.20
  -3   1  10   79.39   20.50
  -3   1  10   65.99   13.40
   2  -1 -10   68.49   18.00
   2  -1 -10   75.99   15.60
   2  -1 -10   99.69   16.80
  -2   1  10  105.99   18.10
  -2   1  10   93.09   20.60
  -2   1  10   84.79   16.20
   1  -1 -10    9.30    7.60
   1  -1 -10   -1.20    5.30
   1  -1 -10   -0.10    6.60
  -1   1  10   16.90    7.00
  -1   1  10    6.60    6.90
  -1   1  10    2.40    6.10
   0  -1 -10  349.27   27.60
   0  -1 -10  318.17   27.80
   0  -1 -10  360.96   29.10
   0   1  10  325.27   29.70
   0   1  10  348.57   29.90
   0   1  10  368.36   28.80
  -1  -1 -10   15.50    8.60
  -1  -1 -10   -5.50    5.90
   1   1  10   27.70   10.50
   1   1  10   17.40    8.30
   1   1  10   14.10    9.00
  -2  -1 -10    2.00    6.00
  -2  -1 -10    4.90    5.40
   2   1  10    3.20    6.90
  -3  -1 -10   14.00    8.70
   3   1  10   -4.20    6.20
  -4  -1 -10   39.00   12.90
   4   1  10   35.00   12.40
  -5  -1 -10   47.40   14.40
   5   1  10   50.89   17.20
  -6  -1 -10   36.40   12.60
   6   1  10   11.60   11.50
  -7  -1 -10   88.49   22.00
   7   1  10   68.99   22.00
   9  -2 -10    7.30   12.30
   9  -2 -10   -3.30   11.70
  -9   2  10    0.10   14.60
   8  -2 -10   26.00   14.10
   8  -2 -10   37.40   14.20
  -8   2  10   36.30   18.00
   7  -2 -10   25.30   11.80
   7  -2 -10   36.00   11.40
  -7   2  10   12.30   10.90
   6  -2 -10  133.99   13.00
   6  -2 -10  107.69   28.40
   6  -2 -10  133.49   21.90
  -6   2  10  121.09   15.10
  -6   2  10  179.38   36.90
   5  -2 -10  250.57   20.00
   5  -2 -10  276.37   32.40
   5  -2 -10  299.77   27.60
  -5   2  10  302.47   22.70
  -5   2  10  228.88   36.10
   4  -2 -10  312.07   33.60
   4  -2 -10  252.27   20.60
   4  -2 -10  300.87   26.20
  -4   2  10  270.97   32.70
  -4   2  10  255.77   22.50
   3  -2 -10   32.20   12.10
   3  -2 -10   38.80   10.90
   3  -2 -10   33.10    8.50
  -3   2  10   40.60   14.90
  -3   2  10   23.30    9.70
   2  -2 -10   65.99   14.10
   2  -2 -10   68.29   17.90
   2  -2 -10   64.09   14.50
  -2   2  10   88.39   19.30
  -2   2  10   56.59   13.70
  -2   2  10   77.69   15.50
   1  -2 -10  144.19   17.20
   1  -2 -10  126.59   21.00
   1  -2 -10  146.49   23.30
  -1   2  10  118.59   20.70
  -1   2  10  165.28   17.30
  -1   2  10  125.79   23.00
   0  -2 -10  118.59   19.10
   0  -2 -10  116.69   19.70
   0  -2 -10  124.59   21.20
   0   2  10  116.19   22.10
   0   2  10  139.29   21.70
   0   2  10  127.29   21.00
  -1  -2 -10   -0.50    6.20
  -1  -2 -10   10.30    7.20
   1   2  10    5.00    6.40
   1   2  10   -4.60    6.30
  -2  -2 -10  207.48   24.40
   2   2  10  243.98   27.70
   2   2  10  207.28   23.50
  -3  -2 -10  113.39   13.80
  -3  -2 -10  130.59   23.80
   3   2  10  148.59   26.20
   3   2  10  177.18   27.50
  -4  -2 -10   12.10    8.10
   4   2  10   13.80    7.70
  -5  -2 -10    4.30   13.40
   5   2  10   23.40   10.70
  -6  -2 -10    7.20   11.40
   6   2  10  -24.80    8.40
   9  -3 -10   17.70   14.80
   9  -3 -10   14.80   13.70
  -9   3  10   -7.00   15.30
   8  -3 -10   42.90   17.50
   8  -3 -10   19.00   13.20
  -8   3  10   -6.50   12.40
   7  -3 -10  193.38   16.00
   7  -3 -10  176.58   31.60
   7  -3 -10  149.79   25.50
  -7   3  10  172.38   17.90
  -7   3  10  155.58   33.10
   6  -3 -10  584.34   50.19
   6  -3 -10  515.65   36.70
   6  -3 -10  593.64   31.10
  -6   3  10  618.14   52.89
  -6   3  10  614.44   32.70
   5  -3 -10   89.59   20.90
   5  -3 -10   99.89   16.60
   5  -3 -10  117.39   20.40
  -5   3  10  136.69   27.90
  -5   3  10  152.28   21.20
   4  -3 -10   12.30    9.30
   4  -3 -10    5.50   10.80
   4  -3 -10  -10.00    5.20
  -4   3  10   17.60   13.60
  -4   3  10    5.20    8.20
   3  -3 -10   32.70    9.20
   3  -3 -10   40.10   13.80
   3  -3 -10   13.00    9.20
  -3   3  10   38.40   13.60
   2  -3 -10   33.50   10.50
   2  -3 -10   26.50   11.30
   2  -3 -10   43.40   13.60
  -2   3  10   41.30   11.70
  -2   3  10   37.30   13.10
  -2   3  10   31.80   13.60
   1  -3 -10  233.58   21.80
   1  -3 -10  261.47   25.80
   1  -3 -10  222.18   26.50
  -1   3  10  213.28   21.10
  -1   3  10  243.58   26.60
   0  -3 -10  136.69   21.90
   0  -3 -10  147.69   21.30
   0   3  10  146.99   21.30
   0   3  10  186.18   28.20
  -1  -3 -10   71.39   15.60
  -1  -3 -10   70.89   17.30
   1   3  10   67.09   14.50
   1   3  10   66.69   17.40
  -2  -3 -10   73.69   13.90
  -2  -3 -10   51.99   15.80
   2   3  10   83.09   18.70
   2   3  10   78.79   19.70
  -3  -3 -10   -8.60    6.60
   3   3  10    4.40   12.70
   3   3  10   -6.20    6.10
  -4  -3 -10   26.90   10.80
   4   3  10   11.30   10.30
   4   3  10    2.10   10.20
  -5  -3 -10    6.40   10.00
   5   3  10  -22.50    9.70
   6   3  10   -5.50   10.50
   8  -4 -10   68.59   22.60
   8  -4 -10   46.10   15.10
  -8   4  10   37.10   19.40
   7  -4 -10   20.90    8.70
   7  -4 -10   36.40   16.90
   7  -4 -10   42.90   14.50
  -7   4  10   20.00   11.50
  -7   4  10   32.10   11.90
   6  -4 -10  107.79   25.20
   6  -4 -10  130.89   20.90
  -6   4  10   98.29   25.70
  -6   4  10   97.09   18.30
   5  -4 -10   58.29   18.60
   5  -4 -10   42.00   12.40
  -5   4  10   29.90   13.40
  -5   4  10   44.10   18.90
   4  -4 -10   -4.40    6.60
   4  -4 -10   16.90   12.80
  -4   4  10    0.70    7.20
   3  -4 -10    1.40    9.10
  -3   4  10   19.20    7.70
   2  -4 -10   51.19   14.90
   2  -4 -10   79.89   19.50
   2  -4 -10   82.79   17.80
  -2   4  10  101.99   19.90
   1  -4 -10    0.60    6.70
   1  -4 -10    2.10    5.20
   1  -4 -10    9.50    7.40
  -1   4  10    5.20    5.40
   0  -4 -10  174.18   25.00
   0  -4 -10  174.98   26.90
   0  -4 -10  188.38   19.90
   0   4  10  174.18   18.90
   0   4  10  239.48   27.20
  -1  -4 -10  131.69   24.70
  -1  -4 -10  115.49   20.20
   1   4  10  133.29   26.10
   1   4  10  132.69   20.50
  -2  -4 -10   25.70   12.10
  -2  -4 -10   23.40    9.20
   2   4  10   17.10   12.70
   2   4  10   31.50   10.40
  -3  -4 -10   41.20    9.40
  -3  -4 -10   38.70   13.90
   3   4  10   13.90   12.90
   3   4  10   37.90   16.60
  -4  -4 -10   54.69   17.10
   4   4  10   71.19   20.70
   4   4  10   68.09   17.70
  -5  -4 -10  -13.90   10.40
   5   4  10   10.80    9.10
   5   4  10   -0.60   13.50
   8  -5 -10    1.50   10.60
   8  -5 -10   23.30   16.70
   7  -5 -10   31.20   13.40
   7  -5 -10   43.60   14.50
  -7   5  10   39.60   16.00
   6  -5 -10   -0.50   10.60
   6  -5 -10   -6.60    9.30
  -6   5  10   10.60   10.00
   5  -5 -10   23.20   11.30
   5  -5 -10   23.80   15.60
  -5   5  10   17.30   10.90
   4  -5 -10   14.50   12.40
   4  -5 -10   42.60   11.40
  -4   5  10   49.30   14.40
   3  -5 -10   -3.20    5.50
   3  -5 -10   11.30   12.50
  -3   5  10   14.10    9.60
   2  -5 -10  218.28   18.40
   2  -5 -10  236.18   27.80
  -2   5  10  176.98   28.20
   1  -5 -10  328.17   31.80
   1  -5 -10  318.97   23.10
  -1   5  10  354.66   26.00
  -1   5  10  361.76   35.00
   0  -5 -10  113.99   23.50
   0  -5 -10  120.49   25.00
   0  -5 -10  172.18   18.50
   0   5  10  149.79   27.30
   0   5  10  156.58   17.70
  -1  -5 -10   26.10   13.00
   1   5  10   30.40   10.80
  -2  -5 -10   13.40   12.20
  -2  -5 -10    5.90    9.60
   2   5  10   30.90   12.90
   2   5  10   37.80   11.90
  -3  -5 -10   15.70    8.80
   3   5  10   21.90   10.60
   3   5  10   -8.00    9.30
  -4  -5 -10   17.60   12.60
   4   5  10    7.10    9.30
   4   5  10    5.00   13.00
  -5  -5 -10  -16.00    6.80
   5   5  10   -7.90   11.70
   5   5  10  -29.80   14.20
   7  -6 -10   88.29   25.60
   7  -6 -10   93.99   18.40
  -7   6  10   74.69   20.30
   6  -6 -10   19.30   11.00
   6  -6 -10   11.30   13.00
  -6   6  10   -1.00   11.80
   5  -6 -10    1.90    8.30
   5  -6 -10   23.70   13.40
  -5   6  10   23.10   14.50
   4  -6 -10   84.99   13.30
   4  -6 -10   80.89   18.00
  -4   6  10   88.69   20.50
   3  -6 -10   10.40    7.60
   3  -6 -10    0.30   12.60
  -3   6  10   24.80   10.10
   2  -6 -10   -0.30    6.20
   2  -6 -10   17.60   10.20
  -2   6  10   22.50    9.30
   1  -6 -10   16.90    9.60
   1  -6 -10   22.10    7.90
  -1   6  10   37.80   13.80
  -1   6  10   31.70   10.00
   0  -6 -10   -6.90    5.40
   0  -6 -10  -15.80    8.70
   0   6  10    8.10   11.20
   0   6  10    8.40    8.20
  -1  -6 -10   18.40   11.70
  -1  -6 -10   53.09   16.00
   1   6  10   34.30   13.60
   1   6  10   59.29   11.50
  -2  -6 -10   17.10   13.10
  -2  -6 -10    0.50    8.70
   2   6  10    2.10   10.10
   2   6  10   15.30   11.40
  -3  -6 -10  212.78   34.90
  -3  -6 -10  183.88   24.90
   3   6  10  172.88   26.70
   3   6  10  226.78   37.10
  -4  -6 -10   16.40   10.90
   4   6  10   24.60   12.40
   4   6  10   11.30   13.80
   6  -7 -10  -12.70   15.70
  -6   7  10   24.40   12.90
   5  -7 -10  -23.90   11.00
  -5   7  10    8.20   14.40
   4  -7 -10  110.39   27.30
  -4   7  10   71.49   21.60
   3  -7 -10   10.00   11.20
   2  -7 -10    5.90    5.40
   2  -7 -10  -18.60    7.60
  -2   7  10   -0.30   11.10
   1  -7 -10   91.89   22.80
   1  -7 -10   76.39   12.80
  -1   7  10   94.49   23.50
   0  -7 -10   66.09   16.50
   0  -7 -10   72.49   12.20
   0   7  10   51.69   20.30
   0   7  10   36.30   12.00
  -1  -7 -10  203.28   21.00
  -1  -7 -10  221.08   26.60
   1   7  10  177.38   20.40
   1   7  10  162.08   32.00
  -2  -7 -10   48.50   14.00
  -2  -7 -10   39.50   15.60
   2   7  10   13.90   10.70
   2   7  10   28.30   16.00
  -3  -7 -10   -5.90    8.70
   3   7  10    4.10   14.00
   3   7  10    3.60   13.40
   5  -8 -10   49.90   21.30
  -5   8  10   63.89   21.10
   4  -8 -10  137.59   31.90
  -4   8  10  125.09   22.60
   3  -8 -10   -7.80   11.40
  -3   8  10  -26.70   10.80
   2  -8 -10   30.30   12.30
  -2   8  10   11.90   14.60
   1  -8 -10  -11.90    9.00
  -1   8  10    8.00   10.20
   0   8  10   40.70   19.80
  -1  -8 -10   18.00   10.70
   1   8  10   -0.80   12.50
   1  10 -11   34.50   15.20
   1  10 -11   33.00   15.20
  -1 -10  11   30.40   19.30
   0  10 -11  153.38   31.10
   0  10 -11  217.48   23.00
   0 -10  11  175.88   34.30
  -1  10 -11   48.00   15.40
  -1  10 -11   75.29   21.00
   1 -10  11   46.80   17.60
   1 -10  11  102.09   28.70
   4   9 -11    5.90   15.00
  -4  -9  11   42.00   17.10
   3   9 -11    3.90    9.00
   3   9 -11   -7.70    8.10
  -3  -9  11   -8.00   11.70
   2   9 -11   13.00    6.30
   2   9 -11   -0.80    9.80
  -2  -9  11  -23.80   12.20
   1   9 -11   90.89   22.50
   1   9 -11  100.69   18.40
  -1  -9  11   46.90   22.60
   0   9 -11    5.40   10.50
   0  -9  11    4.00   14.40
  -1   9 -11  114.89   24.50
  -1   9 -11  119.89   23.30
   1  -9  11  147.39   27.20
   1  -9  11  103.29   22.90
  -2   9 -11  -18.50    7.70
  -2   9 -11   -7.90    7.70
   2  -9  11   -4.30    7.00
   2  -9  11   14.50   18.70
  -3   9 -11   24.10   12.70
  -3   9 -11    8.70   10.60
   3  -9  11   19.80   15.50
   3  -9  11   31.80   15.20
   5   8 -11   15.50   13.30
  -5  -8  11    2.90   13.80
   4   8 -11   80.69   16.50
   4   8 -11   81.79   22.50
  -4  -8  11   29.00   21.70
   3   8 -11   52.59   15.30
   3   8 -11   61.59   14.40
  -3  -8  11   62.59   24.00
   2   8 -11  -10.60   10.90
   2   8 -11   14.50    7.90
  -2  -8  11   22.90   13.30
   1   8 -11   17.80   10.30
   1   8 -11   20.50   11.20
  -1  -8  11   41.40   20.60
   0   8 -11   10.30   10.80
   0   8 -11   20.70   10.00
   0  -8  11    5.70    9.30
   0  -8  11    6.40   13.50
  -1   8 -11   97.49   23.00
  -1   8 -11   91.89   19.90
   1  -8  11   80.19   21.80
   1  -8  11  119.59   23.50
  -2   8 -11   23.90   11.00
  -2   8 -11   36.60   14.50
   2  -8  11   47.10   18.60
   2  -8  11   31.90   14.00
  -3   8 -11   46.20   14.40
  -3   8 -11   71.99   16.30
   3  -8  11   41.90   16.30
   3  -8  11  105.49   23.60
  -4   8 -11   14.10    9.20
   4  -8  11    3.80   13.10
   4  -8  11  -15.90    7.70
   6   7 -11  -19.60   10.50
  -6  -7  11   -6.40    8.60
   5   7 -11   53.39   17.90
  -5  -7  11   41.40   24.00
   4   7 -11   18.30    9.20
   4   7 -11   24.50    9.30
  -4  -7  11   -9.40    8.00
   3   7 -11   44.90   13.90
   3   7 -11   32.50    8.50
  -3  -7  11   21.30   15.70
   2   7 -11   -8.70    6.20
   2   7 -11   -0.30    6.40
  -2  -7  11   17.60   14.80
   1   7 -11   76.19   14.00
   1   7 -11   48.20   14.90
  -1  -7  11   64.09   20.80
   0   7 -11   47.50   11.30
   0   7 -11   21.30   10.70
   0  -7  11   44.30   16.50
   0  -7  11   40.70   14.70
  -1   7 -11   -5.80    5.90
  -1   7 -11   31.20    8.20
   1  -7  11    7.60   10.90
   1  -7  11    2.60   12.90
  -2   7 -11   29.40   15.30
   2  -7  11   28.40   13.00
   2  -7  11   42.70   15.30
  -3   7 -11   51.89   14.30
  -3   7 -11   51.29   17.00
   3  -7  11   79.09   19.30
   3  -7  11   53.99   17.40
  -4   7 -11  176.68   29.00
   4  -7  11  158.18   30.80
   4  -7  11  151.18   28.40
  -5   7 -11   -6.70    9.70
   5  -7  11   23.90   14.40
   5  -7  11  -17.30   18.20
   7   6 -11  -15.00   13.60
   6   6 -11   61.99   19.60
  -6  -6  11   39.70   18.10
   5   6 -11   43.70   18.00
  -5  -6  11   60.49   20.50
   4   6 -11   15.00   10.60
   4   6 -11   60.69    9.70
  -4  -6  11   51.79   19.20
   3   6 -11  151.18   15.60
   3   6 -11  170.78   28.20
   2   6 -11   -1.70    5.40
   2   6 -11   -1.00    5.40
  -2  -6  11   -7.10    7.90
   1   6 -11   13.70   15.40
   1   6 -11   20.60    8.70
  -1  -6  11    7.90   11.60
  -1  -6  11    3.80   10.00
   0   6 -11   11.10    6.30
   0  -6  11    6.70   10.00
   0  -6  11   16.90   11.10
  -1   6 -11   12.10    6.80
  -1   6 -11   10.90    8.20
   1  -6  11   10.30   11.20
   1  -6  11   -7.60    7.20
  -2   6 -11  194.98   23.70
  -2   6 -11  228.58   27.40
   2  -6  11  205.88   30.10
   2  -6  11  195.48   30.80
   3  -6  11   21.00   12.00
   3  -6  11   25.00   10.90
  -4   6 -11   79.49   19.20
  -5   6 -11   40.40   14.60
   5  -6  11   28.20   16.80
   5  -6  11   -7.10   15.90
  -6   6 -11   23.70   10.60
   6  -6  11  -18.40    8.10
   7   5 -11    4.30   10.50
  -7  -5  11   11.10   13.90
   6   5 -11   -4.60    9.00
  -6  -5  11    4.20    9.50
   5   5 -11   62.19   16.50
  -5  -5  11  100.79   28.20
   4   5 -11   73.89   20.50
   4   5 -11   99.39   12.90
  -4  -5  11   72.89   22.90
   3   5 -11  105.89   14.70
   3   5 -11  163.08   40.90
  -3  -5  11  122.99   27.50
   2   5 -11    9.50    7.00
   2   5 -11   -0.20    6.50
  -2  -5  11   14.40   12.60
   1   5 -11   31.00   12.60
   1   5 -11   47.90   11.70
  -1  -5  11   10.20   10.10
  -1  -5  11   49.99   14.20
   0   5 -11   23.80    9.90
   0   5 -11   32.40   11.30
   0  -5  11   26.20   15.30
   0  -5  11   45.40   15.10
  -1   5 -11   70.49   15.40
  -1   5 -11   52.89   15.40
   1  -5  11   40.80   15.00
   1  -5  11   41.30   14.70
  -2   5 -11   88.39   18.60
   2  -5  11   60.69   16.40
   3  -5  11  165.68   27.90
   3  -5  11  171.78   26.50
  -4   5 -11  150.48   26.30
   4  -5  11  163.58   29.00
   4  -5  11  148.39   23.70
  -5   5 -11    7.70   11.30
   5  -5  11   24.80   10.70
  -6   5 -11   22.70    9.90
   6  -5  11   10.50   13.00
   8   4 -11  221.48   38.30
   7   4 -11   67.99   21.80
  -7  -4  11   62.39   23.50
   6   4 -11   37.40   12.80
  -6  -4  11   40.50   19.30
   5   4 -11    6.50    9.50
   5   4 -11   -0.70    5.40
  -5  -4  11   -1.10   13.50
   4   4 -11  149.49   30.70
   4   4 -11  189.88   15.20
  -4  -4  11  197.08   35.10
   3   4 -11    3.20    5.20
   3   4 -11    7.20    8.10
  -3  -4  11   28.10   15.40
   2   4 -11   66.89   14.80
   2   4 -11   55.29   13.60
  -2  -4  11   46.70   13.00
   1   4 -11    1.50    4.90
   1   4 -11   -6.10    5.40
  -1  -4  11   -1.70    4.70
  -1  -4  11   10.30    8.10
   0   4 -11   56.79   14.40
   0   4 -11   56.09   14.80
   0  -4  11   85.29   19.60
   0  -4  11   55.79   13.30
  -1   4 -11  126.79   23.80
  -1   4 -11  123.39   20.50
   1  -4  11  126.69   24.50
   1  -4  11  130.79   24.90
  -2   4 -11   18.60    7.70
   2  -4  11    2.80    7.00
   2  -4  11    1.30    8.80
  -3   4 -11  102.09   21.00
   3  -4  11  106.19   20.50
   3  -4  11  122.39   21.20
  -4   4 -11  104.99   23.30
   4  -4  11  115.89   18.70
   4  -4  11  170.78   29.00
  -5   4 -11  110.69   24.80
   5  -4  11  107.79   24.90
  -6   4 -11    9.40   10.10
   6  -4  11   12.10   11.70
   8   3 -11  120.69   29.10
  -8  -3  11   56.59   24.70
   7   3 -11   38.40   18.80
  -7  -3  11   59.99   21.10
   6   3 -11    7.00    9.70
  -6  -3  11   29.30   15.20
   5   3 -11   25.30   16.00
   5   3 -11   60.89    7.10
  -5  -3  11   46.60   23.30
   4   3 -11   96.29   20.80
   4   3 -11   98.89   13.40
  -4  -3  11  101.09   26.90
   3   3 -11  214.18   18.20
   3   3 -11  245.38   26.90
  -3  -3  11  217.78   35.30
   2   3 -11  295.97   29.30
   2   3 -11  364.26   24.70
  -2  -3  11  338.97   32.30
  -2  -3  11  392.86   38.90
   1   3 -11   34.10   10.10
   1   3 -11   47.90   11.50
  -1  -3  11   57.29   16.10
  -1  -3  11   26.00    9.80
   0   3 -11    2.60    5.60
   0   3 -11   -0.60    4.90
   0  -3  11   -2.40    5.40
   0  -3  11    0.10    7.30
  -1   3 -11  119.39   21.30
  -1   3 -11   89.29   19.20
   1  -3  11   84.59   30.90
   1  -3  11  106.19   21.00
  -2   3 -11   51.89   13.80
   2  -3  11   59.89   16.30
   2  -3  11   56.59   14.90
  -3   3 -11   21.90    9.80
   3  -3  11   50.89   17.40
   3  -3  11   47.10   13.00
  -4   3 -11   73.29   20.80
   4  -3  11   97.69   20.00
   4  -3  11   63.29   12.80
  -5   3 -11   47.10   16.50
   5  -3  11   27.70   12.30
  -6   3 -11   14.10   10.00
   6  -3  11  -16.00    8.60
   8   2 -11    2.90   12.80
  -8  -2  11   21.50   15.60
   7   2 -11   80.99   24.00
  -7  -2  11   60.19   22.60
   6   2 -11  102.89   22.50
  -6  -2  11  121.79   28.50
   5   2 -11   25.20   10.30
  -5  -2  11   14.40   11.80
   4   2 -11   11.60    5.30
   4   2 -11    3.50    7.00
  -4  -2  11    6.00   12.20
   3   2 -11  130.69   23.20
   3   2 -11  173.18   16.00
  -3  -2  11  182.98   32.20
   2   2 -11   71.09   13.70
   2   2 -11   74.29   17.40
  -2  -2  11   65.39   17.00
  -2  -2  11   25.30   11.40
   1   2 -11  261.87   25.90
   1   2 -11  210.68   20.30
  -1  -2  11  208.58   23.50
  -1  -2  11  231.48   33.00
   0   2 -11  295.77   25.30
   0   2 -11  273.17   27.20
   0  -2  11  240.58   25.80
   0  -2  11  284.07   31.10
  -1   2 -11    1.10    5.80
   1  -2  11   -0.20    5.70
   1  -2  11    4.50    8.90
  -2   2 -11   61.09   16.50
   2  -2  11   82.19   17.80
   2  -2  11   92.39   18.50
  -3   2 -11  174.88   28.20
  -3   2 -11  141.79   18.70
   3  -2  11  139.19   25.40
   3  -2  11  210.78   18.60
  -4   2 -11   55.39   16.20
   4  -2  11   53.99   16.40
  -5   2 -11  174.08   29.00
   5  -2  11  207.78   33.50
  -6   2 -11   17.50   12.00
   6  -2  11   46.30   16.40
   8   1 -11   47.40   19.00
  -8  -1  11   25.10   20.40
   7   1 -11   50.39   18.00
  -7  -1  11   55.59   20.70
   6   1 -11   98.49   27.80
  -6  -1  11  186.98   38.60
   5   1 -11   14.10    5.60
   5   1 -11   11.40    7.40
  -5  -1  11    4.90    7.80
   4   1 -11    0.80    4.60
   4   1 -11  -15.90    5.50
  -4  -1  11    8.40   10.10
   3   1 -11   16.60    6.70
   3   1 -11    0.70    6.80
  -3  -1  11   -2.00    8.10
   2   1 -11   17.20    9.60
   2   1 -11   22.10   14.70
  -2  -1  11   37.20   14.50
  -2  -1  11   53.99   13.90
   1   1 -11   24.10   10.70
  -1  -1  11   41.40   14.90
  -1  -1  11   33.90   11.10
   0   1 -11    8.50    8.20
   0   1 -11    6.80    6.80
   0  -1  11   -8.50   10.70
   0  -1  11    9.20    6.70
  -1   1 -11   49.10   14.50
   1  -1  11   43.00   12.90
   1  -1  11   35.40    9.80
  -2   1 -11    1.10    6.80
  -2   1 -11   17.40    8.70
   2  -1  11   -7.30    6.20
   2  -1  11   12.50    8.90
  -3   1 -11    2.50   10.20
  -3   1 -11    1.80    7.10
   3  -1  11    8.40   10.30
   3  -1  11   -3.20    6.40
  -4   1 -11   62.89   18.40
   4  -1  11   77.69   20.60
  -5   1 -11  109.79   21.60
   5  -1  11   37.80   16.90
  -6   1 -11   43.00   17.20
   6  -1  11   18.30   14.70
   8   0 -11   72.59   17.10
   8   0 -11   80.49   22.80
  -8   0  11   49.60   17.20
   7   0 -11   46.30   16.60
   7   0 -11   61.39   18.50
  -7   0  11   40.90   15.20
   6   0 -11    1.00    9.30
  -6   0  11   28.80   13.90
   5   0 -11  218.28   15.60
   5   0 -11  199.08   29.20
  -5   0  11  180.88   31.80
   4   0 -11   27.50    8.00
   4   0 -11   29.00   11.20
  -4   0  11   16.20   14.10
   3   0 -11   25.80    6.90
   3   0 -11  -17.60    6.40
   2   0 -11   51.19   11.90
   2   0 -11   22.00   10.80
  -2   0  11   26.50   12.30
  -2   0  11   13.60    7.80
   1   0 -11  -14.00    5.50
   1   0 -11    7.90    7.70
   1   0 -11   -5.10    6.40
  -1   0  11   10.40    7.50
  -1   0  11   -0.30    8.80
   0   0 -11    7.90    7.70
   0   0 -11    0.20    6.50
   0   0 -11    8.70    6.50
   0   0  11    1.40    7.50
   0   0  11    2.60    9.00
  -1   0 -11   95.39   20.30
  -1   0 -11   93.29   17.90
   1   0  11   51.19   14.40
   1   0  11   91.59   19.20
  -2   0 -11  -12.00    6.20
  -2   0 -11   -9.60    6.90
   2   0  11   -0.30    7.00
   2   0  11   -1.30    6.50
  -3   0 -11    7.50    9.90
  -3   0 -11   -1.90    6.20
   3   0  11   24.20   11.10
  -4   0 -11  344.57   34.50
   4   0  11  342.37   33.20
  -5   0 -11  176.18   28.70
   5   0  11  128.69   26.90
  -6   0 -11   32.50   14.90
   6   0  11    3.90   12.30
   8  -1 -11   61.39   21.70
   8  -1 -11   27.40   12.60
  -8   1  11   -4.10   15.20
   7  -1 -11   64.59   20.10
  -7   1  11   53.69   21.80
   6  -1 -11    6.50    8.90
   6  -1 -11   27.60   13.90
   6  -1 -11    5.80    5.50
  -6   1  11    0.10   11.10
   5  -1 -11    0.70    9.00
   5  -1 -11    6.90    9.60
   5  -1 -11    3.10    5.40
  -5   1  11   11.40    9.00
   4  -1 -11   37.70   13.00
   4  -1 -11   66.59   13.50
   4  -1 -11   52.29   18.10
  -4   1  11   27.40   11.20
   3  -1 -11  119.29   26.30
   3  -1 -11  173.08   18.80
   3  -1 -11  139.09   21.90
  -3   1  11  116.29   24.20
   2  -1 -11   40.30   11.80
   2  -1 -11   70.39   16.90
   2  -1 -11   40.20   12.10
  -2   1  11   42.40   17.40
  -2   1  11   66.79   16.10
   1  -1 -11   14.50    8.20
   1  -1 -11   15.10    8.10
   1  -1 -11    5.70    7.30
  -1   1  11   30.50   10.90
  -1   1  11    0.10    7.80
   0  -1 -11    4.30    5.40
   0  -1 -11   -5.90    5.50
   0  -1 -11    4.30    7.40
   0   1  11   -1.30    6.40
   0   1  11   -2.20    7.50
  -1  -1 -11   49.40   14.50
  -1  -1 -11   70.19   14.20
   1   1  11   81.49   17.40
   1   1  11   92.09   17.90
  -2  -1 -11  169.18   17.80
  -2  -1 -11  146.59   24.80
   2   1  11  118.39   21.60
  -3  -1 -11   35.70    7.80
  -3  -1 -11   12.60   12.00
   3   1  11   29.80   11.80
  -4  -1 -11   51.29   13.90
   4   1  11   16.60   10.90
  -5  -1 -11  336.47   32.70
   5   1  11  280.27   32.20
  -6  -1 -11  237.78   36.50
   6   1  11  255.87   38.00
   8  -2 -11   59.69   19.40
   8  -2 -11   50.59   19.40
  -8   2  11   26.90   17.40
   7  -2 -11   24.90   12.70
   7  -2 -11   69.29   20.00
  -7   2  11   59.59   22.20
   6  -2 -11   -4.40    6.60
   6  -2 -11    7.80   11.10
   6  -2 -11   16.70    7.90
  -6   2  11   25.90   12.80
   5  -2 -11   92.39   18.10
   5  -2 -11  131.39   18.50
  -5   2  11  113.49   18.40
   4  -2 -11  617.94   38.30
   4  -2 -11  598.64   48.40
   4  -2 -11  718.43   55.39
  -4   2  11  599.34   49.90
  -4   2  11  595.54   42.00
   3  -2 -11   93.09   22.10
   3  -2 -11  100.79   16.00
   3  -2 -11   70.39   14.80
  -3   2  11   53.89   17.30
  -3   2  11   67.59   15.20
   2  -2 -11   34.90   11.70
   2  -2 -11   40.00   12.60
   2  -2 -11   58.19   14.10
  -2   2  11   52.29   15.50
  -2   2  11   62.59   14.00
  -2   2  11   40.80   12.40
   1  -2 -11   -2.80    7.30
   1  -2 -11   -2.20    5.30
   1  -2 -11    3.90    6.10
  -1   2  11    2.80    8.10
  -1   2  11    4.90    8.60
  -1   2  11    8.10    9.60
   0  -2 -11    2.60    5.60
   0  -2 -11   -9.40    6.10
   0  -2 -11   13.80    7.90
   0   2  11    4.80    8.00
   0   2  11   16.50   10.10
  -1  -2 -11   30.50    9.80
  -1  -2 -11    1.50    6.70
   1   2  11    5.20    6.40
   1   2  11   -1.60    8.10
  -2  -2 -11   90.49   20.70
  -2  -2 -11   94.29   16.40
   2   2  11  135.39   24.70
   2   2  11   83.09   22.70
  -3  -2 -11  120.99   24.50
  -3  -2 -11   95.39   14.00
   3   2  11  161.38   27.00
   4   2  11    5.00    9.10
  -5  -2 -11  209.18   33.80
   5   2  11  259.97   30.80
   8  -3 -11   54.79   25.70
   8  -3 -11   67.49   20.90
  -8   3  11   88.59   26.70
   7  -3 -11  132.19   25.00
   7  -3 -11   68.79   21.20
  -7   3  11   74.09   27.20
   6  -3 -11  127.99   23.00
   6  -3 -11  172.98   16.20
   6  -3 -11  192.28   34.70
  -6   3  11  145.69   20.30
  -6   3  11  135.49   32.90
   5  -3 -11    6.50    7.50
   5  -3 -11    6.60    8.10
   5  -3 -11   -9.50    6.60
  -5   3  11    5.80   11.20
  -5   3  11    5.70    8.90
   4  -3 -11   76.29   22.00
   4  -3 -11  102.89   18.20
   4  -3 -11  116.89   17.80
  -4   3  11  119.99   21.30
  -4   3  11   99.69   23.20
   3  -3 -11   29.30   12.60
   3  -3 -11   40.30   11.50
   3  -3 -11   37.70   12.80
  -3   3  11   46.20   14.10
  -3   3  11   76.09   19.80
   2  -3 -11   49.50   14.00
   2  -3 -11   61.39   15.40
   2  -3 -11   70.79   15.80
  -2   3  11   98.99   23.00
  -2   3  11   91.39   19.00
  -2   3  11   76.39   17.10
   1  -3 -11    8.80    6.20
   1  -3 -11   12.70    6.90
   1  -3 -11    0.20    8.30
  -1   3  11    6.20    6.60
  -1   3  11   -8.20    6.10
   0  -3 -11   50.89   16.30
   0  -3 -11   47.10   12.50
   0  -3 -11   63.89   16.70
   0   3  11   52.29   13.90
   0   3  11   77.89   20.00
  -1  -3 -11   40.70   14.50
  -1  -3 -11   40.90   14.30
   1   3  11   34.40   15.20
   1   3  11   32.90   10.40
  -2  -3 -11    2.20    9.70
  -2  -3 -11  -11.20    6.50
   2   3  11   18.90    9.50
   2   3  11   25.90   15.00
  -3  -3 -11  201.28   31.00
  -3  -3 -11  173.18   19.20
   3   3  11  169.38   26.60
   3   3  11  243.88   37.20
  -4  -3 -11   20.60    9.70
   4   3  11    9.70   10.00
   4   3  11   18.70   13.00
  -5  -3 -11   27.20   12.40
   5   3  11   13.00   11.90
   7  -4 -11  203.58   38.90
   7  -4 -11  202.28   30.10
  -7   4  11  183.28   36.30
   6  -4 -11  512.15   49.90
   6  -4 -11  514.35   36.30
  -6   4  11  481.45   34.60
  -6   4  11  493.35   50.19
   5  -4 -11    4.50    9.50
   5  -4 -11   17.10    8.80
   5  -4 -11   13.10   14.80
  -5   4  11    6.10    9.10
   4  -4 -11   -4.30    6.90
   4  -4 -11    9.80    6.60
   4  -4 -11  -16.00   17.00
  -4   4  11   10.80   10.50
   3  -4 -11   48.10   14.40
   3  -4 -11   63.59   16.30
   3  -4 -11   86.59   17.00
  -3   4  11   56.09   17.10
   2  -4 -11   12.30   13.00
   2  -4 -11   18.20   13.40
   2  -4 -11   24.60    9.70
  -2   4  11   40.60   11.70
   1  -4 -11  -13.20    5.20
   1  -4 -11  -12.80    9.30
   1  -4 -11   -5.20    6.40
  -1   4  11    1.20   11.70
  -1   4  11   13.40    7.40
   0  -4 -11   -9.70    5.20
   0  -4 -11    2.60    7.10
   0  -4 -11   -8.70    9.00
   0   4  11    5.10    8.80
   0   4  11    7.70    7.80
  -1  -4 -11    8.10    9.80
  -1  -4 -11   -9.90    9.00
   1   4  11    6.70   10.20
   1   4  11  -10.30    6.10
  -2  -4 -11   49.50   15.10
  -2  -4 -11   32.30   11.60
   2   4  11   44.60   16.20
   2   4  11   45.10   16.40
  -3  -4 -11  -12.50    8.90
   3   4  11   12.00   10.80
   3   4  11    0.80    6.60
  -4  -4 -11   25.20   13.90
   4   4  11   55.29   16.60
   4   4  11   20.20   13.70
   7  -5 -11   99.69   22.00
   7  -5 -11  108.99   21.80
   7  -5 -11   99.89   29.90
  -7   5  11   75.19   21.70
   6  -5 -11  196.98   23.20
   6  -5 -11  180.58   35.30
  -6   5  11  191.38   27.40
   5  -5 -11   81.59   16.70
   5  -5 -11   99.59   26.70
  -5   5  11   90.69   21.40
   4  -5 -11    9.10    8.20
   4  -5 -11    2.00    9.50
  -4   5  11   13.60   12.50
   3  -5 -11   83.19   23.50
   3  -5 -11   41.40   13.30
   3  -5 -11   78.29   14.80
  -3   5  11   79.99   21.40
   2  -5 -11   57.69   13.90
   2  -5 -11  102.69   21.70
   2  -5 -11   99.39   20.60
  -2   5  11  107.69   22.10
   1  -5 -11   77.09   18.80
   1  -5 -11   55.49   13.90
  -1   5  11   75.49   13.40
  -1   5  11   34.50   15.40
   0  -5 -11    8.00   10.30
   0  -5 -11   10.40    8.60
   0  -5 -11    5.00   13.20
   0   5  11   17.30   12.20
   0   5  11   16.90   10.60
  -1  -5 -11  -19.50   10.10
   1   5  11   11.70    9.70
   1   5  11   18.00    7.90
  -2  -5 -11   12.80   12.20
  -2  -5 -11   -2.50   11.80
   2   5  11   14.20   10.10
   2   5  11   24.70   12.30
  -3  -5 -11    5.20   10.60
   3   5  11  -13.80    9.80
   3   5  11    5.50   13.40
   6  -6 -11  128.09   28.40
  -6   6  11  132.69   27.40
   5  -6 -11   71.09   19.60
   5  -6 -11   53.19   13.60
  -5   6  11   90.79   21.30
   4  -6 -11   -3.90   13.90
  -4   6  11    0.80   12.40
   3  -6 -11  -11.00   12.90
   3  -6 -11   36.90   11.40
  -3   6  11   65.59   29.50
   2  -6 -11  118.89   30.10
  -2   6  11  158.98   29.40
   1  -6 -11  115.59   22.80
   1  -6 -11  148.19   16.80
   1  -6 -11  100.89   25.00
  -1   6  11   83.09   25.00
  -1   6  11  118.29   19.70
   0  -6 -11    5.10   10.00
   0  -6 -11  -11.90    6.00
   0  -6 -11    5.90    7.80
   0   6  11   14.20   11.20
   0   6  11   -4.00   10.00
  -1  -6 -11    7.80   11.80
  -1  -6 -11   42.70    9.60
  -1  -6 -11   10.10   11.60
   1   6  11   12.00    8.60
   1   6  11   10.80   10.70
  -2  -6 -11  -21.40   11.10
  -2  -6 -11  -12.60    8.50
   2   6  11   -0.10   11.90
   2   6  11   -1.80    9.40
   4  -7 -11   72.59   25.20
  -4   7  11   96.59   27.00
   3  -7 -11  184.78   33.80
  -3   7  11  115.29   30.00
   2  -7 -11    6.80    9.90
  -2   7  11    5.60   13.00
   1  -7 -11   99.29   24.60
  -1   7  11   60.29   22.10
   0  -7 -11   49.50   11.00
   0  -7 -11   53.19   15.10
   0  -7 -11   29.40   15.00
   0   7  11   65.99   15.20
   0   7  11   63.19   22.30
   1   9 -12  309.47   35.60
   1   9 -12  271.67   27.10
  -1  -9  12  156.88   32.20
   0   9 -12  123.59   24.50
   0   9 -12  115.69   24.50
   0  -9  12   83.19   24.60
   3   8 -12   87.09   14.00
   3   8 -12  108.59   24.30
  -3  -8  12   74.49   25.40
   2   8 -12  103.89   26.60
   2   8 -12  105.49   16.90
  -2  -8  12   54.29   21.20
   1   8 -12   74.59   22.60
   1   8 -12   90.49   17.50
  -1  -8  12   63.59   24.90
   0   8 -12   59.29   19.80
   0   8 -12  100.59   20.60
   0  -8  12   42.20   16.70
   0  -8  12   66.39   22.90
  -1   8 -12   45.90   14.80
  -1   8 -12   12.60   12.90
   1  -8  12   43.80   14.40
   1  -8  12   32.90   13.40
  -2   8 -12   41.10   17.80
  -2   8 -12   33.00   13.30
   2  -8  12    8.30   15.00
   2  -8  12   46.00   15.70
  -3   8 -12   94.59   23.10
  -3   8 -12   90.69   22.30
   3  -8  12  157.98   26.60
   5   7 -12  -18.40   11.60
   4   7 -12   17.90    9.80
  -4  -7  12  -14.50   14.60
   3   7 -12  388.36   39.40
   3   7 -12  405.56   27.30
  -3  -7  12  410.46   48.30
   2   7 -12    2.90    6.80
   2   7 -12    4.10    8.70
  -2  -7  12  -17.80   12.80
   1   7 -12   39.70   12.50
   1   7 -12   59.09   14.80
  -1  -7  12   29.20   19.70
   0   7 -12   21.40    9.30
   0   7 -12   24.10   10.40
   0  -7  12   34.40   15.00
   0  -7  12   20.00   15.40
  -1   7 -12    7.10   10.70
  -1   7 -12    6.20   10.50
   1  -7  12   29.10   14.90
   1  -7  12   19.60   10.20
  -2   7 -12   -5.40    4.80
  -2   7 -12  -16.20    8.30
   2  -7  12   28.70   14.90
   2  -7  12  -16.00    8.50
  -3   7 -12   52.49   14.10
  -3   7 -12   65.99   17.10
   3  -7  12    4.90   15.80
   3  -7  12   66.39   19.70
  -4   7 -12  -11.60   11.60
   4  -7  12   -8.00   15.60
   4  -7  12    8.80   11.10
   5   6 -12  360.16   38.90
  -5  -6  12  345.07   53.19
   4   6 -12   72.09   20.70
   4   6 -12  157.88   16.00
  -4  -6  12  129.89   29.80
   3   6 -12  218.68   19.70
   3   6 -12  149.29   28.90
  -3  -6  12  218.28   39.10
   2   6 -12   48.90   15.60
  -2  -6  12   72.19   19.60
   1   6 -12   25.70   12.90
   1   6 -12   32.80   12.00
  -1  -6  12   15.00   13.90
  -1  -6  12    7.70   14.10
   0   6 -12   15.00   10.30
   0   6 -12   46.30   11.60
   0  -6  12   41.70   15.90
   0  -6  12   26.60   13.00
  -1   6 -12   22.80   12.70
  -1   6 -12    4.90    9.70
   1  -6  12    8.10    8.00
   1  -6  12   17.90   15.10
  -2   6 -12   21.60   10.20
  -2   6 -12    9.50   12.10
   2  -6  12   -2.70    7.60
   2  -6  12   30.20   11.70
  -3   6 -12   13.60   11.30
   3  -6  12  -18.10   11.00
   3  -6  12    6.10    9.20
  -4   6 -12   79.59   19.70
   4  -6  12   24.70   15.50
   4  -6  12   33.40   19.60
   6   5 -12   22.50   14.20
  -6  -5  12   47.70   20.70
   5   5 -12   75.69   21.80
  -5  -5  12   30.50   18.10
   4   5 -12  170.68   15.10
   4   5 -12  151.68   27.20
  -4  -5  12  219.38   39.90
   3   5 -12   10.40    8.00
  -3  -5  12   28.70   16.60
   2   5 -12  284.77   31.60
   2   5 -12  276.87   23.50
  -2  -5  12  233.58   37.90
   1   5 -12    6.40    9.60
   1   5 -12   19.40    7.90
  -1  -5  12   31.00   11.50
  -1  -5  12   -9.10    4.20
   0   5 -12   15.00   11.40
   0   5 -12   20.40    6.90
   0  -5  12   27.40   13.70
   0  -5  12   -1.20    8.80
  -1   5 -12   30.60   11.60
  -1   5 -12   26.50    9.50
   1  -5  12   23.00   15.00
   1  -5  12    1.10    7.30
  -2   5 -12   14.60   11.10
  -2   5 -12   20.20   11.10
   2  -5  12   32.00   10.50
   2  -5  12   26.60   10.90
  -3   5 -12   13.00   10.20
   3  -5  12   -3.40    8.90
   3  -5  12    5.60   11.00
  -4   5 -12   66.29   17.20
   4  -5  12   26.10   18.90
   4  -5  12   59.99   20.80
  -5   5 -12   87.49   22.80
   5  -5  12   51.99   19.40
   7   4 -12  177.88   34.20
   6   4 -12    3.00   11.90
  -6  -4  12    5.20   13.90
   5   4 -12    7.40   11.80
  -5  -4  12  -14.50   13.20
   4   4 -12  212.18   16.30
   4   4 -12  188.38   31.60
  -4  -4  12  204.58   38.30
   3   4 -12   55.39   15.80
   3   4 -12   55.79   12.80
  -3  -4  12   32.30   16.60
   2   4 -12   62.39   17.30
   2   4 -12   57.39   13.60
  -2  -4  12   58.59   20.50
   1   4 -12   -2.40    4.20
   1   4 -12  -18.50    6.10
  -1  -4  12  -11.30    7.20
  -1  -4  12   -9.40    9.10
   0   4 -12  126.29   21.70
   0   4 -12  141.19   25.10
   0  -4  12   85.19   21.10
   0  -4  12  122.69   24.60
  -1   4 -12   21.20   12.00
  -1   4 -12   23.00   10.20
   1  -4  12   14.80   12.90
   1  -4  12   11.80    9.10
  -2   4 -12  -14.70   11.10
   2  -4  12   -8.00   10.70
   2  -4  12   -1.00    8.60
  -3   4 -12   26.90   13.90
   3  -4  12   26.00   13.50
   3  -4  12   28.50   13.40
  -4   4 -12  104.39   25.10
   4  -4  12   67.19   21.10
  -5   4 -12  124.59   24.90
   5  -4  12   78.59   22.90
   7   3 -12   51.99   19.20
  -7  -3  12   33.90   18.80
   6   3 -12   32.50   12.80
  -6  -3  12   44.50   18.30
   5   3 -12   -2.90    6.50
  -5  -3  12   -6.10   13.00
   4   3 -12   71.89   18.50
   4   3 -12  101.69   14.00
  -4  -3  12   65.59   24.00
   3   3 -12  121.19   16.90
   3   3 -12  121.49   23.00
  -3  -3  12  154.88   31.40
   2   3 -12   31.30    8.20
  -2  -3  12   24.60   14.00
  -2  -3  12   24.50   18.40
   1   3 -12   97.59   25.60
   1   3 -12   87.89   17.80
  -1  -3  12  152.88   27.20
  -1  -3  12   88.89   20.90
   0   3 -12    7.50    8.50
   0  -3  12   13.30    9.20
  -1   3 -12   -9.80    6.70
  -1   3 -12   17.50    8.30
   1  -3  12  -13.30    9.20
   1  -3  12    2.70    6.50
  -2   3 -12   30.10   13.70
   2  -3  12    2.30    7.90
   2  -3  12   16.70   10.10
  -3   3 -12    3.60   10.00
   3  -3  12  -10.80   10.90
   3  -3  12   22.70    8.40
  -4   3 -12   41.90   16.10
   4  -3  12   36.70   14.80
  -5   3 -12   -5.90    8.60
   5  -3  12    1.70    9.40
   7   2 -12    2.60   11.90
  -7  -2  12   27.90   15.60
   6   2 -12   47.60   18.30
  -6  -2  12   84.29   26.30
   5   2 -12   10.00   10.90
   5   2 -12   -5.90    7.70
  -5  -2  12   23.30   14.40
   4   2 -12    7.50    9.20
   4   2 -12   -1.80    4.90
   3   2 -12  169.38   18.60
   3   2 -12  130.59   24.60
  -3  -2  12  139.79   29.80
   2   2 -12   12.30   10.00
   2   2 -12   38.30    9.90
  -2  -2  12   -4.00   10.90
  -2  -2  12   -0.30    6.40
   1   2 -12  125.09   20.10
   1   2 -12  102.79   20.60
  -1  -2  12   95.29   20.20
  -1  -2  12  122.39   26.30
   0   2 -12   -1.90    6.70
   0  -2  12    0.50    5.10
   0  -2  12  -15.30    7.40
  -1   2 -12   18.40    9.30
   1  -2  12   20.50   21.10
   1  -2  12   12.20   13.00
  -2   2 -12  120.39   22.10
   2  -2  12   99.99   22.00
   2  -2  12   93.79   19.80
  -3   2 -12   16.00    7.90
  -3   2 -12   15.60    8.70
   3  -2  12   18.10   11.00
   3  -2  12   10.70    9.90
  -4   2 -12   -8.10   10.70
   4  -2  12  -25.40   11.00
  -5   2 -12   -0.30    8.60
   5  -2  12   28.00   13.30
   7   1 -12   93.09   23.50
  -7  -1  12   39.40   19.50
   6   1 -12  -14.50    8.40
  -6  -1  12    1.40   14.10
   5   1 -12   -2.70    4.90
   5   1 -12  -16.00    8.60
  -5  -1  12  -10.70    9.60
   4   1 -12   14.30   11.40
   4   1 -12   62.29   11.60
  -4  -1  12   50.89   21.80
   3   1 -12   62.49   12.00
   3   1 -12   37.70   13.90
  -3  -1  12   67.69   21.90
   2   1 -12    3.60    8.20
   2   1 -12    5.80    8.00
  -2  -1  12    2.60    7.60
  -2  -1  12   -2.50    8.40
   1   1 -12  107.59   21.20
   1   1 -12   78.39   16.40
  -1  -1  12  117.89   21.70
  -1  -1  12  118.79   24.10
   0   1 -12  -11.50    6.50
   0   1 -12   -0.80    6.90
   0  -1  12    0.50    8.60
   0  -1  12    9.40    8.60
  -1   1 -12    9.10    8.00
  -1   1 -12   -6.60    6.70
  -1   1 -12   -5.10    6.20
   1  -1  12    7.20    6.50
   1  -1  12    5.40   10.50
  -2   1 -12   45.60   12.70
   2  -1  12   28.00   13.30
   2  -1  12   39.30   14.00
  -3   1 -12   31.10    7.40
  -3   1 -12  -10.50    8.70
   3  -1  12    4.00    6.10
  -4   1 -12   46.50   17.10
   4  -1  12    7.40   12.40
  -5   1 -12   38.40   15.90
   5  -1  12   17.70   11.20
   7   0 -12   -4.50   11.60
   7   0 -12   -8.60   13.90
  -7   0  12   21.10   17.70
   6   0 -12   30.70   11.20
  -6   0  12   34.80   18.30
   5   0 -12   18.50    6.30
   5   0 -12   14.80   13.10
  -5   0  12   -1.70   14.30
   4   0 -12    4.50   11.40
   4   0 -12   -5.30    5.80
  -4   0  12   13.00   13.80
   3   0 -12   60.89   14.80
   3   0 -12   35.00   17.50
   3   0 -12   79.59   14.90
  -3   0  12   81.99   22.10
   2   0 -12   44.70   13.10
   2   0 -12   30.40   12.20
   2   0 -12   41.30   16.20
  -2   0  12   49.10   14.90
  -2   0  12   48.10   15.40
   1   0 -12   -7.70    8.80
   1   0 -12   -3.60    7.90
   1   0 -12    0.60    7.50
  -1   0  12   21.40   13.80
  -1   0  12   -6.90    7.70
   0   0 -12  154.98   24.00
   0   0 -12  143.89   24.10
   0   0 -12  181.68   21.90
   0   0  12  194.28   22.90
   0   0  12  120.89   24.00
  -1   0 -12   82.09   19.80
   1   0  12   78.79   26.90
   1   0  12   65.89   17.50
  -2   0 -12   -1.30    8.30
  -2   0 -12    3.50    8.90
   2   0  12   11.30   14.10
  -3   0 -12  100.39   21.90
   3   0  12  111.29   23.90
  -4   0 -12   -6.60   11.50
   4   0  12   29.20   13.70
  -5   0 -12   33.00   14.90
   5   0  12   61.79   20.10
   7  -1 -12   -9.50   10.60
   7  -1 -12   24.40   16.80
  -7   1  12    3.80   15.20
   6  -1 -12   30.10   10.30
   6  -1 -12   -5.60    8.60
  -6   1  12    0.00    8.00
   5  -1 -12   -3.90   10.60
  -5   1  12   -4.70   12.40
   4  -1 -12   -0.60    7.20
   4  -1 -12   10.30    7.00
   3  -1 -12   64.09   12.90
   3  -1 -12   66.49   20.60
   3  -1 -12   45.60   13.90
  -3   1  12   48.90   16.60
   2  -1 -12   35.80   14.10
   2  -1 -12   52.09   13.20
   2  -1 -12   41.10   13.70
  -2   1  12   58.59   18.30
  -2   1  12   47.90   15.30
   1  -1 -12  145.99   22.60
   1  -1 -12   80.19   17.80
   1  -1 -12  110.39   21.80
  -1   1  12  124.99   26.20
  -1   1  12   86.39   17.90
   0  -1 -12   41.10   13.60
   0  -1 -12   28.00   12.20
   0   1  12    5.60   11.30
   0   1  12   24.00   13.70
  -1  -1 -12   17.20   11.30
   1   1  12   26.60   12.40
  -2  -1 -12   32.50   11.60
  -2  -1 -12   46.30   15.10
  -3  -1 -12  107.69   20.20
   3   1  12   56.69   14.80
  -4  -1 -12   36.00   15.30
   4   1  12   51.19   16.50
   7  -2 -12  -17.50   12.60
   7  -2 -12    6.80   15.10
  -7   2  12  -17.50   12.20
   6  -2 -12  -14.90    6.40
   6  -2 -12    0.50   10.60
  -6   2  12    8.20   11.50
   5  -2 -12  -17.10    9.20
   5  -2 -12   -7.30   12.20
   5  -2 -12   12.80    8.80
  -5   2  12   12.60    9.90
   4  -2 -12    0.80    6.20
   4  -2 -12    4.60   12.50
   4  -2 -12   -3.10    7.50
  -4   2  12    7.60   10.80
   3  -2 -12   -2.80    8.10
   3  -2 -12   39.00   10.60
   3  -2 -12   23.00    8.80
  -3   2  12   26.90   12.00
  -3   2  12    6.40   11.80
   2  -2 -12   11.20   11.40
   2  -2 -12   44.40   10.50
   2  -2 -12   36.50   12.40
  -2   2  12   40.60   11.90
  -2   2  12   34.40   13.50
  -2   2  12   20.40    9.80
   1  -2 -12   32.10   12.00
   1  -2 -12   -0.50    8.30
   1  -2 -12   19.20    8.90
  -1   2  12   27.20   10.50
  -1   2  12    4.10   11.70
  -1   2  12   17.60    8.90
   0  -2 -12    6.30   10.00
   0  -2 -12   17.70    9.90
   0  -2 -12   17.30    9.50
   0   2  12   25.30    9.70
   0   2  12  -10.90    9.80
  -1  -2 -12   24.20   13.40
  -1  -2 -12   55.89   14.90
   1   2  12   28.80   10.70
  -2  -2 -12    9.70   10.10
  -2  -2 -12   27.30   11.10
   2   2  12   -0.80   10.30
  -3  -2 -12   20.50   14.10
   3   2  12   31.30   12.70
  -4  -2 -12   93.39   24.60
   4   2  12   78.69   19.00
   6  -3 -12   77.09   22.10
   6  -3 -12  131.39   21.00
   6  -3 -12   27.40   17.20
  -6   3  12   88.99   24.60
   5  -3 -12   15.90    8.30
   5  -3 -12   -0.90   10.80
   5  -3 -12  -19.00    9.80
  -5   3  12    4.80   13.50
  -5   3  12    5.60   10.90
   4  -3 -12   -5.40   13.20
   4  -3 -12   -6.30    6.00
   4  -3 -12    7.00    8.20
  -4   3  12   11.10    9.40
  -4   3  12   -5.80   11.70
   3  -3 -12   75.89   16.90
   3  -3 -12   37.60   13.80
   3  -3 -12   25.40   12.60
  -3   3  12   46.90   19.50
  -3   3  12   79.69   18.70
   2  -3 -12  111.09   18.30
   2  -3 -12  125.79   24.10
   2  -3 -12   92.79   18.50
  -2   3  12  105.19   22.70
   1  -3 -12   14.00    8.50
   1  -3 -12   11.40    8.10
   1  -3 -12    8.40   11.20
  -1   3  12    1.80   10.10
  -1   3  12    8.60   10.70
   0  -3 -12  144.49   26.60
   0  -3 -12  134.99   21.10
   0  -3 -12  108.39   21.70
   0   3  12  171.58   25.20
   0   3  12  159.88   27.40
  -1  -3 -12    5.30   12.60
  -1  -3 -12    6.50   10.10
   1   3  12   31.80   15.10
   1   3  12   33.70   11.40
  -2  -3 -12  166.08   29.10
  -2  -3 -12  166.38   22.60
   2   3  12  185.78   29.30
   2   3  12  130.09   26.40
  -3  -3 -12   31.00   16.90
   3   3  12   56.69   13.70
   6  -4 -12   10.40   13.50
   6  -4 -12   12.50    8.50
   6  -4 -12   -8.70   10.40
  -6   4  12   -1.40   14.30
   5  -4 -12  142.79   22.10
   5  -4 -12  119.69   20.30
   5  -4 -12  115.59   28.60
  -5   4  12  101.39   21.00
   4  -4 -12   49.99   13.40
   4  -4 -12   47.70   19.10
   4  -4 -12   28.70   14.20
  -4   4  12   35.00   13.50
   3  -4 -12   23.00   10.30
   3  -4 -12  -16.00    9.30
   3  -4 -12   22.80    7.90
  -3   4  12   -9.10   11.30
   2  -4 -12   91.09   17.80
   2  -4 -12  103.79   21.20
   2  -4 -12  109.69   18.90
  -2   4  12   70.69   18.60
   1  -4 -12   22.30   11.20
   1  -4 -12    0.80    7.50
  -1   4  12   10.80    9.80
  -1   4  12   19.50   10.50
   0  -4 -12  198.78   30.50
   0  -4 -12  236.68   23.60
   0  -4 -12  235.78   24.20
   0   4  12  245.78   25.90
   0   4  12  207.38   32.60
  -1  -4 -12   47.10   16.40
  -1  -4 -12   54.99   17.10
  -1  -4 -12   14.70   14.70
   1   4  12   67.59   15.70
   1   4  12   96.29   23.50
  -2  -4 -12   66.89   19.60
   2   4  12   59.19   18.50
   2   4  12  112.79   26.30
  -3  -4 -12   70.19   23.80
   3   4  12   55.59   23.30
   3   4  12   35.30   15.50
   5  -5 -12   36.20   15.70
   5  -5 -12   52.79   20.00
   5  -5 -12   63.59   14.70
  -5   5  12   65.89   19.00
   4  -5 -12   36.60   12.40
   4  -5 -12   19.50    8.00
   4  -5 -12   -7.40    9.80
  -4   5  12   27.00   15.80
   3  -5 -12   23.90   13.80
   3  -5 -12    0.40    8.00
   2  -5 -12   95.89   21.40
   2  -5 -12  124.99   19.80
   2  -5 -12  159.48   29.00
  -2   5  12  140.89   29.20
   1  -5 -12  118.49   27.00
   1  -5 -12  118.69   19.50
   1  -5 -12  155.18   27.20
  -1   5  12  147.39   22.20
  -1   5  12  145.49   28.00
   0  -5 -12    6.10    8.60
   0  -5 -12  -18.90   10.70
   0  -5 -12   20.50   10.50
   0   5  12   24.60   14.30
   0   5  12   15.60   12.30
  -1  -5 -12  484.75   44.20
  -1  -5 -12  403.86   35.30
  -1  -5 -12  408.36   34.50
   1   5  12  480.45   45.30
   1   5  12  481.65   36.90
   3  -6 -12   -5.70   10.30
   3  -6 -12   17.80   12.20
   3  -6 -12   53.19   17.80
  -3   6  12   -2.00   11.50
   2  -6 -12   35.80   15.40
   2  -6 -12   31.50   14.40
   2  -6 -12   29.10   10.10
  -2   6  12   32.10   13.10
   1  -6 -12  446.46   40.60
   1  -6 -12  421.96   28.50
   1  -6 -12  446.56   42.60
  -1   6  12  367.56   40.30
   2   7 -13  -15.70    9.30
   2   7 -13   -5.20    9.80
  -2  -7  13  -10.00   14.10
   1   7 -13   48.20   16.40
   1   7 -13   79.69   20.50
  -1  -7  13    5.50   17.90
   0   7 -13  106.59   21.10
   0   7 -13  111.19   24.80
   0  -7  13  101.29   29.70
   0  -7  13  203.08   34.40
  -1   7 -13    7.70   10.50
  -1   7 -13    9.50    9.70
   1  -7  13   22.00   17.80
   1  -7  13    0.00   10.90
   4   6 -13  177.08   33.80
  -4  -6  13  126.49   33.40
   3   6 -13   91.79   16.30
   3   6 -13   93.19   23.00
  -3  -6  13  116.89   28.30
   2   6 -13  -14.30   10.00
   2   6 -13    8.30    8.00
  -2  -6  13   35.30   13.70
   1   6 -13    7.00    9.80
   1   6 -13   20.40   10.00
  -1  -6  13   -3.00   10.00
  -1  -6  13   14.20   15.10
   0   6 -13   78.19   20.60
   0  -6  13   67.99   32.70
   0  -6  13   52.19   20.50
  -1   6 -13  128.69   23.10
  -1   6 -13  115.79   23.80
   1  -6  13  140.99   27.80
   1  -6  13  186.38   33.90
  -2   6 -13  422.66   39.40
  -2   6 -13  467.85   43.30
   2  -6  13  484.15   44.80
   5   5 -13    3.40   10.00
   4   5 -13    1.00    8.90
  -4  -5  13   16.50   15.90
   3   5 -13  -10.80    8.30
   3   5 -13    5.00    7.70
  -3  -5  13  -13.90    9.70
   2   5 -13  101.29   22.40
   2   5 -13  131.59   19.70
  -2  -5  13  119.79   29.50
   1   5 -13  219.18   22.40
   1   5 -13  120.99   25.10
  -1  -5  13  132.39   26.20
   0   5 -13  141.19   23.90
   0   5 -13  172.28   28.60
   0  -5  13  207.88   35.40
   0  -5  13  153.78   28.40
  -1   5 -13  111.49   22.60
  -1   5 -13  220.48   26.60
   1  -5  13  140.09   27.70
   1  -5  13  158.48   30.60
  -2   5 -13   32.20   15.00
  -2   5 -13   31.30   12.60
   2  -5  13   22.10   18.30
   2  -5  13   11.00    9.90
  -3   5 -13   53.09   15.30
   3  -5  13   43.60   20.00
   3  -5  13   57.39   17.80
   5   4 -13   28.20   17.00
  -5  -4  13   39.20   19.10
   4   4 -13   57.39   11.80
   4   4 -13   55.79   16.50
  -4  -4  13   70.19   22.00
   3   4 -13   23.10   14.40
   3   4 -13    8.60    8.80
  -3  -4  13   -2.80   14.10
   2   4 -13   34.80    9.80
   2   4 -13    3.00   10.90
  -2  -4  13   32.90   17.60
   1   4 -13   79.69   16.00
   1   4 -13   98.69   21.40
  -1  -4  13   50.79   20.60
  -1  -4  13   80.29   20.80
   0   4 -13  108.39   20.40
   0   4 -13   44.10   13.60
   0  -4  13   90.09   20.10
   0  -4  13   94.89   27.40
  -1   4 -13   67.19   19.00
  -1   4 -13   35.10   13.20
   1  -4  13   32.70   14.20
   1  -4  13   55.29   16.60
  -2   4 -13   14.70    9.10
  -2   4 -13    8.30   11.10
   2  -4  13    7.90   13.80
   2  -4  13   15.00    9.80
  -3   4 -13  265.57   29.80
   3  -4  13  214.08   33.90
   6   3 -13   -2.50   11.40
   5   3 -13   89.89   20.90
  -5  -3  13  107.69   30.00
   4   3 -13  -23.50    7.90
   4   3 -13    8.90    7.30
   3   3 -13   32.10   14.60
   3   3 -13   67.59   13.50
  -3  -3  13   52.99   19.50
   2   3 -13  220.78   33.30
   2   3 -13  302.87   24.80
  -2  -3  13  240.98   40.20
   1   3 -13   54.99   14.60
   1   3 -13   25.10   10.80
  -1  -3  13   34.90   15.50
  -1  -3  13   41.20   17.10
   0   3 -13   36.30   12.00
   0   3 -13   31.90   11.50
   0  -3  13   17.60   18.30
   0  -3  13   26.20   11.90
  -1   3 -13   55.79   16.80
  -1   3 -13   87.49   21.40
   1  -3  13   23.50   12.50
   1  -3  13   50.69   18.70
  -2   3 -13    1.30   11.80
  -2   3 -13  -12.20    9.20
   2  -3  13   18.40   10.20
   2  -3  13    5.30   13.10
  -3   3 -13   28.20   13.60
   3  -3  13   65.19   18.90
  -4   3 -13   66.99   18.80
   4  -3  13   78.79   21.40
   6   2 -13    6.00   13.00
  -6  -2  13   15.80   16.20
   5   2 -13    8.50   12.80
  -5  -2  13   18.90   14.40
   4   2 -13   -7.80    8.40
   4   2 -13    1.40    6.60
  -4  -2  13   -8.40   10.90
   3   2 -13   18.20    9.80
   3   2 -13   27.40   13.20
  -3  -2  13   -5.00   10.10
   2   2 -13    6.80    8.50
   2   2 -13    7.50    6.90
  -2  -2  13    0.00    9.00
   1   2 -13   10.00    8.00
   1   2 -13  -10.00    6.20
  -1  -2  13    7.30    9.50
  -1  -2  13   -3.80    9.80
   0   2 -13   25.40   11.40
   0  -2  13    8.70    8.50
   0  -2  13   16.90   10.30
  -1   2 -13  -20.00    8.10
  -1   2 -13    8.50    8.50
   1  -2  13    3.00    5.90
   1  -2  13    3.40   12.50
  -2   2 -13  255.07   35.60
   2  -2  13  306.67   34.30
   2  -2  13  249.48   37.60
  -3   2 -13   36.20   16.00
   3  -2  13   47.20   17.20
  -4   2 -13    2.70   11.60
   4  -2  13  -11.10    9.00
   6   1 -13  -18.40   10.60
  -6  -1  13  -13.00   12.20
   5   1 -13    5.90   10.70
  -5  -1  13   -6.60   12.00
   4   1 -13    4.00    9.90
   4   1 -13   12.00   10.20
  -4  -1  13  -21.70   11.40
   3   1 -13   52.09   11.40
   3   1 -13   55.59   18.50
  -3  -1  13   38.40   24.30
   2   1 -13   11.30    8.10
   2   1 -13  -19.10    8.00
  -2  -1  13   -7.60    7.60
  -2  -1  13  -20.20   11.30
   1   1 -13   25.10   14.30
   1   1 -13   53.69   12.90
   1   1 -13   34.50   15.70
  -1  -1  13   62.49   18.10
  -1  -1  13   62.29   20.40
   0   1 -13  245.68   28.10
   0   1 -13  251.57   28.60
   0   1 -13  295.17   29.60
   0  -1  13  265.97   30.10
   0  -1  13  259.27   29.30
  -1   1 -13   -6.20    8.00
  -1   1 -13   21.20   10.90
  -1   1 -13   22.20   10.90
   1  -1  13   -1.10    8.70
   1  -1  13  -15.00    9.80
  -2   1 -13    1.00    8.90
  -2   1 -13   -8.10   10.00
   2  -1  13    0.50   10.60
   2  -1  13  -11.40    9.80
  -3   1 -13    8.50    8.90
   3  -1  13   18.20   11.50
   6   0 -13   -6.40   15.80
   6   0 -13   15.90   13.50
  -6   0  13   45.30   20.10
   5   0 -13    6.00   10.80
   5   0 -13   16.10   14.90
  -5   0  13   22.40   16.10
   4   0 -13   33.30   11.10
   4   0 -13  -14.80   13.60
   4   0 -13   10.50    9.60
  -4   0  13    8.10   10.90
   3   0 -13   61.69   12.70
   3   0 -13   81.89   16.30
   3   0 -13   32.10   19.60
  -3   0  13   48.00   18.50
   2   0 -13  -17.80    8.40
   2   0 -13   27.80   10.70
   2   0 -13   14.50    7.80
  -2   0  13    3.20   14.50
  -2   0  13   32.70   13.80
   1   0 -13   22.80   11.40
   1   0 -13    6.50    8.40
   1   0 -13   -8.80    7.70
  -1   0  13   -6.80   12.80
  -1   0  13   20.10    8.10
   0   0 -13    2.30    9.40
   0   0 -13  -15.70    7.20
   0   0 -13   -4.10    8.20
   0   0  13   -2.00   10.40
   0   0  13   -0.60    5.20
  -1   0 -13    8.40   10.10
  -1   0 -13    5.60    9.40
  -1   0 -13   27.20   13.30
   1   0  13    7.50   12.50
   1   0  13   32.30   13.40
  -2   0 -13   73.89   20.80
  -2   0 -13   27.40   13.10
   2   0  13   32.40   13.60
  -3   0 -13   16.00   13.70
   3   0  13   26.20   13.50
   6  -1 -13   24.40   18.30
   6  -1 -13   49.40   17.50
  -6   1  13   40.70   20.60
   5  -1 -13   61.89   18.20
   5  -1 -13  112.19   17.50
   5  -1 -13   62.99   18.50
  -5   1  13   76.79   25.00
   4  -1 -13   76.69   14.00
   4  -1 -13   63.19   16.10
   4  -1 -13   84.49   18.20
  -4   1  13   38.30   19.80
   3  -1 -13   15.50    9.70
   3  -1 -13    7.10   13.00
   3  -1 -13   -2.60    9.80
  -3   1  13   -0.90   13.30
   2  -1 -13   28.40   10.90
   2  -1 -13   17.50   11.20
  -2   1  13   12.00   16.90
   1  -1 -13   16.10   14.10
   1  -1 -13  -15.90    7.50
   1  -1 -13   11.10   10.70
  -1   1  13   -2.90   10.70
  -1   1  13    0.30   10.50
   0  -1 -13   44.10   14.70
   0  -1 -13   34.40   12.90
   0  -1 -13   27.60   12.40
   0   1  13   32.90   15.30
   0   1  13    4.10    7.10
  -1  -1 -13   44.20   14.30
  -1  -1 -13   56.59   16.20
  -1  -1 -13   45.20   13.60
   1   1  13   85.99   18.10
  -2  -1 -13   54.19   16.30
   2   1  13   13.50   13.40
  -3  -1 -13   17.40   10.50
   3   1  13    9.30   12.40
   5  -2 -13   53.89   12.70
   5  -2 -13   13.10   11.70
   5  -2 -13   60.79   18.70
  -5   2  13   27.50   17.70
   4  -2 -13   -6.50    8.40
   4  -2 -13   -9.60   11.70
   4  -2 -13  -10.80   11.00
  -4   2  13   35.20   12.70
   3  -2 -13    6.20   12.20
   3  -2 -13  -11.80    9.00
   3  -2 -13   -3.90   11.60
  -3   2  13    2.50   11.40
   2  -2 -13  384.76   33.50
   2  -2 -13  297.17   34.10
   2  -2 -13  361.26   31.40
  -2   2  13  315.97   36.60
   1  -2 -13   38.50   20.30
   1  -2 -13   71.59   14.60
  -1   2  13   71.19   22.70
   0  -2 -13   17.60    9.70
   0  -2 -13    4.40   11.20
   0  -2 -13   -3.50    9.00
   0   2  13    6.60    9.30
  -1  -2 -13   34.80   13.70
  -1  -2 -13   50.09   18.80
  -1  -2 -13   48.80   14.30
   1   2  13   41.10   12.80
  -2  -2 -13   38.00   11.00
   2   2  13   -9.30    9.20
   4  -3 -13  226.18   30.40
   4  -3 -13  197.58   34.80
   4  -3 -13  247.58   25.90
  -4   3  13  270.67   43.30
  -4   3  13  268.57   28.00
   3  -3 -13  181.28   26.20
   3  -3 -13   97.19   23.30
   3  -3 -13  117.99   21.50
  -3   3  13   51.59   21.10
   2  -3 -13   45.80   14.90
   2  -3 -13   59.49   18.20
   2  -3 -13   76.89   19.20
   1  -3 -13   62.59   18.20
   1  -3 -13  109.89   21.90
   1  -3 -13   85.39   20.20
  -1   3  13   74.09   17.80
  -1   3  13   67.59   19.40
   0  -3 -13   13.20    9.20
   0  -3 -13    9.10   11.10
   0  -3 -13    3.30   12.90
   0   3  13  -20.20    9.10
  -1  -3 -13  -19.20   10.80
  -1  -3 -13    1.40   10.00
  -1  -3 -13    8.80   12.90
   1   3  13  -25.40    9.10
   1   3  13  -13.50   10.60
   3  -4 -13   97.69   26.10
   3  -4 -13   59.49   18.20
   3  -4 -13   88.89   18.10
  -3   4  13   90.39   21.40
   2  -4 -13  -21.10    9.70
   2  -4 -13   30.90    8.10
   2  -4 -13   23.70   11.50
  -2   4  13  -12.10   11.10
   1  -4 -13   72.09   19.50
   1  -4 -13   74.49   19.80
   1  -4 -13   78.29   17.20
  -1   4  13   50.89   14.80
  -1   4  13   67.79   19.10
   0  -4 -13    2.70   11.60
   0   4  13    2.00   13.10
   0   4  13  -25.20   10.80
   1   5 -14   37.50   20.20
   1   5 -14   44.10   16.50
  -1  -5  14   -3.60   18.80
   3   4 -14   23.00    9.10
   3   4 -14    2.80    6.50
  -3  -4  14    7.80   13.50
   2   4 -14   36.10   13.30
   2   4 -14   15.00   10.00
  -2  -4  14   44.50   21.00
   1   4 -14   26.70   13.30
  -1  -4  14   45.30   21.70
   0   4 -14   29.40   12.90
   0   4 -14   -1.00   13.50
   0  -4  14   22.90   10.70
   0  -4  14   53.29   18.10
  -1   4 -14   18.50   13.80
  -1   4 -14   33.70   12.00
   1  -4  14   32.30   18.80
   1  -4  14   19.90   20.30
   3   3 -14   22.10   14.20
   3   3 -14   33.50    9.90
  -3  -3  14   14.10   17.60
   2   3 -14  115.29   25.60
   2   3 -14   90.79   16.10
  -2  -3  14   71.09   24.10
   1   3 -14   60.29   17.20
   1   3 -14   58.49   18.30
  -1  -3  14   42.00   14.80
   0   3 -14   -2.40   10.00
   0  -3  14    7.40   13.20
   0  -3  14   -9.40    4.80
  -1   3 -14   86.09   20.00
  -1   3 -14   75.19   20.00
   1  -3  14   47.60   21.80
   1  -3  14   83.59   22.40
   4   2 -14   21.30   11.10
  -4  -2  14  -13.30   12.80
   3   2 -14   39.30   12.00
   3   2 -14   23.80   13.50
  -3  -2  14   52.79   22.20
   2   2 -14  101.39   16.40
   2   2 -14   58.39   19.00
  -2  -2  14   53.79   20.70
   1   2 -14  -16.10    8.50
   1   2 -14   14.30   10.90
  -1  -2  14   -0.10   14.10
  -1  -2  14   17.60   11.80
   0   2 -14   17.30   12.10
   0   2 -14  -10.40    8.00
   0   2 -14    9.10    9.80
   0  -2  14    1.10    9.60
   0  -2  14   23.30   18.90
  -1   2 -14    6.60    6.70
  -1   2 -14  -16.30    8.30
  -1   2 -14   -8.70   11.60
   1  -2  14  -13.70   15.60
   1  -2  14   -9.60    9.40
   4   1 -14  123.49   25.70
   4   1 -14   77.39   27.60
   4   1 -14  113.79   16.80
  -4  -1  14   71.89   25.70
   3   1 -14   64.99   12.30
   3   1 -14   76.79   20.80
   3   1 -14   44.30   18.00
  -3  -1  14   41.90   23.80
   2   1 -14   34.90   12.60
   2   1 -14   -1.50    9.50
   2   1 -14    4.60    9.70
  -2  -1  14   -7.20   12.60
   1   1 -14   67.19   18.40
   1   1 -14   22.40   15.10
  -1  -1  14    7.60   14.30
  -1  -1  14   34.20   13.30
   0   1 -14    4.20   11.10
   0   1 -14   34.90   11.60
   0   1 -14   11.60   11.80
   0  -1  14   27.50   18.70
   0  -1  14   12.90   11.20
  -1   1 -14   -8.70    8.20
  -1   1 -14  -18.50    8.20
  -1   1 -14    0.10   10.70
   1  -1  14   13.20   17.20
   1  -1  14    2.90   11.30
   3   0 -14   10.10   11.00
   3   0 -14    3.50   10.70
   3   0 -14    9.30   10.20
  -3   0  14    0.40   13.80
   2   0 -14   15.10   14.20
   2   0 -14   24.60   12.30
   2   0 -14   23.40   11.90
  -2   0  14   16.40   19.50
   1   0 -14  155.68   26.80
   1   0 -14  148.49   26.90
   1   0 -14  129.29   25.90
  -1   0  14  139.19   27.50
  -1   0  14  105.09   24.30
   0   0 -14   81.89   19.40
   0   0 -14   60.79   18.00
   0   0 -14  107.69   23.40
   0   0  14   80.89   19.80
   0   0  14   54.49   19.50
  -1   0 -14    5.30   12.30
  -1   0 -14   43.20   17.00
  -1   0 -14   -4.00   14.20
   1   0  14   -2.30   17.10
   1   0  14   27.50   13.20
   3  -1 -14   68.49   17.90
   3  -1 -14   19.00   14.30
   3  -1 -14   41.80   20.60
  -3   1  14   36.20   20.30
   2  -1 -14   71.39   22.10
   2  -1 -14  103.89   20.80
  -2   1  14  119.99   29.10
   1  -1 -14  144.69   23.80
   1  -1 -14  225.58   25.30
   1  -1 -14  109.59   21.90
  -1   1  14  119.19   23.30
  -1   1  14  132.49   25.10
   0  -1 -14  -14.00   10.70
   0  -1 -14    4.90   10.70
   0  -1 -14  -13.30    9.80
   0   1  14   12.20   11.80
   0   0   0    0.00    0.00

_computing_structure_solution     'SHELXT 2014/5 (Sheldrick, 2014)'
;
_shelx_hkl_checksum              58865
_olex2_submission_special_instructions 'No special instructions were received'
loop_
_space_group_symop_operation_xyz
'x, y, z'
'-x, -y, -z'
loop_
_atom_site_label
_atom_site_type_symbol
_atom_site_fract_x
_atom_site_fract_y
_atom_site_fract_z
_atom_site_U_iso_or_equiv
_atom_site_adp_type
_atom_site_occupancy
_atom_site_site_symmetry_order
_atom_site_calc_flag
_atom_site_refinement_flags_posn
S01 S 0.54017(6) 0.98716(5) 0.25500(5) 0.01152(18) Uani 1 1 d .
O002 O 0.52097(18) 1.06243(15) 0.37118(14) 0.0150(4) Uani 1 1 d .
O003 O 0.53402(18) 1.04671(15) 0.14313(14) 0.0157(4) Uani 1 1 d .
N004 N 0.7040(2) 0.93275(19) 0.27705(17) 0.0128(4) Uani 1 1 d .
N005 N 0.8091(2) 0.70444(18) 0.33653(17) 0.0130(4) Uani 1 1 d .
C006 C 1.0070(3) 0.7369(2) 0.5688(2) 0.0158(5) Uani 1 1 d .
H006 H 1.028817 0.684195 0.496318 0.019 Uiso 1 1 calc R
C007 C 0.7789(3) 0.9347(2) 0.4051(2) 0.0135(5) Uani 1 1 d .
H00A H 0.728334 0.989780 0.465004 0.016 Uiso 1 1 calc R
H00B H 0.884556 0.974001 0.409979 0.016 Uiso 1 1 calc R
C008 C 0.9440(3) 0.8880(2) 0.7819(2) 0.0186(5) Uani 1 1 d .
H008 H 0.921818 0.939542 0.854900 0.022 Uiso 1 1 calc R
C009 C 0.8797(3) 0.8011(2) 0.5630(2) 0.0124(5) Uani 1 1 d .
C00A C 0.7081(3) 0.5899(2) 0.3026(2) 0.0129(5) Uani 1 1 d .
C00B C 1.0720(3) 0.8251(2) 0.7855(2) 0.0193(6) Uani 1 1 d .
H00C H 1.138414 0.834157 0.860896 0.023 Uiso 1 1 calc R
C00C C 0.8484(3) 0.8755(2) 0.6710(2) 0.0156(5) Uani 1 1 d .
H00D H 0.760295 0.918317 0.668898 0.019 Uiso 1 1 calc R
C00D C 1.1031(3) 0.7491(2) 0.6796(2) 0.0203(6) Uani 1 1 d .
H00E H 1.190253 0.705052 0.682473 0.024 Uiso 1 1 calc R
C00E C 0.5043(3) 0.3608(2) 0.2458(2) 0.0181(5) Uani 1 1 d .
H00F H 0.434525 0.284088 0.226581 0.022 Uiso 1 1 calc R
C00F C 0.7627(3) 0.8535(2) 0.1805(2) 0.0140(5) Uani 1 1 d .
C00G C 0.5595(3) 0.4087(2) 0.3690(2) 0.0174(5) Uani 1 1 d .
H00G H 0.528146 0.363799 0.434709 0.021 Uiso 1 1 calc R
C00H C 0.8704(3) 0.7690(2) 0.2376(2) 0.0140(5) Uani 1 1 d .
H00H H 0.893480 0.702043 0.171288 0.017 Uiso 1 1 calc R
H00I H 0.965486 0.823760 0.272640 0.017 Uiso 1 1 calc R
C00I C 0.2143(3) 0.6154(2) 0.1930(2) 0.0176(5) Uani 1 1 d .
C00J C 0.6598(3) 0.5215(2) 0.3972(2) 0.0164(5) Uani 1 1 d .
H00J H 0.696434 0.552850 0.482136 0.020 Uiso 1 1 calc R
C00K C 0.4070(3) 0.8470(2) 0.2297(2) 0.0124(5) Uani 1 1 d .
C00L C 0.3710(3) 0.7875(2) 0.3331(2) 0.0153(5) Uani 1 1 d .
H00L H 0.411269 0.825719 0.415562 0.018 Uiso 1 1 calc R
C00M C 0.3457(3) 0.7941(2) 0.1095(2) 0.0154(5) Uani 1 1 d .
H00M H 0.369663 0.836034 0.039834 0.018 Uiso 1 1 calc R
C00N C 0.7754(3) 0.7963(2) 0.4427(2) 0.0134(5) Uani 1 1 d .
H00N H 0.670992 0.768521 0.460308 0.016 Uiso 1 1 calc R
C00O C 0.2760(3) 0.6721(2) 0.3132(2) 0.0168(5) Uani 1 1 d .
H00O H 0.252016 0.630412 0.382911 0.020 Uiso 1 1 calc R
C00P C 0.2484(3) 0.6787(2) 0.0921(2) 0.0179(5) Uani 1 1 d .
H00P H 0.204542 0.642534 0.009900 0.022 Uiso 1 1 calc R
C00Q C 0.7297(3) 0.8499(2) 0.0579(2) 0.0175(5) Uani 1 1 d .
C00R C 0.5526(3) 0.4266(2) 0.1515(2) 0.0191(6) Uani 1 1 d .
H00R H 0.516419 0.393898 0.066704 0.023 Uiso 1 1 calc R
C00S C 0.6533(3) 0.5397(2) 0.1784(2) 0.0173(5) Uani 1 1 d .
H00S H 0.685184 0.583305 0.112116 0.021 Uiso 1 1 calc R
C00T C 0.1144(3) 0.4871(2) 0.1739(2) 0.0232(6) Uani 1 1 d .
H00T H 0.167459 0.421763 0.212088 0.035 Uiso 1 1 calc GR
H00U H 0.088113 0.457796 0.083982 0.035 Uiso 1 1 calc GR
H00V H 0.022577 0.498370 0.213166 0.035 Uiso 1 1 calc GR
H00K H 0.776(3) 0.790(2) 0.007(2) 0.014(6) Uiso 1 1 d .
H00Q H 0.660(3) 0.902(3) 0.015(2) 0.020(7) Uiso 1 1 d .
loop_
_atom_site_aniso_label
_atom_site_aniso_U_11
_atom_site_aniso_U_22
_atom_site_aniso_U_33
_atom_site_aniso_U_23
_atom_site_aniso_U_13
_atom_site_aniso_U_12
S01 0.0137(3) 0.0094(3) 0.0111(3) 0.0014(2) -0.0007(2) 0.0018(2)
O002 0.0178(9) 0.0129(9) 0.0134(8) -0.0018(7) -0.0005(7) 0.0045(7)
O003 0.0197(9) 0.0138(9) 0.0135(8) 0.0047(7) -0.0022(7) 0.0016(7)
N004 0.0140(10) 0.0132(10) 0.0113(9) 0.0024(8) 0.0006(8) 0.0024(8)
N005 0.0154(10) 0.0108(10) 0.0126(10) 0.0013(8) 0.0022(8) 0.0007(8)
C006 0.0167(13) 0.0123(12) 0.0185(12) 0.0025(10) 0.0018(10) 0.0029(10)
C007 0.0135(12) 0.0136(12) 0.0118(11) 0.0008(9) -0.0041(9) 0.0008(9)
C008 0.0212(13) 0.0187(13) 0.0146(12) 0.0029(10) 0.0024(10) -0.0038(10)
C009 0.0122(12) 0.0099(12) 0.0154(11) 0.0050(9) 0.0012(10) -0.0006(9)
C00A 0.0114(11) 0.0098(11) 0.0176(12) 0.0005(9) 0.0014(10) 0.0041(9)
C00B 0.0165(13) 0.0188(13) 0.0209(13) 0.0091(10) -0.0060(10) -0.0057(10)
C00C 0.0130(12) 0.0180(13) 0.0162(12) 0.0048(10) 0.0012(10) 0.0014(10)
C00D 0.0131(13) 0.0180(13) 0.0304(14) 0.0095(11) -0.0020(11) 0.0022(10)
C00E 0.0178(13) 0.0103(12) 0.0257(13) 0.0011(10) 0.0020(11) 0.0019(10)
C00F 0.0125(12) 0.0114(12) 0.0180(12) 0.0025(9) 0.0033(10) -0.0009(9)
C00G 0.0207(13) 0.0130(12) 0.0207(13) 0.0047(10) 0.0061(11) 0.0050(10)
C00H 0.0121(12) 0.0146(12) 0.0161(12) 0.0028(9) 0.0041(10) 0.0023(9)
C00I 0.0137(12) 0.0167(13) 0.0239(13) 0.0047(10) 0.0035(10) 0.0049(10)
C00J 0.0206(13) 0.0158(13) 0.0134(11) 0.0030(10) 0.0015(10) 0.0046(10)
C00K 0.0094(11) 0.0121(12) 0.0160(12) 0.0017(9) 0.0014(9) 0.0029(9)
C00L 0.0156(12) 0.0174(13) 0.0137(11) 0.0024(10) 0.0021(10) 0.0047(10)
C00M 0.0162(12) 0.0166(13) 0.0128(11) 0.0017(9) 0.0005(10) 0.0014(10)
C00N 0.0119(12) 0.0116(12) 0.0170(12) 0.0022(9) 0.0027(10) 0.0022(9)
C00O 0.0156(12) 0.0179(13) 0.0191(12) 0.0079(10) 0.0043(10) 0.0038(10)
C00P 0.0161(13) 0.0198(13) 0.0159(12) -0.0005(10) -0.0025(10) 0.0007(10)
C00Q 0.0211(14) 0.0166(13) 0.0156(12) 0.0022(10) 0.0051(11) 0.0032(11)
C00R 0.0214(14) 0.0185(13) 0.0158(12) -0.0018(10) -0.0013(10) 0.0030(11)
C00S 0.0219(14) 0.0159(13) 0.0146(12) 0.0015(10) 0.0035(10) 0.0031(10)
C00T 0.0188(14) 0.0183(14) 0.0311(15) 0.0053(11) 0.0000(11) -0.0032(11)
loop_
_atom_type_symbol
_atom_type_description
_atom_type_scat_dispersion_real
_atom_type_scat_dispersion_imag
_atom_type_scat_source
C C 0.0033 0.0016 'International Tables Vol C Tables 4.2.6.8 and 6.1.1.4'
H H 0.0000 0.0000 'International Tables Vol C Tables 4.2.6.8 and 6.1.1.4'
N N 0.0061 0.0033 'International Tables Vol C Tables 4.2.6.8 and 6.1.1.4'
O O 0.0106 0.0060 'International Tables Vol C Tables 4.2.6.8 and 6.1.1.4'
S S 0.1246 0.1234 'International Tables Vol C Tables 4.2.6.8 and 6.1.1.4'
loop_
_geom_angle_atom_site_label_1
_geom_angle_atom_site_label_2
_geom_angle_atom_site_label_3
_geom_angle
O002 S01 N004 106.06(10)
O002 S01 C00K 108.41(10)
O003 S01 O002 119.54(10)
O003 S01 N004 108.40(10)
O003 S01 C00K 108.24(10)
N004 S01 C00K 105.29(10)
C007 N004 S01 120.36(15)
C00F N004 S01 122.31(16)
C00F N004 C007 115.54(19)
C00A N005 C00H 118.71(18)
C00A N005 C00N 116.20(18)
C00H N005 C00N 113.51(17)
C009 C006 H006 119.7
C009 C006 C00D 120.6(2)
C00D C006 H006 119.7
N004 C007 H00A 109.3
N004 C007 H00B 109.3
N004 C007 C00N 111.71(18)
H00A C007 H00B 107.9
C00N C007 H00A 109.3
C00N C007 H00B 109.3
C00B C008 H008 120.1
C00B C008 C00C 119.7(2)
C00C C008 H008 120.1
C006 C009 C00C 118.7(2)
C006 C009 C00N 122.6(2)
C00C C009 C00N 118.7(2)
C00J C00A N005 118.8(2)
C00J C00A C00S 117.8(2)
C00S C00A N005 123.4(2)
C008 C00B H00C 120.0
C00D C00B C008 120.0(2)
C00D C00B H00C 120.0
C008 C00C C009 120.9(2)
C008 C00C H00D 119.6
C009 C00C H00D 119.6
C006 C00D H00E 120.0
C00B C00D C006 120.1(2)
C00B C00D H00E 120.0
C00G C00E H00F 120.6
C00R C00E H00F 120.6
C00R C00E C00G 118.8(2)
N004 C00F C00H 110.09(19)
C00Q C00F N004 126.9(2)
C00Q C00F C00H 123.0(2)
C00E C00G H00G 119.7
C00J C00G C00E 120.6(2)
C00J C00G H00G 119.7
N005 C00H C00F 112.15(18)
N005 C00H H00H 109.2
N005 C00H H00I 109.2
C00F C00H H00H 109.2
C00F C00H H00I 109.2
H00H C00H H00I 107.9
C00O C00I C00T 120.2(2)
C00P C00I C00O 118.6(2)
C00P C00I C00T 121.2(2)
C00A C00J H00J 119.5
C00G C00J C00A 121.1(2)
C00G C00J H00J 119.5
C00L C00K S01 118.43(17)
C00M C00K S01 120.39(18)
C00M C00K C00L 121.1(2)
C00K C00L H00L 120.6
C00O C00L C00K 118.8(2)
C00O C00L H00L 120.6
C00K C00M H00M 120.5
C00K C00M C00P 119.0(2)
C00P C00M H00M 120.5
N005 C00N C007 109.60(18)
N005 C00N C009 114.58(19)
N005 C00N H00N 107.8
C007 C00N H00N 107.8
C009 C00N C007 109.15(18)
C009 C00N H00N 107.8
C00I C00O H00O 119.3
C00L C00O C00I 121.5(2)
C00L C00O H00O 119.3
C00I C00P C00M 121.0(2)
C00I C00P H00P 119.5
C00M C00P H00P 119.5
C00F C00Q H00K 115.9(15)
C00F C00Q H00Q 126.8(15)
H00K C00Q H00Q 117(2)
C00E C00R H00R 119.4
C00E C00R C00S 121.1(2)
C00S C00R H00R 119.4
C00A C00S H00S 119.7
C00R C00S C00A 120.5(2)
C00R C00S H00S 119.7
C00I C00T H00T 109.5
C00I C00T H00U 109.5
C00I C00T H00V 109.5
H00T C00T H00U 109.5
H00T C00T H00V 109.5
H00U C00T H00V 109.5
loop_
_geom_bond_atom_site_label_1
_geom_bond_atom_site_label_2
_geom_bond_distance
S01 O002 1.4330(16)
S01 O003 1.4275(16)
S01 N004 1.642(2)
S01 C00K 1.763(2)
N004 C007 1.476(3)
N004 C00F 1.430(3)
N005 C00A 1.407(3)
N005 C00H 1.459(3)
N005 C00N 1.479(3)
C006 H006 0.9500
C006 C009 1.387(3)
C006 C00D 1.390(3)
C007 H00A 0.9900
C007 H00B 0.9900
C007 C00N 1.542(3)
C008 H008 0.9500
C008 C00B 1.385(4)
C008 C00C 1.388(3)
C009 C00C 1.391(3)
C009 C00N 1.520(3)
C00A C00J 1.398(3)
C00A C00S 1.400(3)
C00B H00C 0.9500
C00B C00D 1.380(4)
C00C H00D 0.9500
C00D H00E 0.9500
C00E H00F 0.9500
C00E C00G 1.386(3)
C00E C00R 1.381(3)
C00F C00H 1.514(3)
C00F C00Q 1.326(3)
C00G H00G 0.9500
C00G C00J 1.385(3)
C00H H00H 0.9900
C00H H00I 0.9900
C00I C00O 1.394(3)
C00I C00P 1.389(3)
C00I C00T 1.509(3)
C00J H00J 0.9500
C00K C00L 1.396(3)
C00K C00M 1.383(3)
C00L H00L 0.9500
C00L C00O 1.379(3)
C00M H00M 0.9500
C00M C00P 1.392(3)
C00N H00N 1.0000
C00O H00O 0.9500
C00P H00P 0.9500
C00Q H00K 0.94(3)
C00Q H00Q 0.98(3)
C00R H00R 0.9500
C00R C00S 1.389(3)
C00S H00S 0.9500
C00T H00T 0.9800
C00T H00U 0.9800
C00T H00V 0.9800
