#------------------------------------------------------------------------------
#$Date: 2025-08-20 19:06:18 +0300 (Wed, 20 Aug 2025) $
#$Revision: 301834 $
#$URL: file:///home/coder/svn-repositories/cod/cif/4/12/89/4128920.cif $
#------------------------------------------------------------------------------
#
# This file is available in the Crystallography Open Database (COD),
# http://www.crystallography.net/
#
# All data on this site have been placed in the public domain by the
# contributors.
#
data_4128920
loop_
_publ_author_name
'McGuire, Thomas M.'
'P\'erale, C\'ecile'
'Castaing, R\'emi'
'Kociok-K\"ohn, Gabriele'
'Buchard, Antoine'
_publ_section_title
;
 Divergent Catalytic Strategies for the <i>Cis</i>/<i>Trans</i>
 Stereoselective Ring-Opening Polymerization of a Dual Cyclic
 Carbonate/Olefin Monomer.
;
_journal_issue                   34
_journal_name_full               'Journal of the American Chemical Society'
_journal_page_first              13301
_journal_page_last               13305
_journal_paper_doi               10.1021/jacs.9b06259
_journal_volume                  141
_journal_year                    2019
_chemical_formula_moiety         'C5 H6 O3'
_chemical_formula_sum            'C5 H6 O3'
_chemical_formula_weight         114.10
_space_group_crystal_system      monoclinic
_space_group_IT_number           14
_space_group_name_Hall           '-P 2ybc'
_space_group_name_H-M_alt        'P 1 21/c 1'
_atom_sites_solution_hydrogens   geom
_audit_creation_method           SHELXL-2018/3
_cell_angle_alpha                90
_cell_angle_beta                 104.026(7)
_cell_angle_gamma                90
_cell_formula_units_Z            4
_cell_length_a                   6.1911(5)
_cell_length_b                   7.1290(4)
_cell_length_c                   12.2554(8)
_cell_measurement_reflns_used    2516
_cell_measurement_temperature    150(2)
_cell_measurement_theta_max      71.6620
_cell_measurement_theta_min      7.1490
_cell_volume                     524.78(6)
_computing_cell_refinement       'CrysAlisPro 1.171.39.46 (Rigaku OD, 2015)'
_computing_data_collection       'CrysAlisPro 1.171.39.46 (Rigaku OD, 2015)'
_computing_data_reduction        'CrysAlisPro 1.171.39.46 (Rigaku OD, 2015)'
_computing_molecular_graphics
'ORTEP3 for Windows - Farrugia, L. J. J. Appl. Crystallogr. 1997, 30, 565'
_computing_publication_material
;
 'WinGX publication routines, Farrugia, 
 L. J., J. Appl. Crystallogr., 1999, 32, 837-838
;
_computing_structure_refinement
;
 SHELXL-2018/3 (Sheldrick, 2018)
 Sheldrick GM (2008) Acta Crystallogr A64:112--122 and 
 C. B. H\"ubschle, G. M. Sheldrick and B. Dittrich
 ShelXle: a Qt graphical user interface for SHELXL
 J. Appl. Cryst., 44, (2011) 1281-1284.
;
_computing_structure_solution
; 
 SHELXT
 Sheldrick, G. M. (2008). Acta Cryst. A64, 112-122.
;
_diffrn_ambient_environment      N~2~
_diffrn_ambient_temperature      150.00(10)
_diffrn_detector                 'CCD plate'
_diffrn_detector_area_resol_mean 8.1150
_diffrn_detector_type            EosS2
_diffrn_measured_fraction_theta_full 0.999
_diffrn_measured_fraction_theta_max 0.998
_diffrn_measurement_device       'four-circle diffractometer'
_diffrn_measurement_device_type  'SuperNova, Dual, Cu at home/near, EosS2'
_diffrn_measurement_method       '\w scans'
_diffrn_radiation_monochromator  mirror
_diffrn_radiation_probe          x-ray
_diffrn_radiation_type           'Cu K\a'
_diffrn_radiation_wavelength     1.54184
_diffrn_reflns_av_R_equivalents  0.0248
_diffrn_reflns_av_unetI/netI     0.0161
_diffrn_reflns_Laue_measured_fraction_full 0.999
_diffrn_reflns_Laue_measured_fraction_max 0.998
_diffrn_reflns_limit_h_max       5
_diffrn_reflns_limit_h_min       -7
_diffrn_reflns_limit_k_max       8
_diffrn_reflns_limit_k_min       -7
_diffrn_reflns_limit_l_max       15
_diffrn_reflns_limit_l_min       -15
_diffrn_reflns_number            4248
_diffrn_reflns_point_group_measured_fraction_full 0.999
_diffrn_reflns_point_group_measured_fraction_max 0.998
_diffrn_reflns_theta_full        67.684
_diffrn_reflns_theta_max         72.225
_diffrn_reflns_theta_min         7.244
_diffrn_source                   'micro-focus sealed X-ray tube'
_diffrn_source_type              'SuperNova (Cu) X-ray Source'
_exptl_absorpt_coefficient_mu    1.041
_exptl_absorpt_correction_T_max  1.000
_exptl_absorpt_correction_T_min  0.717
_exptl_absorpt_correction_type   gaussian
_exptl_absorpt_process_details
;
CrysAlisPro 1.171.39.46 (Rigaku Oxford Diffraction, 2018)
Numerical absorption correction based on gaussian integration over
			a multifaceted crystal model
Empirical absorption correction using spherical harmonics,
 implemented in SCALE3 ABSPACK scaling algorithm.
;
_exptl_crystal_colour            colourless
_exptl_crystal_density_diffrn    1.444
_exptl_crystal_description       plate
_exptl_crystal_F_000             240
_exptl_crystal_size_max          0.386
_exptl_crystal_size_mid          0.191
_exptl_crystal_size_min          0.091
_refine_diff_density_max         0.211
_refine_diff_density_min         -0.163
_refine_diff_density_rms         0.041
_refine_ls_extinction_method     none
_refine_ls_goodness_of_fit_ref   1.067
_refine_ls_hydrogen_treatment    constr
_refine_ls_matrix_type           full
_refine_ls_number_parameters     73
_refine_ls_number_reflns         1043
_refine_ls_number_restraints     0
_refine_ls_restrained_S_all      1.067
_refine_ls_R_factor_all          0.0373
_refine_ls_R_factor_gt           0.0341
_refine_ls_shift/su_max          0.000
_refine_ls_shift/su_mean         0.000
_refine_ls_structure_factor_coef Fsqd
_refine_ls_weighting_details
'w=1/[\s^2^(Fo^2^)+(0.0559P)^2^+0.1181P] where P=(Fo^2^+2Fc^2^)/3'
_refine_ls_weighting_scheme      calc
_refine_ls_wR_factor_gt          0.0937
_refine_ls_wR_factor_ref         0.0967
_reflns_Friedel_coverage         0.000
_reflns_number_gt                955
_reflns_number_total             1043
_reflns_threshold_expression     'I > 2\s(I)'
_cod_data_source_file            ja9b06259_si_002.cif
_cod_data_source_block           s18ab8
_cod_original_sg_symbol_H-M      'P 21/c'
_cod_database_code               4128920
_shelx_shelxl_version_number     2018/3
_shelx_space_group_comment
;
The symmetry employed for this shelxl refinement is uniquely defined
by the following loop, which should always be used as a source of
symmetry information in preference to the above space-group names.
They are only intended as comments.
;
_shelx_estimated_absorpt_t_min   0.689
_shelx_estimated_absorpt_t_max   0.911
_oxdiff_exptl_absorpt_empirical_full_min 0.776
_oxdiff_exptl_absorpt_empirical_full_max 1.576
_oxdiff_exptl_absorpt_empirical_details
;
Empirical correction (ABSPACK) includes:
- Absorption correction using spherical harmonics
- Frame scaling
;
_shelx_res_file
;
TITL shelxt_a.res in P2(1)/c
    s18ab8.res
    created by SHELXL-2018/3 at 13:13:04 on 01-Oct-2018
CELL  1.54184   6.1911   7.1290  12.2554   90.000  104.026   90.000
ZERR  4  0.0005   0.0004   0.0008    0.000    0.007    0.000
LATT   1
SYMM  - X, 1/2 + Y, 1/2 - Z
SFAC  C    H    O
UNIT 20 24 12
ACTA
FMAP   2
PLAN   10
BOND   $H
CONF
TEMP -123
SIZE 0.091 0.191 0.386
LIST   4
L.S.  10
WGHT    0.055900    0.118100
FVAR      10.12850
C1    1    0.536694    0.741820    0.468448    11.00000    0.02801    0.02534 =
         0.02336    0.00178    0.00547    0.00380
C2    1    0.138626    0.743680    0.410255    11.00000    0.02390    0.04139 =
         0.03528   -0.00192    0.00593    0.00528
AFIX  23
H2A   2    0.143762    0.880782    0.423482    11.00000   -1.20000
H2B   2    0.012681    0.692929    0.437774    11.00000   -1.20000
AFIX   0
C3    1    0.094226    0.709415    0.286953    11.00000    0.02598    0.03073 =
         0.03251    0.00349   -0.00184   -0.00278
AFIX  43
H3    2   -0.051131    0.737282    0.243256    11.00000   -1.20000
AFIX   0
C4    1    0.237908    0.644084    0.233025    11.00000    0.03743    0.03066 =
         0.02199    0.00158    0.00109   -0.00708
AFIX  43
H4    2    0.187237    0.626404    0.154114    11.00000   -1.20000
AFIX   0
C5    1    0.474489    0.595605    0.286341    11.00000    0.03482    0.03093 =
         0.02194   -0.00203    0.00926   -0.00091
AFIX  23
H5A   2    0.479243    0.472250    0.323952    11.00000   -1.20000
H5B   2    0.557126    0.583843    0.226900    11.00000   -1.20000
AFIX   0
O1    3    0.662388    0.812022    0.547660    11.00000    0.03851    0.04435 =
         0.02697   -0.00625    0.00165   -0.00450
O2    3    0.343923    0.661360    0.475978    11.00000    0.02582    0.03748 =
         0.02435    0.00547    0.00740    0.00230
O3    3    0.585676    0.734715    0.368751    11.00000    0.02692    0.03782 =
         0.02292   -0.00088    0.00692   -0.00583
HKLF    4




REM  shelxt_a.res in P2(1)/c
REM wR2 = 0.0967, GooF = S = 1.067, Restrained GooF = 1.067 for all data
REM R1 = 0.0341 for 955 Fo > 4sig(Fo) and 0.0373 for all 1043 data
REM 73 parameters refined using 0 restraints

END

WGHT      0.0559      0.1181

REM Highest difference peak  0.211,  deepest hole -0.163,  1-sigma level  0.041
Q1    1   0.1191  0.7321  0.3486  11.00000  0.05    0.21
Q2    1   0.3515  0.6151  0.2607  11.00000  0.05    0.20
Q3    1   0.5796  0.6351  0.2455  11.00000  0.05    0.18
Q4    1   0.1917  0.7246  0.2637  11.00000  0.05    0.15
Q5    1   0.1310  0.6050  0.2607  11.00000  0.05    0.15
Q6    1   0.8054  0.8216  0.5365  11.00000  0.05    0.14
Q7    1   0.7311  0.7536  0.3659  11.00000  0.05    0.13
Q8    1   0.5268  0.8247  0.5551  11.00000  0.05    0.13
Q9    1   0.0543  0.6505  0.4378  11.00000  0.05    0.12
Q10   1  -0.1955  0.6080  0.2975  11.00000  0.05    0.11
;
_shelx_res_checksum              52901
_shelx_hkl_file
;
   0   0  -1 7.11995 7.65047  13
   0   0   1 1.17890 7.99373   4
   0   0  -2 22197.3 365.671  19
   0   0   2 23782.9 292.947   4
   0   0   3-4.64479 29.8568   4
   0   0  -3-15.6811 38.2318  19
   0   0   3-1.82797 29.0045   7
   0   0   4 163441. 1115.44   4
   0   0   4 164103. 1251.42   7
   0   0   5 25.4002 48.1034   4
   0   0   5-6.75242 47.7564   7
   0   0   5 17.8647 46.4883  24
   0   0   6 9867.43 398.539   7
   0   0   6 10457.6 394.962  24
   0   0   7-11.0145 50.5261   7
   0   0   7 60.3986 57.5467  24
   0   0  -7 77.3866 62.9914  14
   0   0   8 5162.87 332.265  24
   0   0  -8 5063.44 414.370  14
   0   0  -9 26.0841 63.9881  14
   0   0   9-89.0391 78.0819  24
   0   0 -10 4199.96 232.349  40
   0   0  11-65.3703 62.6168  37
   0   0 -11 31.8514 45.4969  40
   0   0  12 31234.0 558.150  37
   0   0 -12 31063.4 617.934  40
   0   0 -13 96.0844 49.4660  38
   0   0 -13-20.4735 36.3440  40
   0   0 -14 108.358 37.4437  38
   0  -1   0 40.0761 13.7670  25
   0  -1   0-1.80875 18.2736  17
   0  -1   0 9.09091 14.2107  20
   0  -1  -1 11232.5 236.994  25
   0   1   1 11557.1 189.824  24
   0   1   1 11643.7 191.499   6
   0  -1   1 14176.8 243.343   5
   0   1  -1 12872.7 231.677  14
   0  -1   1 13351.0 229.768   1
   0  -1   2 306313. 1220.83   5
   0  -1  -2 303486. 1583.72  25
   0   1  -2 302328. 1422.97  13
   0   1  -2 305603. 1476.72  14
   0  -1   2 305333. 1015.57   1
   0  -1   2 303494. 1155.82  16
   0   1   3 1210.13 90.5191  24
   0   1  -3 1253.60 79.9765  26
   0  -1   3 1321.85 81.6612  16
   0   1  -3 1238.08 106.114  13
   0   1   4 123.780 45.3776  24
   0  -1  -4 206.168 32.2977  16
   0   1  -4 219.232 58.8849  14
   0   1  -4 120.593 45.0078  13
   0  -1  -4 193.400 78.7100  19
   0  -1  -5 21782.7 517.375  17
   0   1  -5 19820.4 510.105  13
   0   1   5 21759.7 485.204  24
   0  -1  -5 20914.2 415.454   1
   0  -1  -5 20829.8 650.205  19
   0   1  -5 22040.4 642.394  14
   0  -1   5 20740.8 492.815   4
   0  -1  -6 316.058 71.1145  17
   0   1  -6 366.878 103.601  14
   0  -1   6 397.819 87.1411   4
   0   1   6 505.856 92.0730  24
   0  -1   7 45.6719 49.5209   7
   0   1   7 106.288 68.2894  24
   0   1  -7 129.083 70.1533  14
   0  -1   8 44.3978 64.3713   7
   0  -1  -8 23.3515 57.5514  14
   0   1   8 37.0709 54.3172  24
   0   1  -8 2.30425 57.5081  14
   0  -1   8 24.6844 50.6050  24
   0  -1  -9 3859.99 213.137  40
   0   1  -9 4219.65 230.406  40
   0   1   9 4260.55 334.354  24
   0  -1   9 4840.64 367.272  24
   0  -1  -9 4070.26 404.500  14
   0   1  -9 4899.06 458.469  14
   0  -1   9 3791.39 349.154   7
   0   1 -10 29438.2 626.896  40
   0   1  10 29331.5 587.430  37
   0  -1 -10 28475.6 598.127  40
   0   1  11 213.810 74.1527  37
   0  -1 -11 213.936 65.9764  40
   0   1 -11 206.584 61.4507  40
   0  -1 -12 9099.54 330.035  40
   0   1  12 9742.34 318.493  37
   0   1 -12 9985.52 343.726  40
   0  -1 -12 9151.92 315.496  38
   0   1 -13 403.782 68.6728  38
   0   1 -13 451.180 72.2061  40
   0  -1 -13 367.935 66.6099  38
   0   1  13 341.042 66.1002  37
   0  -1 -14 1189.21 85.7642  38
   0   1 -14 1166.59 84.8272  38
   0   1 -14 1157.94 93.1322  40
   0   2   0 982447. 2321.69   9
   0  -2   0 999999. 2713.14  17
   0  -2   1 328635. 1796.49   1
   0   2  -1 329744. 1594.09   8
   0   2  -1 334502. 1357.70   9
   0  -2  -1 323974. 1560.46  25
   0   2  -1 341005. 1345.02  15
   0   2   1 326119. 778.350  18
   0   2  -1 330323. 1288.13  14
   0  -2   1 332606. 1158.07  20
   0  -2   2 115726. 965.409   1
   0   2   2 107301. 860.076   6
   0   2  -2 114756. 991.563  10
   0   2  -2 114996. 959.144  14
   0   2  -2 117253. 978.002  11
   0   2  -2 120558. 1105.13   3
   0  -2  -2 105078. 1117.42  17
   0  -2   2 121019. 1042.58   5
   0  -2   3 3598.14 170.266   1
   0   2   3 2973.76 157.958  24
   0  -2  -3 3126.13 211.946  17
   0   2   3 3256.77 168.961   6
   0  -2   3 3436.73 186.866  16
   0   2  -3 3929.17 220.734  14
   0  -2   3 3512.37 189.501   5
   0  -2  -3 3416.46 232.010  19
   0   2  -3 3335.14 208.719  13
   0  -2  -4 479.578 123.713  19
   0  -2   4 457.854 84.1703  16
   0   2   4 601.752 84.0940  24
   0   2  -4 402.646 84.4348  13
   0  -2  -4 381.139 79.8640   1
   0   2  -4 643.660 108.469  14
   0  -2   4 489.378 90.8379   5
   0  -2  -4 425.550 97.9783  17
   0  -2  -5 136207. 1803.95  19
   0   2  -5 141054. 1579.32  13
   0  -2  -5 137900. 1531.51  17
   0  -2  -5 136488. 1414.06   1
   0  -2   6 1727.74 176.486   4
   0   2  -6 1892.30 197.818  13
   0  -2  -6 1844.99 183.610  17
   0   2   6 2065.85 176.932  24
   0   2  -6 1973.90 227.373  14
   0  -2  -6 1704.51 234.809  19
   0   2   7 11330.2 453.479  24
   0   2  -7 12586.9 622.974  14
   0   2  -8 4788.74 427.366  14
   0   2   8 4220.11 303.864  24
   0  -2   8 3454.52 331.484   7
   0   2  -9 16475.5 481.033  32
   0   2   9 16115.7 427.908  37
   0   2  -9 17382.7 508.096  47
   0  -2  -9 15498.1 437.581  40
   0   2  -9 17092.3 478.231  40
   0   2 -10 3395.66 225.703  32
   0   2  10 3416.93 202.452  37
   0  -2 -10 3083.85 204.367  40
   0   2 -10 3385.50 226.043  47
   0   2 -10 3598.38 222.238  40
   0  -2 -11 7283.93 279.446  38
   0   2 -11 7981.53 322.566  40
   0   2 -11 7632.74 324.556  47
   0  -2 -11 6847.06 298.647  40
   0   2  11 7679.57 295.504  37
   0   2  12 8921.04 301.234  37
   0  -2 -12 8249.14 278.789  38
   0   2 -12 8972.14 315.252  40
   0   2 -13 1039.75 90.2001  38
   0  -2 -13 1000.18 87.9652  38
   0   2 -13 1072.42 96.0315  40
   0   2 -13 972.152 89.0623  28
   0   2  13 1042.74 93.3204  37
   0  -2 -14 255.859 48.3096  38
   0   2 -14 252.730 42.5496  40
   0   3   0 11.1861 39.6107  12
   0   3   0-3.76962 44.3988  15
   0  -3   0-31.6373 44.5861   1
   0   3   0-19.3422 35.8724   9
   0  -3   0 9.42420 44.3586  17
   0   3   0-23.3185 46.7564   8
   0   3  -1 8193.15 279.320   9
   0  -3   1 8846.44 367.168   1
   0   3  -1 8893.07 373.658  13
   0   3  -1 8626.43 295.088  15
   0  -3  -1 7352.14 326.367  17
   0   3  -1 8633.23 355.399   3
   0   3  -1 8345.91 320.148   8
   0  -3  -1 8422.13 371.698   1
   0   3  -2 87921.7 1057.38  11
   0   3  -2 89782.9 1094.68  10
   0  -3   2 90797.5 1101.42   1
   0   3  -2 90377.2 1186.24   3
   0  -3   2 92393.9 1145.67  16
   0  -3   2 95269.2 1193.88   5
   0  -3  -2 87369.1 1227.15   1
   0   3  -2 91039.9 1224.83  13
   0   3  -2 88321.1 903.266  14
   0  -3   3 821.762 117.885  16
   0  -3  -3 780.638 133.169  19
   0  -3   3 892.193 121.854   5
   0   3  -3 878.263 106.861  14
   0   3   3 785.307 104.603   6
   0   3  -3 835.263 134.904  13
   0  -3  -3 730.922 129.181   1
   0  -3  -3 798.694 129.500  17
   0   3  -3 903.740 121.456  10
   0   3  -3 869.769 122.218  11
   0   3  -4 537.133 107.259  13
   0   3  -4 593.764 104.587  14
   0  -3  -4 698.563 125.601   1
   0  -3  -4 501.442 104.126  17
   0  -3  -4 578.122 101.091  16
   0  -3  -4 528.545 131.707  19
   0  -3   4 547.608 100.534  16
   0   3   4 536.918 92.0019   6
   0  -3   4 581.133 114.105   5
   0  -3  -5 6277.74 376.254  17
   0  -3  -5 6646.63 377.714   1
   0   3  -5 7173.16 411.822  13
   0   3  -5 7608.57 393.058  14
   0  -3  -5 6496.64 435.224  19
   0   3   5 7206.36 333.516   6
   0  -3  -6 12697.8 657.662  19
   0   3  -6 13514.2 592.205  13
   0   3   6 12392.6 473.797  24
   0   3  -6 13741.1 585.857  14
   0   3   6 13656.0 494.402   6
   0  -3  -6 12027.2 551.568  17
   0   3  -7 8493.12 495.236  13
   0   3  -7 9254.10 527.895  14
   0   3   7 8215.63 413.238   6
   0   3   7 7635.27 406.683  24
   0   3   8 79.2034 50.5469  37
   0   3  -8 196.231 67.6241  47
   0   3  -8 243.161 65.4494  32
   0   3  -8 210.389 68.7316  40
   0   3  -8 172.252 63.3883  49
   0   3  -8 121.779 59.9350  33
   0   3  -9 7705.62 328.137  40
   0   3   9 7120.98 294.182  37
   0   3  -9 6997.78 310.338  49
   0   3  -9 7461.65 349.782  47
   0   3  -9 7324.11 327.599  33
   0   3  -9 7246.97 334.425  32
   0   3  10 5976.87 269.840  37
   0   3 -10 6226.60 314.586  47
   0   3 -10 5827.10 296.272  32
   0   3 -10 6209.36 290.107  40
   0   3  11 1541.78 140.270  37
   0   3 -11 1501.42 146.638  32
   0   3 -11 1539.42 150.512  47
   0   3 -11 1627.00 141.894  40
   0   3 -12 309.890 61.0933  40
   0   3 -12 258.569 64.1207  47
   0   3  12 318.896 70.2802  37
   0   3 -13 497.792 60.0810  40
   0   3  13 447.703 67.1101  37
   0   4   0 10509.8 440.445  15
   0   4   0 10090.2 429.400   8
   0  -4   0 12574.5 517.514   1
   0   4   0 10127.7 399.411   9
   0  -4   0 12332.5 510.006  16
   0   4  -1 29730.2 756.935  10
   0   4  -1 29048.7 774.539   3
   0   4   1 31624.4 737.439  15
   0  -4  -1 29486.4 818.547   1
   0   4  -1 29211.5 812.041  13
   0  -4   1 30269.1 799.554  16
   0  -4   1 31097.9 791.299   1
   0  -4  -1 29610.0 782.867  16
   0   4   1 30852.3 661.322   2
   0  -4  -2 11540.0 470.363  19
   0   4  -2 12490.2 530.544   3
   0  -4  -2 11676.4 497.438  16
   0  -4   2 12785.6 532.041   5
   0   4   2 11604.8 469.751  15
   0   4  -2 12493.8 546.327  13
   0  -4   2 12544.5 502.040   1
   0  -4   2 12152.3 510.497  16
   0   4  -2 13045.5 497.141  10
   0   4  -2 11320.6 467.700  11
   0  -4  -2 11680.1 532.030   1
   0  -4   3 26572.7 763.588  16
   0  -4   3 26855.7 728.753   1
   0  -4  -3 22994.7 735.503  19
   0   4  -3 26784.0 740.049  10
   0  -4   3 27576.0 751.289   5
   0  -4  -3 24255.8 790.889   1
   0   4  -3 25199.5 760.016   3
   0   4  -3 27000.5 835.320  13
   0   4  -3 26888.6 742.158  11
   0  -4  -3 21557.9 724.833  17
   0  -4  -3 23789.2 715.025  16
   0  -4  -4 51674.1 1177.25   1
   0  -4  -4 50015.1 1195.19  19
   0  -4   4 55960.0 1130.73  16
   0   4  -4 57175.3 1265.09  13
   0  -4  -4 50508.7 1071.09  16
   0   4  -5 30533.5 967.944  13
   0  -4  -5 28246.3 974.853  19
   0  -4  -5 28176.8 892.642   1
   0   4   6 19.8924 64.4522   6
   0   4  -6 233.360 96.1688  13
   0   4  -7 9924.70 402.857  47
   0   4   7 8919.07 329.658  37
   0   4  -7 8996.66 339.232  49
   0   4  -7 10052.3 400.182  33
   0   4  -8 118.775 49.5659  47
   0   4  -8 45.4414 49.8325  33
   0   4  -8 72.0160 48.3107  32
   0   4  -8 36.7965 61.2401  49
   0   4   8 166.347 71.6231  37
   0   4  -8 130.393 62.9927  40
   0   4  -9 11823.3 434.493  32
   0   4  -9 11505.9 389.922  40
   0   4  -9 10865.1 382.258  49
   0   4   9 11278.2 374.041  37
   0   4  -9 10990.3 380.360  43
   0   4  -9 11909.5 429.504  33
   0   4  -9 11773.5 442.952  47
   0   4 -10 61.7436 54.6982  32
   0   4 -10-36.3556 47.5286  40
   0   4  10 47.9697 50.9518  37
   0   4 -10 101.107 57.2655  47
   0   4 -11 1107.19 117.067  32
   0   4 -11 1181.11 105.680  40
   0   4 -11 1119.09 123.259  47
   0  -4 -11 1154.10 129.376  27
   0   4  11 1087.20 113.185  37
   0   4 -12 638.774 82.3838  47
   0   4  12 502.928 78.9617  37
   0   4  12 631.423 73.9301  29
   0   4 -13 16.6744 26.7590  28
   0   4  13 28.0356 36.0955  37
   0   5   0-41.9592 77.0400   3
   0   5   0 55.6011 51.9288  13
   0  -5   0 32.6854 70.2505   1
   0  -5   0 18.9648 64.9889  16
   0   5  -1 781.257 161.863   3
   0   5  -1 664.614 143.340  13
   0   5  -1 843.029 155.395  10
   0  -5   1 810.164 172.926  16
   0   5   1 1035.59 155.698  15
   0  -5  -1 848.319 173.126   1
   0   5   1 636.200 146.852  13
   0  -5   1 827.852 159.169   1
   0  -5  -1 755.722 154.464  16
   0  -5   1 768.952 157.920   5
   0   5  -2 32571.2 920.723  10
   0  -5   2 31311.5 969.590   5
   0   5  -2 30564.8 950.488   3
   0  -5   2 32202.0 966.542   1
   0  -5   2 31996.3 984.793  16
   0   5   2 29399.9 850.192  15
   0  -5  -2 29960.3 945.684  16
   0   5  -2 29805.8 988.128  13
   0  -5  -2 30640.6 988.862   1
   0   5  -3 2712.83 311.889  13
   0   5   3 1773.24 207.816   9
   0  -5  -3 2577.01 301.498   1
   0  -5  -3 2003.65 245.377  16
   0   5   3 2486.47 268.539  15
   0   5  -3 2807.60 282.375  10
   0  -5   3 2736.47 297.506  16
   0   5  -4-1.88604 50.1038  50
   0   5  -4-2.52518 48.2379  45
   0  -5   4-5.22480 82.9553  16
   0   5   4 77.0782 52.3757  37
   0   5   4-94.5932 84.0445   9
   0   5   4 57.8928 55.2596  29
   0   5   5-11.3586 55.0866  37
   0   5  -5-38.0194 44.3592  47
   0   5   5 56.6014 59.4888  29
   0   5  -5 157.707 61.1139  41
   0   5  -5 5.38904 55.7010  33
   0   5  -5 79.1546 79.9109  45
   0   5  -5 5.76746 48.1887  50
   0   5   6 30.6659 52.4047  37
   0   5  -6 74.1293 62.1722  33
   0   5  -6-9.70578 49.9790  47
   0   5   6-5.32085 49.3734  29
   0   5  -7 3527.60 236.682  47
   0   5  -7 3445.28 247.804  33
   0   5   7 3258.50 216.549  37
   0   5  -7 3114.83 206.486  49
   0   5   7 3266.72 198.423  29
   0   5  -8 3091.10 229.241  33
   0   5   8 2759.25 195.316  37
   0   5  -8 3020.41 217.194  47
   0   5  -8 2677.21 191.078  49
   0   5  -8 2915.45 217.834  32
   0   5   8 2799.14 180.128  29
   0   5   9 2576.33 187.611  37
   0   5   9 2974.04 176.962  29
   0   5  -9 3127.06 214.681  33
   0   5  -9 2994.03 193.911  43
   0   5  -9 2986.26 206.311  32
   0   5  -9 2739.20 185.577  49
   0   5  -9 2924.62 208.212  47
   0   5 -10 3811.58 218.118  47
   0   5  10 3681.06 182.656  29
   0   5  10 3318.27 200.000  37
   0   5 -10 3916.24 215.747  32
   0  -5 -10 3682.50 229.971  27
   0  -5 -11 295.710 71.0276  27
   0   5 -11 254.923 59.2243  47
   0   5  11 268.678 54.2199  29
   0   5  11 301.281 65.3435  37
   0   5  12 1929.04 114.937  37
   0   5 -12 2152.85 118.464  47
   0   6   0 3283.13 214.869  29
   0   6  -1 908.368 128.695  50
   0   6  -1 897.010 124.319  29
   0   6   1 953.432 119.681  29
   0   6   2 3057.51 203.582  29
   0   6  -2 3418.91 231.484  50
   0   6  -3 8148.34 324.608  41
   0   6   3 7605.72 313.039  29
   0   6  -3 8059.92 349.254  50
   0   6  -3 7884.52 327.476  45
   0   6  -4 12053.9 422.244  50
   0   6  -4 11332.6 451.824  33
   0   6  -4 11723.6 385.249  41
   0   6  -4 12436.9 416.440  45
   0   6  -5 56.3572 57.6179  41
   0   6   5-22.4741 49.4213  29
   0   6  -5-18.8890 48.5878  33
   0   6  -5 13.1865 50.1002  50
   0   6   6 450.967 86.4998  29
   0   6  -6 379.773 76.7332  49
   0   6   6 375.450 86.4727  37
   0   6  -6 529.547 91.0117  47
   0   6  -6 629.425 113.373  33
   0   6  -7 969.080 119.341  49
   0   6  -7 913.403 118.695  32
   0   6  -7 1109.05 138.631  33
   0   6   7 805.064 117.010  37
   0   6   7 858.081 107.689  29
   0   6  -7 1048.45 121.300  47
   0   6  -8 118.828 56.3018  33
   0  -6  -8 130.358 68.7649  27
   0   6   8 78.6929 51.0371  29
   0   6   8 61.1407 52.7854  37
   0   6  -8 75.4329 46.7698  47
   0   6  -8 18.0909 44.9289  32
   0   6  -8 7.59876 51.2761  49
   0   6  -9 9.54057 36.0143  47
   0   6  -9-1.76316 39.0268  32
   0   6  -9-0.44607 36.9512  43
   0   6   9-46.7980 52.1249  37
   0   6   9 57.5565 45.9321  29
   0  -6  -9-12.3736 54.0032  27
   0   6  -9 23.1337 35.3682  33
   0  -6 -10 1605.47 126.754  27
   0   6  10 1584.64 101.629  29
   0   6 -10 1684.84 118.697  47
   0   6 -10 1747.97 112.965  32
   0   7   0 18.1154 59.9363  50
   0   7   1 125.054 61.0473  29
   0   7  -1 188.093 76.1226  50
   0   7   2 9213.32 341.732  29
   0   7  -2 9604.19 389.377  33
   0   7   3 8016.75 313.898  29
   0   7  -3 8043.98 354.564  33
   0   7   4 1288.61 127.387  29
   0   7  -4 1331.97 151.016  33
   0   7  -4 1591.90 146.349  50
   0   7  -5 747.538 96.2134  49
   0   7   5 890.117 106.185  29
   0  -7  -5 863.061 111.318  27
   0   7  -5 1007.91 120.116  33
   0  -7  -6 800.298 108.864  27
   0   7  -6 696.215 89.1958  49
   0   7  -6 872.550 109.645  33
   0   7   6 749.785 89.7569  29
   0   7  -6 742.660 90.0861  32
   0  -7  -7 2337.20 161.867  27
   0   7  -7 2449.27 143.277  49
   0   7  -7 2575.52 164.645  33
   0   7  -7 2432.00 139.691  32
   0   7   7 2279.70 136.513  29
   0  -7  -8 36.0641 49.4291  27
   0   7  -8 20.3580 24.5877  32
   0   7  -8 23.4004 33.6425  33
   0   7  -8 51.1911 33.8122  43
   0   8   0 2691.89 168.676  50
   0   8   1 2927.39 174.428  50
   0   8  -1 2911.95 173.670  50
   0   8  -2 57.3256 39.1046  50
   0   8   2 68.6329 43.7024  50
   0   8  -3 63.1050 42.7751  33
   0   8   3 113.225 46.8823  50
   0   8  -4 487.961 63.5625  33
   0   8   4 428.857 68.2371  50
   0   8  -4 432.066 63.1064  49
   0   8  -5 372.751 55.6670  49
   0   8   5 315.048 57.6314  50
   0   8  -5 492.029 59.9173  33
   0   8   6 86.6591 33.5941  50
   1   0 -15 25.4709 25.3786  38
  -1   0  14 389.145 58.9407  37
   1   0 -14 322.660 57.2481  38
   1   0 -14 299.178 52.9083  40
  -1   0  13 75.3911 51.6567  37
   1   0 -13-5.13936 32.3878  40
   1   0 -12 5172.99 255.978  40
  -1   0  12 5272.45 253.279  37
   1   0 -11 60.5951 47.7947  40
   1   0 -10 11691.3 385.839  40
  -1   0   9-19.1822 81.2712   7
  -1   0   9 21.5912 55.7142  24
  -1   0   8 26049.3 729.296  24
  -1   0   8 24341.8 778.290   7
  -1   0   7 0.89855 50.3752   7
  -1   0   6 307249. 2243.06   7
  -1   0   6 302783. 2149.84   4
   1   0  -5 47.8366 54.9563  25
  -1   0   5 27.4246 43.9849   4
  -1   0   5-1.89943 46.0200   7
   1   0  -5 125.852 65.2029  19
  -1   0   4 261505. 1640.30   7
  -1   0   4 255608. 1490.84  22
   1   0  -4 258260. 1743.97  25
  -1   0   4 253128. 1588.34   4
   1   0  -3 17.5187 15.9823  13
  -1   0   3-8.75239 22.9706  22
   1   0  -2 266500. 1201.03  20
   1   0  -2 264764. 1271.52  23
  -1   0   1 24.3854 24.9518   4
  -1   0   1 14.2061 23.0134   9
   1   0  -1-8.05965 21.0204  11
   1   0  -1 42.3689 20.7383   8
   1   0   0 363976. 929.740  24
  -1   0   0 361091. 1054.19   5
   1   0   0 363230. 1121.06  12
  -1   0   0 360225. 884.351   4
   1   0   1-0.38440 20.6372  24
  -1   0  -1 1.53180 23.7192  14
   1   0   1 66.0289 29.3652   2
  -1   0  -1 29.4707 17.3910   5
   1   0   2 11408.2 207.439  15
   1   0   2 11382.8 259.741  24
   1   0   3 8.79609 32.4102  24
   1   0   3-8.88322 25.0854   7
   1   0   4 54644.4 708.206   7
   1   0   4 57496.1 766.864  24
  -1   0  -5 125.838 66.4094  14
   1   0   5 25.4616 40.9135  24
   1   0   6 12561.3 450.178  24
  -1   0  -6 13841.8 582.099  14
  -1   0  -7-21.4494 63.4311  14
   1   0   7-45.6375 54.1075  24
  -1   0  -8 153.281 83.6056  14
   1   0   8 77.7236 71.1437  24
  -1   0  -9 29.8069 39.0820  40
  -1   0 -10 5004.51 243.408  38
  -1   0 -10 4625.34 232.397  28
  -1   0 -10 5191.96 259.476  40
  -1   0 -11-19.5743 45.6855  40
  -1   0 -11-3.07007 49.4652  38
  -1   0 -11-10.6722 59.5970  28
  -1   0 -12 41334.3 673.431  40
  -1   0 -12 42153.6 643.555  38
  -1   0 -13 12.3453 35.5117  38
  -1   0 -14 520.025 54.2101  38
   1   1 -14 96.9046 37.6026  38
   1   1 -14 72.8282 33.6924  40
   1  -1 -14 100.938 38.0834  38
  -1   1  14 129.243 39.3015  37
  -1  -1  13 959.381 104.764  37
   1   1 -13 920.438 101.588  40
   1  -1 -13 899.336 101.154  40
  -1   1  13 787.559 89.2153  37
  -1   1  12 1752.27 146.906  37
   1  -1 -12 1704.72 146.780  40
   1   1 -12 1676.90 145.840  40
  -1   1  11 271.866 69.5104  37
   1  -1 -11 234.850 68.1663  40
   1   1 -11 247.774 63.9452  40
   1   1 -10 4235.07 242.989  40
   1  -1 -10 3944.34 219.258  40
  -1  -1   9 8452.72 519.475   7
  -1  -1   9 9635.95 509.136  24
   1   1  -9 9140.88 614.396  14
  -1   1   9 9633.27 453.228  24
   1  -1  -8 15963.8 740.216  19
  -1  -1   8 16057.3 606.801   4
  -1   1   8 17205.8 558.272  24
  -1  -1   8 16885.5 668.169   7
  -1   1   7 441.702 90.3810  24
  -1  -1   7 374.553 111.504   7
  -1  -1   7 362.234 92.4699   4
   1  -1  -7 365.827 122.129  19
   1  -1  -6 223.619 108.498  19
  -1   1   6 192.112 58.3946  24
   1   1  -6 271.937 72.2795  13
  -1  -1   6 275.597 85.1790   4
  -1   1   5 29173.2 526.833  24
   1   1  -5 29910.1 568.645  13
  -1  -1   5 29533.5 647.233   4
   1   1  -4 74278.3 770.907  19
   1   1  -4 74127.1 825.352  13
  -1  -1   4 74163.9 930.212   4
   1  -1  -4 74608.8 1037.25  25
  -1   1   4 72764.9 712.924  24
  -1   1   3 45038.5 669.549  22
  -1  -1   3 46418.8 716.072   5
   1   1  -3 47413.6 602.982  13
  -1   1   3 45847.4 454.067  24
   1   1  -3 47956.5 488.091  19
   1   1  -2 85300.3 778.311  18
   1   1  -2 85246.4 630.082   3
   1   1  -2 85385.1 612.664  23
  -1   1   2 85086.7 419.442  24
  -1   1   1 55625.2 399.652  13
  -1   1   1 57716.0 630.885  22
  -1   1   1 57572.4 616.568  26
   1   1  -1 57975.7 551.298   8
   1   1  -1 60420.7 570.953  18
   1  -1  -1 53201.0 427.837  18
   1   1  -1 57001.1 465.221  10
  -1  -1   0 51154.3 573.673   5
  -1   1   0 50308.0 493.079  13
   1   1   0 52352.0 476.084  18
  -1   1   0 52622.6 513.938   3
   1  -1   0 53102.5 389.099  18
  -1   1  -1 3403.90 154.361  13
  -1  -1  -1 3532.44 108.126  14
  -1  -1  -1 3753.37 175.977   1
   1   1   1 3643.85 127.026  18
   1   1   1 3353.89 153.882  15
  -1   1  -1 3514.26 128.898  10
  -1  -1  -2 4850.23 204.205   1
  -1  -1  -2 4664.74 170.560  14
  -1  -1  -3 6017.97 237.209   1
  -1   1  -3 6249.49 276.738  14
  -1  -1  -3 5740.39 237.727  14
   1   1   3 6376.82 233.991  24
   1  -1   4 24733.0 405.041   4
   1  -1   4 27004.8 553.370  24
  -1   1  -4 28326.4 675.134  14
  -1  -1  -4 25079.3 494.463   1
   1   1   4 29768.7 574.540  24
  -1  -1  -4 26825.6 596.327  14
  -1   1  -5 1175.18 159.071  14
   1  -1   5 1006.49 127.267   7
   1  -1   5 1270.13 137.280  24
  -1  -1  -5 1153.69 152.125  14
   1   1   5 1483.54 146.877  24
  -1   1  -6 20344.6 713.931  14
  -1  -1  -6 19803.2 662.154  14
   1  -1   6 20048.8 599.246  24
   1  -1   6 18169.2 546.451   7
   1   1   6 21812.4 609.563  24
   1  -1   7 170.225 75.6297  24
  -1   1  -7 150.811 97.1680  14
  -1  -1  -7 75.7161 63.1847  14
   1   1   7 98.2878 60.8514  24
   1   1   8 44126.8 1033.27  24
  -1   1  -8 44586.5 1246.66  14
  -1  -1  -8 42754.0 1166.72  14
   1  -1   8 43173.3 1033.44  24
  -1  -1  -9 109.806 60.4990  28
  -1   1  -9 135.046 56.5343  40
  -1  -1  -9 100.895 47.6728  38
  -1  -1  -9 67.9355 47.0851  40
  -1   1 -10 59788.2 874.985  40
  -1  -1 -10 57398.8 795.991  28
  -1  -1 -10 59165.1 823.312  38
  -1   1 -11 1265.73 119.284  38
  -1  -1 -11 981.733 120.928  40
  -1   1 -11 1226.66 125.696  40
  -1  -1 -11 1205.74 116.227  38
  -1  -1 -12 10763.3 324.160  38
  -1   1 -12 11949.5 346.160  40
  -1   1 -12 10560.3 321.524  28
  -1   1 -12 11655.5 328.591  38
  -1   1 -13 518.484 68.7522  38
  -1  -1 -13 547.300 68.9756  38
  -1   1 -13 509.283 70.5595  28
  -1   2  14 1018.26 87.8838  37
   1   2 -14 1134.64 90.1521  40
   1   2 -14 1016.22 78.9914  38
   1   2 -13 2244.86 149.797  40
   1  -2 -13 2165.85 131.087  38
  -1   2  13 2108.65 143.978  37
   1  -2 -12 1999.41 154.030  40
   1   2 -12 2379.88 172.405  40
  -1   2  12 2224.91 162.187  37
   1   2 -11 4757.94 266.795  47
   1  -2 -11 4257.30 225.956  40
   1   2 -11 4547.61 243.222  32
   1   2 -11 5000.23 267.971  40
  -1   2  11 4691.77 240.214  37
   1   2 -10 23841.5 597.116  40
   1   2 -10 23610.8 619.603  47
   1   2 -10 23381.2 566.770  32
   1  -2 -10 23008.9 520.330  40
  -1   2  10 23563.4 538.423  37
  -1   2   9 13101.0 392.734  37
   1   2  -9 13263.8 422.778  32
  -1   2   9 12877.4 434.938  35
   1   2  -9 13385.3 441.396  40
   1  -2  -9 12608.8 369.198  40
  -1  -2   8 7386.02 440.613   4
   1   2  -8 8392.06 543.597  14
   1  -2  -8 8099.11 573.420  19
   1   2  -7 6310.03 434.484  14
   1  -2  -7 6138.51 468.758  19
  -1  -2   7 6220.36 384.854   4
   1   2  -7 6400.34 361.443  13
  -1   2   7 6503.35 312.147  24
  -1  -2   6 117185. 1540.65   4
   1   2  -6 117218. 1463.32  13
  -1   2   6 122741. 1217.66  24
   1  -2  -6 127574. 1899.12  25
   1  -2  -6 126815. 1868.03  19
   1  -2  -5 1214.70 171.960  25
  -1   2   5 1146.14 110.258  24
   1   2  -5 1174.31 142.088  13
   1  -2  -4 13458.8 489.224  25
  -1  -2   4 13586.7 452.737   5
  -1   2   4 12714.1 301.941  24
   1   2  -4 13288.9 440.504  13
   1   2  -3 38477.1 691.215  11
   1   2  -3 35900.5 607.086  10
  -1  -2   3 35434.9 663.259   5
   1   2  -3 36622.9 599.191   3
   1  -2  -3 35713.8 719.637  25
   1   2  -3 36852.0 690.926  13
  -1  -2   3 36145.4 693.071   1
  -1   2   3 33798.5 432.635  24
   1   2  -2 219114. 1515.18   8
  -1  -2   2 216450. 1697.15   1
   1  -2  -2 216336. 1637.93  20
  -1   2   2 219599. 983.519   6
   1   2  -2 217770. 1489.86  11
   1   2  -2 221865. 1393.25   3
   1   2  -2 218409. 1345.17  10
   1  -2  -2 213818. 1551.74  23
  -1  -2   2 220206. 1641.59   5
   1   2  -1 17106.4 345.831  18
  -1   2   1 15149.1 353.537   9
  -1  -2   1 17591.8 461.578   1
   1  -2  -1 16955.3 383.996  23
  -1   2   1 16480.3 338.325  13
   1  -2  -1 16537.4 401.647  20
   1   2  -1 13493.2 216.617   9
  -1   2   0 22229.9 435.400   9
   1   2   0 23472.8 459.741  12
  -1   2   0 22233.3 436.945  13
   1   2   0 22998.1 438.781   2
   1  -2   0 21633.4 214.683  18
  -1   2   0 23357.6 455.078   3
   1   2   0 23226.5 409.895  21
   1   2   0 23451.8 394.617  18
  -1   2  -1 149757. 876.142  11
  -1  -2  -1 148368. 1318.77   1
  -1   2  -1 162264. 1373.78  26
  -1   2  -1 153010. 1248.09  13
  -1   2  -1 145386. 1254.42  14
  -1   2  -1 157245. 1123.17  10
   1   2   1 144595. 1250.88  15
   1   2   1 152680. 929.387  18
   1   2   1 154541. 1019.12  21
  -1  -2  -1 150826. 1274.19  16
   1   2   1 154270. 1182.05   2
  -1   2  -1 157928. 1252.34   3
   1   2   2 66473.6 634.420  18
  -1   2  -2 69214.3 925.025  13
   1   2   2 68259.4 864.953  15
  -1   2  -2 68662.3 866.728  14
  -1  -2  -2 66463.1 910.931   1
  -1   2  -2 69690.5 927.260  26
  -1   2  -2 67644.7 804.020  10
   1   2   2 67921.8 764.501   6
  -1  -2  -3 88859.8 1109.71   1
  -1  -2  -3 87271.7 807.330  14
   1   2   3 93476.7 979.738  24
  -1   2  -3 89499.7 1091.57  26
   1   2   3 97368.0 1009.74   6
  -1   2  -3 95398.6 1172.77  13
  -1   2  -3 99642.7 1178.30  14
  -1  -2  -4 47967.0 854.907   1
   1   2   4 50782.4 791.341  24
  -1   2  -4 51479.4 935.781  13
  -1   2  -4 53372.8 955.677  14
  -1  -2  -4 45928.6 720.277  14
   1   2   4 51008.4 789.224   6
  -1   2  -4 47917.6 830.868  26
   1   2   5 48760.5 854.037  24
   1   2   5 49203.8 856.838   6
   1   2   6 935.552 134.489  24
   1   2   6 1081.46 146.076   6
   1  -2   6 998.610 145.179  24
  -1   2  -6 1139.09 178.123  14
  -1   2  -7 8421.70 509.090  14
   1  -2   7 8409.05 448.709  24
   1   2   7 7355.79 403.225  24
   1   2   7 8227.69 417.371   6
   1   2   8 9296.25 308.560  37
  -1   2  -8 8752.21 337.271  43
  -1   2  -8 9113.80 350.203  32
  -1   2  -8 9481.15 362.698  47
  -1   2  -8 9495.37 367.494  49
  -1   2  -8 9107.57 322.377  40
  -1  -2  -8 8532.87 287.747  38
  -1   2  -9 23.8634 44.3744  47
  -1   2  -9 36.5024 42.2763  40
  -1   2  -9 32.4950 44.9367  32
  -1  -2  -9 34.2256 42.4379  38
   1   2   9 41.8087 50.5418  37
  -1   2  -9 17.7881 63.0272  43
  -1   2 -10 6935.51 288.977  40
  -1   2 -10 6424.72 267.896  38
  -1  -2 -10 6384.23 266.165  38
   1   2  10 6686.08 279.163  37
  -1   2 -10 6699.79 308.144  47
   1   2  11 2583.01 169.669  37
  -1  -2 -11 2615.09 168.057  38
  -1   2 -11 2621.58 159.192  38
  -1   2 -11 2626.02 170.773  40
  -1   2 -12 8418.34 273.294  40
  -1   2 -12 7629.82 268.299  28
  -1  -2 -12 7506.53 257.115  38
  -1   2 -12 7620.69 240.716  38
  -1  -2 -13 5832.19 194.313  38
  -1   2 -13 5831.50 195.235  28
  -1   3  14 721.407 69.8317  37
   1   3 -14 867.656 67.0091  40
  -1   3  13 2648.54 151.288  37
   1   3 -13 2882.40 156.911  47
   1   3 -13 2941.30 156.809  40
   1   3 -12 1044.51 112.647  47
   1   3 -12 1001.10 107.521  32
   1   3 -12 1110.96 115.134  40
  -1   3  12 1023.21 108.719  37
   1   3 -11 2275.04 178.960  32
   1   3 -11 2403.65 183.119  40
   1   3 -11 2529.81 195.934  47
  -1   3  11 2390.75 172.044  37
  -1   3  10 822.198 107.828  37
   1   3 -10 817.392 116.082  32
   1   3 -10 770.219 112.213  40
   1   3 -10 781.164 123.728  47
   1   3  -9 7222.89 336.240  40
  -1   3   9 6719.58 283.789  37
   1   3  -9 6703.69 302.886  33
  -1   3   8 49887.9 870.330  35
   1  -3  -8 48823.9 1232.50  17
   1   3  -8 52364.4 1224.72  13
  -1  -3   8 50119.3 1240.73   4
  -1   3   8 50700.5 739.405  37
  -1  -3   7 4479.00 356.419   4
  -1   3   7 4957.20 307.488   6
   1   3  -7 4736.89 361.181  13
   1  -3  -7 4802.05 390.029  17
   1  -3  -7 4192.71 412.945  19
   1   3  -7 4964.13 389.191  14
   1   3  -6 15968.1 637.074  14
   1   3  -6 14412.8 600.024  13
  -1   3   6 14668.4 482.486   6
   1  -3  -6 15210.0 658.731  17
   1  -3  -6 14004.5 686.679  19
   1   3  -5 6948.30 387.829  14
  -1   3   5 6556.84 292.146   6
   1  -3  -5 6798.40 433.453  25
   1   3  -5 6387.59 387.560  13
  -1  -3   5 7021.90 391.714   5
  -1  -3   4 10619.2 448.596   5
   1  -3  -4 10633.9 482.957  25
   1   3  -4 12084.4 480.847  11
  -1   3   4 10592.3 346.271   6
   1   3  -4 10251.3 461.750  13
   1   3  -3 17644.1 545.193  11
   1   3  -3 17222.3 525.687   3
   1   3  -3 17015.8 500.906  10
   1  -3  -3 15690.2 536.788  25
   1   3  -3 16527.3 565.206  13
  -1  -3   3 16870.5 552.288   1
  -1  -3   3 18027.9 560.475   5
   1   3  -2 3255.34 210.652  10
   1   3  -2 3052.62 216.697   3
  -1  -3   2 3616.09 257.269   5
   1   3  -2 3209.01 236.062   8
  -1   3   2 3055.96 196.900   9
  -1   3   2 2642.07 178.189  13
  -1  -3   2 3468.37 253.510  16
  -1  -3   2 3074.75 235.458   1
   1  -3  -2 3133.70 217.958  25
  -1   3   1 24067.7 536.437   9
  -1  -3   1 24669.2 653.770   1
  -1   3   1 21455.2 423.730   8
  -1  -3   1 24973.2 661.723   5
  -1   3   1 22962.3 521.952  13
  -1  -3   1 25714.8 653.238  16
   1   3  -1 23503.8 586.714   8
   1  -3  -1 25347.7 595.508  20
  -1   3   0 21834.6 513.462   9
  -1  -3   0 21832.5 604.703   1
   1   3   0 24210.1 540.046   2
  -1  -3   0 23163.6 611.436  16
   1  -3   0 20426.9 497.998  20
  -1   3   0 21837.2 545.881  13
   1   3   0 19280.1 512.237  15
   1  -3   0 21134.8 435.444  23
  -1   3   0 23492.9 582.214   3
  -1  -3  -1 7687.35 370.890   1
   1   3   1 7724.25 289.445  21
   1  -3   1 7029.76 285.657  17
  -1   3  -1 6904.32 252.662  11
  -1   3  -1 7939.65 351.237  13
  -1   3  -1 7906.02 318.848  10
  -1   3  -1 8333.64 367.343   3
   1   3   1 7806.43 321.640   2
   1   3   1 7575.59 327.487  15
  -1  -3  -1 7458.27 356.003  16
   1   3   2 158.770 75.1807   2
   1   3   2 97.4546 73.1992  15
   1  -3   2 37.3323 40.0498   5
  -1  -3  -2 76.5844 64.3848   1
   1   3   2 129.497 56.6726  21
  -1  -3  -2-11.3262 80.7843  16
  -1   3  -2 125.760 62.7327  13
  -1   3  -2 53.7009 56.9939  10
   1   3   3 44214.6 686.371  21
   1   3   3 43572.2 871.474  15
  -1   3  -3 44621.4 876.516  14
  -1  -3  -3 43599.1 929.155   1
   1   3   3 45168.6 781.549   6
   1   3   4 2555.89 204.016   6
   1   3   4 2468.69 224.092  15
  -1   3  -4 2404.73 236.266  13
  -1   3  -4 2554.12 231.467  14
  -1  -3  -4 2346.26 231.626   1
   1  -3   4 1958.57 195.894  16
  -1   3  -5 3301.27 277.173  14
  -1   3  -5 2919.52 277.182  13
   1   3   5 2755.80 223.254   6
   1   3   6 28579.3 843.393  15
  -1   3  -6 31334.4 929.304  14
   1   3   6 30378.9 794.055   6
   1   3   7 13912.5 384.860  37
  -1   3  -7 16284.3 722.086  14
  -1   3  -7 14034.5 435.314  49
   1   3   7 13967.9 628.320  15
  -1   3  -7 14732.7 461.390  47
  -1   3  -7 14629.4 462.075  33
   1  -3   7 15061.5 637.918  24
  -1   3  -7 14422.7 444.957  32
  -1   3  -8 15802.0 493.275  33
  -1   3  -8 15601.9 481.816  49
  -1   3  -8 16307.4 490.795  32
  -1   3  -8 15557.8 472.139  43
   1   3   8 15707.6 429.152  37
  -1   3  -8 16239.0 500.026  47
  -1  -3  -9 136.394 101.435  27
  -1   3  -9 6.30824 43.1655  47
  -1   3  -9 19.6334 50.1728  32
  -1   3  -9 48.6051 68.8847  43
  -1  -3  -9 11.0349 44.1476  38
   1   3   9 131.045 64.8090  37
  -1   3 -10 15116.9 472.722  47
   1   3  10 15327.6 419.441  37
  -1   3 -10 13546.0 421.632  43
  -1  -3 -10 13888.4 371.321  38
  -1   3 -11 948.661 115.635  47
   1   3  11 875.354 111.048  37
  -1  -3 -11 1042.92 103.807  38
  -1   3 -12 4973.44 217.066  47
   1   3  12 5108.60 212.400  37
  -1   3 -13 2641.23 118.526  28
   1   3  13 2692.57 114.533  29
   1   4 -13 4733.54 179.944  47
  -1   4  13 4706.18 180.899  37
   1   4 -13 4712.25 159.545  40
   1   4 -12 5067.48 232.104  47
  -1   4  12 4692.84 211.995  37
   1   4 -12 4878.44 213.318  32
   1   4 -12 5011.92 208.490  40
  -1   4  12 5020.36 183.933  29
  -1   4  11 137.492 65.4003  37
   1   4 -11 9.13575 37.2411  32
   1   4 -11 52.6986 37.7903  40
   1   4 -11 48.6602 37.6934  47
   1   4 -10 16812.2 525.520  47
   1   4 -10 17146.9 493.828  40
   1   4 -10 16434.3 466.331  33
  -1   4  10 16726.3 441.910  37
   1   4 -10 16425.5 496.760  32
   1   4  -9 20284.4 600.699  47
   1   4  -9 20377.4 567.844  40
  -1   4   9 19997.4 485.785  37
   1   4  -9 19536.1 543.320  33
   1   4  -8 4685.73 279.835  33
   1   4  -8 4619.35 292.296  47
  -1   4   8 4534.89 235.971  37
  -1   4   7 8879.82 368.533  35
  -1   4   7 9106.37 318.721  37
   1   4  -7 9862.28 398.252  33
   1  -4  -6 9011.39 545.410   1
   1  -4  -6 8431.54 521.499  17
   1  -4  -6 8997.13 609.808  19
   1   4  -6 9503.36 555.033  13
  -1  -4   5 3836.12 323.893   5
   1  -4  -5 3149.00 341.175  19
   1   4  -5 3500.49 331.785  13
   1  -4  -5 3366.87 331.259  17
   1  -4  -5 3606.56 334.442   1
   1   4  -4 28389.2 839.505  11
   1  -4  -4 25751.9 870.602  17
   1   4  -4 25596.4 853.853  13
  -1  -4   4 28206.9 825.961   5
   1   4  -3 1490.98 182.871  10
   1   4  -3 1397.47 179.094   3
  -1   4   3 1530.24 169.118   9
   1   4  -3 1116.18 179.905  13
  -1  -4   3 1561.82 205.393   1
   1   4  -3 1431.71 183.684  11
  -1  -4   3 1421.03 187.876   5
   1   4  -2 9097.04 421.550  10
  -1   4   2 8086.17 378.780   9
   1  -4  -2 8262.93 437.323  17
   1   4  -2 8211.22 428.551   3
  -1  -4   2 9432.15 477.637   5
   1   4  -2 8319.00 426.941  11
  -1  -4   2 9271.37 468.634   1
  -1  -4   2 8485.39 464.997  16
   1   4  -1 64107.4 1108.15   8
   1  -4  -1 62310.9 1129.72  17
  -1  -4   1 64306.1 1230.07   5
  -1  -4   1 63634.5 1238.73  16
  -1   4   1 61063.8 1056.77  13
  -1  -4   1 66288.3 1255.73   1
  -1   4   1 64360.9 1138.37   3
  -1   4   1 59377.5 1004.28   9
  -1  -4   0-18.1018 61.6446   5
  -1   4   0 33.1168 73.6187   3
  -1  -4   0 42.4171 63.2552   1
   1  -4   0 46.5185 54.9548  17
  -1  -4   0-11.3920 75.5902  16
   1   4   0-18.0784 58.6168   8
  -1   4   0-64.5214 53.8086  13
  -1   4   0-11.8716 49.2766   9
  -1  -4  -1 14249.4 603.013   1
   1   4   1 13037.4 482.915  15
   1   4   1 13394.4 489.839   2
   1   4   1 14356.5 473.265  12
  -1   4  -1 14980.6 588.073   3
  -1   4  -1 14930.0 531.601  10
  -1   4  -1 14013.0 552.969  13
  -1  -4  -1 13471.3 559.836  16
   1  -4   1 14021.3 553.297   1
  -1   4  -2 11974.0 487.534  10
   1  -4   2 11876.7 499.878   1
   1   4   2 11673.6 472.119   2
  -1  -4  -2 11261.2 541.110   1
   1   4   2 10616.5 472.898  15
  -1   4  -2 12152.0 538.389  13
  -1  -4  -2 12048.3 543.358  16
  -1  -4  -3 99335.2 1664.88   1
   1   4   3 99628.9 1534.26  15
   1   4   3 101365. 1459.15   2
   1  -4   3 97834.2 1494.67  16
  -1  -4  -4 3659.24 332.692   1
  -1   4  -4 4195.45 352.281  13
   1   4   4 3501.64 307.349  15
   1   4   4 3635.76 295.483   2
   1   4   5 5699.49 391.946   2
   1   4   5 5324.26 391.056  15
  -1  -4  -5 5277.47 415.662   1
  -1   4  -5 6135.20 446.651  13
  -1   4  -6 2622.13 189.866  49
  -1   4  -6 2612.43 203.188  45
  -1   4  -6 2873.13 206.180  47
  -1   4  -6 2629.08 193.846  41
  -1   4  -6 2848.53 213.353  33
   1   4   6 2547.57 182.951  37
  -1   4  -6 2602.22 192.854  32
  -1   4  -7 1730.86 163.771  49
  -1   4  -7 1968.85 180.696  47
  -1   4  -7 1914.42 173.272  32
   1   4   7 1828.82 165.642  37
  -1   4  -7 1879.99 179.921  33
  -1   4  -8 31317.5 687.574  32
  -1   4  -8 31523.5 712.428  33
  -1   4  -8 30135.9 674.493  43
   1   4   8 29096.1 621.312  37
  -1   4  -8 31056.7 708.133  47
  -1   4  -8 29701.8 668.389  49
  -1   4  -9 2267.29 184.168  32
  -1   4  -9 2473.34 199.796  49
  -1   4  -9 2275.71 184.415  43
  -1   4  -9 2429.11 200.378  47
  -1  -4  -9 2396.78 213.798  27
   1   4   9 2145.60 175.130  37
  -1   4 -10 1031.01 123.250  47
  -1   4 -10 967.592 119.707  43
  -1  -4 -10 1354.08 163.362  27
   1   4  10 1113.23 136.087  37
   1   4  11 521.922 72.8651  29
  -1   4 -11 522.370 82.9617  47
   1   4  11 560.202 89.2875  37
  -1   4 -12 270.457 50.7449  28
   1   4  12 154.845 48.4776  37
   1   4  12 242.512 48.7925  29
  -1   4 -12 207.365 54.0066  47
   1   5 -12 1205.54 94.9545  47
   1  -5 -12 1301.20 107.129  27
  -1   5  12 1172.07 97.8826  37
  -1   5  11 2276.85 153.989  37
   1   5 -11 2640.35 167.885  47
   1   5 -11 2353.68 137.490  40
   1   5 -11 2444.05 155.382  32
   1   5 -10 161.084 57.3899  33
   1   5 -10 234.997 63.8299  32
  -1   5  10 194.971 53.8175  42
   1   5 -10 211.210 58.1162  40
   1   5 -10 243.582 67.3804  47
  -1   5  10 189.535 67.4941  37
  -1   5   9 3100.46 180.394  42
  -1   5   9 3328.50 203.003  37
   1   5  -9 3369.63 232.098  47
   1   5  -9 3340.03 212.280  40
   1   5  -9 3339.38 232.184  32
   1   5  -9 3253.03 219.387  33
   1   5  -8 21736.0 602.909  33
   1   5  -8 21388.5 601.213  47
   1   5  -8 21129.1 571.192  40
  -1   5   8 21895.3 486.339  42
  -1   5   8 22083.2 518.614  37
   1   5  -7 13548.6 491.739  33
  -1   5   7 13978.4 392.482  42
   1   5  -7 12949.9 472.353  47
  -1   5   7 13319.4 402.828  37
   1   5  -6 200.665 75.3112  33
   1   5  -6 143.188 69.4642  47
  -1   5   6 251.874 73.1129  37
  -1   5   6 136.856 55.4161  42
   1   5  -5 8029.63 360.694  47
  -1   5   5 9544.29 320.505  42
  -1   5   4 9419.24 319.698  42
  -1  -5   4 9421.85 546.737   5
   1  -5  -4 8551.72 517.507  16
  -1   5   3 206.026 90.5421  15
  -1   5   3 230.958 95.2450   9
  -1  -5   3 365.295 128.797   5
   1  -5  -3 257.694 112.010   1
   1  -5  -3 197.407 100.732  17
  -1  -5   3 236.843 124.240   1
   1   5  -3 279.089 104.001   3
   1   5  -3 222.044 101.032  13
   1  -5  -3 172.841 77.3914  16
   1   5  -3 184.408 92.8088  11
   1   5  -3 302.427 112.885  10
  -1  -5   2 1641.89 234.218   5
   1   5  -2 1565.85 203.923  10
   1  -5  -2 1471.56 227.460   1
   1   5  -2 1539.86 215.965  11
   1   5  -2 1101.30 200.253  13
  -1   5   2 1094.16 174.412   3
   1  -5  -2 1369.73 209.260  17
  -1   5   2 1299.66 182.099   9
   1   5  -2 1227.04 189.691   3
  -1  -5   2 1395.09 228.031   1
   1   5  -1 1471.84 196.582  10
  -1  -5   1 1669.59 236.799   5
  -1   5   1 1091.70 169.397   9
   1   5  -1 1300.15 220.863  13
  -1   5   1 1389.87 202.442   3
   1  -5  -1 1444.18 216.985   1
  -1  -5   1 1532.54 236.539   1
   1   5  -1 1282.02 190.707   3
  -1  -5   0 15597.1 722.840   1
   1  -5   0 15204.2 682.531   1
  -1   5   0 14752.7 620.254  10
  -1  -5   0 13730.3 665.998   5
  -1   5   0 15172.7 671.990   3
  -1   5   0 14646.0 635.529  13
   1   5   0 14138.2 604.822   8
   1   5   1 4.57805 57.6856   8
   1  -5   1 96.6653 72.1878  16
  -1   5  -1 165.207 80.1958  10
  -1   5  -1 15.6916 51.3759  13
  -1  -5  -1 164.026 94.0848   1
  -1   5  -1 82.3840 85.6691   3
   1  -5   1 82.2095 79.0553   1
  -1  -5  -1 51.6694 76.4677   5
   1  -5   2 4195.90 359.373  16
   1   5   2 3362.61 295.656   8
  -1   5  -2 4355.78 342.153  10
   1   5   2 3197.05 302.391  15
   1   5   2 4046.86 322.368   2
  -1   5  -2 4617.99 383.905  13
  -1  -5  -2 3925.26 381.758   1
  -1   5  -3 8700.52 360.225  33
  -1   5  -3 8814.85 349.927  48
   1  -5   3 7985.02 499.623  16
  -1   5  -3 8850.34 345.325  45
   1   5   3 7826.80 332.967  37
  -1   5  -3 8833.85 335.091  41
   1   5   3 8536.54 485.020   2
   1   5   3 8537.35 314.024  29
  -1   5  -3 8812.78 354.027  50
  -1   5  -4 5090.06 278.797  50
   1   5   4 4494.67 258.087  37
  -1   5  -4 4977.05 267.961  45
   1   5   4 4657.07 233.758  29
  -1   5  -4 4875.66 258.839  41
  -1   5  -4 4865.03 278.646  33
  -1   5  -4 4599.49 247.661  47
  -1   5  -5 2076.87 185.368  45
  -1   5  -5 1962.79 171.953  41
  -1   5  -5 1975.36 170.168  32
  -1   5  -5 2040.08 188.257  33
  -1   5  -5 1915.97 168.289  47
   1   5   5 1709.66 166.774  37
   1   5   5 1878.29 154.967  29
  -1   5  -6 2509.08 194.307  49
  -1   5  -6 2418.95 195.013  47
  -1   5  -6 2568.21 218.923  45
   1   5   6 2568.72 180.431  29
   1   5   6 2468.82 197.119  37
  -1   5  -6 2522.55 206.954  33
  -1   5  -6 2369.12 188.458  32
  -1   5  -7 19162.4 558.375  33
  -1   5  -7 18947.9 520.881  32
  -1  -5  -7 19370.9 588.762  27
  -1   5  -7 18730.8 539.290  47
   1   5   7 18412.7 507.160  37
   1   5   7 19046.9 467.354  29
  -1   5  -7 17982.1 517.976  49
  -1   5  -8 341.009 80.7152  43
  -1  -5  -8 236.594 80.4491  27
  -1   5  -8 298.432 76.1337  32
   1   5   8 252.638 75.3766  37
  -1   5  -8 300.325 87.3442  49
   1   5   8 317.620 71.5844  29
  -1   5  -8 308.389 76.1487  47
  -1   5  -8 358.213 84.7034  33
  -1   5  -9 59.3982 49.3869  43
   1   5   9-58.2706 53.5493  29
  -1   5  -9-25.9058 39.9814  32
  -1  -5  -9-7.60473 63.6514  27
  -1   5  -9 68.2538 58.7697  47
   1   5   9 29.0703 55.0081  37
  -1   5  -9 94.5932 71.4806  49
  -1   5 -10 7178.16 282.751  47
   1   5  10 7746.17 245.178  29
  -1   5 -10 7056.08 252.088  43
  -1  -5 -10 6997.39 287.992  27
   1   5  11 45.2054 32.0542  29
  -1   5 -11 87.7492 41.9204  47
   1   6 -11 16.4886 21.9635  47
   1   6 -11 38.7489 24.4077  32
   1  -6 -11 95.4625 47.9560  27
   1   6 -10 3316.04 168.123  47
   1  -6 -10 3207.18 185.705  27
   1   6 -10 3314.65 167.547  32
   1   6 -10 3304.97 160.342  33
   1   6  -9 1410.86 128.657  33
   1   6  -9 1616.32 135.605  47
   1   6  -9 1605.90 137.439  32
  -1   6   9 1405.74 126.561  37
   1   6  -8 6301.31 294.940  32
   1   6  -8 6457.34 286.718  47
   1   6  -8 6494.77 298.095  33
  -1   6   8 6232.55 265.293  37
   1   6  -7 6358.81 323.992  33
  -1   6   7 5952.79 247.371  42
  -1   6   7 5906.39 270.733  37
   1   6  -7 5991.98 289.607  47
   1   6  -6 220.764 74.2177  33
  -1   6   6 275.359 71.9014  42
   1   6  -6 371.971 83.3269  47
  -1   6   5 3084.26 187.783  42
  -1   6   4 4073.98 242.274  42
   1   6  -3 6344.70 327.329  55
  -1   6   3 6914.17 292.137  42
   1   6  -3 6808.32 305.598  50
   1   6  -2 7960.45 343.307  29
  -1   6   2 7822.38 309.981  42
   1   6  -2 7507.64 324.229  50
   1   6  -1 4344.80 254.553  29
  -1   6   1 4700.13 244.970  42
  -1   6   0 2846.78 222.248  50
   1   6   0 3031.69 214.626  29
  -1   6   0 3296.76 210.730  42
   1   6   1 57.5421 56.2845  29
  -1   6  -1 163.722 64.7607  45
  -1   6  -1 100.220 58.3177  42
  -1   6  -1 158.427 72.2882  50
   1   6   2 969.033 127.913  29
  -1   6  -2 1101.73 130.210  45
  -1   6  -2 905.777 119.011  41
  -1   6  -2 1105.29 144.831  50
  -1   6  -2 1136.68 140.492  33
  -1   6  -3 5618.25 289.697  45
  -1   6  -3 5702.05 285.861  41
  -1  -6  -3 5317.37 290.352  27
  -1   6  -3 5626.87 304.126  50
   1   6   3 5349.72 268.149  29
  -1   6  -3 5420.28 294.492  33
  -1   6  -4 2594.97 211.040  50
   1   6   4 2428.64 185.773  29
  -1  -6  -4 2335.14 201.620  27
  -1   6  -4 2522.61 189.779  41
  -1   6  -4 2605.87 208.691  33
  -1   6  -4 2714.47 208.739  45
  -1   6  -5 63.9446 55.8771  33
  -1   6  -5 207.979 79.3791  45
   1   6   5 27.7672 54.2688  29
  -1   6  -5 128.443 74.0214  41
  -1  -6  -5 15.3192 69.0189  27
  -1   6  -5 176.001 53.8234  47
  -1   6  -6 2060.63 175.604  33
  -1   6  -6 1958.82 164.742  47
  -1  -6  -6 1940.24 190.076  27
   1   6   6 1856.59 154.641  29
  -1   6  -6 1876.02 164.930  49
  -1   6  -7 3499.71 213.654  49
  -1   6  -7 3588.14 213.281  47
  -1   6  -7 3537.08 197.415  32
  -1  -6  -7 3138.96 222.160  27
  -1   6  -7 3765.41 226.513  33
   1   6   7 3504.65 193.247  29
  -1   6  -8 17669.7 402.259  32
  -1   6  -8 17185.0 425.546  49
   1   6   8 18161.6 400.380  29
  -1   6  -8 16966.7 430.537  43
  -1   6  -8 17223.1 442.875  47
  -1  -6  -8 16626.6 466.998  27
  -1  -6  -9 2896.70 183.846  27
  -1   6  -9 3012.70 160.016  43
  -1   6  -9 3042.69 171.095  47
   1   6   9 3060.76 149.173  29
   1   6  10 959.002 72.8962  29
  -1   6 -10 1007.55 85.9353  47
   1   7  -9 2925.22 126.968  32
   1  -7  -9 2871.75 144.135  27
   1   7  -9 3268.56 137.302  33
   1   7  -8 3860.15 181.730  33
   1  -7  -8 3933.75 190.427  27
   1   7  -8 3825.33 174.835  32
   1   7  -7 778.201 93.0142  32
   1  -7  -7 687.985 88.7110  27
   1   7  -7 812.355 96.8882  33
   1  -7  -6 7887.73 306.334  27
   1   7  -6 8134.32 329.252  33
   1   7  -5 3633.86 237.174  33
   1   7  -4 90.7145 61.2293  33
   1   7  -3 728.270 103.322  50
  -1   7   3 792.294 123.647  42
   1   7  -2 2542.84 185.115  50
  -1   7   2 2416.40 177.202  42
   1   7  -2 2192.62 177.160  55
  -1   7   2 2468.54 198.086  50
   1   7  -1 1391.65 144.862  50
  -1   7   1 1377.11 151.165  50
  -1   7   1 1490.02 141.383  42
   1   7   0 20.6158 59.9359  29
  -1   7   0 27.9469 48.5278  50
  -1   7   0-62.7669 53.1167  42
  -1   7   0 11.0870 40.9724  41
   1   7   0 10.9811 42.9606  50
   1   7   1 943.669 121.840  29
  -1   7  -1 797.743 112.460  41
  -1   7  -1 794.276 118.158  50
  -1   7  -2 3070.52 217.726  50
  -1   7  -2 2715.24 190.233  45
   1   7   2 2991.16 201.290  29
  -1   7  -2 3033.15 200.969  41
  -1   7  -3-9.57131 52.4896  45
  -1   7  -3 10.0941 46.2846  33
  -1   7  -3-73.6620 61.8557  50
  -1   7  -3-8.41502 51.2715  41
   1   7   3 32.9546 52.4550  29
   1   7   4 881.933 110.346  29
  -1   7  -4 825.861 104.015  41
  -1  -7  -4 779.113 112.265  27
  -1   7  -4 714.603 100.786  33
  -1   7  -5 309.614 64.6390  49
  -1   7  -5 354.949 75.7122  33
   1   7   5 262.182 67.1231  29
  -1  -7  -5 272.087 79.6332  27
  -1   7  -6 33.3890 45.3845  49
  -1  -7  -6 108.259 68.9867  27
   1   7   6 33.4912 44.4942  29
  -1   7  -6-0.02319 36.1481  33
   1   7   7 1017.17 92.1607  29
  -1   7  -7 1033.58 92.9059  49
  -1  -7  -7 835.934 96.7841  27
  -1   7  -7 1016.42 97.2312  43
  -1   7  -8 434.104 54.5453  43
   1   7   8 394.099 50.0939  29
  -1   8   6 214.324 45.0743  50
   1   8  -6 252.671 45.9744  33
   1   8  -5 434.334 63.8775  33
  -1   8   5 332.253 57.2493  50
  -1   8   4 62.0689 38.9806  50
   1   8  -4 59.9386 40.1860  33
   1   8  -3 1025.87 100.994  33
  -1   8   3 1136.28 109.570  50
  -1   8   2 911.125 101.961  50
   1   8  -2 762.888 90.3210  33
   1   8  -1 2296.06 144.944  50
  -1   8   1 2225.05 158.608  50
   1   8  -1 2077.78 144.762  33
   1   8   0 910.201 94.3162  50
   1   8   0 697.678 82.2996  55
  -1   8   0 777.533 80.4395  41
  -1   8   0 798.848 103.675  50
  -1   8  -1 79.7888 42.7865  50
  -1   8  -1-24.7845 38.1994  41
   1   8   1 66.9598 41.5703  50
   1   8   1 52.7223 40.1007  55
   1   8   2 170.260 51.3525  50
  -1   8  -2 100.664 45.9058  41
   1   8   3 1477.21 112.635  29
  -1   8  -3 1326.88 106.327  49
   1   8   3 1205.82 102.044  50
   1   8   4 114.044 46.9304  29
   1   8   4 76.0272 36.6212  50
  -1   8  -4 58.1421 35.8410  49
   1   8   5 20.0118 25.0642  50
  -1   8  -5 40.6500 31.5470  49
  -1   8  -5-0.71017 27.2523  43
   2   0 -15 11.8938 25.6346  38
  -2   0  15 8.55775 31.5823  37
   2   0 -14 4129.27 175.272  40
  -2   0  14 4156.07 180.671  37
  -2   0  13 65.7256 54.1463  37
   2   0 -13 46.4696 38.6730  40
   2   0 -12 3797.03 213.471  40
   2   0 -11-2.34480 44.7507  40
   2   0 -10 6670.87 289.465  40
  -2   0   9 59.8508 82.0583   7
  -2   0   8 40828.5 1028.62   7
   2   0  -7-11.3573 53.5844  25
  -2   0   7 12.1155 59.5685   7
  -2   0   7-16.5958 57.1482   4
   2   0  -7 31.1621 71.7495  19
  -2   0   6 164859. 1747.74   4
  -2   0   6 172701. 1759.25   7
   2   0  -6 169631. 1917.99  25
  -2   0   6 164503. 1674.70  22
  -2   0   5-26.3415 51.7938   4
  -2   0   5 21.0958 50.3119   7
  -2   0   5 33.9851 52.9663  22
  -2   0   4 10248.0 367.877   4
  -2   0   4 9804.91 336.578   7
   2   0  -4 9471.05 369.957  23
   2   0  -3 6.90656 36.2074  20
  -2   0   3 72.7750 31.1410   9
  -2   0   3-26.5755 34.6967   4
  -2   0   3 28.1709 39.4913   7
   2   0  -3 59.6866 42.6479  18
  -2   0   2 126220. 1044.28   4
  -2   0   2 117198. 880.121   7
   2   0  -2 123625. 1063.79  18
  -2   0   2 118043. 727.794   9
   2   0  -1 41.4133 35.5628  18
  -2   0   1 1.88594 18.7864   7
   2   0  -1 1.85649 32.4672  21
  -2   0   1-22.2882 33.1076   4
   2   0  -1 7.40676 23.9614  11
   2   0   0 16557.7 349.015  18
   2   0   0 15758.5 343.645  12
   2   0   1 13.3982 31.8725  18
   2   0   1 1.24073 23.4996  24
   2   0   2 7220.11 217.865   6
  -2   0  -2 6974.69 282.859  14
   2   0   2 7148.82 239.905  24
   2   0   2 6718.19 233.864   2
   2   0   3 7.59047 42.6462  24
   2   0   3 60.4756 49.1317   2
  -2   0  -3 115.612 52.3616  14
   2   0   3-6.94292 39.1811   6
  -2   0  -4 52998.1 930.943  14
   2   0   4 53317.3 762.499   6
   2   0   4 55327.8 856.838  24
  -2   0  -5 38.3167 45.1702  14
   2   0   5 91.9149 62.7022  24
  -2   0  -6 33517.4 899.232  14
   2   0   6 34500.9 821.710  24
  -2   0  -7-0.06879 66.9815  14
   2   0   7 68.2236 59.5550  24
   2   0   7-80.2145 97.2720   6
  -2   0  -8 24205.4 527.745  28
  -2   0  -8 24638.4 517.732  38
  -2   0  -8 24458.4 541.200  40
  -2   0  -9 74.0219 60.6779  28
  -2   0  -9 30.9931 34.0543  40
  -2   0  -9-0.55090 47.4789  38
  -2   0 -10 1947.08 158.576  28
  -2   0 -10 1927.58 149.163  38
  -2   0 -11-55.3090 60.2401  51
  -2   0 -11 25.9267 56.4750  28
  -2   0 -11-34.4997 50.4148  38
  -2   0 -12 9690.54 285.907  38
  -2   0 -12 7072.90 293.890  51
  -2   0 -13 139.138 43.6706  53
  -2   0 -13-5.23057 28.5891  38
   2   1 -15 477.968 47.5485  38
  -2   1  15 461.882 50.4127  37
  -2  -1  14 274.840 54.5517  37
   2   1 -14 280.333 50.2082  40
  -2   1  14 221.920 54.9237  37
   2  -1 -13 3028.87 169.182  40
   2   1 -13 3297.31 186.702  40
  -2   1  13 3233.47 183.439  37
   2   1 -12 19447.9 495.589  40
  -2   1  12 19178.1 488.531  37
   2  -1 -12 19206.0 456.453  40
   2   1 -11 480.657 89.8530  40
   2  -1 -11 341.909 73.7925  40
   2  -1 -10 6115.50 261.735  40
   2   1 -10 6457.97 301.320  40
  -2   1  10 6271.52 302.128  35
  -2  -1   9 3963.01 348.973   4
  -2  -1   9 4149.36 360.586   7
   2  -1  -9 3371.87 390.047  19
  -2  -1   8 726.930 146.608   4
  -2  -1   8 714.874 152.288   7
   2  -1  -8 972.980 195.947  25
   2  -1  -8 527.586 160.558  19
  -2  -1   7 6096.76 378.598   4
  -2  -1   7 6692.21 405.046   7
   2  -1  -7 6811.63 450.146  25
  -2  -1   6 86.4346 62.2643   4
   2   1  -6 69.2844 44.2897  25
   2  -1  -6 168.673 79.3659  25
  -2  -1   6 36.6080 38.6654  22
  -2  -1   5 12629.7 475.743   4
   2   1  -5 11559.7 340.857  13
  -2   1   5 11582.6 460.229  22
  -2  -1   4 70041.2 1019.44   4
   2   1  -4 63463.3 780.686  13
   2   1  -4 63096.3 878.474  23
   2  -1  -4 71341.4 1070.61  23
  -2   1   4 65130.6 1023.30  22
  -2   1   3 18082.7 511.027  22
  -2   1   3 17913.0 376.302   9
   2   1  -3 16597.3 365.417  20
   2  -1  -3 17657.0 425.119  18
  -2  -1   3 17803.0 472.983   4
  -2   1   3 17002.7 412.193  26
   2  -1  -3 18275.4 512.044  23
   2   1  -3 18405.8 474.626  18
   2  -1  -3 17750.0 493.068  20
  -2  -1   3 19535.6 529.037   5
  -2   1   2 54431.0 646.785   9
   2   1  -2 53954.7 669.590   8
   2   1  -2 55092.9 755.166  18
  -2  -1   2 55354.5 811.717   5
   2  -1  -2 54829.1 668.676  18
   2   1  -2 52518.7 699.936  11
  -2  -1   1 354.457 68.8873   5
   2   1  -1 551.940 84.4209  18
   2  -1  -1 442.786 69.1797  18
  -2   1   1 396.450 67.2682   9
   2  -1  -1 476.676 53.4485  21
   2   1  -1 470.191 71.9818  21
   2   1  -1 390.546 40.9531  10
   2   1   0 297277. 1528.57  21
   2   1   0 297762. 1713.46  12
   2  -1   0 300880. 1431.99  18
   2   1   1 10888.1 308.930  18
   2   1   1 10740.3 332.387   2
   2  -1   1 10633.6 239.147  24
   2  -1   1 10456.4 281.141  18
   2   1   2 58412.8 749.295  18
   2   1   2 55982.1 787.380   2
  -2  -1  -2 57005.8 760.953  14
  -2   1  -2 58633.7 904.712  14
   2   1   2 56929.4 701.067   6
   2   1   2 58355.6 743.460  24
   2  -1   2 58765.4 638.225  24
   2  -1   2 56930.1 649.933  12
  -2  -1  -3 12851.3 382.380  14
   2   1   3 12975.1 370.783   6
   2   1   3 13258.3 394.079  24
   2   1   3 13078.7 408.829   2
   2  -1   3 13175.7 355.487  24
  -2   1  -3 13779.6 464.363  14
   2   1   4 27345.8 634.294   2
  -2   1  -4 28052.3 723.101  14
  -2  -1  -4 27303.4 618.800  14
   2   1   4 28108.1 595.274   6
   2   1   4 27733.4 623.020  24
   2  -1   4 28274.8 591.266  24
   2   1   5 4414.56 278.984   2
  -2  -1  -5 4342.43 279.251  14
   2   1   5 5008.12 280.397   6
   2   1   5 4762.83 285.036  24
   2  -1   5 5029.08 279.516  24
  -2   1  -5 4886.05 332.485  14
   2   1   6 61596.0 1114.64  24
  -2   1  -6 65547.3 1322.13  14
  -2  -1  -6 63868.4 1168.64  14
   2   1   6 63496.4 1079.69   6
   2  -1   6 65034.2 1105.87  24
   2   1   7 13031.8 537.149   6
   2   1   7 12848.6 552.938  24
   2  -1   7 14405.0 579.196  24
  -2   1  -7 13810.3 660.798  14
  -2  -1  -8 324.430 82.5790  28
  -2  -1  -8 402.044 75.5152  38
  -2   1  -8 447.219 76.5459  38
  -2   1  -9 788.082 146.212  51
  -2  -1  -9 899.186 120.110  28
  -2   1  -9 1055.45 112.473  40
  -2  -1  -9 1039.98 115.848  38
  -2   1  -9 963.361 107.359  38
  -2   1 -10 20660.4 499.712  28
  -2   1 -10 20999.1 480.312  40
  -2  -1 -10 21224.8 490.975  38
  -2   1 -10 21364.3 480.228  38
  -2   1 -11 6326.36 261.380  28
  -2  -1 -11 6121.60 254.550  38
  -2   1 -11 6474.39 247.684  38
  -2   1 -12 198.376 55.7406  28
  -2   1 -12 132.648 47.4950  38
  -2  -1 -12 206.213 53.1850  38
  -2  -1 -12 86.5331 57.1190  51
  -2  -1 -12 215.875 54.7201  53
  -2   1 -13 42.5899 30.7982  53
  -2  -1 -13 43.9521 28.6542  38
   2   2 -14 142.654 36.9634  40
  -2   2  14 122.399 42.4317  37
  -2  -2  14 107.848 37.4543  37
   2   2 -13 761.246 90.5765  40
  -2   2  13 786.357 93.6238  37
  -2   2  12 713.090 102.849  37
   2   2 -12 708.667 100.379  47
   2   2 -12 665.848 95.9059  40
   2   2 -11 6011.63 300.096  40
  -2   2  11 6327.99 283.079  37
  -2   2  11 5679.16 300.229  35
   2   2 -10 4209.42 256.947  40
  -2   2  10 4438.70 239.797  37
  -2   2  10 4225.45 263.909  35
  -2   2   9 2924.80 216.893  35
   2   2  -9 3231.34 221.576  40
   2  -2  -8 32997.8 1147.23  19
  -2  -2   8 32911.2 987.311   4
  -2  -2   7 290.228 84.6005   4
   2  -2  -7 312.276 109.839  25
  -2  -2   6 37571.9 942.289   4
   2   2  -6 38179.9 818.776  13
  -2  -2   5 42255.2 928.340   4
   2   2  -5 40700.8 817.326  13
   2  -2  -5 43415.0 1022.76  25
  -2  -2   4 4233.54 290.564   5
   2  -2  -4 4006.61 289.025  23
  -2   2   3 73991.0 927.528   9
   2  -2  -3 73803.0 1140.49  20
   2  -2  -3 73078.8 1103.37  23
   2   2  -3 72483.0 808.738   3
  -2  -2   3 75061.6 1103.75   5
  -2   2   3 77234.2 1145.82  22
   2   2  -3 73908.4 1046.73  11
   2   2  -3 75440.9 1047.00  18
   2   2  -2 45019.4 751.238   8
   2   2  -2 44590.8 603.750  10
  -2   2   2 48396.6 740.940   9
  -2   2   2 45507.9 820.774  26
   2   2  -2 45764.6 773.082  11
   2  -2  -2 45758.7 822.618  23
  -2   2   2 47510.0 636.175   3
  -2   2   2 49117.9 866.616  22
  -2  -2   2 44077.6 788.947   5
   2  -2  -2 42877.7 552.682  18
   2  -2  -2 44292.3 814.958  20
   2   2  -2 45761.7 746.406  18
   2  -2  -1 60707.1 637.687  18
   2   2  -1 60437.3 706.940  10
   2   2  -1 64262.3 871.028   8
  -2   2   1 67662.9 767.323   3
  -2   2   1 67171.7 1020.13  26
   2   2  -1 66364.8 867.454  18
  -2   2   1 66996.2 953.078  22
  -2  -2   1 67219.1 970.149   5
  -2   2   1 70119.3 898.603   9
   2  -2   0 3619.23 156.151  18
   2   2   0 3862.82 214.615  21
  -2   2   0 3305.68 237.704  26
   2   2   0 3856.99 220.928  12
  -2   2   0 3594.11 211.189  22
  -2  -2   0 3299.98 222.059   5
   2   2   0 4268.79 237.580  18
  -2   2   0 3323.51 161.563  10
   2  -2   1 50572.7 658.573  18
  -2   2  -1 60639.1 1033.78  26
   2   2   1 67475.9 943.349  12
  -2   2  -1 58105.4 796.284  22
   2   2   1 61436.8 806.862  21
  -2  -2  -1 57028.6 886.537   5
   2   2   1 58279.1 888.522   2
   2   2   1 62377.8 795.410  18
   2   2   2 68843.9 1012.39   2
   2   2   2 63437.2 922.852  15
  -2  -2  -2 68161.2 983.736   5
  -2   2  -2 69977.9 1163.05  26
   2   2   2 76141.1 1058.83  12
   2   2   2 71658.3 873.186  18
   2   2   3 27321.1 577.456  18
  -2   2  -3 27809.9 740.783  14
   2   2   3 25928.1 583.571   6
  -2   2  -3 25391.1 722.792  26
   2   2   3 25405.9 653.861   2
   2  -2   3 27295.0 534.201  24
   2   2   4 22515.1 551.060  18
   2   2   4 22053.2 650.055   2
   2   2   4 21972.3 579.060   6
  -2   2  -4 21682.3 693.883  26
   2   2   4 21758.1 599.721  24
   2  -2   4 23903.5 568.487  24
  -2   2  -4 22898.0 730.924  14
   2   2   5 263.535 81.2419  18
   2   2   5 275.627 100.170   2
  -2   2  -5 168.015 94.6542  14
  -2   2  -5 182.292 76.8380  26
   2   2   5 141.463 70.8363   6
   2   2   5 454.452 100.523  24
   2  -2   5 176.932 55.3824  24
   2   2   6 4652.38 316.287   6
   2   2   6 4225.08 304.247  24
   2  -2   6 4875.44 314.685  24
   2   2   6 4210.72 334.983   2
  -2   2  -6 5058.24 386.705  14
  -2   2  -7 52.9929 42.4598  47
  -2   2  -7 50.0216 54.0459  43
  -2  -2  -7 143.533 73.1068  28
  -2   2  -7-37.4460 69.0209  49
  -2  -2  -7 12.6190 48.8393  38
  -2   2  -7 18.7111 66.3120  51
  -2   2  -8 3574.82 234.157  47
  -2   2  -8 3305.20 231.879  43
  -2  -2  -8 3329.49 195.267  38
  -2   2  -8 3334.99 270.911  51
  -2   2  -9 10642.5 405.124  47
  -2  -2  -9 10089.7 344.254  38
  -2   2  -9 9825.39 434.889  51
  -2   2 -10 682.926 101.881  47
  -2   2 -10 910.589 114.497  28
  -2  -2 -10 845.251 104.370  38
  -2   2 -10 713.302 120.406  51
  -2   2 -11 3.75455 50.0002  28
  -2  -2 -11 65.3194 48.7988  38
  -2   2 -12 1957.59 128.884  28
  -2  -2 -12 1775.14 118.081  38
   2   3 -14-26.3339 24.4640  40
  -2   3  14 44.2595 33.4793  37
   2   3 -13 10268.8 304.053  47
   2   3 -13 11161.9 313.788  40
  -2   3  13 11245.1 297.125  37
   2   3 -12 1336.36 115.939  32
   2   3 -12 1730.34 144.691  40
   2   3 -12 1486.51 143.710  47
  -2   3  12 1562.25 129.884  37
   2   3 -11 1266.96 151.790  47
   2   3 -11 1101.85 122.684  32
   2   3 -11 1042.83 126.694  40
  -2   3  11 1406.84 129.206  37
   2   3 -10 1501.34 156.294  32
   2   3 -10 1662.25 168.539  40
  -2   3  10 1572.93 139.770  37
  -2   3  10 1331.16 156.884  35
   2   3  -9 3651.29 247.866  40
   2   3  -9 3452.55 224.863  55
  -2   3   9 3498.13 202.459  37
  -2   3   9 3394.37 243.185  35
   2   3  -8 23433.2 567.019  55
  -2   3   8 24567.4 508.917  37
  -2   3   8 24202.1 620.715  35
  -2  -3   7 3225.02 323.473   4
   2  -3  -7 3821.99 398.093  25
   2  -3  -6 3494.63 344.039  25
   2   3  -6 2831.82 272.227  13
   2  -3  -5 37.6598 57.8417  25
   2   3  -5 46.2417 55.8380  13
  -2   3   4 2172.32 196.414   9
   2  -3  -4 1853.57 214.724  25
   2   3  -4 1571.95 195.022  13
  -2  -3   4 1817.06 212.554   5
   2   3  -4 1653.97 198.685  11
  -2   3   3 4940.53 288.391   9
   2   3  -3 5175.35 321.936  11
   2   3  -3 4500.77 266.647   3
  -2  -3   3 4972.04 319.785   5
   2   3  -3 4900.15 266.611  10
   2   3  -2 17471.7 551.739   8
   2   3  -2 16528.6 463.872  10
   2   3  -2 17321.6 516.646  18
   2  -3  -2 16768.2 544.919  23
  -2   3   2 18602.5 515.200   3
  -2  -3   2 17538.3 583.478   5
   2   3  -2 15578.8 483.569   3
   2  -3  -2 17274.2 594.841  20
  -2   3   2 18274.2 543.095   9
   2   3  -1 5010.70 287.856   8
   2   3  -1 4657.41 251.480  10
  -2   3   1 5072.39 287.565   9
  -2  -3   1 5060.85 318.823   5
  -2   3   1 4887.56 233.416  13
  -2  -3   1 4751.85 351.352   1
  -2   3   1 5680.01 294.300   3
   2   3  -1 4828.26 256.396  18
   2  -3  -1 4587.98 276.445  23
   2  -3  -1 4781.68 299.351  20
   2   3   0 150962. 1398.74  18
  -2   3   0 150032. 1395.34  10
  -2   3   0 153480. 1455.24  13
  -2  -3   0 151894. 1968.85   1
  -2  -3   0 152992. 1712.38   5
   2   3   1 33015.6 681.326  18
   2   3   1 29970.4 725.009   2
  -2   3  -1 28277.1 614.285  10
  -2  -3  -1 29047.8 756.349   5
  -2   3  -1 30178.7 830.857  26
  -2   3  -1 28599.6 684.817  13
  -2  -3  -1 28137.2 854.241   1
   2   3   1 31578.7 717.688  12
   2   3   1 32076.0 692.035  21
   2   3   2 743.743 108.024  18
  -2  -3  -2 671.911 153.828   1
   2   3   2 681.163 128.915   2
   2   3   2 555.524 116.850  15
  -2   3  -2 713.819 121.158  13
   2   3   2 763.828 122.480  21
  -2   3  -2 662.500 136.826  26
  -2  -3  -2 857.446 145.028   5
   2   3   3 1480.14 185.705   2
   2   3   3 1289.81 162.575  15
  -2   3  -3 1694.02 209.943  26
  -2  -3  -3 1521.07 225.508   1
   2   3   3 1899.88 206.631  12
   2   3   3 1635.34 164.526  21
  -2   3  -4 27184.0 883.878  14
   2   3   4 27704.6 801.489   2
  -2   3  -4 28019.5 873.397  26
   2   3   4 27994.1 681.331  21
  -2   3  -5 2000.23 264.037  14
   2   3   5 1859.89 234.149   2
   2   3   5 1572.39 194.659  15
  -2   3  -6 505.133 105.088  51
  -2   3  -6 473.053 95.6717  49
  -2   3  -6 553.681 96.4078  32
  -2   3  -6 427.969 83.2051  47
  -2   3  -6 500.082 96.5118  43
  -2  -3  -6 449.561 108.948  27
  -2  -3  -6 413.356 78.8562  38
  -2   3  -6 482.893 101.081  45
  -2   3  -6 434.519 91.4979  33
   2   3   6 468.551 84.2601  37
  -2   3  -7 9557.47 366.421  32
  -2   3  -7 10291.3 400.883  47
  -2   3  -7 9894.74 393.071  49
  -2   3  -7 9901.01 389.632  43
  -2  -3  -7 10129.1 412.675  27
  -2  -3  -7 8699.51 306.801  38
   2   3   7 9501.44 343.537  37
  -2   3  -7 9447.09 421.842  51
  -2   3  -8 10785.8 418.189  49
  -2   3  -8 10650.7 411.734  47
  -2   3  -8 9984.74 395.306  43
  -2  -3  -8 10461.7 418.492  27
  -2   3  -8 9820.62 413.911  51
  -2  -3  -8 9358.01 327.597  38
   2   3   8 9863.96 351.599  37
   2   3   9 10.7697 57.2015  37
  -2   3  -9-12.0848 45.9204  47
  -2  -3  -9 0.95035 50.8995  44
  -2   3  -9 39.5144 63.5564  43
  -2  -3  -9 62.5283 57.0589  38
  -2   3 -10 363.726 79.5622  47
  -2  -3 -10 188.765 53.2911  38
  -2   3 -11 7936.29 301.079  47
  -2  -3 -11 8514.82 266.029  38
  -2   3 -12 8270.70 220.523  28
   2   3  12 8080.00 197.070  29
   2   4 -13 1207.60 93.5160  47
  -2   4  13 1778.94 101.819  42
   2   4 -13 1268.31 90.5353  40
  -2   4  13 1627.54 106.988  37
   2   4 -12 1769.84 125.033  32
   2   4 -12 1690.95 139.099  47
   2   4 -12 1785.90 131.623  40
  -2   4  11 95.5602 58.2182  37
   2   4 -11 8.94605 35.4737  32
   2   4 -11 48.8668 43.7319  40
   2   4 -11-5.94349 37.5272  47
   2   4 -10 24817.1 610.165  32
   2   4 -10 25657.6 669.812  47
   2   4 -10 25181.8 623.117  40
  -2   4  10 26925.8 534.439  37
   2   4  -9 3177.25 210.975  55
  -2   4   9 3240.96 189.514  37
   2   4  -9 3053.44 209.597  33
  -2   4   9 3030.11 229.198  35
   2   4  -8 3329.45 231.743  33
  -2   4   8 3509.18 247.578  35
   2   4  -8 3443.47 226.554  55
  -2   4   8 3707.07 201.126  37
  -2   4   7 2577.45 209.082  35
   2   4  -7 2756.24 200.863  55
   2   4  -6-36.7140 51.4587  55
   2  -4  -6 87.2149 100.175  25
   2   4  -6 9.66604 57.7227  13
  -2   4   6 17.5531 51.1584  35
  -2   4   5 14725.5 595.609   9
   2  -4  -5 15931.5 739.585  25
   2   4  -5 13871.5 672.333  13
  -2  -4   5 16935.3 739.904   5
  -2   4   4 124.619 57.1976   9
   2  -4  -4 146.489 83.8393  25
   2   4  -4 185.202 88.2981  13
   2   4  -4 240.296 99.4606  11
  -2  -4   4 133.723 97.2096   5
  -2   4   3 29350.6 801.663   9
   2   4  -3 32725.2 911.212  11
   2  -4  -3 30171.4 872.029  25
   2   4  -3 32677.4 831.007   3
  -2  -4   3 31147.5 901.857   5
   2   4  -3 32994.8 791.609  10
   2   4  -2 29269.3 837.520   8
   2   4  -2 29563.4 721.817  10
  -2  -4   2 28180.5 957.035   1
  -2   4   2 31368.7 811.974   3
   2   4  -2 28166.2 750.280   3
  -2  -4   2 28472.9 854.135   5
   2   4  -2 29442.6 838.852  11
  -2   4   2 28153.1 781.484   9
   2   4  -1 28112.0 691.727  10
  -2   4   1 28488.4 780.171   9
   2   4  -1 30318.6 826.889   8
  -2  -4   1 29027.9 873.760   5
  -2  -4   1 28569.3 960.480   1
   2  -4  -1 28870.5 831.366  20
   2   4   0 31940.5 841.383   8
  -2   4   0 30363.7 747.969  10
  -2  -4   0 31585.0 1023.58   1
   2  -4   0 29997.9 818.559  20
  -2  -4   0 31437.8 911.750   5
  -2  -4  -1 3980.19 328.288   5
  -2   4  -1 3523.89 266.577  10
  -2   4  -1 3583.41 280.291  13
  -2  -4  -1 3525.57 359.023   1
   2   4   1 3818.58 280.590  12
   2  -4   1 3168.12 258.961  20
   2   4   2 55351.9 1154.26   2
  -2   4  -2 55586.2 1174.76  13
  -2  -4  -2 53336.3 1379.14   1
   2   4   2 57133.6 1104.27  12
   2   4   3 41089.8 1036.68   2
  -2  -4  -3 36993.1 1019.87   5
  -2   4  -3 42502.3 1091.47  13
  -2  -4  -3 38725.4 1208.68   1
   2   4   3 45528.0 1055.22  12
   2   4   4 6442.17 436.549   2
  -2   4  -4 6780.50 301.885  47
  -2   4  -4 6040.53 290.419  45
   2   4   4 6452.82 254.375  29
  -2  -4  -4 6669.25 325.631  27
  -2   4  -4 6491.64 289.674  41
  -2  -4  -4 5747.77 477.670   1
   2   4   4 5613.49 396.511  15
   2   4   4 6238.05 287.087  37
  -2   4  -4 6869.37 326.941  51
  -2   4  -5 2837.96 207.780  49
  -2   4  -5 2811.36 208.898  33
  -2   4  -5 2868.60 207.418  47
  -2   4  -5 2737.32 204.710  45
   2   4   5 2754.49 178.524  29
  -2  -4  -5 2936.11 227.446  27
  -2   4  -5 2835.40 214.780  51
   2   4   5 2799.46 200.258  37
  -2   4  -5 2575.11 203.737  41
   2   4   6 1985.52 153.512  29
  -2   4  -6 1951.77 182.810  47
  -2   4  -6 1820.05 174.583  51
  -2   4  -6 1832.94 157.658  32
  -2  -4  -6 1758.55 185.956  27
  -2   4  -6 1864.81 172.269  49
   2   4   6 1975.83 172.817  37
  -2   4  -6 2048.99 186.452  43
  -2   4  -6 1748.45 171.918  33
  -2   4  -6 1630.66 167.027  45
  -2   4  -7 174.388 73.3588  51
  -2   4  -7 107.556 53.9164  47
  -2   4  -7 208.760 78.5106  43
  -2   4  -7 241.809 66.5372  32
  -2   4  -7 182.916 67.4505  49
  -2  -4  -7 95.5356 86.2043  27
   2   4   7 228.818 75.4288  37
   2   4   7 243.334 69.0684  29
  -2   4  -8 3556.73 240.060  49
  -2   4  -8 3443.07 239.781  47
  -2  -4  -8 3505.20 249.570  27
  -2   4  -8 3494.81 235.652  43
   2   4   8 3409.39 212.840  37
   2   4   8 3562.10 196.643  29
  -2   4  -9 6150.81 302.839  47
   2   4   9 6195.79 244.354  29
  -2   4  -9 6401.09 290.773  43
  -2  -4  -9 6104.25 300.723  27
   2   4   9 5745.97 267.095  37
  -2   4 -10 918.431 111.233  47
   2   4  10 1162.88 101.488  29
   2   4  10 844.055 102.397  37
  -2   4 -11 66.3076 41.4986  47
   2   4  11 109.574 39.7071  29
  -2   4 -11 123.363 40.5605  28
   2   5 -12 784.686 70.2048  32
   2   5 -12 799.065 77.8641  47
  -2   5  12 938.169 75.9204  42
   2   5 -12 775.233 69.8736  40
   2   5 -11 442.277 74.8663  47
   2   5 -11 445.361 68.5958  32
  -2   5  11 689.999 86.1569  42
   2   5 -11 413.594 64.3446  40
  -2   5  11 685.647 83.8961  37
   2   5 -10 4038.40 203.971  33
  -2   5  10 4033.20 196.290  42
   2   5 -10 4164.12 243.277  47
   2   5 -10 4365.58 233.923  40
   2   5 -10 3991.02 229.616  32
  -2   5  10 4236.66 201.000  37
   2   5  -9 1720.94 171.355  47
  -2   5   9 1862.98 146.637  42
   2   5  -9 1652.10 160.148  40
   2   5  -9 1810.52 153.914  55
   2   5  -9 1652.61 155.081  33
  -2   5   8 18791.6 471.193  42
   2   5  -8 17443.9 484.387  55
   2   5  -8 17838.1 538.625  33
   2   5  -7 250.666 78.3138  33
  -2   5   7 387.884 85.9692  42
   2   5  -7 258.106 77.4887  55
  -2   5   6 1152.08 125.044  42
   2   5  -6 1048.95 134.775  55
  -2   5   6 1142.23 138.166  35
   2   5  -5 7661.93 353.926  55
  -2   5   5 7400.52 304.774  42
  -2   5   5 6940.79 310.849  35
  -2   5   4 257.491 77.4395  48
  -2   5   4 256.511 71.6458  42
   2   5  -4 232.324 88.2212  55
   2   5  -3 15.2003 55.2561  29
  -2   5   3 55.4436 61.8751  42
  -2   5   3-9.85479 50.9701  48
   2   5  -3-40.7848 69.3530  10
  -2   5   2 15376.8 496.264  48
   2   5  -2 14775.4 596.763  10
   2   5  -2 15239.7 443.508  29
  -2   5   2 14668.3 432.813  45
  -2   5   2 15795.8 431.947  42
   2   5  -2 14821.2 645.955   3
  -2   5   1 5825.72 306.399  48
   2   5  -1 5227.48 383.474   3
   2   5  -1 5617.88 262.286  29
  -2   5   1 5873.92 278.052  45
  -2   5   1 5668.91 260.074  42
  -2   5   1 5699.44 405.775   3
  -2  -5   1 5332.44 478.195   1
   2   5  -1 5188.99 348.811  10
  -2   5   0 34442.6 688.032  50
  -2   5   0 34703.6 744.087  48
   2   5   0 34156.4 636.791  29
  -2   5   0 34178.9 648.029  42
  -2   5   0 35274.8 689.730  45
   2  -5   0 34725.7 1084.38   1
  -2   5  -1 24132.2 586.435  50
  -2   5  -1 23905.4 617.898  48
   2   5   1 23232.9 524.254  29
  -2   5  -1 23556.0 581.316  45
  -2   5  -1 23034.2 546.346  42
  -2  -5  -1 23606.9 587.973  27
  -2   5  -1 24780.8 628.657  51
  -2   5  -2 1439.10 156.542  51
  -2   5  -2 1367.64 153.860  50
  -2   5  -2 1347.53 150.853  48
   2   5   2 1195.48 127.672  29
  -2   5  -2 1224.71 137.946  45
  -2   5  -2 1218.49 134.290  42
  -2  -5  -2 1487.14 170.543  27
  -2   5  -2 1113.96 135.116  41
  -2   5  -2 1492.93 153.809  39
  -2   5  -3 2983.18 218.811  50
  -2   5  -3 2884.94 215.080  48
  -2   5  -3 2686.02 193.191  47
   2   5   3 2747.93 184.534  29
  -2   5  -3 2917.01 214.382  45
  -2  -5  -3 2924.50 230.227  27
  -2   5  -3 2739.17 202.851  41
  -2   5  -3 3166.85 227.518  51
  -2   5  -4 4724.94 280.067  51
  -2   5  -4 4240.11 254.698  48
  -2   5  -4 4494.66 258.914  47
  -2   5  -4 4504.35 259.347  33
   2   5   4 4216.34 227.770  29
  -2   5  -4 4745.47 267.657  45
  -2  -5  -4 4348.12 282.347  27
  -2   5  -4 4360.20 255.102  41
  -2   5  -5 223.022 73.2094  51
  -2   5  -5 251.510 78.7729  33
  -2   5  -5 238.400 78.2182  49
  -2   5  -5 222.209 66.2511  47
   2   5   5 287.367 74.2202  29
  -2  -5  -5 220.611 85.7018  27
  -2   5  -5 289.843 79.7876  41
  -2   5  -5 209.895 66.5237  45
  -2   5  -6 105.124 60.8372  49
  -2   5  -6 183.991 62.5188  51
  -2   5  -6 134.443 60.7230  47
  -2   5  -6 64.3754 68.8517  45
   2   5   6 83.2803 59.3823  29
  -2   5  -6 131.862 60.0947  43
  -2  -5  -6 313.150 105.393  27
   2   5   6 215.083 77.8593  37
  -2   5  -6 203.802 74.9484  33
  -2   5  -7 728.965 115.657  49
  -2   5  -7 709.149 106.247  47
   2   5   7 825.186 102.933  29
  -2   5  -7 758.448 116.470  43
  -2  -5  -7 797.167 139.161  27
  -2   5  -8 1006.68 126.399  49
  -2   5  -8 892.782 121.779  47
   2   5   8 945.827 104.028  29
  -2   5  -8 955.362 116.416  43
  -2  -5  -8 799.293 118.020  27
   2   5   9 2296.91 138.438  29
  -2   5  -9 2178.43 167.549  47
  -2   5  -9 2289.89 155.539  43
   2   5  10 175.500 43.9382  29
  -2   5 -10 51.7667 36.8540  47
  -2   5 -10 108.295 40.6208  28
   2   6 -11 175.628 35.1879  32
   2  -6 -11 133.079 48.4613  27
   2   6 -10 5783.29 196.384  33
   2   6 -10 5913.06 220.131  47
   2   6 -10 5889.62 223.460  32
  -2   6  10 5806.86 191.583  42
   2   6 -10 5423.86 201.544  40
   2   6  -9 6942.63 262.435  33
   2   6  -9 7013.08 281.851  32
   2   6  -9 7128.98 275.352  47
  -2   6   9 6986.87 241.958  42
   2   6  -9 6650.09 265.677  40
   2   6  -8 1101.76 125.567  33
  -2   6   8 1202.95 113.028  42
   2   6  -8 1210.36 126.521  47
   2   6  -7 766.432 118.093  33
   2   6  -7 651.940 100.197  47
  -2   6   7 732.811 102.620  42
   2   6  -7 668.185 93.9479  55
  -2   6   6 419.137 81.5028  42
   2   6  -6 615.873 105.242  55
  -2   6   5 1306.78 134.932  42
   2   6  -5 1327.74 144.316  55
   2   6  -4 234.750 85.6815  55
  -2   6   4 261.242 75.0688  42
   2   6  -3 6905.86 354.356  55
  -2   6   3 7328.29 314.394  42
  -2   6   2 11903.2 436.232  50
  -2   6   2 13039.6 486.534  48
   2   6  -2 13376.1 439.389  29
  -2   6   2 12369.4 413.946  45
  -2   6   2 14389.1 438.125  42
  -2   6   1 4088.45 242.992  45
  -2   6   1 4598.35 265.894  50
  -2   6   1 4838.67 298.739  48
   2   6  -1 4959.40 264.908  29
  -2   6   1 4791.12 256.853  42
  -2   6   0 27486.4 656.817  50
  -2   6   0 28635.5 706.073  48
   2   6   0 28111.4 620.921  29
  -2   6   0 26659.4 626.738  45
  -2   6   0 27611.6 619.842  42
  -2   6  -1 158.633 64.3554  50
  -2   6  -1 42.9362 48.8983  48
   2   6   1 181.502 65.4997  29
  -2   6  -1 279.971 78.3381  45
  -2   6  -1 133.666 62.2345  42
  -2   6  -1 169.167 74.4649  41
  -2   6  -2 13598.0 471.239  50
  -2   6  -2 13349.4 471.411  48
   2   6   2 13034.5 416.739  29
  -2   6  -2 13031.0 443.073  45
  -2  -6  -2 12657.1 453.413  27
  -2   6  -2 13221.8 443.084  41
  -2   6  -3 1425.28 158.118  50
  -2   6  -3 1342.81 151.554  48
   2   6   3 1037.70 127.765  29
  -2   6  -3 1354.53 149.941  45
  -2  -6  -3 1188.29 151.080  27
  -2   6  -3 1205.69 144.633  41
  -2   6  -4 26550.7 604.921  48
   2   6   4 27246.1 578.219  29
  -2   6  -4 28342.1 654.848  45
  -2  -6  -4 26269.6 659.904  27
  -2   6  -4 26619.4 616.451  41
  -2   6  -4 26777.9 590.396  33
  -2   6  -5 65.6454 41.9228  33
  -2   6  -5 195.227 57.6965  47
  -2   6  -5 79.0466 54.5059  45
   2   6   5 121.945 63.3984  29
  -2  -6  -5 41.0262 68.2544  27
  -2   6  -5 212.619 80.5189  41
  -2   6  -5 56.2374 62.8547  49
  -2   6  -6 869.640 114.809  47
  -2   6  -6 964.166 118.782  49
  -2   6  -6 1074.04 126.704  43
  -2  -6  -6 691.801 112.258  27
   2   6   6 957.258 108.872  29
  -2   6  -7 71.1421 51.4069  49
  -2   6  -7 34.6166 43.6972  47
   2   6   7 70.1530 46.3600  29
  -2   6  -7 69.9323 43.3145  43
  -2   6  -8 4927.19 227.100  47
  -2   6  -8 5064.77 212.859  43
   2   6   8 5373.05 196.170  29
  -2   6  -9 467.238 64.0435  47
   2   6   9 500.559 57.2143  29
   2   7  -9 771.224 68.7001  32
   2   7  -8 2969.76 156.028  32
   2   7  -8 3186.40 158.450  33
  -2   7   8 2892.91 140.453  42
   2   7  -7 410.813 71.8530  33
  -2   7   7 326.235 60.0361  50
  -2   7   7 302.298 56.2057  42
   2   7  -7 260.143 52.2539  40
   2   7  -6 2352.30 175.668  33
  -2   7   6 2168.90 150.562  50
  -2   7   6 2494.58 151.168  42
   2   7  -5 32.2055 42.3331  33
  -2   7   5 72.8908 49.3202  50
   2   7  -5 127.093 57.8927  55
  -2   7   5 106.581 47.9925  42
  -2   7   4 1957.79 165.497  50
  -2   7   4 2157.98 156.736  42
   2   7  -4 2213.47 174.587  55
  -2   7   3 465.700 89.4642  50
  -2   7   3 637.855 101.375  42
   2   7  -3 566.432 97.3861  55
  -2   7   2 5268.00 272.021  50
   2   7  -2 5787.34 293.415  55
  -2   7   1 97.6674 55.0759  50
  -2   7   1 71.9328 47.5424  45
  -2   7   1 121.803 55.3522  42
  -2   7   0 2803.57 199.689  50
  -2   7   0 2640.16 186.552  45
  -2   7   0 3231.76 209.709  42
  -2   7   0 2637.63 191.357  41
   2   7   0 2712.91 192.216  29
  -2   7  -1 9299.31 360.412  50
   2   7   1 9369.73 339.424  29
  -2   7  -1 8985.48 338.114  45
  -2   7  -1 9674.97 351.381  41
  -2   7  -2 100.647 61.6955  50
   2   7   2 270.078 77.6576  29
  -2   7  -2 52.4973 47.1015  45
  -2   7  -2 184.759 63.8225  41
   2   7   3 1697.38 144.789  29
  -2   7  -3 1851.47 153.336  45
  -2   7  -3 1834.05 148.536  41
  -2   7  -4 439.303 78.3234  49
   2   7   4 452.715 80.3636  29
  -2   7  -4 465.952 82.1149  41
  -2   7  -5 1552.05 127.454  49
  -2   7  -5 1330.41 116.993  43
   2   7   5 1328.57 112.609  29
  -2   7  -6 178.214 48.0461  49
   2   7   6 232.892 52.7590  29
  -2   7  -6 196.469 53.2677  43
   2   7   7 512.779 57.8142  29
  -2   7  -7 566.562 62.8406  43
  -2   8   5 3189.62 130.637  41
   2   8  -5 3259.65 154.640  33
  -2   8   4 2295.95 131.960  50
  -2   8   4 2610.73 129.672  41
   2   8  -4 2309.92 143.861  33
   2   8  -3 681.057 82.2678  33
  -2   8   3 653.845 79.4349  50
  -2   8   3 809.145 78.3803  41
   2   8  -3 678.463 70.1002  55
   2   8  -2-20.6822 36.6394  55
   2   8  -2 58.0372 44.2731  33
  -2   8   2 25.0324 41.6470  50
  -2   8   2 65.4460 38.6797  41
  -2   8   1 15928.3 382.070  50
   2   8  -1 15280.6 350.827  55
  -2   8   0 781.410 91.6107  50
  -2   8   0 801.804 85.0233  41
   2   8   0 811.673 84.6572  55
   2   8   1 81.7158 40.3383  55
  -2   8  -1 148.478 47.1701  41
  -2   8  -2 9434.70 265.025  49
  -2   8  -2 10392.4 263.165  41
  -2   8  -3 1260.89 93.9017  49
   2   8   3 736.144 73.2963  55
  -3   0  14 17150.7 355.574  37
   3   0 -13 38.9144 26.7561  40
   3   0 -12 30.6327 32.1487  40
  -3   0  10 9177.72 375.477  52
  -3   0   9 57.4250 63.3410  52
  -3   0   8 45154.4 1119.87   7
   3   0  -8 41886.1 1219.92  25
  -3   0   7-31.2468 55.7911   7
   3   0  -7 45.2287 60.2083  25
  -3   0   7 20.8188 54.8778  22
  -3   0   6 25607.2 756.162   4
  -3   0   6 25820.6 718.782   7
  -3   0   6 24074.3 760.857  22
  -3   0   5 28.3263 51.4905   4
  -3   0   5 9.94177 46.0610   7
   3   0  -5 23.7641 51.0084  23
  -3   0   5 27.2098 64.2613  22
  -3   0   4 49049.5 790.264   7
   3   0  -4 47300.4 957.875  23
   3   0  -4 47339.2 916.238  18
   3   0  -3 13.9123 48.7548  20
  -3   0   3-30.9550 46.6264   4
   3   0  -3-26.2582 53.1734  18
   3   0  -2 121095. 1327.54  18
   3   0  -1 73.1451 79.7618  18
   3   0  -1 107.798 93.3490  21
   3   0   0 74.5994 57.3299  18
   3   0   0 140.368 65.8738  21
   3   0   1 28.0613 43.9897  18
   3   0   1 57.9859 58.9050  12
   3   0   2 73997.4 1026.51  18
   3   0   2 72635.7 1006.05  12
   3   0   3 21.4781 40.9530  18
   3   0   3-15.7963 38.0010  24
   3   0   3-53.7830 75.2386  12
   3   0   4 133.477 68.4910  18
   3   0   4 32.9363 45.0461  24
   3   0   5 50.3132 68.5536  18
   3   0   5 22.9766 49.6636  24
  -3   0  -6 69001.1 1488.60  14
  -3   0  -6 69465.5 883.594  28
   3   0   6 67551.6 1245.64  24
  -3   0  -6 68289.0 849.351  38
  -3   0  -7 71.3044 72.8209  28
  -3   0  -7 86.5378 61.0854  38
  -3   0  -8 26358.7 586.215  28
  -3   0  -8 26690.6 565.172  38
  -3   0  -9 62.1421 62.2411  51
  -3   0  -9 10.5376 60.5386  28
  -3   0  -9-48.9725 50.7662  38
  -3   0 -10 4960.94 238.968  28
  -3   0 -10 5257.54 239.709  38
  -3   0 -10 4642.06 301.567  51
  -3   0 -11 18.9391 43.1300  53
  -3   0 -11-5.06131 56.6395  51
  -3   0 -11 20.0177 40.5744  38
  -3   0 -12 2688.21 117.770  53
   3   1 -14 3548.74 145.259  40
  -3   1  14 3578.56 157.120  37
  -3  -1  14 3374.93 157.020  37
   3   1 -13 296.364 58.8385  40
  -3   1  13 289.766 69.2412  37
   3   1 -12 4823.28 234.687  40
  -3   1  11 670.325 114.546  35
   3   1 -11 100.007 44.3026  40
  -3  -1  10 21242.4 565.835  52
   3   1 -10 20902.3 538.615  40
  -3   1  10 21852.1 591.706  35
  -3   1   9 1557.10 144.096  34
  -3   1   9 1605.24 169.838  35
  -3   1   9 1658.20 161.101  52
   3   1  -9 1543.99 150.888  40
  -3  -1   9 1477.48 155.993  52
  -3  -1   8 7405.19 474.964   4
  -3  -1   8 7433.13 478.386   7
   3  -1  -8 7346.20 539.880  25
  -3  -1   7 2206.60 246.631   4
  -3  -1   7 2011.37 237.980   7
   3  -1  -7 2310.38 282.974  25
  -3  -1   6 18765.9 671.512   4
  -3  -1   6 17840.2 639.557   7
  -3   1   6 18186.0 697.850  22
  -3  -1   6 16346.7 622.147  22
  -3  -1   5 156.114 65.6156   4
   3   1  -5 57.4009 55.7101  23
   3  -1  -5 29.6394 52.2959  23
  -3   1   5 142.101 68.9820  22
   3   1  -4 985.796 145.838  18
  -3   1   4 757.729 107.144   9
  -3  -1   4 967.873 141.409   4
  -3   1   4 683.215 112.460  26
   3  -1  -4 847.791 141.613  23
   3   1  -4 622.188 120.745  23
  -3   1   4 703.274 133.678  22
   3  -1  -4 995.739 150.330  20
  -3   1   3 5765.15 258.468   9
  -3  -1   3 6375.78 325.207   4
   3  -1  -3 5709.73 293.619  18
  -3   1   3 6081.84 361.133  22
   3  -1  -3 6038.01 331.844  20
   3   1  -3 6179.06 324.197  18
   3  -1  -2 27841.7 623.549  18
   3   1  -2 30343.0 695.428  18
  -3  -1   2 30051.4 640.647   4
   3   1  -2 27825.4 553.497   8
   3   1  -2 28934.4 600.562  11
   3   1  -1 2608.37 207.750  18
   3  -1  -1 2200.52 185.030  18
   3   1  -1 1970.22 150.329   8
   3   1  -1 2195.68 181.943  21
   3   1  -1 1936.69 149.229  11
   3   1   0 15267.9 445.756  21
   3  -1   0 15273.6 454.939  18
  -3  -1   0 14391.1 451.164   5
   3  -1   0 14545.6 354.612  21
   3   1   1-0.57719 46.7225  18
   3  -1   1 68.6847 50.0971  18
   3   1   1 44.9407 56.7059  21
   3   1   1-1.45672 61.2410  12
   3   1   2 16997.4 506.433  18
   3  -1   2 15802.6 477.089  18
   3   1   2 16782.5 545.705  12
   3   1   3 5616.74 307.724  18
   3  -1   3 5306.14 289.212  18
   3   1   3 5617.23 330.643  12
   3  -1   4 27717.2 701.843  18
   3   1   4 28631.9 734.990  18
   3   1   5 642.454 124.823  18
   3  -1   5 504.418 112.120  18
   3   1   5 416.222 104.692  24
   3   1   5 547.197 121.649  12
  -3   1  -6 2801.88 261.617  51
  -3   1  -6 3111.95 226.136  47
  -3  -1  -6 3262.93 207.014  28
  -3   1  -6 3380.71 198.652  28
  -3  -1  -6 3097.36 190.286  38
  -3   1  -6 3089.80 177.189  38
  -3   1  -7 8589.52 446.502  51
  -3  -1  -7 8557.05 335.032  28
  -3   1  -7 8971.60 332.584  28
  -3   1  -7 8082.72 378.671  47
  -3  -1  -7 8827.12 327.444  38
  -3   1  -7 8884.62 311.803  38
  -3   1  -8 16942.4 624.819  51
  -3  -1  -8 17084.7 471.831  28
  -3   1  -8 18289.4 480.867  28
  -3  -1  -8 17611.1 471.897  38
  -3   1  -8 18240.9 453.918  38
  -3   1  -9 645.113 128.524  51
  -3   1  -9 854.591 110.251  28
  -3  -1  -9 571.696 95.9333  38
  -3   1  -9 613.446 88.3829  38
  -3  -1  -9 599.339 97.0871  53
  -3  -1 -10 5392.65 230.007  53
  -3   1 -10 5335.33 304.844  51
  -3   1 -10 6249.65 263.688  28
  -3  -1 -10 6047.08 258.034  38
  -3   1 -10 6161.28 246.348  38
  -3   1 -11 1856.96 149.541  51
  -3  -1 -11 2004.64 170.066  51
  -3   1 -11 2442.50 140.099  53
  -3  -1 -11 2321.50 134.152  53
  -3   1 -11 2420.51 134.687  38
  -3  -1 -11 2588.36 149.652  38
   3   2 -14 1133.31 81.1096  40
  -3   2  14 1123.23 84.4199  37
   3   2 -13 7605.15 257.759  40
  -3   2  13 7941.15 253.248  37
   3   2 -12 2144.21 160.825  40
  -3   2  12 2302.39 155.436  37
  -3   2  12 2152.44 169.177  35
  -3   2  11 890.189 107.905  37
   3   2 -11 863.180 118.294  40
  -3   2  11 983.023 131.083  35
   3   2 -10 822.588 119.074  40
  -3   2  10 856.167 114.253  37
  -3   2  10 855.623 128.506  35
   3   2  -9 30321.1 695.055  40
   3   2  -9 29886.3 662.517  55
  -3   2   9 31775.5 736.812  35
  -3  -2   9 31035.0 669.503  52
  -3   2   8 9119.14 391.154  35
  -3  -2   8 9095.22 362.043  46
   3   2  -8 8710.69 346.820  55
  -3  -2   8 8879.85 359.946  52
  -3   2   8 8682.54 328.610  34
  -3  -2   7 735.138 152.977   4
   3  -2  -7 643.365 167.608  25
  -3   2   6 4320.01 276.888   9
   3  -2  -6 4901.32 406.362  25
  -3  -2   6 4815.75 367.417   4
  -3   2   5 57681.3 984.912   9
  -3  -2   5 61181.8 1217.82   4
   3  -2  -5 61826.0 1329.43  23
  -3   2   5 60111.4 1277.61  22
  -3   2   4 10138.2 403.400   9
   3  -2  -4 10388.1 514.720  20
  -3  -2   4 10151.1 472.802   4
   3  -2  -4 9623.42 492.402  23
  -3   2   4 10669.6 520.170  22
  -3   2   3 33489.2 725.207   9
  -3  -2   3 34075.3 805.390   4
  -3   2   3 32699.2 809.918  26
   3  -2  -3 32009.3 838.525  20
  -3  -2   3 35967.4 909.288   5
   3  -2  -3 31586.3 850.547  23
  -3   2   3 34365.0 892.817  22
   3   2  -3 34441.2 800.042  11
   3   2  -3 33524.1 810.573  18
   3   2  -2 13509.0 457.487   8
   3  -2  -2 13059.5 520.774  20
  -3   2   2 13327.9 537.623  26
  -3  -2   2 13892.3 531.894   5
  -3   2   2 13726.2 545.402  22
   3   2  -2 12849.8 463.264  11
   3   2  -2 13783.8 494.307  18
  -3  -2   1-28.1662 58.5028   5
   3   2  -1 81.8356 55.2558  18
   3   2  -1-52.2420 54.4530   8
  -3   2   1-6.82275 43.7468  26
  -3   2   1 35.1994 51.0864  22
   3   2   0 2827.75 234.611  18
   3  -2   0 2596.96 198.654  18
  -3   2   0 2163.54 234.548  26
  -3  -2   0 2087.97 192.289   5
  -3   2   0 2189.95 206.009  22
   3   2   0 2404.75 211.207  21
   3  -2   1 8334.86 326.309  18
  -3   2  -1 9004.92 482.628  26
   3   2   1 10214.4 428.432  18
   3   2   1 8829.50 405.789  12
  -3   2  -1 8539.00 396.524  22
   3   2   1 9571.08 390.204  21
   3   2   2 1580.48 169.622  18
   3  -2   2 1411.16 139.841  18
  -3   2  -2 1284.54 193.511  26
   3   2   2 1617.64 193.776  12
   3   2   2 1694.20 174.388  21
   3  -2   3 44782.7 850.560  18
   3   2   3 45134.2 897.693  18
   3   2   3 46669.9 1044.38  12
   3   2   3 46601.8 897.466  21
   3   2   4 1689.20 185.629  18
   3  -2   4 1864.12 189.999  18
   3   2   4 1427.68 202.627   2
  -3   2  -4 1432.84 224.012  26
   3   2   4 1918.87 253.076  12
  -3   2  -5 218.291 58.3637  49
  -3   2  -5 206.627 69.4732  47
  -3   2  -5 172.128 65.4135  43
   3   2   5 40.3852 89.6969   2
  -3   2  -5 158.354 91.0292  26
  -3  -2  -5 281.452 64.4492  38
   3   2   5 394.351 131.077  12
  -3  -2  -5 245.471 71.0909  53
  -3   2  -5 256.252 99.1875  51
  -3   2  -6 16410.5 602.204  51
  -3   2  -6 16274.1 521.484  47
  -3   2  -6 16063.7 494.330  43
  -3  -2  -6 15221.5 431.980  38
  -3  -2  -6 14880.3 409.600  53
  -3   2  -7 32687.9 842.340  51
  -3   2  -7 32146.8 738.489  47
  -3   2  -7 33144.5 626.669  28
  -3  -2  -7 30766.1 623.327  38
  -3   2  -8 12562.5 515.829  51
  -3   2  -8 12991.4 469.995  47
  -3   2  -8 13152.4 398.186  28
  -3  -2  -8 12441.8 396.662  38
  -3  -2  -8 12069.2 367.229  53
  -3   2  -9 112.475 73.6337  51
  -3   2  -9 132.449 68.0942  47
  -3  -2  -9 128.846 61.9150  53
  -3   2  -9 187.045 71.6063  28
  -3  -2  -9 58.0002 51.0092  38
  -3   2 -10 5365.89 269.964  51
  -3  -2 -10 5574.16 241.648  38
  -3  -2 -10 5512.75 213.777  53
  -3   2 -11 2848.08 139.181  53
  -3   2 -11 2902.52 150.708  28
  -3  -2 -11 2770.25 146.387  38
  -3   3  13 264.644 53.9078  37
   3   3 -13 157.281 51.8071  47
   3   3 -13 127.102 37.2319  40
   3   3 -12 1368.76 136.036  47
   3   3 -12 1410.78 126.411  40
  -3   3  12 1565.76 114.519  37
  -3   3  11-15.0188 47.1437  35
   3   3 -11 16.4134 36.7361  40
  -3   3  11 9.99721 42.8541  37
   3   3 -10 2833.74 216.104  40
  -3   3  10 2922.19 174.882  37
  -3   3  10 2796.42 217.349  35
   3   3  -9 9854.38 383.968  55
  -3   3   9 10540.7 427.763  35
  -3  -3   8 16640.0 496.291  46
   3   3  -8 16412.9 497.690  55
  -3   3   8 16803.3 540.423  35
  -3   3   7 1548.16 168.322  35
  -3  -3   7 1613.08 157.896  46
  -3   3   7 1573.86 154.395  54
   3   3  -7 1609.17 157.197  55
  -3   3   6 10714.7 500.403   9
  -3  -3   6 11875.9 615.415   4
   3  -3  -6 11703.1 664.428  25
  -3   3   5 2130.26 223.357   9
  -3  -3   5 2198.89 255.849   4
  -3   3   4 5135.25 333.833   9
  -3  -3   4 5848.23 424.371   5
   3  -3  -4 5298.56 397.356  23
   3   3  -4 5612.87 382.653  11
  -3  -3   3 1098.37 180.835   5
  -3   3   3 1212.22 162.832   9
   3   3  -3 1152.40 175.797  18
   3  -3  -3 927.995 172.872  20
   3  -3  -3 976.368 168.391  23
   3   3  -3 1236.01 179.736  11
   3   3  -2 24222.0 733.062  11
   3   3  -2 25847.9 732.415   8
   3  -3  -2 23518.7 760.594  23
  -3  -3   2 23911.5 766.164   5
   3  -3  -2 23219.8 768.523  20
   3   3  -2 25174.8 716.224  18
   3   3  -1 3586.30 263.772  18
   3   3  -1 3631.31 270.239   8
  -3   3   1 3495.97 312.984  26
   3  -3  -1 3194.99 279.977  20
   3  -3  -1 2952.92 266.136  23
  -3  -3   1 3105.74 270.424   5
   3   3   0 4934.64 314.387   8
  -3   3   0 5258.62 388.375  26
  -3  -3   0 4882.07 335.316   5
   3   3   0 5415.54 327.932  18
  -3  -3  -1 32.4281 54.9890   5
   3   3   1 7.53937 61.2051  18
   3   3   1 159.534 91.8870  12
   3   3   1 164.633 92.0503  21
   3   3   2 342.380 118.045  18
   3   3   2 311.823 109.671  21
  -3   3  -2 232.132 109.870  26
   3   3   2 259.160 95.7531  12
   3   3   3 624.798 131.193  18
  -3   3  -3 496.025 140.681  26
   3   3   3 663.149 145.420  12
   3   3   3 723.857 139.884  21
  -3   3  -4 38002.0 840.138  51
  -3   3  -4 37020.5 696.577  49
  -3   3  -4 36972.5 753.745  47
  -3   3  -4 37812.1 712.720  43
  -3  -3  -4 37992.7 799.363  27
  -3   3  -5 1159.52 161.592  51
  -3   3  -5 1354.40 144.255  49
  -3   3  -5 1245.43 151.935  47
  -3   3  -5 1188.46 142.048  43
  -3  -3  -5 1253.67 168.900  27
  -3  -3  -5 1158.44 126.060  38
  -3   3  -6 1274.43 167.341  51
  -3   3  -6 1053.68 140.428  49
  -3   3  -6 1057.08 149.172  47
  -3   3  -6 1096.75 141.565  43
  -3  -3  -6 1020.58 119.347  38
  -3   3  -7 10723.8 457.430  51
  -3   3  -7 10731.3 435.699  47
  -3   3  -7 11247.2 418.628  43
  -3  -3  -7 10052.8 360.408  38
  -3   3  -8 16.0277 60.8435  51
  -3   3  -8 15.0016 50.2391  47
  -3   3  -8 34.6284 48.2580  28
  -3  -3  -8-11.2118 48.7071  38
  -3   3  -9 35.1185 55.4324  51
  -3   3  -9-6.76964 60.2270  47
  -3   3  -9 47.9046 48.1877  28
  -3  -3  -9-2.56911 44.3462  38
  -3   3 -10 915.175 96.0321  51
  -3   3 -10 948.694 108.928  47
  -3  -3 -10 1068.31 101.420  38
  -3  -3 -11 2515.55 151.629  51
  -3   3 -11 3719.97 140.618  28
   3   4 -13 18.6884 27.3973  47
  -3   4  13-27.1203 27.1357  42
   3   4 -13-16.1911 21.8294  40
   3   4 -12 1788.29 139.404  47
  -3   4  12 1762.72 115.578  42
   3   4 -12 1772.67 127.844  40
   3   4 -11 1875.47 145.635  32
   3   4 -11 2117.95 179.196  47
  -3   4  11 2436.54 154.996  42
   3   4 -11 2137.41 165.340  40
  -3   4  10 12689.7 435.836  35
  -3   4  10 12883.3 380.010  42
   3   4 -10 12160.0 429.369  40
   3   4  -9 4670.84 259.454  55
  -3   4   9 4774.64 283.446  35
   3   4  -8 1831.20 175.011  55
  -3   4   8 1977.56 159.044  42
  -3   4   8 1871.53 184.867  35
  -3  -4   7 1508.75 153.168  46
  -3   4   7 1471.68 142.271  42
   3   4  -7 1468.40 161.442  55
  -3   4   7 1398.45 157.339  35
  -3   4   6 642.547 108.792  54
  -3  -4   6 650.055 112.704  46
  -3   4   6 673.179 108.218  42
  -3   4   6 818.470 125.279  35
   3   4  -6 798.220 118.740  55
  -3   4   5 24565.5 609.749  54
  -3  -4   5 24451.0 601.956  46
  -3   4   5 24480.2 535.515  42
   3   4  -5 24711.9 618.980  55
  -3   4   5 24352.7 597.846  35
  -3   4   4 680.595 162.449   9
  -3   4   4 696.767 100.845  42
   3  -4  -4 543.571 131.313  25
   3   4  -4 426.791 134.141  13
   3   4  -4 684.463 111.160  55
   3   4  -4 655.947 166.639  11
  -3   4   4 761.790 111.969  54
  -3   4   3 8359.33 476.942   9
  -3  -4   3 8494.27 536.683   5
   3   4  -3 8069.70 492.979  11
   3   4  -2 4746.09 366.598   8
   3   4  -2 4444.39 357.017  11
  -3  -4   2 4595.11 379.088   5
   3  -4  -2 4349.58 378.969  20
   3   4  -1 3148.83 293.570   8
  -3  -4   1 2907.15 293.748   5
   3  -4  -1 2959.93 312.256  20
   3   4   0 9613.21 503.985   8
   3  -4   0 8294.03 495.847  20
  -3  -4   0 8737.04 503.176   5
  -3   4  -1 1194.76 138.250  51
  -3  -4  -1 750.411 154.360   5
   3   4   1 1053.59 172.605   8
  -3   4  -1 1022.83 121.393  45
  -3   4  -1 1220.27 141.073  39
   3  -4   1 798.837 171.466  20
  -3   4  -2 47682.1 856.602  47
  -3   4  -2 47490.4 822.139  45
  -3   4  -2 47569.4 786.439  42
  -3   4  -2 46558.3 781.768  41
  -3   4  -2 49150.4 886.457  39
  -3   4  -3 3800.68 260.393  51
  -3   4  -3 3636.21 220.737  49
  -3   4  -3 3456.58 238.411  47
   3   4   3 3423.58 189.719  29
  -3   4  -3 3174.69 219.778  45
  -3   4  -3 3604.73 226.507  43
  -3  -4  -3 3546.88 256.161  27
  -3   4  -3 3349.52 223.449  41
  -3   4  -3 3480.93 243.534  39
   3   4   4-54.2580 57.8087  29
  -3   4  -4 34.1523 68.1325  51
  -3   4  -4 35.6483 56.0120  49
  -3   4  -4 47.0061 49.3344  47
  -3   4  -4 95.7722 57.7217  45
  -3   4  -4 98.8008 63.6119  43
  -3  -4  -4 68.9284 84.2311  27
  -3   4  -4 119.445 68.8497  41
  -3   4  -4 94.7099 56.3628  39
  -3   4  -5 1131.40 153.205  51
  -3   4  -5 1154.99 139.428  49
  -3   4  -5 914.066 143.630  47
   3   4   5 1015.82 112.354  29
  -3   4  -5 1138.59 132.384  45
  -3   4  -5 1260.68 145.428  43
  -3   4  -5 1064.75 135.189  39
  -3   4  -6 403.084 92.9993  51
  -3   4  -6 335.544 89.7886  49
  -3   4  -6 298.787 87.8007  47
  -3   4  -6 291.224 93.7878  45
   3   4   6 401.301 73.6409  29
  -3   4  -6 344.750 87.4671  43
  -3   4  -7 14027.8 466.644  51
  -3   4  -7 15518.5 471.919  49
  -3   4  -7 14757.7 502.162  47
   3   4   7 14920.3 374.231  29
  -3   4  -7 15628.7 478.971  43
  -3   4  -8 1714.89 155.816  51
  -3   4  -8 1590.09 165.715  47
   3   4   8 1734.67 124.746  29
  -3   4  -8 2020.16 136.313  28
  -3   4  -9 184.226 51.5691  51
  -3   4  -9 91.3067 47.1161  47
  -3   4  -9 208.900 55.7523  28
  -3  -4 -10 4393.98 175.025  31
  -3   4 -10 5912.65 238.296  47
   3   5 -12 29.7400 23.8675  47
  -3   5  12 4.41867 26.3673  42
   3   5 -12 18.7191 21.7618  40
   3   5 -11 193.738 46.8181  32
   3   5 -11 168.384 48.8179  47
  -3   5  11 222.319 52.1617  42
   3   5 -11 176.198 48.2349  40
   3   5 -10 667.156 103.415  47
  -3   5  10 679.118 87.0657  42
   3   5 -10 691.555 94.2636  40
  -3   5   9 9833.46 321.578  42
   3   5  -9 9824.47 341.231  55
   3   5  -8 3159.60 216.654  33
  -3   5   8 3573.33 210.247  42
   3   5  -8 3831.33 228.044  55
  -3   5   8 3438.96 226.398  35
   3   5  -7 163.342 70.9656  55
  -3   5   7 144.912 59.5151  42
  -3   5   7 141.024 59.6923  35
  -3   5   6 18184.0 511.570  35
  -3  -5   6 18395.9 516.527  46
  -3   5   6 18666.5 489.420  42
   3   5  -6 19153.9 544.668  55
   3   5  -5 41.0074 57.4566  55
  -3  -5   5-69.4460 62.0030  46
  -3   5   5 5.13529 48.9337  42
  -3   5   4 23.0497 59.4269  48
  -3  -5   4-52.4827 58.8782  46
  -3   5   4-36.6301 50.3718  42
   3   5  -4-65.7197 70.8836  55
  -3   5   4 1.66087 53.2469  54
  -3   5   3 9.67696 50.0471  48
  -3   5   3 14.2716 51.3205  42
   3   5  -3-49.4483 62.8926  55
  -3   5   3 91.6615 64.3067  54
  -3   5   2 21063.2 604.445  48
   3   5  -2 20669.3 517.513  29
  -3   5   2 21548.5 567.984  45
  -3   5   2 20592.1 522.884  42
  -3   5   1 2965.51 232.691  48
   3   5  -1 2666.60 201.830  29
  -3   5   1 2602.56 204.883  45
  -3   5   1 2298.86 222.688  42
  -3   5   0 545.001 108.300  51
  -3   5   0 413.875 86.1802  50
  -3   5   0 511.882 104.636  48
   3   5   0 423.900 85.5280  29
  -3   5   0 462.325 100.774  45
  -3   5   0 322.613 86.9466  42
  -3   5   0 537.672 108.114  39
  -3   5  -1 521.133 116.855  51
  -3   5  -1 439.453 92.0983  50
  -3  -5  -1 566.549 107.461  31
   3   5   1 406.504 90.2289  29
  -3   5  -1 492.473 99.4280  45
  -3   5  -1 558.261 108.609  42
  -3   5  -1 401.770 87.2536  41
  -3   5  -1 564.216 113.522  39
  -3   5  -2 363.613 95.7116  51
  -3  -5  -2 320.482 87.0782  31
  -3   5  -2 206.873 73.6398  47
   3   5   2 255.478 70.4943  29
  -3   5  -2 309.952 91.8560  45
  -3   5  -2 376.826 93.4733  41
  -3   5  -2 389.845 95.1455  39
  -3   5  -3 6242.93 333.058  51
  -3   5  -3 6277.54 301.908  49
  -3   5  -3 6113.77 325.109  48
   3   5   3 6193.90 268.863  29
  -3   5  -3 6385.91 319.604  45
  -3   5  -3 6499.46 305.710  43
  -3   5  -3 5969.01 294.041  41
  -3   5  -3 6629.31 333.473  39
  -3   5  -3 6308.09 324.438  47
  -3   5  -4 11320.5 437.679  51
  -3   5  -4 11238.4 403.169  49
  -3   5  -4 10447.7 403.416  48
  -3   5  -4 10634.5 424.210  47
   3   5   4 10886.6 348.041  29
  -3   5  -4 10544.1 405.389  45
  -3   5  -4 11164.4 402.861  43
  -3   5  -4 11045.0 402.258  41
  -3   5  -4 10929.5 414.757  39
  -3   5  -5 3764.75 245.208  51
  -3   5  -5 3977.81 241.053  49
  -3   5  -5 3455.21 247.538  47
   3   5   5 3757.02 203.725  29
  -3   5  -5 3945.15 239.905  45
  -3   5  -5 4023.11 241.968  43
  -3   5  -6 196.397 71.3916  51
  -3   5  -6 366.860 86.7340  49
  -3   5  -6 285.625 83.6353  47
   3   5   6 247.908 69.1642  29
  -3   5  -6 301.488 80.8973  43
  -3   5  -7 175.300 58.0402  51
  -3   5  -7 249.632 80.5826  49
  -3   5  -7 147.660 63.2767  47
   3   5   7 163.853 50.0239  29
  -3   5  -7 96.3819 52.7130  43
  -3   5  -8 126.597 54.8496  47
   3   5   8 78.7732 46.8625  29
  -3   5  -9 783.020 88.9336  47
  -3  -5  -9 606.358 65.6799  31
   3   6 -10 2337.50 128.773  32
   3   6 -10 2522.23 128.440  47
  -3   6  10 2537.71 121.946  42
   3   6 -10 2365.88 132.337  40
   3   6  -9 74.1275 33.8018  33
   3   6  -9 163.584 45.4423  47
  -3   6   9 198.884 54.4714  42
   3   6  -9 157.202 45.0630  40
   3   6  -8 4717.90 223.432  33
   3   6  -8 4584.28 224.613  47
  -3   6   8 4562.81 208.839  42
   3   6  -7 699.851 107.547  33
   3   6  -7 861.802 107.435  47
  -3   6   7 876.297 107.499  42
   3   6  -7 940.873 112.123  55
  -3   6   6 208.479 60.4346  45
  -3   6   6 323.335 74.5786  42
   3   6  -6 298.563 76.5282  55
  -3   6   5 363.239 82.9755  45
  -3   6   5 463.444 92.0561  42
   3   6  -5 560.712 99.6337  55
  -3  -6   4 2328.04 186.703  46
  -3   6   4 2015.76 168.643  45
  -3   6   4 2277.58 180.548  42
   3   6  -4 2390.05 197.662  55
  -3   6   3 14.7394 49.3572  48
  -3   6   3 47.2622 46.5997  45
  -3   6   3 1.19479 55.7235  42
   3   6  -3 27.4994 59.0833  55
  -3   6   2 2993.07 202.192  50
  -3   6   2 3540.87 249.460  48
  -3   6   2 3209.33 219.799  45
  -3   6   2 3273.56 216.447  42
   3   6  -2 2905.05 234.680  55
  -3   6   1 77.7880 63.1438  50
  -3   6   1 24.5523 57.2318  48
   3   6  -1 44.5773 57.4093  29
  -3   6   1 28.5500 51.4493  45
  -3   6   1-16.0276 60.7944  42
  -3   6   0 26470.2 623.681  50
  -3   6   0 27226.6 683.952  48
   3   6   0 27302.1 581.531  29
  -3   6   0 27893.6 650.793  45
  -3   6   0 26768.7 616.322  42
  -3   6  -1 1190.85 140.467  50
  -3   6  -1 1349.86 156.999  48
  -3   6  -1 1194.66 139.528  45
   3   6   1 1145.88 123.197  29
  -3   6  -1 987.626 129.147  41
  -3   6  -2 17162.1 520.333  48
   3   6   2 17411.1 451.288  29
  -3   6  -2 18090.2 513.399  45
  -3   6  -2 16982.7 482.917  41
  -3   6  -3 35.8530 47.7704  49
  -3   6  -3 5.62422 48.8411  48
   3   6   3 26.9786 51.1131  29
  -3   6  -3 7.46542 47.8206  45
  -3   6  -3-24.8613 45.4684  43
  -3   6  -3-49.3423 74.0829  41
  -3   6  -4 5346.09 256.033  49
  -3   6  -4 4808.11 245.926  48
  -3  -6  -4 4234.20 226.222  31
   3   6   4 5240.57 234.330  29
  -3   6  -4 5307.74 268.903  45
  -3   6  -4 5122.33 247.613  43
  -3   6  -4 5371.97 258.218  41
  -3   6  -4 4051.86 250.240  47
  -3   6  -5 25.1431 45.9571  49
  -3  -6  -5 26.6853 47.2424  31
  -3   6  -5 78.0487 51.4082  47
   3   6   5 2.95636 41.3881  29
  -3   6  -5 10.6468 45.2293  43
  -3   6  -6 59.8749 51.3810  49
  -3  -6  -6 56.5273 55.1915  31
  -3   6  -6 68.9666 43.8901  47
   3   6   6 62.3259 39.8813  29
  -3   6  -6-0.89481 38.5145  43
  -3  -6  -7 500.980 68.9001  31
  -3   6  -7 565.328 79.5719  47
   3   6   7 707.178 73.9897  29
  -3   7   8 346.908 49.6310  42
   3   7  -7 1585.71 116.254  33
  -3   7   7 1744.87 109.811  42
   3   7  -7 1915.75 113.488  55
   3   7  -6 3431.13 187.140  33
  -3   7   6 3762.84 177.733  42
  -3   7   5 7795.88 273.221  42
   3   7  -5 8135.82 278.293  55
   3   7  -4 51.4486 44.5214  55
  -3   7   4 22.6797 36.4381  45
  -3   7   4 15.6190 45.6773  42
  -3   7   3 1590.26 133.090  50
  -3  -7   3 1636.18 130.229  46
  -3   7   3 1543.10 130.497  45
  -3   7   3 1798.11 143.690  42
   3   7  -3 1766.85 145.330  55
  -3   7   2 2729.44 176.830  50
  -3  -7   2 2513.88 166.524  46
  -3   7   2 2962.05 181.477  45
  -3   7   2 3315.62 197.389  42
  -3   7   2 3132.61 192.152  41
   3   7  -2 3366.35 202.008  55
  -3   7   1 11077.6 353.313  45
  -3   7   1 11967.0 371.500  42
  -3   7   1 11356.0 363.319  41
   3   7  -1 11387.4 368.637  55
  -3   7   0 1280.81 125.401  45
  -3   7   0 1303.66 125.845  41
   3   7   0 1184.34 124.537  55
   3   7   1 106.912 51.8046  29
  -3   7  -1 46.0921 44.6855  45
  -3   7  -1 1.97889 39.8190  41
  -3   7  -2 166.404 52.0443  49
   3   7   2 128.472 53.8619  29
  -3   7  -2 195.076 57.7628  45
  -3   7  -2 175.005 53.9327  41
  -3   7  -3 8517.62 274.463  49
   3   7   3 8428.63 261.942  29
  -3   7  -3 9188.30 299.128  45
  -3   7  -3 7836.00 241.022  43
  -3   7  -3 9132.46 285.669  41
  -3   7  -4 49.3079 43.3936  49
   3   7   4 128.128 47.7209  29
  -3   7  -4 126.899 40.6663  43
  -3   7  -5 196.800 50.3788  49
   3   7   5 102.787 38.2194  29
   3   8  -3 151.442 41.9187  33
  -3   8   3 285.894 46.9653  41
  -3   8   2 832.910 72.2630  41
   3   8  -2 700.199 66.9166  55
  -3   8   1 1785.46 103.723  41
   3   8  -1 1540.83 96.2644  55
  -3   8   0 4713.90 162.702  41
   3   8   0 3887.79 152.705  55
  -4   0  14 450.978 52.6129  37
  -4   0  11 23.9791 58.6211  34
  -4   0  10 25068.2 599.819  34
  -4   0  10 25426.9 632.062  35
  -4   0  10 25572.3 636.968  52
  -4   0   9-69.8754 76.9221  34
  -4   0   9-0.82355 52.5130  52
  -4   0   8 33412.6 733.183  52
  -4   0   7 8.22824 51.6060  52
  -4   0   7-19.3489 83.8373  22
  -4   0   7 51.8944 53.2485  36
   4   0  -6 12845.9 659.274  23
  -4   0   6 12973.8 654.216  22
   4   0  -5-18.9177 51.2196  23
  -4   0   5-4.82339 59.7479  22
   4   0  -4 221.568 84.2416  18
   4   0  -4 179.726 95.7352  23
   4   0  -4 373.039 102.692  20
   4   0  -3 30.3461 54.6464  18
   4   0  -3 27.5905 57.0753  20
   4   0  -2 161938. 1861.43  18
   4   0  -1 57.6142 86.7860  18
   4   0   0 34249.1 884.980  18
   4   0   0 29853.9 733.545  21
   4   0   1 33.2497 58.4250  18
   4   0   1-8.76806 61.1600  21
   4   0   2 54.7123 58.1204  18
   4   0   2-2.03776 67.7076  21
   4   0   3-38.5951 76.6227  18
   4   0   3-9.12952 70.8950  21
  -4   0  -3-9.46799 51.7856  53
  -4   0  -4 26444.4 577.664  38
  -4   0  -4 26724.0 549.609  53
  -4   0  -5 83.4500 83.3579  51
  -4   0  -5 29.6794 62.3340  53
  -4   0  -5 25.1703 66.5004  28
  -4   0  -5-3.99975 58.9862  38
  -4   0  -6 5399.52 379.375  51
  -4   0  -6 6215.73 286.915  38
  -4   0  -6 6182.01 280.389  53
  -4   0  -7 9.72329 68.5620  51
  -4   0  -7 31.2467 55.9478  38
  -4   0  -7 186.389 76.5098  53
  -4   0  -8 11551.5 486.277  51
  -4   0  -8 12607.6 402.434  38
  -4   0  -8 12719.6 374.089  53
  -4   0  -9-10.4991 58.8566  51
  -4   0  -9 73.9947 48.1555  38
  -4   0  -9 83.1659 53.5607  53
  -4   0 -10 7772.17 292.865  51
  -4   0 -10 8062.77 243.063  38
  -4   0 -10 8660.37 241.700  53
  -4   1  14 2942.63 115.681  37
  -4  -1  14 2820.52 125.367  37
  -4   1  13 2339.25 130.140  37
  -4  -1  12 3163.63 182.850  34
  -4   1  12 3729.37 191.343  37
  -4   1  12 3511.32 200.704  35
  -4   1  11 138.962 58.1396  34
  -4  -1  11 115.296 64.3006  34
  -4   1  11 143.016 66.0982  35
  -4   1  10 1862.98 168.288  34
  -4  -1  10 1812.13 170.226  52
  -4   1  10 1890.75 183.493  35
  -4   1   9 2759.44 207.613  34
  -4   1   9 2718.48 225.317  35
  -4   1   9 2773.41 211.634  52
  -4  -1   9 2992.22 228.802  52
  -4   1   8 31178.4 670.815  34
  -4  -1   8 31622.2 723.135  52
  -4   1   8 31758.2 699.955  52
  -4   1   7 2280.71 182.715  34
  -4  -1   7 2403.26 191.212  46
   4   1  -7 2417.44 176.154  55
  -4  -1   7 2233.72 185.007  36
  -4   1   7 2045.00 175.111  54
  -4   1   7 2215.72 176.966  52
  -4  -1   7 2176.20 191.229  52
  -4   1   7 2341.98 196.160  36
  -4  -1   6 34960.2 995.329   4
   4  -1  -6 31307.9 1062.32  23
  -4   1   6 32437.3 1057.43  22
  -4  -1   5 92.8535 74.3457   4
   4  -1  -5-39.4805 56.7276  23
   4   1  -5-14.5127 50.0750  23
  -4   1   5-32.7976 52.6821  22
   4  -1  -4 505.262 129.126  18
   4   1  -4 676.714 134.754  18
   4  -1  -4 495.462 144.610  23
   4   1  -4 595.843 141.362  23
  -4   1   4 565.860 148.290  22
   4  -1  -4 542.710 128.444  20
   4  -1  -3 3039.29 285.763  20
  -4   1   3 2958.64 305.799  22
   4  -1  -3 3082.39 262.585  18
   4   1  -3 3582.90 290.082  18
   4  -1  -2 5484.14 336.372  18
   4   1  -2 5951.67 368.596  18
   4  -1  -1 167.750 81.2403  18
   4   1  -1 173.225 83.9599  18
   4   1   0 18959.5 678.690  18
   4  -1   0 17647.5 628.823  18
   4   1   0 17274.5 575.853  21
   4   1   1 1405.21 195.931  18
   4  -1   1 1437.47 186.358  18
   4   1   1 1333.25 165.647  21
   4   1   2 21530.3 721.862  18
   4  -1   2 20346.1 660.027  18
   4   1   2 20339.4 643.804  21
  -4   1  -3-43.8660 66.8199  51
   4  -1   3 134.072 79.8811  18
  -4   1  -3-0.12410 63.4310  47
  -4  -1  -3 15.0912 59.8137  53
  -4  -1  -3 176.201 73.6169  38
  -4   1  -3-2.36064 62.1757  53
  -4   1  -4 1512.49 192.511  51
  -4   1  -4 1429.37 178.948  47
  -4   1  -4 1461.26 132.216  53
  -4   1  -4 1533.62 136.390  28
  -4  -1  -4 1524.71 152.159  38
  -4  -1  -4 1604.22 143.688  53
  -4   1  -5 301.773 106.612  51
  -4   1  -5 337.674 111.499  47
  -4   1  -5 319.769 77.9012  28
  -4  -1  -5 351.431 84.9528  38
  -4  -1  -5 332.619 79.5573  53
  -4   1  -5 300.958 80.0581  53
  -4   1  -6 1325.52 190.793  51
  -4   1  -6 1216.51 170.796  47
  -4   1  -6 1470.32 150.346  28
  -4  -1  -6 1503.71 156.085  38
  -4  -1  -6 1592.76 151.689  53
  -4   1  -6 1320.13 132.652  53
  -4   1  -7 145.309 88.7246  51
  -4   1  -7 171.782 72.2758  28
  -4  -1  -7 102.562 65.0653  38
  -4  -1  -7 207.175 76.0864  53
  -4   1  -7 217.347 81.1924  53
  -4   1  -8 139.876 78.8928  51
  -4  -1  -8 25.9138 59.4669  51
  -4  -1  -8-19.7771 56.9186  38
  -4  -1  -8 73.0570 66.6096  53
  -4   1  -8-46.0001 57.1392  53
  -4   1  -9-11.4633 46.6840  51
  -4  -1  -9 26.2352 51.7441  51
  -4  -1  -9 65.9592 51.2609  53
  -4  -1  -9-7.14785 43.0575  38
  -4   1  -9 48.3179 57.2174  53
  -4  -1 -10 2414.09 127.930  53
  -4   1 -10 2127.62 145.297  51
  -4  -1 -10 1956.75 148.314  51
  -4  -1 -10 2460.68 135.776  38
  -4   1 -10 2450.67 130.356  53
   4   2 -13 2556.31 124.875  40
  -4  -2  12 955.790 102.439  34
   4   2 -12 1024.61 101.558  40
  -4   2  12 1066.11 111.964  35
   4   2 -11 3846.84 212.216  40
  -4   2  11 4036.14 243.668  35
   4   2 -10 26975.7 612.588  40
  -4   2  10 27344.7 680.824  35
  -4  -2  10 27253.3 623.639  52
   4   2  -9 4629.62 266.468  40
  -4   2   9 4781.11 303.599  35
  -4  -2   9 4884.71 281.104  52
  -4   2   9 4717.57 262.300  34
  -4   2   8 6882.97 316.396  34
  -4  -2   8 6990.61 338.731  46
   4   2  -8 7041.64 312.780  55
  -4   2   8 7056.01 364.752  35
  -4   2   8 7162.20 327.700  54
  -4   2   8 6882.77 317.329  52
  -4  -2   8 6589.89 334.703  52
  -4  -2   7 3547.63 252.210  52
  -4  -2   7 3417.39 233.092  46
   4   2  -7 3801.16 228.115  55
  -4   2   7 3552.06 228.059  34
  -4   2   7 3616.40 233.323  54
  -4   2   7 3677.96 226.986  52
  -4  -2   6 3222.71 223.110  46
  -4  -2   6 3204.35 238.659  52
   4   2  -6 3340.13 208.222  55
  -4   2   6 3277.56 217.632  54
  -4   2   6 3405.37 217.243  34
  -4  -2   5 664.253 159.735   4
   4  -2  -5 550.576 148.180  23
  -4   2   5 816.127 182.762  22
   4  -2  -4 1092.98 197.056  23
  -4   2   4 971.113 185.490  22
   4  -2  -4 897.563 178.440  20
   4   2  -4 1350.60 207.394  18
  -4   2   3 1890.16 234.239  26
   4  -2  -3 2011.15 256.576  23
  -4   2   3 2146.13 260.895  22
   4  -2  -3 2098.43 252.365  20
   4   2  -3 2082.69 236.051  18
   4   2  -2 29296.6 846.082  18
   4  -2  -2 25420.5 859.161  20
  -4   2   2 25193.2 873.329  26
  -4   2   2 28397.3 922.291  22
  -4   2   1 32602.7 1023.08  26
  -4   2   1 33170.0 994.332  22
   4   2   0 41863.1 1016.47  18
   4   2   0 41899.0 977.629  21
   4   2   1 8760.82 487.622  18
   4   2   1 8724.65 452.793  21
  -4   2  -2 16614.5 537.394  51
  -4  -2  -2 16677.7 464.265  31
  -4   2  -2 16660.8 555.333  47
  -4  -2  -2 17829.0 481.080  38
  -4   2  -2 18094.2 545.547  54
  -4  -2  -2 17378.4 444.094  53
  -4   2  -3 29076.8 751.383  51
  -4   2  -3 28803.8 731.513  47
  -4  -2  -3 30272.3 638.312  38
  -4  -2  -3 28883.6 580.911  53
  -4   2  -4 4423.51 305.935  51
  -4   2  -4 4212.78 299.032  47
  -4  -2  -4 4376.12 253.658  38
  -4   2  -4 4408.08 279.302  54
  -4  -2  -4 4447.08 237.048  53
  -4   2  -5 883.886 154.754  51
  -4   2  -5 741.129 131.877  47
  -4  -2  -5 795.108 118.497  38
  -4  -2  -5 777.933 114.297  53
  -4   2  -6 10340.1 467.153  51
  -4   2  -6 10065.0 441.733  47
  -4   2  -6 10479.2 346.698  28
  -4  -2  -6 10631.9 384.265  38
  -4  -2  -6 10513.3 359.129  53
  -4   2  -6 10044.8 332.352  53
  -4   2  -7 4923.01 310.708  51
  -4   2  -7 4338.67 287.938  47
  -4   2  -7 5015.82 238.406  28
  -4  -2  -7 4931.26 262.525  38
  -4  -2  -7 4970.37 239.596  53
  -4   2  -7 5126.17 233.284  53
  -4   2  -8 2793.64 216.877  51
  -4   2  -8 2699.90 169.386  28
  -4  -2  -8 2638.21 184.248  38
  -4  -2  -8 2553.17 162.354  53
  -4   2  -8 2937.98 166.035  53
  -4   2  -9 173.060 59.7334  51
  -4  -2  -9 159.635 67.4365  51
  -4  -2  -9-10.3029 31.4030  44
  -4  -2  -9 52.9941 41.1005  38
  -4   2  -9 111.961 54.2202  53
  -4   2 -10 3135.16 152.197  51
  -4  -2 -10 2809.72 160.317  51
   4   3 -13 2407.16 129.362  47
  -4   3  13 2353.94 106.812  42
   4   3 -13 2732.77 118.967  40
  -4   3  12 4152.55 170.305  42
   4   3 -12 4326.78 192.171  40
  -4   3  12 3973.74 199.492  35
  -4   3  11 1490.40 121.926  42
   4   3 -11 1723.64 142.148  40
  -4   3  11 1850.00 157.837  35
  -4   3  10 14.7676 46.2298  42
   4   3 -10 51.2853 55.0457  40
  -4   3  10 34.6337 52.7381  35
  -4   3   9 9952.19 330.421  42
   4   3  -9 10766.4 391.273  55
  -4   3   9 10468.1 424.423  35
  -4  -3   8 22756.6 603.170  46
  -4   3   8 22271.0 497.713  42
   4   3  -8 23497.0 585.167  55
  -4   3   8 22710.8 598.706  54
  -4   3   8 24016.6 652.817  35
  -4  -3   8 22399.0 594.527  52
  -4  -3   7 792.788 129.945  52
  -4  -3   7 822.628 125.932  46
   4   3  -7 997.599 128.720  55
  -4   3   7 859.034 105.845  42
  -4   3   7 1058.19 136.510  54
  -4   3   7 892.712 136.859  35
  -4  -3   6 9006.55 385.383  46
  -4   3   6 9406.31 387.959  54
   4   3  -6 9157.03 362.861  55
  -4   3   6 9241.88 403.998  35
  -4  -3   6 8913.72 392.117  52
  -4   3   5 1806.66 171.665  54
  -4  -3   5 1628.17 165.627  46
   4   3  -5 1825.38 165.206  55
  -4  -3   5 1584.98 176.314  52
  -4  -3   4 2038.43 166.979  30
  -4  -3   4 2142.70 186.484  46
   4   3  -4 2256.80 180.617  55
  -4  -3   4 1978.21 190.300  52
  -4   3   4 2286.91 190.378  54
   4   3  -3 322.821 121.597  18
  -4  -3   3 367.711 82.7257  30
  -4  -3   3 279.499 82.7191  46
  -4   3   3 411.463 93.9163  39
   4  -3  -3 291.309 107.260  23
   4   3  -3 351.129 123.079  11
  -4   3   3 289.559 78.0998  54
   4  -3  -2 15375.9 723.362  20
  -4  -3   2 18133.1 505.345  31
  -4  -3   2 16602.7 487.571  30
  -4   3   2 17943.0 798.366  26
  -4   3   2 17598.2 517.899  39
  -4  -3   2 18945.4 794.725   5
   4  -3  -2 15169.6 719.508  23
  -4   3   2 18827.0 774.330  22
  -4   3   2 18499.7 526.949  54
   4   3  -2 18799.0 715.841  18
   4   3  -1 2525.35 258.798  18
  -4  -3   1 3013.79 224.359  31
  -4   3   1 2246.87 291.226  26
  -4   3   1 2432.19 198.436  39
  -4   3   1 2343.29 187.754  54
  -4   3   0 13972.2 468.953  51
  -4   3   0 14270.5 517.102  47
  -4  -3   0 14601.5 443.060  31
  -4   3   0 14345.6 433.728  45
  -4   3   0 14906.0 492.725  39
  -4   3   0 15044.7 475.079  54
  -4   3  -1 675.306 117.118  51
  -4  -3  -1 812.718 124.668  31
  -4   3  -1 657.803 128.749  47
  -4  -3  -1 587.997 108.008  38
  -4   3  -1 626.454 107.079  54
  -4   3  -2 1598.14 177.203  51
  -4   3  -2 1219.23 175.742  47
  -4  -3  -2 1517.52 154.277  31
  -4   3  -2 1566.58 162.623  54
  -4  -3  -2 1452.68 154.619  38
  -4   3  -3 539.157 119.309  51
  -4  -3  -3 440.278 94.8981  31
  -4   3  -3 369.856 104.622  47
  -4   3  -3 533.999 103.615  43
  -4  -3  -3 405.986 97.0169  38
  -4   3  -4 2513.25 229.102  51
  -4   3  -4 1957.75 221.120  47
  -4  -3  -4 2155.14 189.810  38
  -4   3  -5 5043.80 315.417  51
  -4   3  -5 4623.47 313.645  47
  -4  -3  -5 4554.85 264.079  38
  -4   3  -6 47.1350 60.8414  51
  -4   3  -6 61.0042 57.8667  47
  -4  -3  -6-54.7996 44.3481  44
  -4  -3  -6-79.8767 59.7043  38
  -4   3  -7 131.946 62.8077  51
  -4  -3  -7 74.8380 62.4173  31
  -4   3  -7 58.2841 61.7862  47
  -4   3  -7 45.8186 37.3081  39
  -4  -3  -7-35.4732 48.0905  38
  -4   3  -8 1878.33 155.744  51
  -4   3  -8 1645.70 171.845  47
  -4  -3  -8 2066.25 149.656  31
  -4   3  -8 2026.71 123.918  28
  -4  -3  -8 1830.43 142.687  38
  -4   3  -9 2417.30 144.769  51
  -4  -3  -9 2132.60 151.248  51
  -4  -3  -9 2075.07 122.312  31
   4   4 -12 225.347 44.9615  47
  -4   4  12 344.431 52.0463  42
   4   4 -12 353.868 53.2986  40
  -4   4  11 12512.2 303.623  42
   4   4 -11 12579.9 345.442  40
  -4   4  11 13017.7 365.146  35
  -4   4  10 7533.68 262.332  42
   4   4 -10 7953.24 314.623  40
  -4   4  10 8484.52 329.918  35
  -4   4   9 64.7534 48.7683  42
  -4   4   9 86.9574 55.6434  35
   4   4  -9 151.931 64.0308  55
  -4   4   8 905.657 125.690  35
  -4  -4   8 804.917 117.780  46
  -4   4   8 828.801 112.356  42
   4   4  -8 842.399 116.997  55
  -4  -4   7 5876.48 305.340  46
  -4   4   7 4857.60 255.470  42
   4   4  -7 6057.47 295.872  55
  -4   4   7 5648.11 299.788  54
  -4   4   7 5734.90 308.116  35
  -4  -4   6 8311.53 366.575  46
  -4   4   6 7136.16 294.175  42
   4   4  -6 8241.28 351.208  55
  -4   4   6 8270.69 366.408  54
  -4   4   6 7883.16 360.135  35
  -4  -4   5 528.425 104.286  52
  -4  -4   5 617.790 115.357  46
  -4   4   5 495.733 95.6412  42
   4   4  -5 709.247 115.480  55
  -4   4   5 671.370 109.199  54
  -4   4   5 668.571 113.063  35
  -4  -4   4 5586.36 321.759  52
  -4  -4   4 6382.80 329.593  46
  -4   4   4 5871.12 274.809  42
   4   4  -4 7047.30 323.748  55
  -4   4   4 6707.53 326.227  54
  -4  -4   3 260.614 83.2765  30
  -4   4   3 55.1699 48.8409  42
   4   4  -3 163.998 73.8344  55
  -4   4   3 286.819 90.7353  54
  -4   4   2 3237.52 233.788  51
  -4  -4   2 3023.17 214.139  30
  -4   4   2 3237.91 241.735  39
   4   4  -2 2832.23 213.325  55
  -4   4   2 3433.27 232.481  54
  -4   4   1 2726.84 217.761  51
  -4  -4   1 3023.00 213.770  31
  -4   4   1 2486.98 200.237  45
  -4   4   1 2737.64 224.536  39
   4   4  -1 2651.79 201.032  55
  -4   4   1 2851.08 206.598  54
  -4   4   0 8635.71 384.897  51
  -4  -4   0 8829.18 357.235  31
  -4   4   0 7925.25 353.184  45
  -4   4   0 8076.13 381.110  39
  -4   4   0 8469.30 352.744  54
  -4   4  -1 31745.4 744.321  51
  -4  -4  -1 31210.4 671.961  31
  -4   4  -1 30004.4 677.684  45
  -4   4  -1 30566.0 750.320  39
  -4   4  -2 28286.7 707.355  51
  -4  -4  -2 27084.4 629.390  31
  -4   4  -2 27344.7 635.991  45
  -4   4  -2 27664.6 711.844  39
  -4   4  -3 2274.41 209.085  51
  -4   4  -3 1664.05 194.695  47
  -4  -4  -3 1922.43 174.402  31
  -4   4  -3 1983.99 172.628  45
  -4   4  -3 2091.08 175.190  43
  -4   4  -3 1964.97 192.647  39
  -4  -4  -3 1444.84 160.208  38
  -4   4  -4 65.1162 67.2595  51
  -4   4  -4 120.170 81.0621  49
  -4  -4  -4 21.7750 66.6225  31
  -4   4  -4 106.919 65.7117  47
  -4   4  -4 32.8028 53.9976  43
  -4   4  -4 88.2881 59.4469  39
  -4  -4  -4-40.3744 58.3133  38
  -4   4  -5 8166.50 367.016  51
  -4   4  -5 7318.82 379.493  47
  -4  -4  -5 7180.10 315.279  31
  -4   4  -5 7547.44 341.164  39
  -4  -4  -5 6677.32 301.660  38
  -4   4  -6 5973.00 293.379  51
  -4   4  -6 5218.31 299.547  47
  -4  -4  -6 5531.60 261.030  31
  -4   4  -6 5341.41 263.916  39
  -4  -4  -6 5072.80 245.684  38
  -4   4  -7-0.54749 45.3112  51
  -4  -4  -7 58.1541 54.3108  31
  -4   4  -7 18.1006 52.3070  47
  -4  -4  -7-52.9106 46.8217  38
  -4   4  -8 138.840 45.5715  51
  -4  -4  -8 127.072 52.6896  31
   4   5 -11 1853.31 115.410  47
  -4   5  11 1745.04 95.5975  42
   4   5 -11 1790.63 107.113  40
   4   5 -10 446.144 72.5589  47
  -4   5  10 395.973 60.7109  42
   4   5 -10 511.871 75.3636  40
   4   5  -9 4446.10 207.956  55
  -4   5   9 4093.35 208.492  35
  -4  -5   8 4186.30 213.049  46
  -4   5   8 3908.06 202.358  42
  -4   5   8 4089.05 221.234  35
  -4  -5   7 934.105 115.829  46
  -4   5   7 784.854 105.803  42
   4   5  -7 986.793 117.918  55
  -4   5   7 951.234 118.737  35
  -4  -5   6 8132.65 341.247  46
  -4   5   6 7894.26 309.013  42
   4   5  -6 8607.58 344.475  55
  -4   5   6 7547.63 311.015  35
  -4  -5   5 294.045 89.5780  46
  -4   5   5 143.427 77.6891  42
   4   5  -5 194.511 77.9012  55
  -4   5   5 181.624 69.5729  54
  -4   5   4 740.852 114.100  48
  -4  -5   4 773.120 123.788  46
  -4   5   4 607.926 106.485  45
  -4   5   4 644.184 107.200  42
   4   5  -4 811.419 120.175  55
  -4   5   4 734.072 107.462  54
  -4   5   3 8846.05 386.576  48
  -4  -5   3 8628.25 379.589  46
  -4   5   3 8993.95 372.853  45
  -4   5   3 9457.07 367.293  54
  -4   5   3 8013.00 324.333  42
   4   5  -3 9308.79 381.880  55
  -4   5   2 3387.66 247.405  48
  -4  -5   2 3386.41 210.196  30
  -4   5   2 3433.88 233.176  45
  -4   5   2 2823.91 202.115  42
   4   5  -2 3373.93 231.058  55
  -4   5   2 3350.88 212.554  54
  -4  -5   1 4233.35 245.790  30
  -4   5   1 4481.07 268.693  45
  -4   5   1 4343.26 251.519  42
   4   5  -1 4290.79 255.014  55
  -4   5   0 3533.51 254.165  51
  -4  -5   0 3498.62 226.110  31
  -4   5   0 3079.66 221.743  45
  -4   5   0 2933.25 199.726  42
  -4   5   0 2625.64 193.742  41
  -4   5   0 3324.72 251.372  39
  -4  -5  -1 1382.77 153.601  31
  -4   5  -1 1380.47 147.755  45
  -4   5  -1 1102.55 126.131  41
  -4   5  -1 1509.94 171.105  39
  -4   5  -1 1520.05 166.603  51
  -4   5  -2 233.392 78.8380  51
  -4  -5  -2 299.337 87.9251  31
  -4   5  -2 210.885 69.0529  45
  -4   5  -2 163.760 56.9637  41
  -4   5  -2 290.454 83.7333  39
  -4   5  -3 110.836 70.8235  51
  -4   5  -3 38.1269 51.9546  49
  -4   5  -3 152.544 65.1063  48
  -4  -5  -3 121.678 68.5013  31
  -4   5  -3 119.072 71.4681  47
  -4   5  -3 49.7816 45.5946  45
  -4   5  -3 112.471 56.2376  43
  -4   5  -3 81.3340 52.7710  41
  -4   5  -3 164.465 68.4184  39
  -4   5  -4 122.427 57.0949  51
  -4   5  -4 155.839 61.9799  49
  -4   5  -4 66.0725 45.0445  48
  -4  -5  -4 25.0915 54.9109  31
  -4   5  -4-35.5194 64.4454  47
  -4   5  -4 48.5305 49.2984  45
  -4   5  -4 71.2868 60.7369  43
  -4   5  -4 84.4106 51.9636  39
  -4   5  -5 2332.22 173.516  51
  -4   5  -5 1729.40 175.663  47
  -4  -5  -5 1915.67 151.984  31
  -4   5  -5 1984.14 149.734  39
  -4   5  -6 4617.88 218.050  51
  -4  -5  -6 4076.17 196.767  31
  -4   5  -7 76.1212 40.6234  51
  -4  -5  -7 64.1926 40.0176  31
  -4  -5  -7 33.0613 39.4474  30
  -4   6   9 255.123 46.3130  42
   4   6  -9 159.217 38.9650  40
  -4   6   8 2161.42 128.514  42
   4   6  -8 2639.75 141.845  55
   4   6  -7 74.6606 39.8189  33
  -4   6   7 35.5168 33.9754  45
  -4   6   7-24.2716 38.2160  42
   4   6  -7 71.2282 45.3760  55
  -4  -6   6 12356.2 346.515  46
  -4   6   6 11305.6 338.974  45
  -4   6   6 11532.7 335.913  42
  -4  -6   5 4.04495 47.5878  46
  -4   6   5-0.89411 45.1948  45
  -4   6   5 12.0538 43.5480  42
   4   6  -5 28.5252 49.2851  55
  -4  -6   4 7897.67 313.882  46
  -4   6   4 7828.14 310.844  45
  -4   6   4 7943.00 303.652  42
   4   6  -4 8177.72 315.570  55
  -4   6   3 82.3739 58.7206  48
  -4  -6   3 86.6821 60.1580  46
  -4   6   3 7.82568 40.7116  45
  -4   6   3 33.3441 49.3895  42
   4   6  -3 25.0583 49.3204  55
  -4   6   2 1905.36 169.882  48
  -4  -6   2 1643.56 153.468  46
  -4   6   2 1907.14 162.165  45
  -4   6   2 2017.66 162.577  42
  -4   6   2 1698.14 147.742  41
   4   6  -2 1973.14 160.828  55
  -4   6   1 1372.87 152.259  48
  -4   6   1 1507.36 143.798  45
  -4   6   1 1487.51 146.724  42
  -4   6   1 1274.58 128.642  41
   4   6  -1 1381.23 136.729  55
  -4   6   0 650.152 108.374  48
  -4  -6   0 590.273 93.9554  30
  -4   6   0 560.109 93.1626  45
  -4   6   0 529.558 90.8802  41
   4   6   0 461.565 78.9665  55
  -4   6  -1 13780.2 440.168  48
  -4  -6  -1 12030.6 368.028  30
  -4   6  -1 13480.8 411.385  45
  -4   6  -1 12828.1 379.489  41
   4   6   1 12569.1 371.443  55
  -4   6  -2 2622.06 187.477  48
  -4   6  -2 2928.01 186.036  45
  -4   6  -2 2510.71 164.472  41
   4   6   2 2472.90 156.028  55
  -4   6  -3 2073.00 130.389  49
  -4   6  -3 1976.64 151.485  48
  -4  -6  -3 2215.18 149.906  31
  -4   6  -3 2140.69 151.713  45
   4   6   3 2177.46 136.223  55
  -4   6  -4 2807.75 144.996  49
  -4   6  -4 2613.05 147.403  48
  -4  -6  -4 2996.80 171.033  31
  -4  -6  -5 1094.02 96.0129  31
  -4  -6  -5 653.948 76.6862  30
  -4   7   6 3516.62 142.763  42
  -4   7   6 3060.42 132.656  41
   4   7  -6 3490.75 142.527  55
  -4   7   5 2368.03 122.690  45
  -4   7   5 2745.54 137.253  42
  -4   7   5 2358.08 128.000  41
   4   7  -5 2581.17 132.565  55
  -4  -7   4 1395.00 100.329  46
  -4   7   4 1600.54 108.897  45
  -4   7   4 1694.74 114.961  42
  -4   7   4 1360.33 102.273  41
   4   7  -4 1496.82 109.019  55
  -4  -7   3 2102.00 130.399  46
  -4   7   3 2291.66 136.647  45
  -4   7   3 2062.66 126.500  41
   4   7  -3 2318.78 139.058  55
  -4  -7   2 83.3123 42.0472  46
  -4   7   2 68.8081 37.4558  45
  -4   7   2 44.5124 38.2672  41
   4   7  -2 44.4755 37.4765  55
  -4  -7   1 149.534 46.7845  46
  -4   7   1 200.979 50.8030  45
  -4   7   1 147.356 40.4681  41
   4   7  -1 214.507 51.6891  55
  -4  -7   0 581.094 72.8198  46
  -4   7   0 704.547 80.6308  45
  -4   7   0 609.071 72.4460  41
   4   7   0 653.703 77.6894  55
  -4  -7  -1 1099.21 94.8735  46
  -4   7  -1 1402.87 106.516  45
  -4   7  -1 1348.55 97.1797  41
   4   7   1 1422.82 98.7288  55
  -4  -7  -2 1482.07 99.7941  46
  -4   7  -2 2052.68 118.825  45
  -5   0  12 3886.04 181.753  34
  -5   0  11 0.70173 42.7448  34
  -5   0  11 22.4416 37.9691  35
  -5   0  10 1611.33 154.385  34
  -5   0  10 1625.46 162.515  35
  -5   0  10 1653.37 155.427  52
  -5   0   9 36.6831 67.0094  52
  -5   0   9 13.1012 64.8416  34
  -5   0   8 46143.5 897.713  36
  -5   0   8 48004.0 855.429  34
  -5   0   8 47173.6 876.570  52
  -5   0   7-57.2146 68.4930  52
  -5   0   7 6.70579 62.3537  34
  -5   0   7-2.53710 60.6121  36
  -5   0   6 12246.2 426.990  34
  -5   0   6 11490.3 456.947  36
  -5   0   6 11807.5 443.986  52
  -5   0   5 21.7228 53.5243  52
  -5   0   5 118.060 69.2809  34
  -5   0   5-86.0162 59.2719  36
  -5   0   4 4168.24 236.962  34
  -5   0   4 3593.13 233.972  54
  -5   0   4 4007.47 256.511  52
  -5   0   3 99.8963 73.6154  52
  -5   0   3 75.8764 67.5872  54
  -5   0   2 20780.8 559.499  52
  -5   0   2 20443.0 574.897  54
  -5   0   1 15.9729 59.1893  54
  -5   0   0 5398.72 317.503  54
  -5   0  -1 0.03348 58.0588  38
  -5   0  -2 18594.6 513.541  38
  -5   0  -3 17.6469 79.9173  51
  -5   0  -3 44.6673 61.9555  38
  -5   0  -3-15.1668 63.3573  53
  -5   0  -4 58767.9 1060.00  51
  -5   0  -4 60212.1 903.753  38
  -5   0  -5 24.7287 78.9312  51
  -5   0  -5 43.4453 61.4815  38
  -5   0  -5 8.59748 57.5972  53
  -5   0  -6 2845.23 219.559  51
  -5   0  -6 2629.61 200.427  38
  -5   0  -6 3357.32 196.621  53
  -5   0  -7 22.7475 48.5598  51
  -5   0  -7-11.4727 47.6145  38
  -5   0  -7 37.4473 46.9287  54
  -5   0  -7 49.7790 56.7640  53
  -5   0  -8 110.026 38.1441  38
  -5   0  -8 43.7961 33.2574  54
  -5   1  12 1508.29 114.901  35
  -5  -1  12 1459.28 111.632  34
  -5  -1  11 677.909 90.3712  52
  -5  -1  11 599.434 94.1721  34
  -5   1  11 751.139 100.555  35
  -5  -1  10 1609.67 151.684  34
  -5   1  10 1479.48 159.998  35
  -5  -1  10 1597.60 149.391  52
  -5   1  10 1540.17 149.319  34
  -5   1   9 10.7156 47.4196  52
  -5  -1   9-34.7033 58.4061  52
  -5   1   9-21.6405 52.6407  34
  -5  -1   9 98.5047 66.0429  34
  -5   1   9-10.3115 56.2939  35
  -5   1   8 165.021 71.1296  52
  -5  -1   8 191.618 71.4169  52
  -5   1   8 56.9612 56.4451  34
  -5  -1   8 58.8852 51.8828  36
  -5   1   7 4689.87 273.414  34
  -5   1   7 4493.57 255.673  54
  -5   1   7 4433.49 286.522  36
  -5  -1   7 4444.75 275.156  36
  -5   1   7 4402.51 265.822  52
  -5  -1   7 4413.96 281.760  52
  -5   1   6 36203.4 728.796  34
  -5  -1   6 34937.1 734.879  46
  -5   1   6 36347.5 805.808  36
  -5  -1   6 34699.4 774.657  36
  -5   1   6 35372.5 733.438  54
  -5   1   6 35774.2 742.904  52
  -5  -1   6 35642.7 796.165  52
  -5  -1   5 6374.90 306.909  46
  -5   1   5 6312.55 336.100  36
  -5   1   5 6150.02 307.173  54
  -5   1   5 6315.32 309.772  52
  -5  -1   5 6098.67 332.777  52
  -5   1   5 6003.73 292.780  34
  -5   1   4 5427.08 294.989  54
  -5  -1   4 5536.67 282.380  46
  -5   1   4 5867.94 318.299  36
  -5   1   4 5690.72 278.165  34
  -5  -1   4 5340.37 300.612  52
  -5  -1   3 5080.47 296.663  52
  -5   1   3 5398.98 302.025  36
  -5   1   3 5067.47 290.422  54
  -5  -1   2 12576.2 452.739  52
  -5  -1   2 13020.2 459.376  30
  -5   1   2 12860.8 463.971  54
  -5  -1   2 12315.6 440.995  54
  -5  -1   1 3926.67 251.894  30
  -5   1   1 4168.25 270.585  54
  -5  -1   1 3852.16 258.574  54
  -5  -1   0 8800.41 373.761  30
  -5   1   0 8568.99 394.350  54
  -5  -1  -1 1576.51 165.484  31
  -5  -1  -1 1501.48 161.821  30
  -5  -1  -1 1541.82 163.282  38
  -5   1  -1 1688.46 184.985  54
  -5   1  -2 16408.5 528.553  51
  -5  -1  -2 17230.6 499.317  31
  -5  -1  -2 17943.4 522.125  30
  -5  -1  -2 16735.1 514.955  38
  -5   1  -2 18107.4 593.129  54
  -5   1  -3 87.7942 59.2031  51
  -5   1  -3 135.173 68.7428  53
  -5  -1  -3 223.757 82.3760  38
  -5   1  -3 262.476 88.7480  54
  -5   1  -4-86.7479 78.0743  51
  -5  -1  -4-45.0283 73.0897  38
  -5   1  -4 11.6098 57.8656  54
  -5   1  -4-90.9503 58.8127  53
  -5   1  -5 398.041 98.2382  51
  -5  -1  -5 233.054 90.8485  51
  -5  -1  -5 258.520 87.5756  38
  -5   1  -5 254.974 82.2969  54
  -5   1  -5 230.550 71.6842  53
  -5   1  -6 3150.19 227.695  51
  -5  -1  -6 2906.61 219.602  51
  -5  -1  -6 2995.90 206.116  38
  -5   1  -6 2899.14 204.308  54
  -5   1  -6 3426.84 198.037  53
  -5   1  -7 127.049 62.0207  51
  -5  -1  -7 39.0999 48.1911  51
  -5  -1  -7 77.4549 45.9128  38
  -5   1  -7 65.7673 36.4850  54
  -5   1  -7 171.630 61.2953  53
  -5   1  -8 9017.48 294.318  51
  -5  -1  -8 8732.49 285.676  51
  -5  -1  -8 9287.31 269.628  38
  -5  -2  12 176.637 52.7265  34
  -5   2  12 148.705 47.2590  35
  -5  -2  11 34.5194 42.3415  52
  -5  -2  11 5.42748 46.5082  34
  -5   2  11-15.2796 36.7793  35
  -5   2  10 1756.17 164.852  35
  -5  -2  10 1876.92 152.015  52
  -5   2   9 1269.13 151.968  35
  -5  -2   9 1281.02 145.108  52
  -5   2   8 12748.1 425.135  54
  -5   2   8 12908.8 489.610  35
  -5   2   8 12948.6 411.833  52
  -5  -2   8 12771.8 458.592  52
  -5  -2   7 4447.24 266.372  46
   5   2  -7 4426.40 234.602  55
  -5  -2   7 4007.29 253.085  36
  -5   2   7 4222.19 253.975  54
  -5   2   7 4291.52 242.324  52
  -5  -2   7 4407.17 278.711  52
  -5  -2   6 7378.12 340.382  46
  -5  -2   6 7542.27 352.542  36
  -5   2   6 7326.12 343.419  54
  -5  -2   6 6963.03 360.977  52
  -5  -2   5 7014.21 332.280  46
  -5   2   5 7767.25 369.026  36
  -5   2   5 7465.34 353.959  54
  -5  -2   5 7230.43 368.840  52
  -5  -2   4 505.678 114.898  52
  -5  -2   4 439.835 91.1745  46
  -5   2   4 443.164 99.3871  36
  -5   2   4 334.665 87.0386  54
  -5  -2   3 6089.03 334.815  52
  -5  -2   3 6664.80 330.739  30
  -5  -2   3 6612.61 316.313  46
  -5   2   3 7091.87 339.967  36
  -5   2   3 7020.80 343.075  54
  -5  -2   2 10007.9 404.322  30
  -5  -2   2 9963.58 373.972  46
  -5   2   2 8956.88 373.606  39
  -5   2   2 10625.5 407.271  36
  -5   2   2 10033.6 415.961  54
  -5  -2   1 18555.9 549.811  30
  -5   2   1 18533.1 563.244  54
  -5  -2   0 366.556 105.040  31
  -5  -2   0 487.523 110.731  30
  -5   2   0 353.857 97.5555  54
  -5   2  -1 4535.04 269.588  51
  -5  -2  -1 4643.17 271.581  31
  -5  -2  -1 4791.22 284.430  30
  -5  -2  -1 4859.37 286.600  38
  -5   2  -1 4719.03 294.152  54
  -5   2  -2 19444.7 575.720  51
  -5  -2  -2 20216.7 555.670  31
  -5  -2  -2 20950.2 578.292  30
  -5  -2  -2 20571.8 580.233  38
  -5   2  -2 21336.2 617.166  54
  -5   2  -3 7431.39 366.493  51
  -5  -2  -3 7895.98 344.743  31
  -5  -2  -3 7551.76 340.104  30
  -5  -2  -3 7923.26 355.075  38
  -5   2  -3 7955.63 368.853  54
  -5   2  -4 23788.8 646.150  51
  -5  -2  -4 24564.8 580.758  31
  -5  -2  -4 25070.3 591.222  30
  -5  -2  -4 25114.4 612.366  38
  -5   2  -4 25386.5 635.246  54
  -5   2  -5 40.0290 65.4358  51
  -5  -2  -5 66.5427 58.3266  31
  -5  -2  -5-65.2956 56.5040  38
  -5   2  -5 76.9111 58.5768  54
  -5  -2  -6 922.925 121.306  51
  -5   2  -6 900.895 120.978  51
  -5  -2  -6 978.122 119.426  38
  -5   2  -7 481.545 87.8823  51
  -5  -2  -7 419.128 83.9197  51
  -5  -2  -7 400.094 76.5732  38
  -5   2  -8 313.696 59.2003  51
  -5  -2  -8 262.403 52.3627  38
  -5  -3  12 280.007 45.2640  34
  -5   3  12 342.367 53.8861  35
  -5  -3  11 2428.10 148.181  34
  -5   3  11 2270.98 151.484  35
  -5  -3  10 251.238 60.7692  52
  -5   3  10 237.264 68.6612  35
  -5  -3   9 56.9475 52.1821  52
  -5   3   9 5.85725 45.2029  35
  -5  -3   8 430.733 89.4326  52
  -5  -3   8 446.449 95.0453  46
   5   3  -8 359.844 75.5839  55
  -5   3   8 465.956 85.3571  54
  -5   3   8 357.291 89.9575  35
  -5  -3   7 6046.99 306.189  46
   5   3  -7 6442.84 284.116  55
  -5   3   7 6312.56 308.145  54
  -5   3   7 6142.53 327.857  35
  -5  -3   7 6176.65 317.294  52
  -5  -3   6 477.172 101.837  52
  -5  -3   6 389.961 92.8063  46
   5   3  -6 431.508 82.9556  55
  -5   3   6 481.826 101.607  54
  -5   3   6 367.285 93.3151  35
  -5  -3   5 7443.70 345.266  46
   5   3  -5 7296.54 301.486  55
  -5   3   5 6922.83 337.710  54
  -5  -3   5 6803.37 354.701  52
  -5  -3   4 191.834 81.0650  52
  -5  -3   4 190.230 76.9710  46
  -5   3   4 375.878 89.3209  54
  -5  -3   3 1752.91 184.020  52
  -5  -3   3 2088.65 188.220  30
  -5  -3   3 1966.28 185.950  46
  -5   3   3 2066.26 185.005  39
  -5   3   3 2482.66 201.767  54
  -5  -3   2 2184.23 189.447  30
  -5  -3   2 1890.63 180.382  46
  -5   3   2 1897.67 181.936  39
  -5   3   2 2298.48 202.359  54
  -5   3   1 1466.00 148.356  51
  -5  -3   1 1680.29 173.691  30
  -5  -3   1 1704.83 163.925  46
  -5   3   1 1575.76 171.329  39
  -5   3   1 1596.23 165.978  54
  -5   3   0 14046.7 466.143  51
  -5  -3   0 14881.0 491.555  31
  -5  -3   0 14248.8 486.450  30
  -5  -3   0 13536.9 443.174  46
  -5   3   0 13842.8 499.304  39
  -5   3   0 15046.8 499.830  54
  -5   3  -1 1709.19 171.591  51
  -5  -3  -1 1713.44 175.009  31
  -5  -3  -1 1760.10 175.683  30
  -5   3  -1 1403.86 164.579  39
  -5   3  -1 2000.65 183.663  54
  -5   3  -2 1059.62 136.070  51
  -5  -3  -2 1054.24 139.838  31
  -5  -3  -2 1058.41 138.610  30
  -5   3  -2 904.552 140.454  39
  -5   3  -2 1210.52 142.621  54
  -5   3  -3 344.380 83.5137  51
  -5  -3  -3 214.584 77.5978  31
  -5  -3  -3 344.547 92.8791  30
  -5   3  -3 266.308 81.6726  39
  -5  -3  -3 419.216 103.349  38
  -5   3  -3 327.722 81.5651  54
  -5   3  -4 297.597 80.5138  51
  -5  -3  -4 319.848 82.7664  31
  -5  -3  -4 358.025 85.3975  30
  -5   3  -4 317.154 84.6322  39
  -5  -3  -4 250.033 80.3716  38
  -5   3  -5 180.189 66.0076  51
  -5  -3  -5 275.841 81.7959  31
  -5  -3  -5 259.238 73.1122  30
  -5   3  -5 173.038 64.5886  39
  -5  -3  -5 188.216 67.3507  38
  -5   3  -6 3596.01 204.274  51
  -5  -3  -6 3852.90 197.003  31
  -5   3  -6 3442.18 196.647  39
  -5  -3  -6 3534.11 192.012  38
  -5   3  -7 69.9535 36.2033  51
  -5   3  -7 7.64014 29.8430  39
  -5  -4  11 1137.89 86.4396  34
   5   4 -10 193.110 47.1717  40
  -5   4  10 269.409 54.7222  35
   5   4  -9 33.3026 35.6749  40
  -5   4   9 115.435 47.2846  35
  -5  -4   8 524.812 83.9502  46
   5   4  -8 675.970 92.9341  55
  -5   4   8 551.323 91.1778  35
  -5  -4   7 277.115 65.3180  52
  -5  -4   7 361.805 84.6909  46
   5   4  -7 351.762 71.1621  55
  -5   4   7 446.887 88.7504  54
  -5   4   7 379.769 84.6616  35
  -5  -4   6-34.5138 49.5601  52
  -5  -4   6 69.1855 53.3432  46
   5   4  -6 11.0711 48.6014  55
  -5   4   6-10.0871 50.4016  54
  -5   4   6-4.38325 39.7065  35
  -5  -4   5 7801.96 342.883  46
   5   4  -5 7805.99 312.001  55
  -5   4   5 7791.97 341.583  54
  -5   4   5 7300.42 325.289  35
  -5  -4   5 7374.16 345.577  52
  -5  -4   4 267.807 84.9000  52
  -5  -4   4 316.788 85.5367  46
   5   4  -4 351.846 77.1888  55
  -5   4   4 370.248 80.3797  54
  -5  -4   3 3530.65 243.452  52
  -5  -4   3 3749.44 232.771  30
  -5  -4   3 3464.27 231.139  46
  -5   4   3 3238.09 222.383  45
  -5   4   3 3822.33 246.406  54
  -5  -4   2 2858.51 211.929  30
  -5  -4   2 3139.78 220.212  46
  -5   4   2 2731.28 204.929  45
  -5   4   2 3086.54 229.615  39
  -5   4   2 3078.77 218.559  54
  -5   4   1 9891.34 388.924  51
  -5  -4   1 9425.98 372.442  30
  -5  -4   1 9017.96 363.273  46
  -5   4   1 8727.19 357.465  45
  -5   4   1 8973.44 393.491  39
  -5   4   1 9762.46 383.779  54
  -5   4   0-43.5636 61.6882  51
  -5  -4   0 131.534 67.3170  30
  -5  -4   0-20.6913 52.9210  46
  -5   4   0 35.7124 43.5917  45
  -5   4   0 44.1483 57.2148  39
  -5   4   0 119.213 64.7757  54
  -5   4  -1 7974.72 351.558  51
  -5  -4  -1 7998.24 345.945  31
  -5  -4  -1 7570.90 336.846  30
  -5   4  -1 7971.56 368.733  39
  -5   4  -1 8076.61 325.278  54
  -5   4  -2 3494.08 229.502  51
  -5  -4  -2 3277.13 217.071  31
  -5  -4  -2 3118.98 214.168  30
  -5   4  -2 3355.88 235.754  39
  -5   4  -3 1570.62 153.794  51
  -5  -4  -3 1662.61 153.572  31
  -5  -4  -3 1500.57 146.522  30
  -5   4  -3 1784.73 166.971  39
  -5   4  -4 5054.12 254.531  51
  -5  -4  -4 5115.77 243.531  31
  -5  -4  -4 5180.89 243.350  30
  -5   4  -4 5157.58 258.661  39
  -5   4  -5 12.7651 44.5113  51
  -5  -4  -5-12.4566 51.5827  31
  -5  -4  -5-0.48550 40.8955  30
  -5   4  -5 53.3988 35.0979  39
  -5   4  -6 1931.69 129.508  51
  -5  -4  -6 1810.90 122.097  31
  -5   4  -6 1680.89 111.785  39
  -5   5   9-9.75859 28.1945  45
   5   5  -9-30.2987 31.6034  40
  -5   5   8 27.6710 32.4072  45
   5   5  -8-29.3693 33.1492  55
  -5   5   8-3.89097 29.7602  35
  -5  -5   7 135.828 55.5666  46
   5   5  -7 149.409 50.5614  55
  -5  -5   6 174.802 57.2961  46
  -5   5   6 186.511 58.4729  45
   5   5  -6 198.717 52.8960  55
  -5  -5   5 494.538 91.9549  46
  -5   5   5 306.473 72.0246  45
   5   5  -5 452.846 76.5656  55
  -5   5   5 482.972 81.6466  54
  -5  -5   4-19.5264 44.6956  52
  -5   5   4 14.7205 40.0735  48
  -5  -5   4 109.342 58.8557  46
  -5   5   4 81.2049 54.6958  45
   5   5  -4 140.111 57.4967  55
  -5   5   4 110.279 52.3440  54
  -5   5   3 1029.29 118.763  48
  -5  -5   3 1087.96 127.504  46
  -5   5   3 1030.13 125.370  45
   5   5  -3 1072.36 114.194  55
  -5   5   3 1168.92 121.264  54
  -5  -5   3 902.143 115.287  52
  -5  -5   2 666.823 101.838  52
  -5   5   2 916.839 119.687  48
  -5  -5   2 781.783 101.335  30
  -5  -5   2 911.462 115.595  46
  -5   5   2 661.731 100.335  45
   5   5  -2 805.921 97.1418  55
  -5   5   2 871.023 105.465  54
  -5  -5   1 1195.23 125.428  52
  -5   5   1 1241.48 139.954  48
  -5  -5   1 1271.90 127.823  30
  -5  -5   1 1394.24 139.667  46
  -5   5   1 1302.06 138.409  45
  -5   5   0 5390.51 283.918  48
  -5  -5   0 5610.14 257.392  30
  -5  -5   0 5737.19 262.876  46
  -5   5   0 5968.11 265.035  45
  -5   5  -1-20.6839 41.1546  48
  -5  -5  -1 130.921 59.0750  30
  -5  -5  -1 36.6162 45.4757  46
  -5   5  -1 65.4695 41.0898  45
  -5   5  -2 75.1889 48.5045  48
  -5  -5  -2 116.029 52.8426  30
  -5  -5  -2 11.8497 45.6402  46
  -5   5  -2 61.3939 44.2524  45
  -5   5  -3 424.542 71.4726  48
  -5  -5  -3 396.856 67.4652  30
  -5   5  -4 590.473 70.0876  48
  -5  -5  -4 550.404 73.4091  30
  -5   6   7 123.729 34.0329  45
   5   6  -7 148.757 33.5049  55
  -5  -6   6 1696.87 107.145  46
  -5   6   6 1835.45 116.167  45
   5   6  -6 1815.98 108.025  55
  -5  -6   5 603.700 76.0155  46
  -5   6   5 573.992 71.3987  45
   5   6  -5 567.214 64.6085  55
  -5  -6   4 248.189 59.7053  46
  -5   6   4 211.622 51.9779  45
   5   6  -4 343.534 56.2054  55
  -5   6   3 49.3379 41.7604  48
  -5  -6   3 53.4730 38.0964  46
  -5   6   3 25.2419 37.2241  45
   5   6  -3 84.8367 46.6824  55
  -5   6   2 1323.50 117.529  48
  -5  -6   2 1518.80 119.887  46
  -5   6   2 1533.15 123.735  45
   5   6  -2 1491.66 106.623  55
  -5   6   1 1313.25 116.040  48
  -5  -6   1 1406.65 115.172  46
  -5   6   1 1359.57 113.527  45
  -5  -6   0 126.980 46.3881  52
  -5   6   0 63.8372 40.8262  48
  -5  -6   0 119.731 44.3179  30
  -5  -6   0 81.3647 45.8731  46
  -5   6   0 62.0453 39.3209  45
  -5  -6  -1 0.19454 33.9622  52
  -5   6  -1 46.0960 34.6889  48
  -5  -6  -1 4.08186 35.5446  30
  -5  -6  -1-69.4403 35.2823  46
  -5   6  -1-0.46547 28.5093  45
  -5   6  -2 1.72852 24.9522  48
  -5  -6  -2 57.5088 34.1588  30
  -6   0  11-0.91755 27.8576  35
  -6   0  10 235.397 58.6279  52
  -6   0  10 278.141 69.1777  34
  -6   0  10 134.823 51.6296  35
  -6   0   9-94.7956 56.6814  52
  -6   0   9 58.6600 55.1904  34
  -6   0   8 48663.3 799.699  52
  -6   0   8 47648.8 758.014  34
  -6   0   7-17.0390 51.2305  52
  -6   0   7-10.5766 60.7097  34
  -6   0   7 48.1289 63.7092  36
  -6   0   6 74.0081 63.7268  52
  -6   0   6 36.6070 61.5483  34
  -6   0   6 9.91910 54.4664  36
  -6   0   5 0.95005 52.1496  52
  -6   0   5-3.54070 50.8468  34
  -6   0   5 3.26389 51.1645  36
  -6   0   5-13.9400 46.3437  54
  -6   0   4 62.0699 68.7580  52
  -6   0   4 158.109 72.9914  36
  -6   0   4 201.103 64.3448  54
  -6   0   3-5.40855 52.5468  52
  -6   0   3 18.9740 55.0145  36
  -6   0   3 106.796 70.2372  54
  -6   0   2 39631.5 792.438  54
  -6   0   1 19.5199 53.3711  54
  -6   0   0 760.659 126.026  54
  -6   0  -1-57.0582 65.4906  54
  -6   0  -2 11927.7 439.667  54
  -6   0  -3 73.3838 58.5016  54
  -6   0  -4 10503.3 368.922  54
  -6   0  -5 35.8799 37.8842  54
  -6   0  -6 339.775 56.2966  54
  -6  -1  11 24.2831 40.8608  34
  -6   1  11 17.2740 30.9158  35
  -6  -1  10 2756.30 159.967  34
  -6   1  10 2487.00 166.863  35
  -6  -1  10 2576.17 156.015  52
  -6   1   9 62.8636 42.5319  52
  -6  -1   9 78.4458 45.4861  52
  -6  -1   9 46.9607 49.5251  34
  -6   1   9 23.5528 43.8046  35
  -6   1   8 226.459 67.5367  52
  -6  -1   8 108.823 57.9495  52
  -6  -1   8 33.8995 55.7961  34
  -6   1   7 211.641 62.7582  52
  -6  -1   7 224.810 77.5778  52
  -6  -1   7 139.363 69.0585  34
  -6  -1   7 79.1803 59.5332  36
  -6   1   7 20.1835 46.0620  54
  -6  -1   6 12174.7 393.601  34
  -6   1   6 12312.1 453.950  36
  -6  -1   6 11921.8 447.927  36
  -6   1   6 12613.2 410.566  54
  -6   1   6 11832.7 395.686  52
  -6  -1   6 12771.7 441.118  52
  -6   1   5 1592.13 170.335  36
  -6  -1   5 1533.83 171.811  36
  -6   1   5 1538.05 154.359  54
  -6  -1   5 1797.78 172.790  52
  -6   1   4 8904.49 393.466  36
  -6  -1   4 8269.96 389.243  36
  -6   1   4 8353.74 360.372  54
  -6  -1   4 8833.96 377.158  52
  -6  -1   3 62.4095 61.6078  52
  -6   1   3 52.5792 55.6530  36
  -6   1   3 54.7642 57.1964  54
  -6  -1   2 13.1454 53.4123  52
  -6   1   2 6.65367 53.0948  36
  -6   1   2 111.473 65.8711  54
  -6  -1   2-67.2554 65.9575  54
  -6  -1   1 952.828 128.455  52
  -6   1   1 1075.63 139.464  36
  -6   1   1 1096.22 140.320  54
  -6  -1   1 887.401 124.262  54
  -6  -1   0 45.8745 48.5340  52
  -6  -1   0-36.2815 52.9241  54
  -6   1  -1 13.0757 58.5823  54
  -6  -1  -1 63.7074 58.0079  54
  -6   1  -2 9506.78 379.854  54
  -6  -1  -2 8293.27 356.837  54
  -6   1  -3 279.353 76.0845  54
  -6  -1  -3 136.088 66.3607  54
  -6   1  -4 1187.37 122.115  54
  -6  -1  -4 908.124 111.685  54
  -6   1  -5 1060.45 98.5118  51
  -6   1  -5 974.799 98.0474  54
  -6   1  -6 170.044 43.1110  39
  -6   2  11 3358.20 152.988  35
  -6  -2  11 3523.18 144.431  34
  -6  -2  10 2674.50 147.314  34
  -6   2  10 2560.57 158.119  35
  -6  -2  10 2813.21 150.326  52
  -6  -2   9 194.061 56.4702  52
  -6  -2   9 160.077 53.7192  34
  -6   2   9 121.544 48.7075  35
  -6  -2   8 16228.0 419.245  34
  -6   2   8 15667.3 402.631  54
  -6   2   8 15411.3 465.580  35
  -6  -2   8 15775.7 439.328  52
  -6  -2   7 17739.5 453.971  34
  -6  -2   7 17120.4 468.262  36
  -6   2   7 16919.1 454.898  54
  -6  -2   7 18004.3 496.550  52
  -6  -2   6 4928.55 246.555  34
  -6  -2   6 4871.49 251.892  46
  -6  -2   6 4870.04 267.637  36
  -6   2   6 5050.56 265.161  54
  -6  -2   6 4504.44 260.793  52
  -6  -2   5 1048.43 133.036  52
  -6  -2   5 1006.16 122.022  46
  -6   2   5 925.500 125.591  54
  -6  -2   5 766.183 119.184  36
  -6  -2   4 1063.32 125.013  46
  -6   2   4 1097.37 133.768  36
  -6   2   4 1143.67 142.258  54
  -6  -2   4 1209.29 145.497  52
  -6   2   3 13909.2 459.503  36
  -6   2   3 14089.8 471.273  54
  -6  -2   3 14510.9 475.981  52
  -6   2   2 16150.8 506.161  54
  -6  -2   2 15885.5 493.431  52
  -6  -2   1-1.55967 50.9474  52
  -6   2   1-14.6375 48.8224  39
  -6   2   1 131.905 69.0774  54
  -6  -2   0 452.405 88.8364  52
  -6   2   0 404.673 86.1702  39
  -6   2   0 434.940 91.0062  54
  -6  -2   0 388.913 85.1320  54
  -6   2  -1 979.427 126.007  39
  -6   2  -1 1179.95 138.306  54
  -6   2  -2 6199.80 296.028  39
  -6  -2  -2 5025.11 264.375  54
  -6   2  -3 75.3678 49.5579  51
  -6   2  -3 98.8236 54.1675  39
  -6   2  -3 102.333 51.8186  54
  -6  -2  -3 125.789 54.2058  54
  -6   2  -4 1757.32 129.077  51
  -6   2  -4 1657.01 138.437  39
  -6   2  -4 1739.74 127.718  54
  -6   2  -5 1967.65 121.135  51
  -6   2  -5 1870.53 130.504  39
  -6  -3  10 7719.55 216.020  34
  -6   3  10 7580.33 233.527  35
  -6  -3   9 6.80473 30.7338  52
  -6  -3   9-5.76567 38.0594  34
  -6   3   9 13.6669 33.4393  35
  -6  -3   8 2.51084 41.2597  52
  -6  -3   8 60.4163 48.0528  34
  -6   3   8-19.2913 41.7961  35
  -6  -3   7 166.560 63.7994  52
  -6  -3   7 101.671 52.5672  34
  -6   3   7-1.35724 47.1088  54
  -6   3   7 104.014 51.9915  35
  -6  -3   6 461.312 85.2241  52
  -6  -3   6 405.834 81.0974  46
  -6  -3   6 358.759 71.9619  36
  -6   3   6 352.612 73.9669  54
  -6   3   6 316.649 74.7164  35
  -6  -3   5 488.391 91.9663  52
  -6  -3   5 503.705 90.3718  46
  -6  -3   5 341.896 80.0529  36
  -6   3   5 497.534 96.8396  54
  -6   3   5 316.763 83.7036  35
  -6  -3   4 11166.6 372.285  46
  -6   3   4 10280.3 336.120  45
  -6   3   4 10901.2 392.266  54
  -6  -3   4 10575.9 389.300  52
  -6  -3   3 1695.28 148.868  46
  -6   3   3 1783.28 163.287  54
  -6  -3   3 1719.13 162.887  52
  -6  -3   2 2633.17 198.454  52
  -6  -3   2 2484.72 176.374  46
  -6   3   2 2580.05 187.686  39
  -6   3   2 2629.74 194.319  54
  -6  -3   1 52.8465 51.5627  52
  -6   3   1 73.2605 44.5768  39
  -6   3   1 173.492 65.3215  54
  -6  -3   0 202.692 62.5274  52
  -6  -3   0 116.301 59.3205  30
  -6   3   0 91.2182 54.4671  39
  -6   3   0 170.696 61.8987  54
  -6  -3  -1 48.6141 52.3468  30
  -6   3  -1 41.4752 41.0537  39
  -6   3  -1 101.014 51.1172  54
  -6   3  -2 4599.93 213.444  51
  -6  -3  -2 4302.62 219.629  30
  -6   3  -2 4409.91 234.796  39
  -6   3  -2 4678.76 223.463  54
  -6   3  -3 791.165 91.7793  51
  -6   3  -3 703.340 94.5810  39
  -6  -3  -4-24.0221 33.5736  52
  -6   3  -4 14.5604 35.2683  51
  -6   3  -4 48.6417 34.9437  39
  -6  -3  -4-40.2222 36.2220  54
  -6   4   9 825.592 70.1855  45
  -6  -4   8 2155.93 120.242  34
  -6   4   8 2025.00 120.732  45
  -6   4   8 2060.97 119.931  35
  -6  -4   8 2110.32 111.196  52
  -6   4   7 3860.27 178.859  45
  -6   4   7 3789.13 170.482  35
  -6  -4   7 3900.84 174.022  52
  -6  -4   6 10098.7 310.335  46
  -6   4   6 9333.91 290.138  45
  -6   4   6 9486.92 306.614  54
  -6  -4   6 9740.55 300.434  52
  -6  -4   5 5061.12 227.324  46
  -6   4   5 4388.88 207.443  45
  -6   4   5 5024.65 233.019  54
  -6  -4   5 4997.87 228.896  52
  -6  -4   4 1253.27 117.485  46
  -6   4   4 968.240 103.715  45
  -6   4   4 1148.04 116.066  54
  -6  -4   4 1046.86 112.538  52
  -6  -4   3 8189.26 292.265  46
  -6   4   3 7759.82 274.060  45
  -6   4   3 8451.32 310.636  54
  -6  -4   3 8023.02 305.333  52
  -6  -4   2-47.8364 43.7554  52
  -6   4   2 9.33130 39.4970  54
  -6  -4   1 607.114 88.8117  52
  -6  -4   1 758.323 89.6636  46
  -6   4   1 798.625 99.4597  54
  -6  -4   0 1989.62 148.467  52
  -6   4   0 2255.49 148.993  54
  -6  -4  -1 3084.99 173.107  52
  -6   4  -1 3271.17 189.002  39
  -6  -4  -2 178.033 49.1414  52
  -6   4  -2 199.136 52.6560  39
  -6  -4  -3 1087.13 90.3156  52
  -6   4  -3 1142.15 95.6938  48
  -6  -5   6 775.134 71.1901  46
  -6   5   6 677.428 68.2183  45
  -6  -5   5 1200.88 92.5458  46
  -6   5   5 1205.75 91.9274  45
  -6  -5   4 1376.75 102.171  46
  -6   5   4 1322.72 98.3096  45
  -6  -5   4 1209.17 92.9079  52
  -6  -5   3 2926.36 146.612  46
  -6   5   3 2859.02 142.317  45
  -6   5   3 2914.90 138.817  54
  -6  -5   3 2619.12 139.227  52
  -6  -5   2-21.8661 34.8573  52
  -6   5   2-20.2276 34.1788  48
  -6   5   2 28.4687 30.3291  45
  -6   5   2-44.3734 22.1784  54
  -6   5   1 1022.02 93.2397  48
  -6  -5   1 1200.31 89.6380  46
  -6  -5   1 999.200 86.7059  52
  -6  -5   0 295.622 52.1689  52
  -6   5   0 345.853 55.8699  48
  -7   0   9-6.33248 24.4703  35
  -7   0   8 647.576 82.0829  35
  -7   0   8 897.450 78.8785  52
  -7   0   7-95.2130 44.5704  52
  -7   0   6 1533.77 131.860  36
  -7   0   6 1377.06 111.709  52
  -7   0   5 77.8690 43.7321  52
  -7   0   5 16.5581 40.5029  36
  -7   0   4 16488.8 441.063  36
  -7   0   4 14847.2 366.592  54
  -7   0   3 22.3576 48.5052  36
  -7   0   3 81.5411 61.5070  54
  -7   0   2 869.434 105.768  36
  -7   0   2 665.288 90.4127  54
  -7   0   1 14.3638 39.5489  36
  -7   0   1 68.5033 43.9135  54
  -7   0   0 969.928 93.2269  36
  -7   0   0 942.736 97.4198  54
  -7   0  -1 42.4277 31.8385  54
  -7   0  -2 950.820 85.4596  54
  -7  -1   9 159.855 34.7570  52
  -7  -1   8 196.392 44.1165  52
  -7   1   8 222.822 49.2313  35
  -7  -1   7 177.748 48.3149  52
  -7   1   7 165.373 49.4829  35
  -7  -1   6 1278.07 115.440  36
  -7   1   6 1257.51 100.711  54
  -7  -1   6 1259.54 109.159  52
  -7  -1   5 278.520 62.6281  52
  -7  -1   5 287.742 65.2493  36
  -7   1   5 370.456 64.0212  54
  -7  -1   4 422.644 74.2550  52
  -7   1   4 364.748 72.3153  36
  -7  -1   4 305.587 64.8441  36
  -7   1   4 359.185 66.3715  54
  -7  -1   3 45.7176 44.3654  52
  -7   1   3 184.856 57.1946  36
  -7  -1   3 105.912 48.3105  36
  -7   1   3 71.4732 40.3265  54
  -7   1   2 3114.19 174.374  36
  -7  -1   2 3177.09 191.992  36
  -7   1   2 2973.79 177.050  54
  -7  -1   2 2590.98 154.498  52
  -7  -1   1 207.277 56.3081  36
  -7   1   1 154.231 52.0570  54
  -7  -1   1 64.4470 38.8052  54
  -7  -1   0 2539.95 154.451  36
  -7   1   0 2460.55 154.123  54
  -7  -1   0 2051.03 132.641  54
  -7  -1  -1 157.149 47.8422  36
  -7   1  -1 187.996 50.9723  54
  -7  -1  -1 109.992 39.2313  54
  -7   1  -2 3569.19 155.982  54
  -7  -1  -2 2382.91 129.399  54
  -7  -2   8-20.4569 28.1227  52
  -7   2   8-27.0270 31.5860  35
  -7   2   7 2669.54 123.848  54
  -7  -2   7 2690.96 140.122  52
  -7  -2   6 962.116 91.8650  36
  -7   2   6 942.767 84.7456  54
  -7   2   6 707.578 84.8904  35
  -7  -2   6 1008.26 95.0064  52
  -7  -2   5 439.379 71.3101  52
  -7  -2   5 426.591 69.0767  36
  -7   2   5 433.608 67.2718  54
  -7   2   5 355.819 68.6106  35
  -7  -2   4 8931.06 299.963  36
  -7   2   4 8983.27 289.490  54
  -7  -2   4 9375.37 297.194  52
  -7  -2   3 129.741 49.9806  36
  -7   2   3 237.351 54.9288  54
  -7  -2   2 5.62341 36.8315  52
  -7  -2   2 44.6344 40.3932  36
  -7  -2   1 151.846 49.6529  52
  -7  -2   1 65.2009 43.3185  36
  -7   2   1 45.8120 41.4412  54
  -7   2   0 673.243 79.1781  54
  -7  -2   0 512.867 72.1568  36
  -7  -2  -1 5293.87 193.206  36
  -7   2  -1 5658.24 196.440  54
  -7   3   6 931.862 76.5834  54
  -7  -3   6 734.746 69.4078  52
  -7  -3   5 46.6415 35.9472  52
  -7   3   5 35.8183 33.5796  54
  -7  -3   4 873.603 80.1170  36
  -7   3   4 886.224 83.3021  54
  -7  -3   4 902.409 85.9695  52
  -7  -3   3 1748.75 114.954  36
  -7   3   3 1921.61 123.067  54
  -7  -3   3 1771.78 116.207  52
  -7  -3   2 1808.33 117.754  36
  -7   3   2 1947.78 122.495  54
  -7  -3   2 1827.47 116.283  52
  -7  -3   1 243.611 50.5866  36
  -7   3   1 318.466 52.4909  54
   0   0   0    0.00    0.00   0

TITL s18ab8 in P2(1)/c
REM P2(1)/c (#14 in standard setting)
CELL 1.54184   6.191086   7.129008  12.255407  90.0000 104.0263  90.0000
ZERR    5.00   0.000472   0.000454   0.000767   0.0000   0.0072   0.0000
LATT  1
SYMM -x, y+1/2,-z+1/2
SFAC C H O
UNIT 40.00 60.00 15.00
TREF
HKLF 4
END
;
_shelx_hkl_checksum              99078
loop_
_space_group_symop_operation_xyz
'x, y, z'
'-x, y+1/2, -z+1/2'
'-x, -y, -z'
'x, -y-1/2, z-1/2'
loop_
_atom_site_label
_atom_site_type_symbol
_atom_site_fract_x
_atom_site_fract_y
_atom_site_fract_z
_atom_site_U_iso_or_equiv
_atom_site_adp_type
_atom_site_occupancy
_atom_site_site_symmetry_order
_atom_site_calc_flag
_atom_site_refinement_flags_posn
_atom_site_refinement_flags_adp
C1 C 0.5367(2) 0.74182(16) 0.46845(10) 0.0257(3) Uani 1 1 d . .
C2 C 0.1386(2) 0.7437(2) 0.41025(12) 0.0337(3) Uani 1 1 d . .
H2A H 0.143762 0.880782 0.423482 0.040 Uiso 1 1 calc R U
H2B H 0.012681 0.692929 0.437774 0.040 Uiso 1 1 calc R U
C3 C 0.0942(2) 0.70942(18) 0.28695(11) 0.0313(3) Uani 1 1 d . .
H3 H -0.051131 0.737282 0.243256 0.038 Uiso 1 1 calc R U
C4 C 0.2379(2) 0.64408(18) 0.23302(10) 0.0311(3) Uani 1 1 d . .
H4 H 0.187237 0.626404 0.154114 0.037 Uiso 1 1 calc R U
C5 C 0.4745(2) 0.59561(18) 0.28634(10) 0.0288(3) Uani 1 1 d . .
H5A H 0.479243 0.472250 0.323952 0.035 Uiso 1 1 calc R U
H5B H 0.557126 0.583843 0.226900 0.035 Uiso 1 1 calc R U
O1 O 0.66239(17) 0.81202(15) 0.54766(8) 0.0377(3) Uani 1 1 d . .
O2 O 0.34392(14) 0.66136(13) 0.47598(7) 0.0290(3) Uani 1 1 d . .
O3 O 0.58568(15) 0.73471(13) 0.36875(7) 0.0291(3) Uani 1 1 d . .
loop_
_atom_site_aniso_label
_atom_site_aniso_U_11
_atom_site_aniso_U_22
_atom_site_aniso_U_33
_atom_site_aniso_U_23
_atom_site_aniso_U_13
_atom_site_aniso_U_12
C1 0.0280(6) 0.0253(6) 0.0234(6) 0.0018(4) 0.0055(5) 0.0038(4)
C2 0.0239(7) 0.0414(8) 0.0353(7) -0.0019(5) 0.0059(5) 0.0053(5)
C3 0.0260(7) 0.0307(6) 0.0325(7) 0.0035(5) -0.0018(5) -0.0028(5)
C4 0.0374(7) 0.0307(6) 0.0220(6) 0.0016(5) 0.0011(5) -0.0071(5)
C5 0.0348(7) 0.0309(6) 0.0219(6) -0.0020(4) 0.0093(5) -0.0009(5)
O1 0.0385(6) 0.0443(6) 0.0270(5) -0.0063(4) 0.0016(4) -0.0045(4)
O2 0.0258(5) 0.0375(5) 0.0244(4) 0.0055(3) 0.0074(3) 0.0023(3)
O3 0.0269(5) 0.0378(5) 0.0229(5) -0.0009(3) 0.0069(4) -0.0058(3)
loop_
_atom_type_symbol
_atom_type_description
_atom_type_scat_dispersion_real
_atom_type_scat_dispersion_imag
_atom_type_scat_source
C C 0.0181 0.0091 'International Tables Vol C Tables 4.2.6.8 and 6.1.1.4'
H H 0.0000 0.0000 'International Tables Vol C Tables 4.2.6.8 and 6.1.1.4'
O O 0.0492 0.0322 'International Tables Vol C Tables 4.2.6.8 and 6.1.1.4'
loop_
_exptl_crystal_face_index_h
_exptl_crystal_face_index_k
_exptl_crystal_face_index_l
_exptl_crystal_face_perp_dist
-2 4 -1 0.0784
0 -1 7 0.1366
4 1 0 0.0522
-3 -3 2 0.0445
2 -3 3 0.1309
-4 2 0 0.0700
1 4 -5 0.1832
4 0 -2 0.0760
-2 1 7 0.1607
2 -1 -7 0.1996
3 -3 -2 0.0696
2 2 5 0.1236
-3 -3 1 0.0267
3 3 -1 0.0742
1 1 7 0.1351
3 3 0 0.0636
-3 -2 -1 0.0146
loop_
_geom_angle_atom_site_label_1
_geom_angle_atom_site_label_2
_geom_angle_atom_site_label_3
_geom_angle
O1 C1 O3 120.88(12)
O1 C1 O2 122.35(12)
O3 C1 O2 116.74(10)
O2 C2 C3 114.69(11)
O2 C2 H2A 108.6
C3 C2 H2A 108.6
O2 C2 H2B 108.6
C3 C2 H2B 108.6
H2A C2 H2B 107.6
C4 C3 C2 125.95(12)
C4 C3 H3 117.0
C2 C3 H3 117.0
C3 C4 C5 124.99(11)
C3 C4 H4 117.5
C5 C4 H4 117.5
O3 C5 C4 113.13(10)
O3 C5 H5A 109.0
C4 C5 H5A 109.0
O3 C5 H5B 109.0
C4 C5 H5B 109.0
H5A C5 H5B 107.8
C1 O2 C2 117.41(10)
C1 O3 C5 119.10(9)
loop_
_geom_bond_atom_site_label_1
_geom_bond_atom_site_label_2
_geom_bond_distance
C1 O1 1.1968(16)
C1 O3 1.3293(15)
C1 O2 1.3473(15)
C2 O2 1.4534(15)
C2 C3 1.4891(19)
C2 H2A 0.9900
C2 H2B 0.9900
C3 C4 1.315(2)
C3 H3 0.9500
C4 C5 1.4926(18)
C4 H4 0.9500
C5 O3 1.4630(15)
C5 H5A 0.9900
C5 H5B 0.9900
loop_
_geom_torsion_atom_site_label_1
_geom_torsion_atom_site_label_2
_geom_torsion_atom_site_label_3
_geom_torsion_atom_site_label_4
_geom_torsion
O2 C2 C3 C4 -13.0(2)
C2 C3 C4 C5 -1.2(2)
C3 C4 C5 O3 -43.13(17)
O1 C1 O2 C2 117.28(14)
O3 C1 O2 C2 -64.81(14)
C3 C2 O2 C1 72.45(14)
O1 C1 O3 C5 158.66(12)
O2 C1 O3 C5 -19.28(15)
C4 C5 O3 C1 74.42(13)
loop_
_cod_related_entry_id
_cod_related_entry_database
_cod_related_entry_code
1 PubChem 69571381
loop_
_exptl_oxdiff_crystal_face_indexfrac_h
_exptl_oxdiff_crystal_face_indexfrac_k
_exptl_oxdiff_crystal_face_indexfrac_l
_exptl_oxdiff_crystal_face_x
_exptl_oxdiff_crystal_face_y
_exptl_oxdiff_crystal_face_z
-1.9933 3.9969 -1.0043 0.0274 -0.3008 0.9823
0.0069 -0.9903 7.4998 -0.2832 -0.7008 -0.6486
4.0005 0.9980 -0.0328 0.9133 -0.2136 -0.4663
-3.0021 -2.9946 2.0339 -0.9632 0.2009 -0.1242
1.9974 -2.9951 2.9982 0.0265 -0.0314 -0.9630
-3.9956 1.9994 -0.4811 -0.5946 -0.0763 0.9547
1.0017 3.9916 -4.5230 0.7202 0.0056 0.7506
3.9969 -0.0031 -1.5270 0.8473 0.0643 -0.5187
-1.9894 1.0085 7.0046 -0.4723 -0.8265 -0.0029
1.9894 -1.0085 -7.0046 0.4723 0.8265 0.0029
2.9913 -3.0015 -2.0055 0.3500 0.4876 -0.7863
2.0093 2.0047 5.4729 0.4772 -0.8769 -0.3698
-3.0032 -2.9959 1.0346 -0.9391 0.3096 -0.0579
3.0038 2.9965 -0.5349 0.9270 -0.3640 0.0248
1.0096 1.0075 6.9836 0.1360 -0.9006 -0.4664
3.0044 2.9971 -0.0352 0.9149 -0.4183 -0.0083
-3.0038 -1.9989 -0.9688 -0.7886 0.4123 0.2263
