#------------------------------------------------------------------------------
#$Date: 2025-08-20 21:34:49 +0300 (Wed, 20 Aug 2025) $
#$Revision: 301835 $
#$URL: file:///home/coder/svn-repositories/cod/cif/4/13/27/4132749.cif $
#------------------------------------------------------------------------------
#
# This file is available in the Crystallography Open Database (COD),
# http://www.crystallography.net/
#
# All data on this site have been placed in the public domain by the
# contributors.
#
data_4132749
loop_
_publ_author_name
'Li, Shou-Lei'
'Yang, Chen'
'Wu, Quan'
'Zheng, Han-Liang'
'Li, Xin'
'Cheng, Jin-Pei'
_publ_section_title
;
 Atroposelective Catalytic Asymmetric Allylic Alkylation Reaction for
 Axially Chiral Anilides with Achiral Morita-Baylis-Hillman Carbonates.
;
_journal_issue                   40
_journal_name_full               'Journal of the American Chemical Society'
_journal_page_first              12836
_journal_page_last               12843
_journal_paper_doi               10.1021/jacs.8b06014
_journal_volume                  140
_journal_year                    2018
_chemical_absolute_configuration ad
_chemical_formula_sum            'C26 H32 Br N3 O3'
_chemical_formula_weight         514.45
_space_group_crystal_system      monoclinic
_space_group_IT_number           4
_space_group_name_Hall           'P 2yb'
_space_group_name_H-M_alt        'P 1 21 1'
_atom_sites_solution_hydrogens   geom
_audit_creation_method           SHELXL-2014/8
_cell_angle_alpha                90
_cell_angle_beta                 93.83(3)
_cell_angle_gamma                90
_cell_formula_units_Z            2
_cell_length_a                   9.2512(19)
_cell_length_b                   9.908(2)
_cell_length_c                   13.364(3)
_cell_measurement_reflns_used    3741
_cell_measurement_temperature    113(2)
_cell_measurement_theta_max      27.9103
_cell_measurement_theta_min      1.5272
_cell_volume                     1222.2(4)
_computing_cell_refinement       crystalclear
_computing_data_collection       crystalclear
_computing_data_reduction        crystalclear
_computing_molecular_graphics    'Bruker SHELXTL'
_computing_publication_material  'Bruker SHELXTL'
_computing_structure_refinement  'SHELXL-97 (Sheldrick, 1997)'
_computing_structure_solution    'SHELXS-97 (Sheldrick, 1990)'
_diffrn_ambient_temperature      113(2)
_diffrn_measured_fraction_theta_full 0.999
_diffrn_measured_fraction_theta_max 0.998
_diffrn_measurement_device_type  'rigaku saturn'
_diffrn_radiation_type           MoK\a
_diffrn_radiation_wavelength     0.71073
_diffrn_reflns_av_R_equivalents  0.0473
_diffrn_reflns_av_unetI/netI     0.0960
_diffrn_reflns_Laue_measured_fraction_full 0.999
_diffrn_reflns_Laue_measured_fraction_max 0.998
_diffrn_reflns_limit_h_max       12
_diffrn_reflns_limit_h_min       -12
_diffrn_reflns_limit_k_max       11
_diffrn_reflns_limit_k_min       -13
_diffrn_reflns_limit_l_max       17
_diffrn_reflns_limit_l_min       -17
_diffrn_reflns_number            14728
_diffrn_reflns_point_group_measured_fraction_full 0.988
_diffrn_reflns_point_group_measured_fraction_max 0.975
_diffrn_reflns_theta_full        25.242
_diffrn_reflns_theta_max         27.857
_diffrn_reflns_theta_min         1.527
_diffrn_standards_decay_%        0
_diffrn_standards_interval_count 0
_diffrn_standards_interval_time  0
_diffrn_standards_number         0
_exptl_absorpt_coefficient_mu    1.714
_exptl_absorpt_correction_T_max  1.0000
_exptl_absorpt_correction_T_min  0.8336
_exptl_absorpt_correction_type   multi-scan
_exptl_absorpt_process_details   crystalclear
_exptl_crystal_colour            yellow
_exptl_crystal_density_diffrn    1.398
_exptl_crystal_description       block
_exptl_crystal_F_000             536
_exptl_crystal_size_max          0.200
_exptl_crystal_size_mid          0.180
_exptl_crystal_size_min          0.120
_refine_diff_density_max         0.503
_refine_diff_density_min         -0.569
_refine_diff_density_rms         0.063
_refine_ls_abs_structure_details
;
 Flack x determined using 1362 quotients [(I+)-(I-)]/[(I+)+(I-)]
 (Parsons, Flack and Wagner, Acta Cryst. B69 (2013) 249-259).
;
_refine_ls_abs_structure_Flack   0.026(6)
_refine_ls_extinction_method     none
_refine_ls_goodness_of_fit_ref   0.959
_refine_ls_hydrogen_treatment    constr
_refine_ls_matrix_type           full
_refine_ls_number_parameters     304
_refine_ls_number_reflns         5676
_refine_ls_number_restraints     1
_refine_ls_restrained_S_all      0.958
_refine_ls_R_factor_all          0.0489
_refine_ls_R_factor_gt           0.0284
_refine_ls_shift/su_max          0.000
_refine_ls_shift/su_mean         0.000
_refine_ls_structure_factor_coef Fsqd
_refine_ls_weighting_details     'w=1/[\s^2^(Fo^2^)] where P=(Fo^2^+2Fc^2^)/3'
_refine_ls_weighting_scheme      calc
_refine_ls_wR_factor_gt          0.0551
_refine_ls_wR_factor_ref         0.0582
_reflns_Friedel_coverage         0.848
_reflns_Friedel_fraction_full    0.976
_reflns_Friedel_fraction_max     0.950
_reflns_number_gt                3616
_reflns_number_total             5676
_reflns_threshold_expression     'I > 2\s(I)'
_cod_data_source_file            ja8b06014_si_003.cif
_cod_data_source_block           shelxl
_cod_depositor_comments
;
The following automatic conversions were performed:

data item '_exptl_absorpt_correction_type' value 'Multi-scan' was
changed to 'multi-scan' in accordance with the
/home/saulius/struct/COD-crude-data/automatic-downloads/DataCite-retrospective/ACS/depositions/lib/dictionaries/cif_core.dic
dictionary named 'cif_core.dic' version 2.4.2 last updated on
2011-04-26.

Automatic conversion script
Id: cif_fix_values 6909 2019-04-08 15:41:33Z antanas 
;
_cod_original_sg_symbol_H-M      'P 21'
_cod_database_code               4132749
_shelx_shelxl_version_number     2014/8
_shelx_space_group_comment
;
The symmetry employed for this shelxl refinement is uniquely defined
by the following loop, which should always be used as a source of
symmetry information in preference to the above space-group names.
They are only intended as comments.
;
_shelx_estimated_absorpt_t_min   0.726
_shelx_estimated_absorpt_t_max   0.821
_shelx_res_file
;

    shelxl.res created by SHELXL-2014/8


TITL shelxl in P2(1)
CELL 0.71073   9.2512   9.9080  13.3636  90.000  93.827  90.000
ZERR    2.00   0.0019   0.0020   0.0027   0.000   0.030   0.000
LATT -1
SYMM -X, 0.5+Y, -Z
SFAC C  H  N  O  Br
UNIT 52 64 6 6 2
ACTA
CONF
HTAB
SIZE 0.20 0.18 0.12
TEMP -160
L.S. 8
BOND $H
FMAP 2
PLAN 20
WGHT    0.000000
FVAR       0.62351
MOLE 1
BR1   5    0.250745    0.648356   -0.144425    11.00000    0.03795    0.02765 =
         0.01879    0.00566    0.00159    0.00249
O1    4    0.312783    0.242325    0.500699    11.00000    0.02155    0.01522 =
         0.03108    0.00961   -0.00031    0.00105
O2    4    0.160377    0.393371    0.421330    11.00000    0.01277    0.01611 =
         0.01966    0.00362   -0.00147   -0.00243
O3    4    0.321122    0.282464    0.242630    11.00000    0.02696    0.01409 =
         0.02313    0.00197   -0.00084   -0.00196
N1    3    0.384828    0.501311    0.267588    11.00000    0.01837    0.01393 =
         0.01125    0.00258   -0.00171    0.00124
N2    3    0.331039    0.595883    0.477804    11.00000    0.01649    0.01668 =
         0.01809    0.00085    0.00108    0.00330
N3    3    0.365104    0.641183    0.563055    11.00000    0.02298    0.02082 =
         0.02047   -0.00179    0.00248    0.00395
C1    1    0.371841    0.641966    0.239395    11.00000    0.02328    0.00999 =
         0.01070   -0.00160   -0.00362    0.00011
C2    1    0.244729    0.706058    0.263327    11.00000    0.02400    0.02160 =
         0.01393    0.00026   -0.00261    0.00594
AFIX  43
H2    2    0.174596    0.656654    0.297036    11.00000   -1.20000
AFIX   0
C3    1    0.218355    0.838629    0.239440    11.00000    0.03151    0.02862 =
         0.01833   -0.00369   -0.00648    0.01237
AFIX  43
H3    2    0.130280    0.880353    0.255262    11.00000   -1.20000
AFIX   0
C4    1    0.320861    0.910129    0.192407    11.00000    0.04223    0.01667 =
         0.02831   -0.00292   -0.01056    0.00918
AFIX  43
H4    2    0.304333    1.002407    0.176071    11.00000   -1.20000
AFIX   0
C5    1    0.449488    0.848095    0.168354    11.00000    0.03222    0.02466 =
         0.02060    0.00588   -0.00611   -0.00620
AFIX  43
H5    2    0.519603    0.900137    0.136674    11.00000   -1.20000
AFIX   0
C6    1    0.479292    0.710602    0.189410    11.00000    0.02235    0.01546 =
         0.01337    0.00021   -0.00335   -0.00215
C7    1    0.625071    0.655912    0.156326    11.00000    0.02059    0.02272 =
         0.02046    0.00118    0.00203   -0.00687
C8    1    0.644423    0.500323    0.157632    11.00000    0.02465    0.03027 =
         0.02412    0.00538    0.00888    0.00916
AFIX 137
H8A   2    0.648907    0.467950    0.227065    11.00000   -1.50000
H8B   2    0.734401    0.476679    0.127036    11.00000   -1.50000
H8C   2    0.562182    0.458090    0.119621    11.00000   -1.50000
AFIX   0
C9    1    0.644083    0.697284    0.045562    11.00000    0.03796    0.03534 =
         0.03181    0.00886    0.01258   -0.00726
AFIX 137
H9A   2    0.565101    0.658700    0.002123    11.00000   -1.50000
H9B   2    0.737055    0.663302    0.024976    11.00000   -1.50000
H9C   2    0.642059    0.795888    0.039877    11.00000   -1.50000
AFIX   0
C10   1    0.747064    0.716902    0.224690    11.00000    0.02687    0.04533 =
         0.03591   -0.00190   -0.00151   -0.00640
AFIX 137
H10A  2    0.743135    0.815556    0.219994    11.00000   -1.50000
H10B  2    0.840677    0.684982    0.203782    11.00000   -1.50000
H10C  2    0.735604    0.689275    0.294129    11.00000   -1.50000
AFIX   0
C11   1    0.476233    0.467724    0.358213    11.00000    0.01354    0.01820 =
         0.01673    0.00283    0.00046    0.00175
AFIX  23
H11A  2    0.555689    0.534707    0.364994    11.00000   -1.20000
H11B  2    0.521083    0.378612    0.347506    11.00000   -1.20000
AFIX   0
C12   1    0.403667    0.462461    0.458687    11.00000    0.01424    0.01277 =
         0.01352    0.00249   -0.00169    0.00099
C13   1    0.518812    0.448318    0.546134    11.00000    0.01696    0.01879 =
         0.01505    0.00179   -0.00441   -0.00033
AFIX  23
H13A  2    0.616255    0.472589    0.525454    11.00000   -1.20000
H13B  2    0.521343    0.355415    0.573464    11.00000   -1.20000
AFIX   0
C14   1    0.465739    0.549697    0.622439    11.00000    0.03095    0.02185 =
         0.01541   -0.00040   -0.00399    0.00298
AFIX  23
H14A  2    0.414661    0.502729    0.675131    11.00000   -1.20000
H14B  2    0.548064    0.601052    0.654613    11.00000   -1.20000
AFIX   0
C15   1    0.287622    0.351299    0.462147    11.00000    0.01390    0.02356 =
         0.01162   -0.00364    0.00343   -0.00062
C16   1    0.029417    0.307197    0.426476    11.00000    0.01570    0.01964 =
         0.02013    0.00467   -0.00455   -0.00576
C17   1   -0.087974    0.391832    0.370706    11.00000    0.01854    0.02816 =
         0.03138    0.00489   -0.00449   -0.00213
AFIX 137
H17A  2   -0.095734    0.479221    0.404275    11.00000   -1.50000
H17B  2   -0.180953    0.344414    0.370566    11.00000   -1.50000
H17C  2   -0.062602    0.406198    0.301470    11.00000   -1.50000
AFIX   0
C18   1    0.047147    0.171920    0.374320    11.00000    0.02969    0.02288 =
         0.02659   -0.00065   -0.00015   -0.00803
AFIX 137
H18A  2    0.082665    0.187038    0.307769    11.00000   -1.50000
H18B  2   -0.046605    0.125640    0.367339    11.00000   -1.50000
H18C  2    0.116776    0.116128    0.414329    11.00000   -1.50000
AFIX   0
C19   1   -0.005817    0.291529    0.536039    11.00000    0.02479    0.02802 =
         0.02259    0.00171    0.00321   -0.00496
AFIX 137
H19A  2    0.065004    0.231011    0.570483    11.00000   -1.50000
H19B  2   -0.103221    0.253492    0.539019    11.00000   -1.50000
H19C  2   -0.001815    0.380040    0.568838    11.00000   -1.50000
AFIX   0
C20   1    0.313255    0.400513    0.215078    11.00000    0.01665    0.02206 =
         0.01503    0.00089    0.00193   -0.00033
C21   1    0.219515    0.436452    0.121204    11.00000    0.02037    0.01579 =
         0.01487   -0.00421   -0.00164    0.00141
C22   1    0.087699    0.370779    0.105296    11.00000    0.02482    0.02477 =
         0.01816   -0.00049    0.00356   -0.00014
AFIX  43
H22   2    0.056975    0.310254    0.154764    11.00000   -1.20000
AFIX   0
C23   1   -0.000680    0.391893    0.018020    11.00000    0.02198    0.03756 =
         0.02994   -0.00255   -0.00003   -0.00873
AFIX  43
H23   2   -0.091460    0.347257    0.008673    11.00000   -1.20000
AFIX   0
C24   1    0.045869    0.480221   -0.056415    11.00000    0.02664    0.03556 =
         0.01684   -0.00148   -0.00532    0.00199
AFIX  43
H24   2   -0.013146    0.497541   -0.115949    11.00000   -1.20000
AFIX   0
C25   1    0.178964    0.540101   -0.039918    11.00000    0.02520    0.02027 =
         0.01083   -0.00026    0.00379    0.00315
C26   1    0.266186    0.521878    0.045949    11.00000    0.02159    0.01525 =
         0.01679   -0.00243   -0.00087   -0.00091
AFIX  43
H26   2    0.357085    0.566464    0.054477    11.00000   -1.20000
AFIX   0
HKLF 4

REM  shelxl in P2(1)
REM R1 =  0.0284 for    3616 Fo > 4sig(Fo)  and  0.0489 for all    5676 data
REM    304 parameters refined using      1 restraints

END

WGHT      0.0148      0.0000

REM Instructions for potential hydrogen bonds
EQIV $1 -x+1, y+1/2, -z+1
HTAB C14 O3_$1
HTAB C18 O3
HTAB C18 O1
HTAB C19 O1
EQIV $2 -x, y-1/2, -z+1
HTAB C19 N2_$2

REM Highest difference peak  0.503,  deepest hole -0.569,  1-sigma level  0.063
Q1    1   0.2263  0.6191 -0.1225  11.00000  0.05    0.50
Q2    1   0.2529  0.6466  0.4399  11.00000  0.05    0.49
Q3    1   0.2269  0.6966 -0.1397  11.00000  0.05    0.39
Q4    1   0.2631  0.6518 -0.1770  11.00000  0.05    0.36
Q5    1   0.2077  0.5638 -0.0647  11.00000  0.05    0.34
Q6    1   0.2599  0.2401  0.5152  11.00000  0.05    0.26
Q7    1   0.2780  0.2773  0.4970  11.00000  0.05    0.23
Q8    1   0.3156  0.6570  0.5824  11.00000  0.05    0.23
Q9    1   0.4988  0.4166  0.5617  11.00000  0.05    0.23
Q10   1  -0.1157  0.1674  0.5259  11.00000  0.05    0.23
Q11   1  -0.1294  0.1477  0.2823  11.00000  0.05    0.23
Q12   1   0.3800  0.2958  0.2384  11.00000  0.05    0.22
Q13   1   0.1641  0.6001  0.2403  11.00000  0.05    0.21
Q14   1   0.2233  0.6945  0.3000  11.00000  0.05    0.21
Q15   1   0.4754  0.2328  0.6211  11.00000  0.05    0.21
Q16   1  -0.0060  0.3463 -0.1178  11.00000  0.05    0.21
Q17   1   0.3502  0.2715  0.4860  11.00000  0.05    0.21
Q18   1   0.3742  0.5802  0.2538  11.00000  0.05    0.21
Q19   1   0.0357  0.6429  0.0118  11.00000  0.05    0.20
Q20   1   0.2081  0.3635  0.4365  11.00000  0.05    0.20
;
_shelx_res_checksum              33605
_shelx_hkl_file
;
   0   0  -1    4.61    1.35
   0   0   1    5.05    1.68
   0   0   2   46.62    5.39
   0   0  -2   42.80    3.81
   0   0   2   45.91    5.49
   0   0  -2   46.39    8.77
   0   0   3 4658.09   93.30
   0   0  -3 4721.51   94.33
   0   0   3 4670.96   93.57
   0   0  -3 4625.69   92.28
   0   0  -3 4286.73   88.05
   0   0   3 4128.40   84.66
   0   0   4   23.26    5.28
   0   0  -4   24.10    4.36
   0   0   4   21.94    5.02
   0   0  -4   26.58    5.47
   0   0  -4   24.73    7.57
   0   0   4   21.89    4.53
   0   0   5  341.84   18.68
   0   0   5  308.94   15.36
   0   0  -5  309.05   11.48
   0   0  -5  279.05   15.24
   0   0   5  307.17   15.47
   0   0   6  105.13   12.13
   0   0   6   87.64   10.66
   0   0  -6  105.22   13.00
   0   0   7  622.59   30.70
   0   0   7  563.56   34.72
   0   0  -7  655.45   34.53
   0   0   8  479.04   35.95
   0   0   8  450.41   37.01
   0   0  -8  522.24   32.25
   0   0   9   83.50   11.49
   0   0   9   82.75   32.04
   0   0  -9   84.82   20.22
   0   0  10 1752.33   37.30
   0   0  10 1736.39  122.85
   0   0 -10 1722.82  133.88
   0   0  11  235.93   23.83
   0   0  11  210.98   20.66
   0   0 -11  218.47   25.48
   0   0  12   72.76   11.74
   0   0  12   79.48   50.06
   0   0 -12   71.19   15.63
   0   0  13   80.03   15.06
   0   0  13  102.77   47.96
   0   0 -13   74.47   21.22
   0   0  14   53.51   49.51
   0   0  14   65.99   55.24
   0   0 -14   69.94   18.97
   0   0  15  -10.49   13.57
   0   0  15    3.94    7.13
   0   0 -15    2.16    8.64
   0   0  16   -3.32   13.06
   0   0  16   -4.04   13.71
   0   0 -16    3.53   14.34
   0   0  17   47.74   49.49
   0   0  17   35.16   59.02
   0   0 -17   38.92   52.37
   0   1   0   -0.10    1.06
   0   1   0    0.43    1.17
   0   1   0   -0.15    1.66
   0  -1   0   -0.11    2.18
   0   1   3 2356.73   51.13
   0  -1  -3 2114.45   45.69
   0  -1   3 2191.29   46.61
   0   1  -3 2145.15   44.63
   0   1   3 2168.39   44.88
   0  -1  -3 2211.49   45.16
   0  -1   3 2430.00   54.67
   0   1  -3 2109.61   45.35
   0  -1  -3 2473.10   53.88
   0   1   3 2137.23   46.76
   0   1  -3 2329.28   51.84
   0   1   4  123.44    7.65
   0  -1  -4  136.38    7.36
   0  -1   4  145.79   14.51
   0   1  -4  118.73    5.96
   0   1   4  133.34    8.73
   0  -1  -4  146.11    6.75
   0  -1   4  118.59    7.60
   0   1  -4  110.56    7.76
   0  -1  -4  127.72   10.13
   0   1   4  108.85    7.29
   0   1  -4  115.45   11.38
   0  -1   4  119.19    8.73
   0   1   5 1760.34   53.01
   0  -1   5 1661.10   44.38
   0   1  -5 1582.68   36.91
   0   1   5 1795.64   41.08
   0  -1   5 1703.63   43.01
   0  -1  -5 1708.14   38.04
   0  -1  -5 1728.16   43.69
   0   1  -5 1680.41   49.13
   0   1   6  466.25   35.22
   0  -1   6  387.65   29.01
   0   1   6  496.60   34.43
   0  -1   6  367.44   26.70
   0  -1  -6  355.84   29.10
   0   1  -6  469.98   36.89
   0   1   7  294.82   22.14
   0  -1   7  347.60   24.96
   0   1   7  272.24   29.72
   0  -1   7  258.49   20.52
   0  -1  -7  300.52   23.86
   0   1  -7  335.88   28.13
   0   1   8  412.90   29.21
   0  -1   8  521.70   29.15
   0   1   8  426.81   39.95
   0  -1   8  410.81   36.43
   0  -1  -8  479.02   32.62
   0   1  -8  452.96   31.76
   0  -1   9  202.56   27.10
   0   1   9  308.50   22.49
   0   1   9  276.81   24.82
   0  -1   9  190.23   28.87
   0  -1  -9  217.05   22.23
   0   1  -9  282.19   23.91
   0   1  10  258.72   25.24
   0  -1  10  232.23   34.83
   0   1  10  266.63   32.86
   0  -1  10  243.60   26.34
   0  -1 -10  253.64   26.24
   0   1 -10  253.81   28.32
   0  -1  11   94.06   20.96
   0   1  11   87.69   22.30
   0   1  11   96.63   12.53
   0  -1  11  113.05   19.51
   0  -1 -11  114.33   13.77
   0   1 -11   91.59   13.66
   0   1  12  189.98   27.33
   0  -1  12  261.43   27.34
   0   1  12  204.07   22.97
   0  -1  12  266.05   71.78
   0  -1 -12  244.36   27.22
   0   1 -12  250.87   30.68
   0   1  13  263.95   26.18
   0  -1  13  279.99   29.19
   0   1  13  306.20   29.45
   0  -1  13  243.14   60.21
   0  -1 -13  314.48   33.69
   0   1 -13  276.33   33.77
   0   1  14   41.26   30.65
   0  -1  14   47.70   43.21
   0   1  14   45.87   29.51
   0  -1  14   44.94   14.40
   0  -1 -14   49.70   56.64
   0   1 -14   45.58   20.15
   0  -1  15   74.14   43.13
   0   1  15  126.93   20.64
   0   1  15  122.82   59.74
   0  -1  15   93.93   18.35
   0  -1 -15  101.80   16.93
   0   1 -15  128.53   19.37
   0   1  16  127.59   17.89
   0  -1  16  183.21   21.86
   0   1  16  103.18   26.26
   0  -1  16  130.75   20.00
   0  -1 -16  147.31   23.04
   0   1 -16  144.01   26.68
   0   1  17   18.75   19.70
   0  -1  17   21.06   31.55
   0   1  17   12.60   15.05
   0  -1  17   11.25   11.26
   0  -1 -17   22.87   26.14
   0   1 -17   18.51   21.52
   0   2   0   92.55    3.68
   0  -2   0   64.79    3.11
   0  -2   0   61.59    3.48
   0   2   0   86.37    3.85
   0   2   0  100.29    5.25
   0  -2   0   64.80    4.48
   0   2  -1  623.94   13.52
   0   2   1  686.00   16.37
   0  -2   1  751.43   18.43
   0   2  -1  614.14   15.38
   0  -2  -1  717.33   15.15
   0  -2   1  723.01   19.52
   0   2  -1  680.76   17.83
   0  -2  -1  742.61   19.20
   0   2   2  488.96   14.32
   0  -2  -2  464.59   16.19
   0  -2   2  454.08   14.55
   0   2  -2  566.64   15.61
   0  -2  -2  468.17   10.19
   0  -2   2  514.43   16.37
   0   2  -2  504.44   16.26
   0  -2  -2  548.39   16.24
   0   2   2  501.34   17.32
   0  -2   3  937.34   21.13
   0   2   3 1147.13   28.42
   0  -2  -3  982.03   24.77
   0  -2   3  964.86   22.38
   0  -2   3  951.49   28.38
   0  -2   3  932.25   25.71
   0   2  -3 1174.31   31.50
   0  -2  -3  950.77   24.82
   0   2   3 1119.72   29.27
   0  -2   4  803.09   21.34
   0   2   4  631.80   19.10
   0  -2   4  777.40   20.81
   0  -2   4  824.89   26.56
   0   2   4  640.72   19.81
   0   2  -4  666.20   24.11
   0   2   5  133.95   10.21
   0  -2   5  151.30    8.60
   0   2  -5  132.58    6.98
   0   2   5  139.26    8.73
   0  -2  -5  145.11   10.56
   0  -2   5  136.74   14.17
   0  -2  -5  131.19    9.16
   0   2  -5  119.35   11.29
   0   2   6  588.14   28.66
   0  -2   6  653.08   29.41
   0   2   6  637.80   28.87
   0  -2   6  668.93   32.84
   0  -2  -6  643.99   28.55
   0  -2  -6  667.65   38.63
   0   2  -6  644.65   35.43
   0   2   7  433.96   28.35
   0  -2   7  462.00   29.52
   0   2   7  427.89   31.60
   0  -2   7  429.08   27.83
   0  -2  -7  458.31   38.65
   0   2  -7  464.89   39.93
   0   2   8  355.49   24.73
   0  -2   8  309.95   20.33
   0   2   8  330.97   26.38
   0  -2   8  307.05   29.02
   0  -2  -8  326.40   23.86
   0   2  -8  319.44   26.00
   0  -2   9  490.57   31.17
   0   2   9  481.36   29.82
   0   2   9  470.06   42.29
   0  -2   9  473.45   35.06
   0  -2  -9  566.49   33.27
   0   2  -9  451.87   35.86
   0  -2  10  475.30   42.38
   0   2  10  450.96   38.58
   0   2  10  428.70   37.28
   0  -2  10  507.23   46.70
   0  -2 -10  538.99   42.34
   0   2 -10  485.25   43.22
   0   2  11  480.90   41.08
   0  -2  11  452.62   34.15
   0   2  11  448.48   32.32
   0  -2  11  448.43   42.12
   0  -2 -11  451.96   35.32
   0   2 -11  486.64   44.69
   0   2  12   92.89   15.19
   0  -2  12  114.63   16.29
   0   2  12   87.15   20.67
   0  -2  12   93.34   19.14
   0  -2 -12  101.73   14.54
   0   2 -12   95.87   28.29
   0   2  13  144.34   18.61
   0  -2  13  161.81   30.30
   0   2  13  147.03   17.82
   0  -2  13  168.37   38.80
   0  -2 -13  138.16   18.88
   0   2 -13  170.39   27.78
   0   2  14  212.20   31.56
   0  -2  14  221.48   20.33
   0   2  14  184.97   18.13
   0  -2  14  200.90   32.91
   0  -2 -14  218.73   21.79
   0   2 -14  229.61   29.31
   0   2  15   15.04   17.08
   0  -2  15   23.99   19.66
   0   2  15   11.74   13.11
   0  -2  15   21.97   16.83
   0  -2 -15   18.92   27.26
   0   2 -15   11.84   18.27
   0  -2  16   12.65   14.67
   0   2  16   11.90   12.44
   0  -2  16    8.26   13.01
   0  -2 -16    0.35   12.69
   0   2 -16    3.87   15.44
   0  -2  17  177.90   31.11
   0   2  17  185.26   62.37
   0  -2  17  196.59   26.80
   0  -2 -17  230.77   23.47
   0   2 -17  221.60   33.55
   0   3   0   -0.44    2.22
   0  -3   0    1.27    2.44
   0  -3   0    0.05    2.10
   0   3   0   -0.33    2.55
   0  -3   0   -1.05    5.69
   0   3   0   -0.27    4.32
   0   3  -1 1040.22   21.96
   0   3   1 1124.72   25.92
   0  -3  -1 1208.04   30.47
   0  -3  -1 1272.80   27.15
   0  -3   1 1164.49   27.92
   0   3  -1 1085.93   25.57
   0   3   1 1145.28   25.36
   0   3  -1 1045.50   26.90
   0  -3  -1 1170.07   30.05
   0   3   1 1125.90   27.80
   0   3  -2  492.89   11.26
   0   3   2  522.37   15.98
   0  -3  -2  490.95   14.86
   0  -3   2  517.25   17.38
   0   3  -2  519.97   15.50
   0   3   2  509.77   11.75
   0  -3   2  452.09   18.27
   0  -3  -2  462.19   27.71
   0  -3   3  789.15   18.10
   0  -3  -3  836.73   17.35
   0  -3   3  782.18   24.52
   0  -3  -3  756.41   15.62
   0  -3   3  786.36   30.96
   0  -3  -3  810.58   24.51
   0  -3   4  295.07    9.07
   0   3   4  293.53   13.12
   0  -3   4  291.65    9.93
   0   3   4  256.91    7.82
   0  -3   4  296.27   27.81
   0  -3   4  290.44   16.31
   0  -3  -4  256.54   25.03
   0  -3   5 1686.68   66.92
   0   3   5 1783.23   73.83
   0  -3   5 1756.11   69.53
   0   3   5 1704.75   67.82
   0  -3   5 1832.13   77.38
   0  -3  -5 1697.19   70.38
   0   3  -5 1803.44   76.93
   0  -3   6  704.00   31.14
   0   3   6  893.18   41.11
   0  -3   6  691.85   30.76
   0   3   6  803.44   34.06
   0  -3   6  741.11   47.68
   0  -3  -6  701.82   30.43
   0  -3  -6  676.80   32.41
   0   3  -6  790.03   40.51
   0   3   7    4.70    8.53
   0  -3   7    4.19    6.71
   0   3   7    3.50    4.54
   0  -3   7    1.54    5.50
   0  -3  -7    2.42    3.83
   0  -3  -7    6.14    7.01
   0   3  -7    6.13   10.27
   0   3   8  427.25   38.93
   0  -3   8  404.95   23.06
   0   3   8  433.03   26.65
   0  -3   8  422.31   29.41
   0  -3  -8  403.01   26.69
   0   3  -8  490.00   34.95
   0   3   9  512.48   54.00
   0  -3   9  532.84   44.20
   0   3   9  534.91   40.15
   0  -3   9  535.81   47.58
   0  -3  -9  477.91   43.98
   0   3  -9  481.71   44.63
   0  -3  10   51.55   17.16
   0   3  10   25.85   19.12
   0   3  10   25.62   18.48
   0  -3  10   55.39   28.56
   0  -3 -10   46.34   26.34
   0   3 -10   35.96   32.88
   0   3  11  140.96   14.76
   0  -3  11   94.40   10.10
   0   3  11  145.02   24.54
   0  -3  11  110.60   18.01
   0  -3 -11  111.72   38.79
   0   3 -11  141.78   21.39
   0   3  12  180.62   34.71
   0  -3  12  140.10   13.02
   0   3  12  185.50   24.35
   0  -3  12  141.75   17.88
   0  -3 -12  157.96   21.06
   0   3 -12  220.73   31.18
   0   3  13  184.60   23.02
   0  -3  13  212.65   21.52
   0   3  13  184.74   40.39
   0  -3  13  199.47   23.77
   0  -3 -13  196.40   22.00
   0   3 -13  221.37   30.04
   0  -3  14    3.20    5.30
   0   3  14    9.64    9.69
   0   3  14    8.11   13.73
   0  -3  14   -1.40   16.10
   0  -3 -14    4.48    5.89
   0   3 -14   13.26   17.35
   0   3  15  135.31   67.90
   0  -3  15  129.86   20.73
   0  -3  15   92.80   84.95
   0  -3 -15  147.16   21.60
   0   3 -15  145.73   23.47
   0   3  16  130.86   23.41
   0  -3  16  153.40   18.43
   0  -3  16  144.47   63.44
   0  -3 -16  109.48   58.22
   0   3 -16  135.19   36.46
   0  -3  17   -3.40   12.31
   0   3  17    6.33    8.01
   0  -3  17    1.30    7.88
   0  -3 -17    7.13   10.64
   0   3 -17    2.03   18.30
   0   4   0 2447.55   51.66
   0  -4   0 2158.89   46.40
   0  -4   0 2060.17   45.64
   0   4   0 2332.47   49.58
   0  -4   0 2379.79   56.14
   0   4  -1  343.18    9.58
   0   4   1  349.49   12.09
   0  -4  -1  280.03   10.50
   0  -4   1  293.96   11.90
   0  -4  -1  276.33   10.52
   0   4  -1  346.41   12.10
   0   4   1  346.27   10.37
   0  -4   1  283.74   15.00
   0  -4  -1  277.69   14.10
   0   4  -2  169.30   10.82
   0   4   2  188.76   14.22
   0  -4   2  163.34   13.30
   0  -4  -2  143.10    9.80
   0   4   2  169.55   11.18
   0  -4   2  150.82   15.20
   0  -4  -2  156.25   13.35
   0   4  -3  877.00   35.04
   0   4   3 1214.10   51.56
   0  -4   3 1054.17   47.78
   0  -4  -3  932.42   36.22
   0  -4   3  998.60   54.17
   0  -4  -3  979.85   43.43
   0   4   4 1586.83   66.12
   0  -4   4 1608.47   62.82
   0  -4   4 1518.93   68.87
   0  -4   4 1604.33   74.43
   0  -4  -4 1566.85   66.18
   0  -4   5  108.65   11.37
   0   4   5  132.23   13.34
   0  -4   5  115.22    8.69
   0  -4   5  112.58   14.65
   0  -4  -5  120.01    7.89
   0  -4  -5  125.26    7.96
   0  -4   5  116.38   14.43
   0  -4  -5  118.76   11.95
   0  -4   6  239.18   16.28
   0   4   6  267.52   18.45
   0  -4   6  249.25   20.59
   0  -4   6  272.30   22.45
   0  -4  -6  237.11   15.21
   0  -4  -6  278.55   19.94
   0   4  -6  278.62   23.30
   0   4   7 1015.59   51.82
   0  -4   7  967.95   48.36
   0  -4   7 1070.77   57.33
   0  -4  -7 1155.51   30.01
   0   4  -7 1024.02   56.14
   0   4   8   76.37   13.09
   0  -4   8   91.73    8.02
   0   4   8   79.71   12.33
   0  -4   8  100.53   40.09
   0  -4  -8   81.20    5.64
   0  -4  -8   80.91   10.93
   0   4  -8   74.40   14.27
   0   4   9   56.59   51.92
   0  -4   9   58.01    7.80
   0   4   9   62.52   11.75
   0  -4   9   55.84   15.20
   0  -4  -9   60.68    4.88
   0  -4  -9   63.27   46.78
   0   4  -9   59.60   33.96
   0   4  10  146.11   56.09
   0  -4  10  114.16    8.75
   0   4  10  143.03    9.94
   0  -4  10  106.89   21.30
   0  -4 -10  135.98   16.17
   0   4 -10  128.52   17.25
   0   4  11  101.19   22.86
   0  -4  11  117.16   23.70
   0   4  11  109.30   10.04
   0  -4  11  111.11   23.00
   0  -4 -11  115.30   14.75
   0   4 -11   79.18   21.75
   0   4  12   64.24   61.21
   0  -4  12   47.48   19.18
   0   4  12   47.05    8.81
   0  -4  12   46.34   46.82
   0  -4 -12   53.14   40.30
   0   4 -12   37.38   44.36
   0   4  13  201.54   86.33
   0  -4  13  180.11   16.26
   0  -4  13  219.92   30.20
   0  -4 -13  185.21   48.67
   0   4 -13  150.87   29.02
   0   4  14  247.02   24.73
   0  -4  14  237.03   17.72
   0  -4  14  248.80   35.56
   0  -4 -14  238.05   19.52
   0   4 -14  248.66   30.13
   0   4  15   45.14   33.83
   0  -4  15   25.56   22.54
   0  -4  15   30.62   27.83
   0  -4 -15   35.75   44.18
   0   4 -15   46.00   19.07
   0   4  16   24.04   17.17
   0  -4  16   13.68   14.97
   0  -4 -16   16.23   31.28
   0   4 -16   17.18   21.43
   0   5   0   -1.02    3.30
   0  -5   0   -1.33    2.87
   0  -5   0    0.71    3.00
   0   5   0    1.24    1.44
   0  -5   0   -3.69    8.31
   0   5  -1  300.31   20.35
   0   5   1  319.22   21.37
   0  -5   1  401.18   25.22
   0  -5  -1  452.59   29.50
   0  -5  -1  438.19   28.43
   0  -5   1  477.06   32.04
   0   5   1  299.87   19.60
   0  -5   1  443.33   32.42
   0  -5  -1  441.58   31.49
   0   5  -2  287.40   18.82
   0   5   2  270.09   18.81
   0  -5  -2  378.26   23.77
   0  -5   2  400.42   27.76
   0   5   2  274.05   18.18
   0  -5   2  394.81   30.70
   0  -5  -2  391.21   29.77
   0   5  -3  906.81   35.69
   0  -5   3  917.87   35.95
   0   5   3 1096.31   47.58
   0  -5  -3  923.99   36.77
   0  -5   3 1013.58   47.10
   0   5   3  937.56   37.37
   0  -5   3 1031.18   49.47
   0  -5  -3  904.83   48.27
   0  -5   4  230.60   14.79
   0   5   4  220.67   17.87
   0  -5   4  231.69   15.47
   0  -5   4  234.84   19.58
   0  -5   4  236.03   24.75
   0  -5  -4  234.35   19.55
   0  -5   5  198.25   13.67
   0   5   5  208.87   18.34
   0  -5   5  198.66   14.76
   0  -5   5  211.37   21.03
   0  -5   5  209.74   21.80
   0  -5  -5  210.43   18.14
   0   5   6  488.46   33.93
   0  -5   6  510.39   25.06
   0  -5   6  510.07   45.52
   0  -5   6  481.91   35.41
   0  -5  -6  494.50   30.93
   0  -5   7   83.82    5.52
   0   5   7  107.07   27.41
   0  -5   7   92.70    7.02
   0  -5   7   84.71   13.95
   0  -5  -7   84.19   11.83
   0   5  -7   93.98   27.67
   0   5   8  247.72   24.12
   0  -5   8  282.33   20.10
   0  -5   8  323.99   33.10
   0  -5  -8  302.35   18.17
   0  -5  -8  292.52   17.98
   0  -5  -8  317.28   25.81
   0   5  -8  250.01   28.50
   0   5   9  101.66   15.49
   0  -5   9   75.36    6.85
   0  -5   9  106.49   32.49
   0  -5  -9   88.63   11.55
   0   5  -9   94.77   18.32
   0   5  10   41.55   28.58
   0  -5  10   27.31   17.42
   0  -5  10   31.42   22.27
   0  -5 -10   27.75   16.49
   0   5 -10   35.29   14.81
   0   5  11  119.00   18.19
   0  -5  11  158.71   11.38
   0  -5  11  164.96   30.95
   0  -5 -11  188.65   21.15
   0   5 -11  128.38   53.61
   0  -5  12   86.48    9.77
   0   5  12  132.35   18.44
   0  -5  12   79.90   54.15
   0  -5 -12   90.85   15.50
   0   5 -12  136.10   67.01
   0   5  13  139.98   75.83
   0  -5  13  165.38   14.13
   0  -5  13  155.84   24.11
   0  -5 -13  170.23   18.47
   0   5 -13  178.90   58.21
   0   5  14    3.93   14.49
   0  -5  14    7.00   15.65
   0  -5 -14    8.54    8.61
   0   5 -14    8.97   17.48
   0   5  15  100.47   22.97
   0  -5  15   64.28   66.39
   0  -5 -15   75.54   57.41
   0   5 -15   98.25   24.35
   0   5  16  127.51   22.77
   0  -5  16  177.96   25.83
   0  -5 -16  170.53   22.45
   0   5 -16  166.13   35.33
   0   6   0  833.33   38.77
   0  -6   0  729.21   34.93
   0  -6   0  750.40   36.71
   0  -6   0  756.19   42.58
   0   6  -1  520.29   24.79
   0   6   1  518.73   34.40
   0  -6   1  386.50   20.17
   0  -6   1  409.62   24.30
   0  -6  -1  404.31   21.36
   0   6   1  500.61   24.79
   0  -6   1  418.75   40.97
   0  -6  -1  392.70   31.93
   0   6  -2  168.87   11.47
   0   6   2  173.65   18.05
   0  -6  -2  134.80   10.29
   0  -6   2  142.60   15.66
   0   6   2  171.14   12.13
   0  -6   2  136.86   25.81
   0  -6  -2  135.59   18.26
   0   6  -3  516.17   23.27
   0   6   3  585.24   31.11
   0  -6  -3  655.80   31.48
   0  -6   3  679.51   48.33
   0   6   3  573.39   26.71
   0  -6   3  741.50   42.62
   0  -6  -3  743.73   43.49
   0   6   4  556.55   30.39
   0  -6   4  401.61   17.21
   0  -6   4  505.52   31.20
   0  -6   4  505.38   42.71
   0  -6  -4  487.29   32.24
   0  -6   5  115.33    8.78
   0   6   5  107.29   14.80
   0  -6   5  125.92   16.22
   0  -6   5  118.71   19.74
   0  -6  -5  113.89   17.89
   0  -6   6   74.44    6.03
   0   6   6   66.44   11.12
   0  -6   6   68.51    3.50
   0  -6   6   88.07   50.87
   0  -6   6   83.10   50.75
   0  -6  -6   76.83   12.25
   0  -6   7  792.01   47.71
   0   6   7  865.19   57.77
   0  -6   7  766.43   45.39
   0  -6   7  845.35   61.50
   0  -6   7  828.48   62.70
   0  -6  -7  872.41   62.20
   0   6   8   58.97   34.52
   0  -6   8   72.36    5.26
   0  -6   8   84.82   45.52
   0  -6  -8   71.59   50.80
   0   6  -8   61.15   39.15
   0   6   9  118.82   17.77
   0  -6   9   75.85    6.30
   0  -6   9   82.58   58.19
   0  -6  -9   97.17   23.46
   0   6  -9  131.06   72.87
   0   6  10  980.86   77.79
   0  -6  10  864.49   74.01
   0  -6 -10 1006.49   46.35
   0   6 -10  983.40   55.22
   0   6  11   90.21   40.06
   0  -6  11   72.65   72.65
   0  -6 -11   91.73   17.55
   0   6 -11   76.76   28.20
   0   6  12    7.21   12.51
   0  -6  12    4.72   11.64
   0  -6 -12    9.76   10.46
   0   6 -12   13.80   17.62
   0   6  13  253.83   23.50
   0  -6  13  236.55   25.79
   0  -6 -13  273.73   22.64
   0   6 -13  262.36   31.88
   0   6  14   70.22   63.56
   0  -6  14  112.49   95.49
   0  -6 -14  107.86   18.31
   0   6 -14   79.51   30.38
   0   6  15    8.49   22.75
   0  -6  15   13.00   17.12
   0  -6 -15   14.25   30.09
   0   6 -15   10.78   27.53
   0   7   0    0.22    2.20
   0  -7   0    1.14    1.56
   0  -7   0   -1.76   11.73
   0   7  -1  427.45   21.36
   0   7   1  427.50   22.72
   0  -7   1  426.82   22.75
   0  -7   1  438.16   25.57
   0  -7  -1  440.68   27.72
   0  -7   1  475.40   55.61
   0  -7  -1  412.62   37.30
   0   7  -2  421.08   30.28
   0   7   2  438.67   33.47
   0  -7   2  455.28   32.48
   0  -7   2  477.91   37.23
   0  -7  -2  475.05   34.94
   0   7   2  392.30   28.67
   0  -7   2  458.55   45.37
   0  -7  -2  461.67   38.29
   0   7  -3   43.18    2.36
   0   7   3   48.21   31.44
   0  -7   3   30.78    1.90
   0  -7   3   44.38   33.45
   0  -7  -3   36.34    4.19
   0   7   3   46.22    9.31
   0  -7   3   35.88   38.01
   0  -7  -3   34.28   23.78
   0   7   4  140.68   11.64
   0  -7  -4  144.35    3.25
   0  -7  -4  151.80    3.35
   0  -7   4  152.88   16.35
   0  -7   4  162.61   20.09
   0  -7  -4  150.53   19.21
   0   7   5  333.31   25.63
   0  -7   5  267.70   25.68
   0  -7   5  300.59   61.27
   0  -7  -5  276.62   36.15
   0   7   6  135.10   18.88
   0  -7   6   92.77   14.42
   0  -7   6  105.45   22.79
   0  -7  -6  101.34   18.39
   0   7   7    5.89    9.97
   0  -7   7    6.82   11.21
   0  -7   7    6.64    9.77
   0  -7  -7   11.89   16.35
   0   7   8  166.70   52.83
   0  -7   8  186.53   26.08
   0  -7  -8  203.49   30.82
   0   7   9  151.18   19.34
   0  -7   9  116.66   19.20
   0  -7  -9  165.36   24.27
   0   7  -9  160.15   26.11
   0   7  10   76.97   52.67
   0  -7  10  126.91   87.90
   0  -7 -10  119.11   19.70
   0   7 -10   94.62   66.65
   0   7  11  121.69   36.26
   0  -7  11  114.10   24.17
   0  -7 -11  119.04   17.27
   0   7 -11  103.27   29.78
   0   7  12   79.43   65.55
   0  -7  12   94.51   89.37
   0  -7 -12  125.71   16.61
   0   7 -12  125.68   29.13
   0   7  13   82.71   83.39
   0  -7  13   60.08   52.55
   0  -7 -13   76.54   39.96
   0   7 -13   55.66   54.65
   0   7  14   -2.20   16.41
   0  -7  14   11.71   13.51
   0  -7 -14    6.58   10.81
   0   7 -14    1.41   17.41
   0   8   0  572.29   37.10
   0  -8   0  590.25   38.78
   0  -8   0  596.58   56.07
   0   8  -1  233.05   16.14
   0   8   1  243.33   18.64
   0  -8   1  195.92   16.20
   0  -8  -1  222.04   17.98
   0  -8   1  230.03   24.63
   0  -8  -1  200.78   39.63
   0   8  -2   46.26    3.86
   0   8   2   47.98   24.30
   0  -8  -2   45.31   18.91
   0  -8   2   41.88   35.33
   0  -8   2   45.78   36.52
   0  -8  -2   39.01   30.34
   0   8   3  142.82   24.35
   0  -8  -3  175.42    8.93
   0  -8   3  145.62   18.03
   0  -8   3  166.86   30.00
   0  -8  -3  186.02   25.06
   0   8   4  290.81   22.93
   0  -8   4  257.95   18.46
   0  -8   4  292.29   35.06
   0  -8  -4  248.66   21.03
   0   8   5   46.37   33.20
   0  -8   5   60.31   49.26
   0  -8   5   64.58   46.97
   0  -8  -5   69.30   55.07
   0   8   6   33.35   24.60
   0  -8   6   56.37   25.21
   0  -8   6   74.45   20.15
   0  -8  -6   47.74   42.55
   0   8   7  288.04   25.93
   0  -8   7  275.55   29.74
   0  -8   7  300.63   35.48
   0  -8  -7  315.55   37.47
   0   8   8   63.46   44.29
   0  -8   8   73.67   65.98
   0  -8   8   77.61   51.92
   0  -8  -8   95.68   71.76
   0   8   9   33.36   25.61
   0  -8   9   27.72   27.83
   0  -8  -9   34.39   41.34
   0   8  -9   34.06   34.96
   0   8  10  120.07   38.25
   0  -8  10  109.48   24.95
   0  -8 -10  106.46   19.87
   0   8 -10   90.31   23.26
   0   8  11  246.06   78.07
   0  -8  11  228.81   26.33
   0  -8 -11  221.85   23.99
   0   8 -11  247.55   36.21
   0   8  12   51.42   51.17
   0  -8  12   52.18   44.30
   0  -8 -12   43.46   42.37
   0   8 -12   61.75   32.30
   0   8  13   16.85   17.34
   0  -8  13   31.67   37.26
   0  -8 -13   27.81   30.77
   0   8 -13   35.35   26.63
   0   9   0    2.58    3.46
   0  -9   0    0.53    3.23
   0  -9   0    1.54    7.27
   0   9   1  521.34   43.06
   0  -9  -1  475.03   41.01
   0  -9   1  446.03   39.17
   0  -9  -1  471.19   53.14
   0  -9   1  424.48   45.89
   0   9   2   92.93    9.10
   0  -9  -2   98.87    9.28
   0  -9   2   94.94   13.58
   0  -9   2  123.24   23.64
   0  -9  -2  107.91   31.95
   0   9   3   64.04   19.27
   0  -9   3   77.27   16.22
   0  -9   3   87.58   55.08
   0  -9  -3   85.67   17.00
   0   9   4   95.88   12.22
   0  -9   4   94.45   45.19
   0  -9   4   90.61   22.96
   0  -9  -4  111.28   18.82
   0   9   5   88.82   12.53
   0  -9   5  119.11   18.46
   0  -9   5  130.79   51.38
   0  -9  -5  125.25   20.07
   0   9   6  102.02   17.63
   0  -9   6  142.65   20.47
   0  -9   6  156.67   27.73
   0  -9  -6  173.58   24.68
   0   9   7   69.26   12.65
   0  -9   7   58.61   48.53
   0  -9   7   56.49   39.06
   0  -9  -7   60.00   54.92
   0   9   8   89.42   16.13
   0  -9   8   47.14   51.37
   0  -9   8   58.88   49.53
   0  -9  -8   51.35   34.68
   0   9   9  211.87   48.00
   0  -9   9  202.74   26.22
   0  -9  -9  176.81   26.09
   0   9  -9  173.36   26.27
   0   9  10   14.30   13.96
   0  -9  10    9.20   19.75
   0  -9 -10    5.57   12.98
   0   9 -10   23.98   22.36
   0   9  11   -4.46   15.11
   0  -9  11    6.92   24.78
   0  -9 -11    1.69    9.79
   0   9 -11    8.08   13.22
   0   9  12   18.12   30.33
   0  -9  12   10.86   16.61
   0  -9 -12   17.19   16.30
   0   9 -12   15.25   20.35
   0 -10   0  113.45   13.62
   0 -10   0  107.89   20.92
   0 -10   1   45.49   47.44
   0 -10  -1   55.45   10.80
   0 -10   1   50.54   42.21
   0 -10  -1   51.53   52.15
   0  10   2   13.29   12.99
   0 -10   2   10.51   15.62
   0 -10   2   13.07   14.58
   0 -10  -2    7.03   17.96
   0  10   3  182.40   16.39
   0 -10   3  204.05   35.37
   0 -10   3  216.67   27.53
   0 -10  -3  263.67   49.70
   0  10   4  204.55   20.61
   0 -10   4  169.35   45.50
   0 -10   4  225.06   26.01
   0 -10  -4  232.37   28.42
   0  10   5   31.08   31.42
   0 -10   5   42.02   40.59
   0 -10   5   33.67   38.67
   0 -10  -5   45.03   30.46
   0  10   6  100.83   14.91
   0 -10   6   94.96   17.06
   0 -10   6  132.52   23.45
   0 -10  -6   99.40   88.56
   0  10   7   89.95   29.71
   0 -10   7  101.12   17.96
   0 -10   7   91.34   85.10
   0 -10  -7  104.81   59.70
   0  10   8   85.49   14.72
   0 -10   8   49.52   44.34
   0 -10   8   66.48   79.29
   0 -10  -8   77.36   57.04
   0  10   9    6.39   12.77
   0 -10   9    1.58   16.46
   0 -10  -9    8.93    9.48
   0  10  -9   -5.35   20.62
   0  10  10  130.13   75.11
   0 -10  10  144.58   23.81
   0 -10 -10  158.83   28.24
   0  10 -10  129.02   27.54
   0  10  11   32.32   40.89
   0 -10  11   50.21   67.28
   0 -10 -11   61.78   81.71
   0  10 -11   29.96   33.89
   0 -11   0   -5.90   18.95
   0 -11   1   26.10   29.79
   0 -11   1   20.12   20.77
   0 -11  -1   49.52   62.63
   0 -11   2   83.31   22.24
   0 -11   2  132.75   23.24
   0 -11  -2  125.12   22.84
   0 -11   3   59.83   58.53
   0 -11   3   59.40   56.79
   0 -11  -3   84.27   52.80
   0 -11   4   17.16   23.49
   0 -11   4   31.01   31.97
   0 -11  -4   30.50   31.19
   0  11   5   32.27   32.76
   0 -11   5   32.48   29.71
   0 -11   5   42.66   52.01
   0 -11  -5   30.01   38.05
   0  11   6   67.84   11.93
   0 -11   6   60.10   65.43
   0 -11   6   73.36   45.54
   0 -11  -6   88.50   33.16
   0  11   7   16.51   29.47
   0 -11   7   13.81   15.73
   0 -11   7   20.68   32.41
   0 -11  -7   15.99   16.61
   0  11   8  123.80   49.94
   0 -11   8  124.89   22.65
   0 -11   8  155.32   24.56
   0 -11  -8  138.65   25.67
   0  11   9   32.58   45.65
   0 -11   9   36.05   56.88
   0 -11  -9   48.76   53.17
   0 -12   0  121.43   51.83
   0 -12   1    4.91   15.10
   0 -12  -1    8.21   15.20
   0 -12   2    2.86   14.04
   0 -12  -2   12.80   17.44
   0 -12   3   21.80   26.85
   0 -12   3   47.84   59.58
   0 -12  -3   33.46   35.95
   0 -12   4   74.67   16.80
   0 -12   4   67.19   73.16
   0 -12  -4   66.61   82.52
   0 -12   5   17.00   25.69
   0 -12   5   14.75   17.03
   0 -12  -5   23.53   37.02
   0 -12   6   13.26   13.36
   0 -12   6   20.56   28.29
   0 -12  -6   25.37   25.52
   0 -13   0   -0.17   20.55
   0 -13   1   25.65   41.16
   0 -13  -1   14.00   38.14
  -1   0  17    4.47    7.66
  -1   0  17    2.42    7.23
   1   0 -17   -0.30   15.05
  -1   0  16  129.93   18.80
  -1   0  16  106.74   17.13
   1   0 -16  139.64   22.73
  -1   0  15  214.76   23.67
  -1   0  15  245.05   21.59
   1   0 -15  254.43   22.72
  -1   0  14   27.37   24.20
  -1   0  14   34.21   31.96
   1   0 -14   34.53   40.70
  -1   0  13  184.42   20.94
  -1   0  13  194.01   24.47
   1   0 -13  193.49   24.24
  -1   0  12  344.22   34.30
  -1   0  12  390.84   38.18
   1   0 -12  321.86   37.54
  -1   0  11   39.58   37.80
  -1   0  11   32.31   29.48
   1   0 -11   32.07   27.79
  -1   0  10    3.43   10.01
  -1   0  10    4.41    6.93
   1   0 -10    0.52    7.27
  -1   0   9  133.50   14.90
  -1   0   9  136.16   18.71
   1   0  -9  135.97   16.35
  -1   0   8 1125.02   55.57
  -1   0   8 1147.10   61.07
   1   0  -8 1049.29   53.04
  -1   0   7   53.77    8.70
  -1   0   7   57.70    7.59
   1   0  -7   65.54   18.89
  -1   0   6   62.59   10.70
  -1   0   6   78.37   16.95
   1   0  -6   72.98    9.68
  -1   0   6   60.58    8.32
  -1   0   5 3513.63   75.75
  -1   0   5 3263.62   69.35
   1   0  -5 3402.41   71.98
   1   0  -5 3338.23   72.07
  -1   0   5 3067.43   66.46
  -1   0   4  215.18   10.82
  -1   0   4  245.26   10.06
   1   0  -4  226.50    8.96
   1   0  -4  202.65   13.03
  -1   0   4  233.18   11.50
  -1   0   3    3.90    2.04
  -1   0   3    6.04    3.30
  -1   0   3    4.23    3.66
   1   0  -3    4.57    4.31
   1   0  -3    7.34    6.32
  -1   0   3    4.66    5.66
   1   0  -2  232.53    8.21
  -1   0   2  229.35    8.03
  -1   0   2  234.15    7.75
   1   0  -2  244.93    7.77
   1   0  -2  219.59    6.36
  -1   0   2  194.26    6.20
   1   0  -1  274.12    8.41
  -1   0   1  244.37    8.62
  -1   0   1  219.90    6.94
   1   0  -1  262.43    8.63
   1   0   0  998.43   21.63
  -1   0   0 1038.30   22.58
   1   0   0  952.59   21.45
  -1   0   0 1048.59   22.28
   1   0   0 1017.73   21.74
  -1   0  -1   26.53    2.54
   1   0   1   29.30    2.81
   1   0   1   31.37    4.85
  -1   0  -1   29.05    2.92
  -1   0  -2 4815.40  282.26
   1   0   2 4740.61   95.53
  -1   0  -2 4653.70   93.55
  -1   0  -2 4863.28  286.12
   1   0   2 4692.87   95.41
   1   0   3 3865.49   78.83
  -1   0  -3 3838.32   77.60
   1   0   3 3934.72   82.34
  -1   0  -3 4057.11   83.19
  -1   0  -3 4152.03   88.10
   1   0   3 3725.92   79.23
   1   0   4  161.42    9.28
  -1   0  -4  155.87    7.70
   1   0   4  170.15    9.65
  -1   0  -4  176.59   12.01
  -1   0  -4  164.96   12.23
   1   0   4  154.18   10.16
   1   0   5 3652.76   77.77
   1   0   5 3614.20   79.83
  -1   0  -5 3547.52   82.08
   1   0   6  518.82   36.39
   1   0   6  487.39   33.45
  -1   0  -6  582.60   30.97
   1   0   7  412.22   28.78
   1   0   7  383.25   27.81
  -1   0  -7  374.67   30.82
   1   0   8 1144.09   71.98
   1   0   8 1169.21   70.42
  -1   0  -8 1209.46   62.85
   1   0   9  407.88   31.61
   1   0   9  389.39   25.68
  -1   0  -9  430.34   31.62
   1   0  10  369.51   36.55
   1   0  10  300.72   27.77
  -1   0 -10  385.68   36.41
   1   0  11  353.30   33.24
   1   0  11  319.13   27.25
  -1   0 -11  355.58   31.43
   1   0  12  444.29   43.86
   1   0  12  411.08   52.62
  -1   0 -12  405.00   48.34
   1   0  13  469.76   42.39
   1   0  13  385.43   36.65
  -1   0 -13  419.50   47.34
   1   0  14   91.19   15.77
   1   0  14   97.45   18.70
  -1   0 -14   95.01   20.18
   1   0  15  179.18   19.25
   1   0  15  170.25   19.22
  -1   0 -15  171.84   21.03
   1   0  16  123.84   18.10
   1   0  16  126.34   19.03
  -1   0 -16  123.48   20.40
   1   0  17    2.29   10.94
   1   0  17    7.08    5.71
  -1   0 -17    2.28   17.50
  -1  -1  17   98.68   18.97
  -1   1  17   60.45   64.21
  -1  -1  17   84.25   18.01
   1  -1 -17  102.70   20.63
   1   1 -17  105.39   20.80
  -1   1  16   32.70   43.09
  -1  -1  16   51.05   37.36
  -1   1  16   21.70   20.54
  -1  -1  16   25.88   21.23
   1  -1 -16   32.13   42.19
   1   1 -16   33.87   24.57
  -1   1  15   86.88   38.13
  -1  -1  15   90.52   13.97
  -1   1  15   79.06   13.60
  -1  -1  15   85.41   17.00
   1  -1 -15   80.52   13.38
   1   1 -15  108.62   30.51
  -1  -1  14   80.70   39.31
  -1   1  14   75.35   73.61
  -1   1  14  115.49   25.93
  -1  -1  14   64.03   52.21
   1  -1 -14   46.01   42.72
   1   1 -14  110.03   18.15
  -1  -1  13   87.64   14.92
  -1   1  13  105.66   16.66
  -1   1  13  122.96   15.28
  -1  -1  13   88.68   15.11
   1  -1 -13   93.91   16.89
   1   1 -13  146.22   21.24
  -1   1  12  149.52   19.40
  -1  -1  12  201.34   24.04
  -1   1  12  145.59   19.05
  -1  -1  12  152.11   18.76
   1  -1 -12  166.42   19.80
   1   1 -12  168.30   23.78
  -1   1  11  259.30   20.98
  -1  -1  11  332.67   26.64
  -1   1  11  270.51   18.85
  -1  -1  11  300.06   32.95
   1  -1 -11  370.05   30.13
   1   1 -11  258.87   20.81
  -1   1  10  901.99   81.97
  -1  -1  10  968.25   79.84
  -1   1  10  965.74   71.10
  -1  -1  10  932.49   77.27
   1  -1 -10 1045.43   76.58
   1   1 -10  941.65   71.89
  -1  -1   9  212.17   25.14
  -1   1   9  284.13   40.51
  -1  -1   9  220.55   25.03
  -1   1   9  237.85   23.06
   1  -1  -9  217.87   21.01
   1   1  -9  245.83   25.50
  -1   1   8  447.97   26.19
  -1  -1   8  394.06   28.37
  -1   1   8  457.17   25.86
  -1  -1   8  393.01   25.91
   1  -1  -8  375.42   28.26
   1   1  -8  428.50   29.35
  -1  -1   7 1331.88   61.27
  -1   1   7 1454.21   62.45
  -1   1   7 1353.26   56.83
  -1  -1   7 1408.91   65.01
   1  -1  -7 1371.17   59.08
   1   1  -7 1477.70   64.97
  -1   1   6  667.11   32.20
  -1  -1   6  606.16   30.17
  -1  -1   6  596.32   28.84
  -1   1   6  715.24   35.50
   1  -1  -6  521.96   23.48
   1  -1  -6  541.14   29.57
   1   1  -6  637.92   38.53
  -1   1   5  232.85   12.46
  -1  -1   5  211.57   11.29
  -1   1   5  216.35    9.45
  -1  -1   5  187.11   10.45
   1  -1  -5  203.04    8.33
   1   1  -5  199.94   15.34
   1  -1  -5  233.76   11.72
  -1   1   5  199.52   10.27
   1   1  -5  217.28   12.88
  -1  -1   4  968.85   24.55
  -1  -1   4  959.36   25.55
   1   1  -4 1108.84   27.28
   1  -1  -4  927.94   22.02
  -1   1   4 1055.38   25.76
   1   1  -3  777.20   22.80
  -1   1   3  768.16   26.08
  -1   1   3  745.17   17.88
   1   1  -3  741.38   18.59
   1  -1  -3  893.92   21.67
  -1   1   3  742.78   18.62
   1   1  -3  812.22   21.18
   1   1  -2  934.26   23.33
  -1  -1   2  820.40   20.97
  -1   1   2  901.62   21.86
  -1  -1   2  830.33   20.18
   1   1  -2  849.49   20.93
  -1   1   2  879.92   19.91
   1  -1  -2  780.26   17.59
  -1  -1   2  870.36   19.97
   1   1  -2  843.68   19.09
   1  -1  -2  812.48   18.50
  -1   1   2  833.60   18.32
   1  -1  -1 1901.51   39.44
  -1   1   1 2039.45   42.17
   1   1  -1 2172.37   44.80
  -1  -1   1 2098.05   43.27
  -1   1   1 1980.17   39.96
  -1  -1   1 2101.86   44.02
   1   1  -1 1876.62   39.49
  -1   1   1 2033.81   42.26
   1  -1  -1 1945.84   39.49
  -1   1   1 1901.10   38.65
  -1  -1   1 2062.86   41.85
   1   1  -1 2098.72   42.37
   1   1   0 2881.34   59.99
  -1  -1   0 3280.20   65.49
  -1   1   0 3149.65   63.29
   1  -1   0 3329.17   67.78
  -1   1   0 3155.84   63.24
   1   1   0 2992.66   59.80
   1  -1   1   24.93    2.06
  -1   1  -1   21.30    1.92
   1   1   1   19.98    2.82
  -1  -1  -1   16.94    2.39
  -1  -1  -1   17.66    2.42
   1  -1   1   23.75    8.87
  -1   1  -1   19.36    2.81
  -1  -1  -1   17.47    2.73
  -1   1  -1   19.87    3.02
  -1  -1  -1   16.99   11.82
   1   1   1   19.42    2.72
  -1   1  -1   23.84    5.51
  -1  -1  -2  995.46   23.18
  -1   1  -2  968.54   20.86
   1   1   2 1021.55   24.11
  -1  -1  -2  957.41   26.44
   1  -1   2  905.46   26.63
  -1   1  -2 1058.39   25.61
  -1  -1  -2  966.02   28.45
   1   1   2 1046.67   25.90
  -1   1  -2 1032.39   26.72
   1  -1   2  990.85   25.03
   1  -1   3  691.23   17.27
   1   1   3  830.34   26.33
  -1   1  -3  774.99   18.53
   1   1   3  836.23   27.96
  -1  -1  -3  716.21   19.53
   1  -1   3  701.25   22.68
  -1   1  -3  775.88   20.84
  -1  -1  -3  692.59   22.19
   1   1   3  769.11   23.27
   1  -1   3  696.98   23.81
   1  -1   4  687.55   18.45
   1   1   4  624.26   24.94
  -1   1  -4  649.71   17.25
   1   1   4  692.65   21.10
   1  -1   4  707.18   22.22
  -1  -1  -4  664.95   19.11
  -1   1  -4  697.91   26.19
   1   1   5  523.43   18.66
   1  -1   5  450.47   15.35
  -1   1  -5  431.83   16.19
   1   1   5  431.41   20.78
  -1  -1  -5  507.28   17.06
   1  -1   5  463.92   17.76
  -1  -1  -5  457.27   26.24
  -1   1  -5  435.80   22.99
   1   1   6  113.23   12.06
   1  -1   6   53.58   12.76
   1   1   6  117.25   11.13
   1  -1   6   47.45    9.96
  -1  -1  -6   53.13   10.75
  -1   1  -6  124.83   16.23
   1   1   7  803.90   37.49
   1  -1   7  753.69   41.14
   1   1   7  801.30   49.18
   1  -1   7  744.12   48.85
  -1  -1  -7  800.55   46.58
  -1   1  -7  910.60   46.54
   1  -1   8  122.10   19.63
   1   1   8   76.17   10.48
   1   1   8   78.53   10.56
   1  -1   8  105.41   14.27
  -1  -1  -8  104.73   16.03
  -1   1  -8   67.14   17.01
   1  -1   9  124.13   14.66
   1   1   9  122.57   15.61
   1  -1   9  125.96   17.28
   1   1   9  125.97   18.31
  -1  -1  -9  136.67   18.55
  -1   1  -9  112.40   20.74
   1  -1  10  418.36   33.55
   1   1  10  470.84   39.03
   1   1  10  441.92   36.36
   1  -1  10  461.18   44.56
  -1  -1 -10  424.33   36.59
  -1   1 -10  439.49   42.93
   1  -1  11  127.72   12.79
   1   1  11  110.81   14.07
   1   1  11  113.54   13.61
   1  -1  11  159.35   26.34
  -1  -1 -11  142.57   18.45
  -1   1 -11  144.37   21.31
   1   1  12   25.69   18.09
   1  -1  12   21.57   17.66
   1   1  12   23.87   20.74
   1  -1  12   23.39   19.40
  -1  -1 -12   26.77   19.09
  -1   1 -12   36.77   32.01
   1  -1  13   38.89   30.26
   1   1  13   44.17   49.89
   1   1  13   54.75   13.19
   1  -1  13   27.65   22.34
  -1  -1 -13   36.82   50.83
  -1   1 -13   57.20   23.21
   1   1  14  154.92   19.82
   1  -1  14  198.53   19.68
   1   1  14  168.50   35.45
   1  -1  14  179.66   20.93
  -1  -1 -14  252.43   29.70
  -1   1 -14  173.18   26.55
   1  -1  15   56.97   51.24
   1   1  15   60.50   53.27
   1   1  15   69.88   14.27
   1  -1  15   43.51   39.51
  -1  -1 -15   48.82   55.84
  -1   1 -15   68.71   48.93
   1   1  16    4.44   10.49
   1  -1  16   12.34   21.98
   1  -1  16    3.41    9.08
   1   1  16   -1.32   11.00
  -1  -1 -16   15.69   14.25
  -1   1 -16   10.94   16.01
   1   1  17  110.48   68.40
   1  -1  17   93.55   27.08
   1   1  17  140.15   20.11
   1  -1  17   72.60   76.47
  -1  -1 -17  103.34   25.81
  -1   1 -17  125.96   22.09
  -1  -2  17    1.90   10.89
  -1   2  17   -0.30   16.66
  -1  -2  17   -0.39    9.64
   1  -2 -17    2.28   10.51
   1   2 -17    4.50   18.63
  -1   2  16  146.94   79.10
  -1  -2  16  149.52   24.77
  -1  -2  16  109.49   43.39
   1  -2 -16  136.56   41.18
   1   2 -16  164.75   24.33
  -1   2  15   42.60   30.94
  -1  -2  15   36.50   45.25
  -1   2  15   31.48   40.22
  -1  -2  15   45.22   46.72
   1  -2 -15   42.26   38.53
   1   2 -15   51.78   17.94
  -1   2  14   30.47   27.41
  -1  -2  14   29.98   23.68
  -1   2  14   30.06   26.69
  -1  -2  14   37.98   30.49
   1  -2 -14   36.69   31.30
   1   2 -14   27.84   41.45
  -1   2  13  369.38   32.24
  -1  -2  13  389.29   38.77
  -1   2  13  388.82   40.49
  -1  -2  13  357.63   35.22
   1  -2 -13  370.39   32.23
   1   2 -13  440.03   42.69
  -1   2  12  108.76   16.16
  -1  -2  12  149.93   19.38
  -1   2  12  124.09   27.77
  -1  -2  12  124.62   24.02
   1  -2 -12  108.85   13.18
   1   2 -12  111.72   24.60
  -1   2  11  247.09   18.98
  -1  -2  11  271.66   25.66
  -1   2  11  232.26   22.55
  -1  -2  11  245.79   30.30
   1  -2 -11  262.95   16.85
   1   2 -11  253.48   25.56
  -1   2  10  399.60   35.43
  -1  -2  10  419.92   38.14
  -1   2  10  390.88   34.18
  -1  -2  10  376.90   37.51
   1  -2 -10  344.05   29.15
   1   2 -10  445.63   41.24
  -1   2   9  334.99   24.47
  -1  -2   9  422.29   26.33
  -1   2   9  336.17   21.86
  -1  -2   9  391.92   45.62
   1  -2  -9  403.02   25.74
   1   2  -9  320.87   25.45
  -1   2   8  456.87   28.60
  -1  -2   8  500.39   34.78
  -1   2   8  456.55   25.93
  -1  -2   8  493.75   30.72
   1  -2  -8  541.18   30.81
   1   2  -8  501.76   36.08
  -1   2   7  137.22   14.92
  -1  -2   7  125.10   14.12
  -1   2   7  141.22   20.72
  -1  -2   7  132.58   13.85
   1  -2  -7  136.86   12.41
   1  -2  -7  147.85   13.82
   1   2  -7  125.63   16.61
  -1   2   6  991.16   44.87
  -1  -2   6  923.55   43.41
  -1   2   6  900.88   37.70
  -1  -2   6  941.76   42.71
   1  -2  -6  846.03   38.15
   1  -2  -6  796.10   37.10
   1   2  -6 1053.84   47.90
  -1  -2   5  268.84   18.78
  -1   2   5  264.22   19.52
  -1  -2   5  263.81   18.35
  -1   2   5  272.76   17.63
  -1  -2   5  281.03   20.93
   1  -2  -5  257.06   16.82
   1  -2  -5  287.39   20.06
  -1   2   5  226.60   16.56
   1   2  -5  282.42   25.83
   1   2  -4 1199.43   28.74
  -1  -2   4 1257.66   29.94
  -1   2   4 1232.36   31.99
  -1   2   4 1208.23   26.15
  -1  -2   4 1291.79   34.15
  -1  -2   4 1271.40   32.34
   1   2  -4 1204.98   30.05
   1  -2  -4 1290.63   31.25
  -1   2   4 1101.40   27.07
   1   2  -3  978.86   26.56
  -1  -2   3  993.58   23.85
  -1   2   3  980.68   25.97
   1  -2  -3  957.11   25.23
  -1  -2   3  986.00   28.20
  -1   2   3  949.82   19.72
  -1  -2   3  959.54   25.49
   1   2  -3  946.50   24.08
   1  -2  -3  908.53   24.19
  -1   2   3 1012.96   24.15
   1   2  -2 3675.04   74.54
  -1  -2   2 4049.75   81.19
  -1   2   2 4111.81   83.77
  -1  -2   2 4338.78   90.84
   1   2  -2 3857.64   79.05
  -1  -2   2 3809.32   78.40
   1   2  -2 3916.97   80.13
   1  -2  -2 3686.12   75.74
  -1   2   2 3987.52   80.54
   1   2  -1 4778.52  280.27
  -1  -2   1 4633.79   91.70
  -1   2   1 4514.66   90.03
   1  -2  -1 4622.40   91.89
  -1  -2   1 4735.60   95.10
   1   2  -1 4625.41   92.88
   1  -2  -1 4524.60   91.20
  -1  -2   1 4302.62   87.12
  -1   2   1 4724.45   94.49
   1   2  -1 4737.70   94.65
  -1   2   0 1168.32   24.70
   1   2   0 1009.95   23.19
  -1  -2   0 1120.56   25.35
  -1   2   0 1166.51   25.04
   1  -2   0 1073.14   27.48
  -1   2   0 1033.61   23.55
  -1  -2   0 1122.67   25.83
   1   2   0 1059.86   24.63
   1  -2   0  969.32   24.11
  -1   2   0 1209.41   27.99
  -1  -2   0 1061.49   27.73
   1   2   0 1074.78   26.53
   1   2   1 3248.24   66.47
  -1  -2  -1 3375.45   68.56
   1  -2   1 3394.59   70.59
   1   2   1 3086.37   64.01
   1  -2   1 3615.41   75.66
  -1   2  -1 3148.42   65.86
  -1  -2  -1 3399.95   71.34
   1   2   1 3038.89   63.24
   1  -2   2 1052.76   21.64
   1   2   2 1053.49   25.73
  -1  -2  -2 1029.73   24.92
  -1   2  -2 1054.65   21.38
  -1  -2  -2  991.84   24.53
   1  -2   2  994.91   26.62
  -1   2  -2  959.25   24.66
  -1  -2  -2 1049.73   25.21
   1  -2   2 1003.79   35.21
  -1   2  -2  993.65   26.10
  -1  -2  -2  990.35   26.57
   1   2   2 1133.76   28.77
   1  -2   3  550.95   13.17
   1   2   3  592.39   17.75
  -1   2  -3  582.95   13.85
   1   2   3  622.98   16.76
  -1  -2  -3  587.07   17.60
   1  -2   3  581.73   19.77
  -1  -2  -3  521.96   17.34
  -1   2  -3  596.47   31.05
   1  -2   4 1510.81   33.29
   1   2   4 1697.25   43.01
  -1   2  -4 1422.79   31.08
   1   2   4 1583.99   36.77
  -1  -2  -4 1588.67   36.39
   1  -2   4 1387.82   36.44
  -1  -2  -4 1445.88   37.68
  -1   2  -4 1557.78   43.70
   1   2   5  596.77   29.10
   1  -2   5  509.03   32.57
  -1   2  -5  524.06   25.52
   1   2   5  543.02   26.39
  -1  -2  -5  546.66   24.80
   1  -2   5  523.40   29.70
  -1  -2  -5  526.74   29.71
  -1   2  -5  539.31   35.82
   1   2   6  341.20   35.03
   1  -2   6  300.27   22.17
   1   2   6  311.10   23.11
   1  -2   6  287.38   25.75
  -1  -2  -6  258.19   20.23
  -1   2  -6  356.67   33.16
   1  -2   7  132.70   12.21
   1   2   7  162.24   17.56
   1   2   7  131.81   14.90
   1  -2   7  126.82   14.51
  -1  -2  -7  143.52   15.26
  -1   2  -7  153.00   19.12
   1  -2   8  256.21   22.14
   1   2   8  320.36   31.02
   1   2   8  280.56   23.53
   1  -2   8  242.90   23.83
  -1  -2  -8  339.15   47.31
  -1   2  -8  299.85   28.69
   1  -2   9  229.32   21.01
   1   2   9  285.85   52.29
   1   2   9  246.18   21.98
   1  -2   9  204.55   25.27
  -1  -2  -9  263.22   26.79
  -1   2  -9  320.78   38.24
   1  -2  10  215.50   21.56
   1   2  10  186.95   17.64
   1   2  10  187.55   13.75
   1  -2  10  215.50   23.66
  -1  -2 -10  263.42   28.12
  -1   2 -10  180.84   19.33
   1  -2  11  332.42   27.54
   1   2  11  227.27   19.85
   1   2  11  207.45   15.28
   1  -2  11  259.56   22.49
  -1  -2 -11  302.10   28.02
  -1   2 -11  214.63   24.72
   1  -2  12  336.95   29.31
   1   2  12  359.90   31.41
   1   2  12  366.67   30.37
   1  -2  12  356.46   36.94
  -1  -2 -12  346.71   33.30
  -1   2 -12  335.70   39.47
   1   2  13  110.69   17.14
   1  -2  13  103.11   12.90
   1   2  13  105.99   33.33
   1  -2  13  110.38   20.09
  -1  -2 -13  111.87   17.45
  -1   2 -13  101.04   80.03
   1   2  14   22.73   14.44
   1  -2  14   19.77   16.41
   1   2  14   13.80   12.80
   1  -2  14   18.05   19.74
  -1  -2 -14   19.89   21.66
  -1   2 -14   18.56   15.65
   1  -2  15  122.68   15.08
   1   2  15  152.15   20.43
   1   2  15  166.08   16.99
   1  -2  15  192.99   27.83
  -1  -2 -15  193.49   20.42
  -1   2 -15  166.95   26.27
   1   2  16   33.59   32.08
   1  -2  16   35.43   41.29
   1  -2  16   64.00   36.85
  -1  -2 -16   49.51   53.99
  -1   2 -16   29.92   40.45
   1   2  17    2.56    7.81
   1  -2  17    1.46    8.37
   1  -2  17    6.49   12.84
  -1  -2 -17    6.24   16.31
  -1   2 -17   -2.50   18.15
  -1   3  17   58.40   57.71
  -1  -3  17   41.05   50.68
  -1  -3  17   64.40   48.04
   1  -3 -17   64.83   13.80
   1   3 -17   88.03   23.13
  -1   3  16    5.01    9.23
  -1  -3  16    1.86   11.16
  -1  -3  16    6.33   10.67
   1  -3 -16    5.51    8.24
   1   3 -16    2.63   13.10
  -1   3  15   23.51   24.79
  -1  -3  15    5.93    9.84
  -1  -3  15    4.68   13.68
   1  -3 -15   12.49   12.97
   1   3 -15   27.22   14.53
  -1   3  14  318.53   29.35
  -1  -3  14  343.24   21.17
  -1  -3  14  280.12   48.73
   1  -3 -14  280.79   18.78
   1   3 -14  303.62   25.01
  -1  -3  13  286.25   23.88
  -1   3  13  286.65   48.09
  -1   3  13  240.30   20.50
  -1  -3  13  292.21   32.01
   1  -3 -13  306.89   26.58
   1   3 -13  292.38   33.41
  -1   3  12   14.59   13.46
  -1  -3  12   17.36   12.90
  -1   3  12   11.79   10.66
  -1  -3  12   13.29    5.41
   1  -3 -12   16.63   11.62
   1   3 -12   12.75   13.22
  -1   3  11   57.64   44.85
  -1  -3  11  122.07   15.76
  -1   3  11   61.75    8.36
  -1  -3  11  106.39   16.06
   1  -3 -11  127.02   16.27
   1   3 -11   76.73   48.79
  -1   3  10  331.98   30.04
  -1  -3  10  380.68   28.15
  -1   3  10  363.41   28.28
  -1  -3  10  342.07   38.81
   1  -3 -10  368.09   28.16
   1   3 -10  364.51   37.26
  -1   3   9   58.15   12.05
  -1  -3   9   78.53   12.45
  -1   3   9   64.10   25.10
  -1  -3   9  111.82   31.76
   1  -3  -9   78.10   10.36
   1   3  -9   61.67   15.47
  -1   3   8   73.28   30.15
  -1  -3   8   89.08   25.68
  -1   3   8   55.32    8.69
  -1  -3   8   93.50   14.61
   1  -3  -8   82.83   12.30
   1  -3  -8   89.34   12.22
   1   3  -8   51.75   15.16
  -1   3   7  990.80   64.61
  -1  -3   7  797.99   40.43
  -1   3   7  939.55   43.38
  -1  -3   7  808.69   54.54
   1  -3  -7  710.10   33.66
   1  -3  -7  906.74   45.66
   1   3  -7  994.09   53.08
  -1   3   6  322.41   25.15
  -1  -3   6  280.45   21.26
  -1   3   6  310.01   20.00
  -1  -3   6  298.68   23.93
   1  -3  -6  296.82   21.98
   1   3  -6  278.39   25.22
  -1  -3   5  115.48    9.57
  -1   3   5  145.84   16.46
  -1  -3   5  118.11    9.57
  -1   3   5  139.90    9.52
  -1  -3   5  118.23   11.85
   1  -3  -5  123.62    9.21
  -1  -3   5  117.71   12.39
   1  -3  -5  128.99   11.50
   1   3  -4 1120.55   46.18
  -1  -3   4  854.75   35.65
  -1   3   4 1054.35   47.68
  -1  -3   4  909.99   41.09
  -1  -3   4  927.15   41.90
   1  -3  -4  910.82   39.83
   1   3  -3 3088.87   63.63
  -1  -3   3 3206.51   65.98
  -1   3   3 3245.80   70.00
  -1  -3   3 3307.57   72.09
  -1  -3   3 3005.23   67.14
   1  -3  -3 3306.85   71.17
   1   3  -2  278.26    9.29
  -1  -3   2  262.06    9.04
  -1   3   2  276.10   10.65
   1  -3  -2  247.76   10.26
   1  -3  -2  250.63    6.95
  -1   3   2  258.01    6.34
  -1  -3   2  245.44   11.75
  -1  -3   2  267.37   12.74
   1   3  -2  306.99   12.07
   1  -3  -2  265.83   12.06
  -1   3   2  294.83   11.25
   1   3  -1   44.94    4.51
  -1  -3   1   92.94    6.86
   1  -3  -1   97.11    7.72
  -1   3   1   39.57    8.16
   1   3  -1   39.46    4.40
   1   3   0 1551.34   34.78
  -1  -3   0 1819.02   39.32
  -1   3   0 1558.02   33.18
   1  -3   0 1783.37   37.21
   1  -3   0 1740.90   38.42
  -1   3   0 1525.09   33.39
  -1  -3   0 1823.19   41.12
   1   3   0 1560.19   35.31
   1  -3   0 1808.86   43.14
  -1   3   0 1635.67   38.34
  -1   3  -1   63.29    2.30
   1   3   1   51.77    4.93
  -1  -3  -1   36.96    3.85
  -1   3  -1   59.03    2.32
   1  -3   1   39.03    5.60
  -1   3  -1   55.69    4.90
  -1  -3  -1   33.81    9.73
   1   3   1   55.84    4.29
   1  -3   1   36.05    7.56
  -1  -3  -1   30.22    5.46
   1   3   2   32.21    5.04
  -1  -3  -2   42.29    6.26
   1  -3   2   25.51    5.54
  -1   3  -2   31.80    6.70
  -1  -3  -2   32.41    3.70
   1   3   2   33.59    3.09
   1  -3   2   35.31    7.43
  -1  -3  -2   39.87    6.13
   1  -3   3 1238.75   24.77
   1   3   3 1112.17   29.43
  -1  -3  -3 1196.10   28.79
   1  -3   3 1125.62   38.24
  -1  -3  -3 1205.52   28.73
   1  -3   3 1171.07   40.99
  -1  -3  -3 1207.39   32.58
  -1   3  -4  748.06   30.94
   1   3   4  785.85   33.91
  -1  -3  -4  646.54   28.25
   1  -3   4  597.96   34.29
  -1  -3  -4  593.39   28.34
   1  -3   5   98.43    7.60
   1   3   5   82.82    9.56
  -1   3  -5   70.35    5.89
   1   3   5   64.01    6.28
  -1  -3  -5   96.64    8.22
   1  -3   5   82.90   12.59
  -1  -3  -5   86.63    9.82
  -1   3  -5   80.66   14.66
   1   3   6  519.56   30.68
   1  -3   6  604.58   28.79
  -1   3  -6  417.56   22.27
   1   3   6  412.83   23.34
  -1  -3  -6  554.46   27.23
   1  -3   6  533.73   31.25
  -1  -3  -6  579.97   31.35
  -1   3  -6  419.36   34.67
   1   3   7 1215.36   71.63
   1  -3   7 1046.45   49.35
   1   3   7 1229.85   59.09
   1  -3   7 1052.11   61.76
  -1  -3  -7 1076.34   57.13
  -1   3  -7 1242.19   65.75
   1   3   8  476.21   34.81
   1  -3   8  452.59   23.89
   1   3   8  419.00   27.66
   1  -3   8  419.06   29.20
  -1  -3  -8  466.25   29.25
  -1   3  -8  405.88   40.36
   1  -3   9  231.39   19.44
   1   3   9  215.41   32.43
   1   3   9  196.92   17.74
   1  -3   9  252.61   36.41
  -1  -3  -9  268.93   28.14
  -1   3  -9  217.32   28.43
   1  -3  10  270.01   34.02
   1   3  10  219.89   20.90
   1   3  10  210.97   20.38
   1  -3  10  252.99   26.08
  -1  -3 -10  300.42   28.90
  -1   3 -10  218.60   29.96
   1  -3  11  417.70   42.67
   1   3  11  385.68   44.21
   1   3  11  335.89   47.68
   1  -3  11  369.81   47.02
  -1  -3 -11  406.34   52.08
  -1   3 -11  393.43   42.89
   1   3  12   86.44   16.86
   1  -3  12   86.07   11.30
   1   3  12   88.35   19.04
   1  -3  12   84.48   46.81
  -1  -3 -12   72.35   54.52
  -1   3 -12   96.35   18.87
   1   3  13  120.82   17.86
   1  -3  13   83.45   36.47
   1   3  13  134.61   21.21
   1  -3  13  120.64   38.17
  -1  -3 -13  106.03   47.43
  -1   3 -13  128.49   26.54
   1   3  14  120.46   18.82
   1  -3  14  105.48   12.60
   1   3  14  121.88   46.67
   1  -3  14  119.45   23.20
  -1  -3 -14  110.11   15.52
  -1   3 -14  152.01   28.18
   1  -3  15  142.97   18.65
   1   3  15   96.64   20.45
   1  -3  15   83.26   83.29
  -1  -3 -15  133.35   20.02
  -1   3 -15  131.34   26.45
   1   3  16   29.74   44.56
   1  -3  16   23.60   23.86
   1  -3  16   21.51   30.95
  -1  -3 -16   21.05   33.81
  -1   3 -16   37.12   32.19
  -1   4  16   60.13   47.57
  -1  -4  16  104.65   15.61
  -1  -4  16  110.02   38.62
   1  -4 -16  104.37   20.25
   1   4 -16   72.49   81.31
  -1   4  15  115.61   19.83
  -1  -4  15   98.21   17.80
  -1  -4  15   76.86   53.48
   1  -4 -15   89.63   14.73
   1   4 -15   99.85   20.52
  -1   4  14    8.20   17.80
  -1  -4  14    4.12   10.27
  -1  -4  14    4.19   10.94
   1  -4 -14    5.60   13.58
  -1  -4  13   85.27   20.28
  -1   4  13   93.32   74.64
  -1  -4  13   65.46   47.79
   1  -4 -13   96.63   14.50
   1   4 -13  100.39   21.88
  -1   4  12  324.30   49.84
  -1  -4  12  294.90   27.66
  -1  -4  12  223.51   26.32
   1  -4 -12  299.25   29.34
   1   4 -12  357.86   43.30
  -1   4  11  315.34   31.92
  -1  -4  11  356.71   32.28
  -1   4  11  319.34   27.65
  -1  -4  11  361.99   40.99
   1  -4 -11  325.67   32.12
   1   4 -11  327.40   40.61
  -1   4  10    7.49    7.15
  -1  -4  10    6.81    9.12
  -1   4  10    6.34    6.18
  -1  -4  10    7.42   14.29
   1  -4 -10    9.85    9.36
   1   4 -10   13.54   12.16
  -1   4   9  892.24   60.26
  -1  -4   9  905.37   57.25
  -1   4   9  926.72   56.38
  -1  -4   9  932.55   63.75
   1  -4  -9  859.22   70.12
   1   4  -9 1013.81   69.79
  -1   4   8  113.95   13.57
  -1  -4   8  178.14   11.28
  -1  -4   8  175.63   16.77
   1  -4  -8  171.71    6.28
   1  -4  -8  186.85   13.28
   1   4  -8  109.05   13.44
  -1   4   7   37.01   29.82
  -1  -4   7   30.22    5.80
  -1   4   7   34.12    5.06
  -1  -4   7   28.77   20.00
   1  -4  -7   28.95    3.49
   1  -4  -7   39.45   31.78
   1   4  -7   34.02   42.72
  -1   4   6  350.23   30.74
  -1  -4   6  380.11   20.25
  -1  -4   6  420.01   28.77
  -1  -4   6  342.80   26.76
   1  -4  -6  386.48   34.54
  -1  -4   5  686.60   30.69
  -1   4   5  647.74   38.12
  -1  -4   5  646.12   28.33
  -1  -4   5  680.49   34.34
  -1  -4   5  694.80   35.36
   1  -4  -5  697.32   33.08
   1   4  -4   14.03    9.60
  -1  -4   4   12.81    9.95
  -1   4   4   16.40   10.39
  -1  -4   4   15.30   10.65
  -1  -4   4    5.74    7.69
   1  -4  -4   14.74    9.78
   1   4  -3  113.18    8.58
  -1  -4   3  169.41   11.80
  -1   4   3  134.97   12.48
  -1  -4   3  160.50   14.69
  -1  -4   3  157.79   15.11
   1  -4  -3  141.74   12.84
   1   4  -2 1031.79   43.12
  -1  -4   2  964.28   39.15
  -1   4   2 1097.32   45.38
   1  -4  -2  817.81   38.92
   1  -4  -2  968.56   39.20
  -1  -4   2 1068.22   45.79
  -1   4   2  943.51   37.16
  -1  -4   2  940.03   44.81
   1  -4  -2  924.22   48.54
   1   4  -1  423.92   14.95
  -1  -4   1  424.70   12.66
  -1   4   1  363.61   11.78
   1  -4  -1  373.78   12.76
   1  -4  -1  384.11   11.91
  -1   4   1  399.26   10.98
  -1  -4   1  380.46   16.65
  -1  -4   1  380.18   17.85
   1  -4  -1  418.24   19.88
   1   4   0  335.62   11.76
  -1  -4   0  334.55   11.21
  -1   4   0  335.95    9.59
   1  -4   0  317.44    9.67
   1  -4   0  306.01   16.48
  -1   4   0  329.98   10.97
  -1  -4   0  329.08   16.09
   1   4   0  326.88   11.52
   1  -4   0  306.76   17.43
  -1  -4   0  312.92   17.42
  -1   4  -1  352.94    9.25
   1   4   1  359.28   12.89
  -1   4  -1  343.77    8.39
  -1  -4  -1  296.64   11.20
  -1   4  -1  388.55   13.01
  -1  -4  -1  289.40   10.46
   1   4   1  389.99   12.92
   1  -4   1  298.66   16.29
  -1  -4  -1  281.67   15.43
   1   4   2  408.37   29.58
   1  -4   2  406.99   28.18
  -1  -4  -2  399.14   25.45
   1   4   2  367.62   25.59
   1  -4   2  388.67   28.12
  -1  -4  -2  380.08   26.58
   1   4   3  630.07   30.62
  -1  -4  -3  697.69   30.48
   1  -4   3  709.38   35.86
  -1  -4  -3  775.54   32.71
   1  -4   3  703.76   34.80
  -1  -4  -3  741.96   42.91
   1  -4   4  175.31   10.56
   1  -4   4  189.26   11.38
   1   4   4  251.23   25.80
  -1  -4  -4  192.13   13.20
   1  -4   4  186.34   18.15
  -1  -4  -4  190.03   13.12
   1  -4   4  205.02   20.39
  -1  -4  -4  187.36   26.07
   1   4   5  527.32   28.63
   1  -4   5  570.75   26.22
  -1  -4  -5  648.69   31.03
   1  -4   5  581.58   44.89
  -1  -4  -5  595.00   28.27
  -1  -4  -5  675.68   36.38
   1  -4   6  430.28   21.65
   1  -4   6  415.16   20.98
   1   4   6  417.35   43.38
   1  -4   6  435.12   32.69
  -1  -4  -6  445.70   22.12
  -1  -4  -6  500.08   29.74
  -1   4  -6  450.24   33.64
   1  -4   7    1.74    2.27
   1   4   7    4.49    8.33
   1  -4   7    3.37    3.87
   1   4   7    1.71    2.81
   1  -4   7   -1.52   14.09
  -1  -4  -7    1.76    2.59
  -1  -4  -7   -0.88   10.87
  -1   4  -7    0.91   13.16
   1   4   8 1318.79  103.82
   1  -4   8 1171.33   81.43
   1   4   8 1200.84   85.32
   1  -4   8 1210.93   96.66
  -1  -4  -8 1354.91  100.37
  -1   4  -8 1380.59  106.10
   1  -4   9  326.88   25.03
   1   4   9  300.26   27.71
   1   4   9  318.60   23.71
   1  -4   9  369.83   38.40
  -1  -4  -9  344.98   29.21
  -1   4  -9  300.21   34.57
   1  -4  10  112.16   10.25
   1   4  10  100.72   14.19
   1   4  10   77.46   14.65
   1  -4  10   98.18   22.02
  -1  -4 -10   76.13   12.39
  -1   4 -10   82.38   66.05
   1   4  11  155.21   23.70
   1  -4  11  114.12   19.20
   1   4  11  171.69   20.46
   1  -4  11  121.22   21.67
  -1  -4 -11  144.67   16.06
  -1   4 -11  125.22   18.78
   1   4  12  226.95   26.99
   1  -4  12  198.59   20.35
   1   4  12  239.34   22.35
   1  -4  12  212.77   31.34
  -1  -4 -12  198.39   22.94
  -1   4 -12  305.32   39.32
   1   4  13  154.48   61.03
   1  -4  13  171.19   16.79
   1  -4  13  201.52   32.12
  -1  -4 -13  184.45   21.42
  -1   4 -13  153.95   24.79
   1   4  14   19.72   18.60
   1  -4  14    8.48   12.16
   1  -4  14   13.46   19.25
  -1  -4 -14   12.97   16.88
  -1   4 -14   15.23   29.03
   1   4  15   55.20   45.69
   1  -4  15   27.52   44.91
  -1  -4 -15   37.87   41.66
   1   4  16  140.05   67.64
   1  -4  16  167.66   65.14
  -1  -4 -16  165.24   21.05
  -1   4 -16  159.07   32.68
  -1   5  16   18.82   17.54
  -1  -5  16   26.44   16.23
   1  -5 -16   19.50   22.67
   1   5 -16   12.68   17.38
  -1   5  15    9.01   13.71
  -1  -5  15   12.51   19.93
   1  -5 -15    6.79   17.28
   1   5 -15   14.87   14.24
  -1   5  14  340.91   30.49
  -1  -5  14  423.24   40.42
   1  -5 -14  367.22   22.47
   1   5 -14  378.30   34.70
  -1   5  13  137.61   18.97
  -1  -5  13  169.53   14.78
  -1  -5  13  177.80   31.04
   1  -5 -13  179.89   16.48
   1   5 -13  178.07   27.04
  -1   5  12   10.89   16.86
  -1  -5  12   13.19   11.55
  -1  -5  12   21.82   15.47
   1  -5 -12   11.97   14.24
   1   5 -12    6.27   15.17
  -1   5  11  310.67   29.69
  -1  -5  11  392.09   30.08
  -1  -5  11  378.89   34.72
   1  -5 -11  386.86   32.87
   1   5 -11  299.94   36.80
  -1   5  10  473.85   57.29
  -1  -5  10  414.19   46.85
  -1  -5  10  477.75   48.07
   1  -5 -10  439.65   41.05
   1   5 -10  480.61   51.05
  -1   5   9   26.79   13.76
  -1  -5   9   34.42   24.99
  -1  -5   9   28.78   18.19
   1  -5  -9   32.27   26.97
   1   5  -9   24.35   19.34
  -1   5   8  397.15   30.23
  -1  -5   8  385.14   26.17
  -1  -5   8  405.19   32.46
   1  -5  -8  398.84   45.73
   1   5  -8  438.55   37.13
  -1   5   7  183.75   14.17
  -1  -5   7  151.11   10.25
  -1  -5   7  147.89   36.20
  -1  -5   7  123.12   31.71
   1  -5  -7  139.76   12.28
  -1  -5   6  308.01   17.00
  -1   5   6  290.55   20.32
  -1  -5   6  319.85   17.26
  -1  -5   6  298.01   22.37
  -1  -5   6  326.03   35.27
   1  -5  -6  339.84   23.19
   1   5  -5  208.71   14.94
  -1  -5   5  224.59   19.03
  -1   5   5  212.78   18.24
  -1  -5   5  213.63   20.75
  -1  -5   5  217.14   26.24
   1  -5  -5  225.83   20.48
   1   5  -4  246.30   19.43
  -1  -5   4  327.19   18.86
  -1   5   4  257.68   25.96
  -1  -5   4  323.60   27.79
  -1  -5   4  351.01   26.52
   1  -5  -4  338.48   22.11
   1   5  -3  993.65   45.83
  -1  -5   3 1220.43   54.51
  -1   5   3 1172.83   56.08
   1  -5  -3 1261.24   54.13
  -1  -5   3 1214.63   62.23
  -1   5   3  960.00   41.38
  -1  -5   3 1313.19   64.72
   1  -5  -3 1157.97   59.42
   1   5  -2  311.18   22.74
  -1  -5   2  291.97   19.45
  -1   5   2  325.18   21.90
   1  -5  -2  313.32   20.01
  -1  -5   2  310.46   23.01
  -1   5   2  317.81   19.76
  -1  -5   2  302.49   26.51
   1  -5  -2  294.04   23.25
   1   5  -1 1118.23   46.83
  -1  -5   1  892.02   36.94
  -1   5   1  975.18   44.35
   1  -5  -1  824.33   38.45
   1  -5  -1  769.07   32.77
  -1  -5   1  819.08   36.56
  -1   5   1  983.18   39.93
  -1  -5   1  891.85   58.67
   1  -5  -1  926.77   45.36
   1   5   0 1216.15   50.42
  -1   5   0 1134.91   46.24
   1  -5   0 1246.18   50.83
   1  -5   0 1153.12   53.07
  -1   5   0 1113.69   45.57
  -1  -5   0 1140.25   47.80
   1  -5   0 1201.93   54.47
  -1  -5   0 1176.78   57.56
  -1   5  -1  164.03   10.57
   1   5   1  155.36   19.26
   1  -5   1  282.49   27.75
  -1  -5  -1  254.16   17.58
   1   5   1  152.78   12.53
   1  -5   1  245.11   21.35
  -1  -5  -1  266.02   22.80
   1   5   2  346.86   26.38
   1  -5   2  312.90   24.60
  -1  -5  -2  289.38   22.09
   1   5   2  315.91   21.10
   1  -5   2  308.53   29.04
  -1  -5  -2  301.08   25.44
   1   5   3 1376.68   64.46
  -1  -5  -3 1356.65   60.93
   1  -5   3 1561.90   73.81
  -1  -5  -3 1321.75   58.68
   1  -5   3 1493.75   78.26
  -1  -5  -3 1308.72   63.23
   1   5   4  233.98   20.72
   1  -5   4  279.04   20.37
  -1  -5  -4  272.83   14.29
   1  -5   4  274.96   25.38
  -1  -5  -4  273.68   25.85
   1   5   5   27.00   13.12
   1  -5   5   15.87   13.64
  -1  -5  -5   15.16    3.77
   1  -5   5   14.22   18.65
  -1  -5  -5   19.92   10.84
   1  -5   6  134.41   10.34
   1  -5   6  151.53   11.58
   1   5   6  101.49   13.51
   1  -5   6  184.86   22.00
  -1  -5  -6  172.58   16.32
  -1  -5  -6  177.46   21.76
  -1   5  -6  107.80   17.49
   1   5   7  530.41   41.71
   1  -5   7  534.32   38.19
   1  -5   7  541.72   52.64
  -1  -5  -7  567.01   40.26
  -1  -5  -7  550.02   44.27
  -1   5  -7  501.97   47.61
   1  -5   8  316.37   20.43
   1   5   8  328.48   42.32
   1  -5   8  345.59   22.35
   1  -5   8  371.80   36.14
  -1  -5  -8  339.73   22.49
  -1  -5  -8  362.24   32.08
  -1   5  -8  356.49   37.62
   1   5   9  129.81   18.52
   1  -5   9   91.80    7.52
   1  -5   9   94.20   57.80
  -1  -5  -9  121.74   17.21
  -1   5  -9  124.05   24.67
   1   5  10  127.46   17.84
   1  -5  10  103.45    7.90
   1   5  10  103.92    9.59
   1  -5  10  123.40   19.45
  -1  -5 -10  141.10   19.99
  -1   5 -10  128.67   27.21
   1  -5  11  272.53   22.88
   1   5  11  212.87   23.82
   1  -5  11  261.39   29.53
  -1  -5 -11  339.90   33.80
  -1   5 -11  269.67   50.03
   1  -5  12   49.93   15.36
   1   5  12   69.64   34.39
   1  -5  12   40.30   49.77
  -1  -5 -12   57.31   53.74
  -1   5 -12   58.03   54.53
   1   5  13   92.46   66.95
   1  -5  13   88.58   77.97
  -1  -5 -13   94.17   16.53
  -1   5 -13   72.86   69.85
   1   5  14   93.68   19.45
   1  -5  14  158.94   54.58
  -1  -5 -14  122.54   16.94
  -1   5 -14   82.96   64.01
   1   5  15   62.64   52.90
   1  -5  15   45.09   41.50
  -1  -5 -15   39.00   45.84
  -1   5 -15   62.17   88.35
   1   5  16   21.66   22.99
   1  -5  16   20.82   34.51
  -1  -5 -16   21.21   28.76
  -1   5 -16   36.48   30.18
  -1   6  15   71.08   67.72
  -1  -6  15   64.92   75.16
   1  -6 -15   71.36   47.39
   1   6 -15   86.28   70.68
  -1   6  14    2.99   12.21
  -1  -6  14   -1.73   15.48
   1  -6 -14   -0.50   12.50
   1   6 -14    8.47   11.64
  -1   6  13   73.80   50.83
  -1  -6  13   53.42   66.14
   1  -6 -13   78.08   13.35
   1   6 -13   59.96   60.37
  -1   6  12   79.83   55.60
  -1  -6  12   48.71   31.21
   1  -6 -12   67.78   38.86
   1   6 -12   61.94   22.81
  -1   6  11   31.55   28.55
  -1  -6  11   41.52   29.12
  -1  -6  11   26.34   17.45
   1  -6 -11   34.15   26.93
   1   6 -11   28.50   17.96
  -1   6  10   27.46   26.84
  -1  -6  10   15.31   12.29
  -1  -6  10   23.87   14.28
   1  -6 -10   15.43   18.74
   1   6 -10   34.04   31.23
  -1   6   9  166.48   25.60
  -1  -6   9  196.81   19.54
  -1  -6   9  217.13   31.71
   1  -6  -9  213.49   25.27
   1   6  -9  135.98   24.60
  -1   6   8  453.79   33.67
  -1  -6   8  561.26   39.72
  -1  -6   8  532.41   42.85
   1  -6  -8  563.58   41.01
  -1   6   7  242.61   23.02
  -1  -6   7  233.80   18.00
  -1  -6   7  220.51   23.50
  -1  -6   7  229.62   27.90
   1  -6  -7  228.43   31.27
  -1  -6   6  413.21   32.26
  -1   6   6  385.67   32.46
  -1  -6   6  445.71   33.75
  -1  -6   6  446.38   38.28
  -1  -6   6  456.86   39.54
   1  -6  -6  455.00   37.83
   1   6  -5  578.28   29.03
  -1  -6   5  602.83   29.47
  -1   6   5  631.15   36.61
  -1  -6   5  653.69   38.57
  -1  -6   5  607.53   36.97
   1  -6  -5  614.99   38.75
   1   6  -4  350.62   21.12
  -1  -6   4  348.53   17.14
  -1   6   4  369.74   28.77
  -1  -6   4  344.71   30.39
  -1  -6   4  350.92   25.80
   1  -6  -4  363.37   25.47
   1   6  -3  327.18   18.38
  -1  -6   3  341.85   17.83
  -1   6   3  328.81   22.59
   1  -6  -3  336.24   16.67
  -1  -6   3  340.76   23.61
  -1   6   3  350.99   16.99
  -1  -6   3  346.45   29.40
   1  -6  -3  317.11   21.21
   1   6  -2  683.80   32.76
  -1  -6   2  619.92   30.10
  -1   6   2  674.86   33.54
   1  -6  -2  601.48   28.79
  -1  -6   2  641.73   34.78
  -1   6   2  572.52   26.72
  -1  -6   2  625.17   49.09
   1  -6  -2  649.21   42.24
   1   6  -1  539.54   26.80
  -1   6   1  539.89   32.29
   1  -6  -1  519.24   26.41
  -1  -6   1  431.23   24.62
  -1   6   1  510.09   25.46
  -1  -6   1  464.50   30.16
   1  -6  -1  545.33   32.63
   1   6   0   67.34    8.34
  -1   6   0   62.65    7.17
   1  -6   0   60.74   10.07
   1  -6   0   63.47   10.13
  -1  -6   0   61.16    8.68
   1  -6   0   72.80   12.38
  -1  -6   0   61.05   38.02
  -1   6  -1  408.01   19.11
   1   6   1  370.90   22.05
   1  -6   1  369.72   23.64
  -1  -6  -1  407.10   21.54
   1  -6   1  394.12   31.67
  -1  -6  -1  414.73   33.50
   1   6   2  935.19   45.38
   1  -6   2  881.75   46.05
  -1  -6  -2  832.81   38.75
   1   6   2  939.00   44.28
   1  -6   2  875.13   49.69
  -1  -6  -2  917.36   49.29
   1   6   3  234.77   20.88
   1  -6   3  196.90   22.20
  -1  -6  -3  206.37   16.93
   1   6   3  219.52   17.80
   1  -6   3  236.72   29.01
  -1  -6  -3  219.92   24.20
   1   6   4  388.71   29.09
   1  -6   4  371.35   27.51
  -1  -6  -4  353.72   17.27
   1  -6   4  423.68   31.44
  -1  -6  -4  386.01   30.98
   1   6   5  666.71   50.73
  -1  -6  -5  598.67   42.22
   1  -6   5  647.71   51.57
  -1  -6  -5  577.82   39.98
   1  -6   5  651.49   60.91
  -1  -6  -5  573.20   45.90
   1   6   6  281.73   37.01
   1  -6   6  270.35   27.14
  -1  -6  -6  301.23   21.54
  -1  -6  -6  296.83   22.05
   1  -6   6  272.54   31.66
  -1  -6  -6  303.31   29.01
   1   6   7   18.26   15.07
   1  -6   7   28.42   27.78
  -1  -6  -7   24.78    2.82
  -1  -6  -7   27.69    3.71
  -1  -6  -7   26.55   24.83
  -1   6  -7   29.58   28.41
   1  -6   8  178.47    5.51
   1   6   8  189.60   17.01
   1  -6   8  177.47   20.38
  -1  -6  -8  206.50    6.55
  -1  -6  -8  232.56   23.16
  -1   6  -8  224.07   31.25
   1  -6   9   65.98    4.74
   1   6   9  146.43   54.25
   1  -6   9   81.56   73.52
  -1  -6  -9   89.57   15.42
  -1   6  -9  137.52   60.63
   1   6  10  189.51   40.38
   1  -6  10  167.16   28.45
  -1  -6 -10  210.58   43.74
  -1   6 -10  213.89   31.25
   1   6  11  124.44   39.19
   1  -6  11  126.25   23.01
  -1  -6 -11  127.13   20.96
  -1   6 -11  131.67   31.27
   1   6  12  247.78   21.83
   1  -6  12  173.90   23.46
  -1  -6 -12  192.54   21.72
  -1   6 -12  243.75   51.40
   1   6  13   89.03   60.97
   1  -6  13  105.43   83.90
  -1  -6 -13  123.06   17.79
  -1   6 -13  135.86   35.13
   1   6  14    6.25   14.79
   1  -6  14  -10.38   22.87
  -1  -6 -14    5.81   13.08
  -1   6 -14   12.21   15.72
   1   6  15  210.40   29.06
   1  -6  15  231.60   29.22
  -1  -6 -15  220.64   25.36
  -1   6 -15  218.10   29.36
  -1   7  14  151.15   61.90
  -1  -7  14  136.83   70.28
   1  -7 -14  114.15   17.50
   1   7 -14  145.85   32.56
  -1   7  13   24.45   29.49
  -1  -7  13   44.59   44.24
   1  -7 -13   33.13   27.97
   1   7 -13   38.51   25.95
  -1   7  12   33.72   27.31
  -1  -7  12   36.98   31.56
   1  -7 -12   29.35   38.58
   1   7 -12   24.59   13.53
  -1   7  11  327.26   24.98
  -1  -7  11  256.68   90.05
   1  -7 -11  279.38   21.48
   1   7 -11  323.19   31.45
  -1   7  10  132.93   25.40
  -1  -7  10  163.12   57.90
   1  -7 -10  156.10   22.47
   1   7 -10  116.71   19.15
  -1   7   9   21.20   18.07
  -1  -7   9   12.58   10.40
   1  -7  -9   10.01   11.98
   1   7  -9   20.62   22.70
  -1   7   8  114.71   16.15
  -1  -7   8   77.37    6.55
  -1  -7   8   81.05   60.91
  -1  -7   8   67.75   61.98
   1  -7  -8   77.80   14.62
  -1   7   7  115.47   13.46
  -1  -7   7   91.04    5.85
  -1  -7   7   91.50   16.94
  -1  -7   7  103.20   21.10
   1  -7  -7   99.96   17.45
  -1   7   6  114.21   16.43
  -1  -7   6  128.07    6.08
  -1  -7   6  133.95   16.68
  -1  -7   6  134.76   21.17
   1  -7  -6  148.69   17.44
   1   7  -5    4.66    7.98
  -1   7   5   10.72   12.27
  -1  -7   5   19.46   16.26
  -1  -7   5   16.28   18.12
   1  -7  -5   24.06   15.39
   1   7  -4   93.63    5.34
  -1   7   4  111.86   11.57
  -1  -7   4  109.38   14.25
  -1  -7   4  101.62   13.25
   1  -7  -4  137.59   51.54
   1   7  -3  322.57   23.81
  -1  -7   3  272.57   20.89
  -1   7   3  317.24   25.91
   1  -7  -3  300.42   22.58
  -1  -7   3  280.56   36.47
  -1   7   3  333.42   23.67
  -1  -7   3  321.97   40.81
   1  -7  -3  350.67   34.13
   1   7  -2    8.37    7.45
  -1   7   2    5.91    5.44
  -1  -7   2   11.40   10.58
   1  -7  -2   11.90    8.78
  -1  -7   2   16.46   15.26
  -1   7   2    5.50    4.81
  -1  -7   2   12.51   17.56
   1  -7  -2    9.13   17.18
   1   7  -1   94.99    6.72
  -1   7   1  117.03    8.22
   1  -7  -1  110.85    8.61
  -1  -7   1   97.53   10.22
   1  -7  -1  111.39   41.93
  -1  -7   1  116.05   19.16
   1   7   0  489.50   25.46
  -1   7   0  517.58   26.79
   1  -7   0  430.79   21.26
   1  -7   0  447.17   24.69
  -1  -7   0  417.69   33.21
   1  -7   0  424.97   32.90
  -1  -7   0  471.69   52.71
   1   7   1  102.74   13.07
  -1   7  -1   87.42    7.85
   1  -7   1   64.40   10.93
  -1  -7  -1   60.65   12.85
   1  -7   1   65.55   12.69
  -1  -7  -1   67.37   42.00
   1   7   2   39.81    9.58
   1  -7   2   30.01   29.40
  -1  -7  -2   28.15    9.05
   1  -7   2   33.74   29.53
  -1  -7  -2   33.53   32.14
   1   7   3  200.79   19.53
   1  -7   3  228.88   23.28
  -1  -7  -3  205.28   16.14
   1   7   3  176.35    8.88
   1  -7   3  221.71   25.96
  -1  -7  -3  241.14   26.40
   1   7   4  215.97   35.86
   1  -7   4  267.62   28.38
  -1  -7  -4  253.28   18.94
   1  -7   4  293.81   33.51
  -1  -7  -4  253.61   25.73
   1   7   5    9.42   10.24
  -1  -7  -5   13.70    2.27
   1  -7   5    8.17   13.67
  -1  -7  -5    7.66    5.52
   1  -7   5    6.78    7.41
  -1  -7  -5    8.88   17.97
   1   7   6   83.93   16.37
   1  -7   6   87.47   14.71
   1  -7   6  121.27   26.13
  -1  -7  -6  105.57   16.52
   1   7   7  272.83   28.56
   1  -7   7  337.49   37.53
   1  -7   7  332.61   38.62
  -1  -7  -7  339.38   36.24
   1   7   8    5.04   10.68
   1  -7   8   -0.44    9.09
  -1  -7  -8    2.20    8.49
  -1   7  -8    6.35   16.69
   1   7   9   50.10   39.88
   1  -7   9   56.08   50.00
  -1  -7  -9   57.03   55.93
  -1   7  -9   45.07   24.01
   1   7  10  107.95   15.94
   1  -7  10  103.91   20.88
  -1  -7 -10  142.27   70.29
  -1   7 -10  107.87  106.80
   1   7  11   96.56   77.69
   1  -7  11   64.53   74.15
  -1  -7 -11  104.86   62.09
  -1   7 -11  127.90   31.26
   1   7  12    5.28   14.91
   1  -7  12    8.13   15.88
  -1  -7 -12   13.40   14.07
  -1   7 -12    2.37   19.21
   1   7  13   62.74   35.93
   1  -7  13   63.09   60.59
  -1  -7 -13   80.14   24.17
  -1   7 -13   60.08   58.13
   1   7  14   63.91   68.98
   1  -7  14   81.64  109.67
  -1  -7 -14   80.08   19.69
  -1   7 -14   46.68   87.64
  -1   8  13   17.30   19.88
  -1  -8  13   12.31   18.49
   1  -8 -13   22.53   21.57
   1   8 -13   12.95   15.67
  -1   8  12   34.30   26.77
  -1  -8  12   22.52   44.48
   1  -8 -12   20.07   24.73
   1   8 -12   35.13   16.05
  -1   8  11  111.74   19.97
  -1  -8  11  117.52   24.75
   1  -8 -11   98.70   16.58
   1   8 -11  130.60   23.62
  -1   8  10    9.46    8.16
  -1  -8  10    8.61   13.17
   1  -8 -10    0.70    8.87
   1   8 -10    6.49   18.39
  -1   8   9  305.11   25.46
  -1  -8   9  335.77   51.32
   1  -8  -9  279.66   31.99
  -1   8   8  167.80   19.33
  -1  -8   8  194.11   27.24
  -1  -8   8  158.78   40.95
   1  -8  -8  157.47   19.86
  -1   8   7   48.18   38.35
  -1  -8   7   47.90   36.83
  -1  -8   7   35.62   29.33
   1  -8  -7   51.07   31.88
  -1   8   6  777.18   54.58
  -1  -8   6  694.47   68.91
  -1  -8   6  756.43   67.23
   1  -8  -6  741.87   58.89
  -1   8   5  454.26   39.86
  -1  -8   5  443.09   40.68
  -1  -8   5  502.97   48.27
   1  -8  -5  446.90   45.58
   1   8  -4   49.25    4.53
  -1   8   4   61.98    9.46
  -1  -8   4   42.23   38.67
  -1  -8   4   51.45   50.35
   1  -8  -4   53.24   47.75
   1   8  -3  175.39   10.32
  -1   8   3  178.75   11.35
   1  -8  -3  173.96    6.66
  -1  -8   3  179.46   16.06
  -1  -8   3  174.28   19.01
   1  -8  -3  139.17   17.51
   1   8  -2   24.16    8.18
  -1   8   2   24.19   19.67
   1  -8  -2   37.12   17.49
  -1  -8   2   36.94   25.61
  -1  -8   2   38.87   31.85
   1  -8  -2   57.13   41.53
   1   8  -1  314.91   25.15
  -1   8   1  304.85   21.28
   1  -8  -1  292.31   21.93
  -1  -8   1  300.93   23.67
  -1  -8   1  265.67   25.44
   1  -8  -1  320.14   32.75
   1   8   0   62.44   13.23
  -1   8   0   55.09   13.23
   1  -8   0   62.02   12.78
  -1  -8   0   64.94    9.21
   1  -8   0   52.04   42.34
  -1  -8   0   62.78   27.09
  -1   8  -1   63.46    5.26
   1   8   1   66.53    7.46
   1  -8   1  103.53   21.55
  -1  -8  -1  114.31   10.66
   1  -8   1  125.30   18.96
  -1  -8  -1  133.13   17.84
   1   8   2  513.38   35.02
   1  -8   2  520.24   37.36
  -1  -8  -2  506.44   36.44
   1  -8   2  584.28   45.82
  -1  -8  -2  539.30   50.45
   1   8   3  170.43   22.64
   1  -8   3  140.76   14.47
  -1  -8  -3  161.92    9.65
   1  -8   3  184.26   21.70
  -1  -8  -3  177.88   20.79
   1   8   4  179.02   31.80
   1  -8   4  172.38   16.48
  -1  -8  -4  176.77    7.46
   1  -8   4  179.87   23.20
  -1  -8  -4  168.52   19.39
   1   8   5  343.27   47.69
   1  -8   5  335.46   32.86
   1  -8   5  344.74   57.27
  -1  -8  -5  355.13   40.48
   1   8   6  212.54   37.85
   1  -8   6  221.74   31.78
   1  -8   6  248.90   32.45
  -1  -8  -6  230.88   24.83
   1   8   7   26.87   18.79
   1  -8   7   23.20   26.17
   1  -8   7   18.37   24.57
  -1  -8  -7   31.31   22.14
   1   8   8   62.59   49.45
   1  -8   8   76.85   63.12
  -1  -8  -8   73.00   15.33
  -1   8  -8   76.71   23.37
   1   8   9  348.45   30.97
   1  -8   9  319.56   79.53
  -1  -8  -9  319.75   30.33
  -1   8  -9  336.14   38.29
   1   8  10    3.23   13.64
   1  -8  10    9.45   18.83
  -1  -8 -10    4.92   14.12
  -1   8 -10   11.13   20.19
   1   8  11    6.76    7.24
   1  -8  11    9.74   28.31
  -1  -8 -11   11.41   12.30
  -1   8 -11    5.93   19.53
   1   8  12  168.56   19.91
   1  -8  12  137.05   25.80
  -1  -8 -12  206.18   24.64
  -1   8 -12  113.68   22.00
   1   8  13   14.97   22.29
   1  -8  13   18.98   18.72
  -1  -8 -13   11.98    9.91
  -1   8 -13   13.85   22.88
  -1   9  12   31.69   27.75
  -1  -9  12   25.33   33.23
   1  -9 -12   27.74   29.58
   1   9 -12   24.13   28.42
  -1   9  11  151.16   19.79
  -1  -9  11  159.04   49.00
   1  -9 -11  165.21   19.82
   1   9 -11  137.79   30.57
  -1   9  10  126.19   17.65
  -1  -9  10  130.43   24.12
   1  -9 -10  169.57   23.63
   1   9 -10  103.59   20.53
  -1   9   9   -0.10    7.79
  -1  -9   9    9.13   13.03
  -1  -9   9   -5.49   15.63
   1  -9  -9    2.72    5.79
  -1   9   8   21.01   23.13
  -1  -9   8   19.95   19.11
  -1  -9   8   18.69   20.74
   1  -9  -8   28.68   22.48
  -1   9   7   64.24   50.94
  -1  -9   7   92.82   22.01
  -1  -9   7  121.25   27.76
   1  -9  -7   92.32   73.42
  -1   9   6  195.79   26.97
  -1  -9   6  121.99   17.74
  -1  -9   6  124.97   30.86
   1  -9  -6  143.46   22.30
  -1   9   5   55.37   36.33
  -1  -9   5   47.97   33.91
  -1  -9   5   40.93   34.20
   1  -9  -5   47.91   36.65
  -1   9   4  172.60   15.25
  -1  -9   4  138.94   49.49
  -1  -9   4  152.34   19.95
   1  -9  -4  179.47   23.14
  -1   9   3  154.97   19.04
  -1  -9   3  144.49   18.54
  -1  -9   3  168.23   26.38
   1  -9  -3  176.80   23.51
   1   9  -2    0.40    2.25
  -1   9   2    1.91    2.58
   1  -9  -2    1.39    2.28
  -1  -9   2    0.43    5.93
   1  -9  -2    3.13    7.06
  -1  -9   2    5.68   16.32
   1   9  -1  169.02   16.17
  -1   9   1  156.03   15.00
   1  -9  -1  191.31   19.94
  -1  -9   1  173.27   18.67
  -1  -9   1  167.79   26.05
   1  -9  -1  182.76   31.24
   1   9   0  201.36   19.24
  -1   9   0  185.88   16.52
   1  -9   0  258.09   25.84
  -1  -9   0  229.27   28.68
  -1  -9   0  252.68   36.70
   1  -9   0  207.16   32.56
   1   9   1  388.42   33.49
   1  -9   1  343.41   34.91
  -1  -9  -1  337.27   31.18
   1  -9   1  340.88   40.74
  -1  -9  -1  332.77   37.80
   1   9   2  158.97   25.21
   1  -9   2  169.40   19.88
  -1  -9  -2  173.33   17.73
   1  -9   2  180.13   20.27
  -1  -9  -2  174.94   38.79
   1   9   3  159.70   35.22
   1  -9   3   76.55   17.04
  -1  -9  -3   82.21   13.88
   1  -9   3   67.26   72.92
  -1  -9  -3   73.70   60.40
   1   9   4  438.49   70.26
   1  -9   4  368.19   38.28
   1  -9   4  385.43   37.52
  -1  -9  -4  362.55   33.52
   1   9   5   35.27   22.84
   1  -9   5   19.29   30.01
   1  -9   5   21.99   25.09
  -1  -9  -5   33.66   31.35
   1   9   6   53.70   13.27
   1  -9   6   31.31   28.49
   1  -9   6   28.52   36.48
  -1  -9  -6   44.26   39.97
   1   9   7  253.37   33.66
   1  -9   7  279.19   32.07
   1  -9   7  306.49   36.57
  -1  -9  -7  253.70   65.43
   1   9   8   12.26   10.84
   1  -9   8   11.38   16.01
  -1  -9  -8    9.23    8.16
   1   9   9    2.61    9.67
   1  -9   9   -4.48   18.35
  -1  -9  -9    8.59   16.31
  -1   9  -9    5.63   19.99
   1   9  10  215.78   23.22
   1  -9  10  216.81   27.64
  -1  -9 -10  234.16   28.40
  -1   9 -10  225.39   37.55
   1   9  11  166.83   22.74
   1  -9  11  150.64   27.14
  -1  -9 -11  195.25   28.57
  -1   9 -11  173.04   62.89
   1   9  12   38.70   31.57
   1  -9  12   37.47   48.45
  -1  -9 -12   55.22   23.15
  -1   9 -12   56.35   36.02
  -1  10  11    7.46   18.20
  -1 -10  11    5.16   14.37
   1 -10 -11    6.27   14.90
   1  10 -11    4.75   13.12
  -1  10  10    2.58    7.41
  -1 -10  10    4.18   11.87
   1 -10 -10    0.36    5.56
   1  10 -10   -0.49   19.09
  -1  10   9   53.85   62.13
  -1 -10   9   52.16   62.34
  -1 -10   9   56.10   79.96
   1 -10  -9   91.29   22.00
  -1  10   8  113.77   14.80
  -1 -10   8  112.23   21.34
  -1 -10   8  122.69   32.29
   1 -10  -8  116.16   55.92
  -1  10   7    7.60   12.51
  -1 -10   7   13.69    8.81
  -1 -10   7   18.25   24.72
   1 -10  -7    9.18   12.36
  -1  10   6   64.30   21.49
  -1 -10   6   42.94   35.76
  -1 -10   6   49.07   41.12
   1 -10  -6   63.10   59.92
  -1  10   5   34.80   32.04
  -1 -10   5   15.78   20.71
  -1 -10   5   15.58   19.91
   1 -10  -5   30.23   22.40
  -1  10   4  106.45   13.16
  -1 -10   4  108.90   14.55
  -1 -10   4  106.68   62.31
   1 -10  -4  128.18   20.33
  -1  10   3    4.40    7.58
  -1 -10   3    6.91    7.38
  -1 -10   3    9.28   16.60
   1 -10  -3    3.73    9.05
  -1 -10   2  283.21   25.79
  -1 -10   2  241.01   27.48
   1 -10  -2  280.44   32.45
  -1 -10   1   23.89   21.48
  -1 -10   1   26.88   20.38
   1 -10  -1   23.32   22.35
   1 -10   0   65.76   36.47
  -1 -10   0   61.45   13.08
   1 -10   0   58.25   56.01
  -1 -10   0   81.15   27.70
   1  10   1  444.98   35.84
   1 -10   1  430.56   35.31
  -1 -10  -1  395.45   29.41
   1 -10   1  435.13   44.90
  -1 -10  -1  414.58   45.40
   1  10   2   42.10    8.38
   1 -10   2   17.80   20.18
  -1 -10  -2   15.36   32.81
   1  10   3   17.10   14.34
   1 -10   3   15.16   13.95
   1 -10   3   33.16   26.77
  -1 -10  -3   19.21   50.17
   1  10   4   21.29   20.95
   1 -10   4   15.26   17.51
   1 -10   4   24.36   30.67
  -1 -10  -4   30.64   30.22
   1  10   5  100.53   35.07
   1 -10   5   90.72   15.31
   1 -10   5   97.57   73.44
  -1 -10  -5  114.88   28.50
   1  10   6   36.33   33.35
   1 -10   6   40.48   42.89
   1 -10   6   44.17   32.29
  -1 -10  -6   58.67   58.99
   1  10   7    3.55    6.32
   1 -10   7    8.09   10.92
   1 -10   7   12.36   16.58
  -1 -10  -7    6.91   11.61
   1  10   8  110.48   34.97
   1 -10   8  114.93   20.29
  -1 -10  -8  131.68   28.27
   1  10   9    9.72   12.80
   1 -10   9   11.03   19.44
  -1 -10  -9   25.16   37.57
  -1  10  -9   12.02   20.12
   1  10  10   49.62   51.53
   1 -10  10   42.53   56.00
  -1 -10 -10   35.31   36.85
  -1  10 -10   35.99   36.62
   1  10  11   26.65   36.51
   1 -10  11   31.72   41.49
  -1 -10 -11   37.43   52.90
  -1  10 -11   43.86   21.33
  -1  11   9   24.98   30.21
  -1 -11   9   31.89   35.98
  -1 -11   9   34.22   59.05
   1 -11  -9   34.77   55.40
  -1  11   8   -0.47    7.92
  -1 -11   8    1.04    7.48
  -1 -11   8    1.83   11.03
   1 -11  -8    4.84   10.61
  -1  11   7  108.67   14.29
  -1 -11   7   78.67   57.81
  -1 -11   7  120.24   25.34
   1 -11  -7  136.03   27.21
  -1  11   6    9.70    9.52
  -1 -11   6   33.13   38.20
  -1 -11   6   37.29   19.49
   1 -11  -6   32.34   32.60
  -1 -11   5   10.59   11.79
  -1 -11   5   11.11   22.09
   1 -11  -5   10.94   20.93
  -1 -11   4   92.36   20.96
  -1 -11   4  118.86   32.71
   1 -11  -4   70.87   82.63
  -1 -11   3  109.18   19.28
  -1 -11   3   82.40   91.36
   1 -11  -3   69.45   65.40
  -1 -11   2   20.66   20.30
  -1 -11   2   16.20   31.33
   1 -11  -2   30.80   28.33
  -1 -11   1   61.20   13.66
  -1 -11   1   75.60   21.37
   1 -11  -1   60.72   72.04
   1 -11   0  181.18   34.39
  -1 -11   0  170.60   27.19
   1 -11   1   48.66   57.02
  -1 -11  -1   53.62   68.21
   1 -11   2   60.39   13.47
   1 -11   2   48.82   58.54
  -1 -11  -2   34.73   23.35
   1 -11   3   40.76   41.46
   1 -11   3   33.48   22.97
  -1 -11  -3   32.09   44.75
   1  11   4   92.02   16.50
   1 -11   4   76.06   14.97
   1 -11   4   65.87   80.44
  -1 -11  -4   72.48   42.32
   1  11   5    9.09   13.71
   1 -11   5   10.84   10.92
   1 -11   5   14.96   14.06
  -1 -11  -5   11.30   11.48
   1  11   6    3.95    4.47
   1 -11   6    7.16   12.34
   1 -11   6   13.45   16.45
  -1 -11  -6    4.93   18.83
   1  11   7   39.03   41.87
   1 -11   7   43.56   52.72
   1 -11   7   54.14   71.58
  -1 -11  -7   48.91   56.97
   1  11   8   11.12   17.95
   1 -11   8   13.51   28.98
   1 -11   8   25.20   36.57
  -1 -11  -8    6.17   26.32
   1  11   9    5.46    6.47
   1 -11   9    9.52   26.78
  -1 -11  -9   -0.38   18.56
  -1  11  -9   -4.03   23.91
  -1 -12   6   45.88   73.60
  -1 -12   6   40.48   61.40
   1 -12  -6   71.95   38.50
  -1 -12   5   64.26   21.60
  -1 -12   5   57.76   70.85
   1 -12  -5   44.69   77.39
  -1 -12   4   12.45   25.55
  -1 -12   4   17.01   27.46
   1 -12  -4   21.81   37.21
  -1 -12   3   22.65   38.13
  -1 -12   3   21.55   36.67
   1 -12  -3   26.39   45.91
  -1 -12   2   43.93   43.87
   1 -12  -2   23.62   27.13
  -1 -12   1   84.81   96.12
   1 -12  -1  110.15   27.26
   1 -12   0    9.53   14.30
  -1 -12   0    3.72   14.90
   1 -12   1   52.36   78.37
  -1 -12  -1   70.25   94.70
   1 -12   2  168.25   33.16
  -1 -12  -2  184.60   26.09
   1 -12   3   46.62   69.14
  -1 -12  -3   46.36   24.55
   1 -12   4    8.50   12.86
   1 -12   4   13.56   28.97
  -1 -12  -4    8.42   11.61
   1 -12   5   23.86   34.88
   1 -12   5   55.29   27.75
  -1 -12  -5   33.13   35.13
   1 -12   6   96.83   19.29
   1 -12   6  102.17   60.35
  -1 -12  -6  108.87   24.72
  -2   0  17   86.14   18.09
  -2   0  17   88.81   18.37
  -2   0  16   17.29   13.72
  -2   0  16   17.62   17.76
   2   0 -16   11.66   21.23
  -2   0  15   19.43   13.97
  -2   0  15   13.86   12.48
   2   0 -15    2.55   14.79
  -2   0  14   83.82   78.46
  -2   0  14   82.22   16.45
   2   0 -14   86.75   14.95
  -2   0  13   87.66   43.40
  -2   0  13   86.60   22.29
   2   0 -13   82.83   28.42
  -2   0  12    1.03    8.49
  -2   0  12    3.91    7.65
   2   0 -12   -0.01    8.59
  -2   0  11  792.39   67.54
  -2   0  11  805.95   57.56
   2   0 -11  815.27   53.36
  -2   0  10  966.38   72.35
  -2   0  10  953.57   69.84
   2   0 -10 1022.47   73.78
  -2   0   9   29.61   27.34
  -2   0   9   30.34   22.27
   2   0  -9   27.47   19.82
  -2   0   8   59.58   26.57
  -2   0   8   51.89    9.95
   2   0  -8   47.49   10.09
  -2   0   7  761.33   41.12
  -2   0   7  789.72   38.84
   2   0  -7  738.12   33.60
  -2   0   7  724.79   32.76
  -2   0   6  368.20   26.71
  -2   0   6  369.50   25.40
   2   0  -6  383.46   25.59
  -2   0   6  329.72   22.11
  -2   0   5    7.50    8.61
  -2   0   5    8.51    6.68
   2   0  -5    8.19    4.87
  -2   0   5    8.74    5.70
   2   0  -4  136.49    8.77
  -2   0   4  132.63    7.82
   2   0  -4  126.81    7.72
   2   0  -4  142.47    5.87
  -2   0   4  127.21    5.43
   2   0  -3 6497.69  381.83
  -2   0   3 6975.61  409.69
  -2   0   3 7135.60  418.99
   2   0  -3 6554.96  385.12
   2   0  -2 1025.44   25.83
  -2   0   2 1105.16   27.82
  -2   0   2 1056.56   26.49
   2   0  -2 1143.98   28.53
   2   0  -1 2417.51   52.28
  -2   0   1 2395.30   50.93
   2   0  -1 2409.82   52.50
  -2   0   1 2491.46   49.57
   2   0   0 1451.03   33.30
  -2   0   0 1476.03   33.05
  -2   0   0 1438.42   32.84
  -2   0   0 1363.61   32.76
  -2   0   0 1412.09   31.50
   2   0   0 1385.88   31.05
   2   0   1  969.11   23.55
  -2   0  -1  856.65   20.88
   2   0   1  843.93   22.73
  -2   0  -1  829.55   25.19
  -2   0  -1  893.58   24.19
   2   0   1  811.21   22.29
   2   0   2  702.88   18.83
  -2   0  -2  757.14   19.30
   2   0   2  676.84   21.61
  -2   0  -2  745.14   21.43
  -2   0  -2  719.11   28.19
   2   0   2  734.64   23.20
   2   0   3  459.17   15.32
  -2   0  -3  463.55   14.24
   2   0   3  461.37   16.65
  -2   0  -3  455.06   18.81
  -2   0  -3  401.93   16.07
   2   0   4   51.93    6.32
   2   0   4   59.34   11.44
  -2   0  -4   53.28    8.37
   2   0   5 1230.22   52.07
   2   0   5 1352.91   60.82
  -2   0  -5 1412.62   65.43
   2   0   6   28.34    6.70
   2   0   6   26.72   24.75
  -2   0  -6   25.25    9.85
   2   0   7  173.74   18.46
   2   0   7  174.53   16.92
  -2   0  -7  185.28   20.98
   2   0   8 1057.14   67.01
   2   0   8 1112.13   57.18
  -2   0  -8 1182.99   43.50
   2   0   9  296.03   27.32
   2   0   9  275.97   29.99
  -2   0  -9  284.85   28.42
   2   0  10  100.59   42.48
   2   0  10   87.02   25.45
  -2   0 -10   97.37   23.71
   2   0  11 1309.19   91.76
   2   0  11 1348.79   88.99
  -2   0 -11 1426.24   52.15
   2   0  12   11.17   10.90
   2   0  12   15.98   13.05
  -2   0 -12    7.29   16.03
   2   0  13   25.57   19.93
   2   0  13   21.23   18.79
  -2   0 -13   28.93   29.86
   2   0  14  236.92   19.52
   2   0  14  223.17   21.74
  -2   0 -14  228.10   32.18
   2   0  15  104.41   15.41
   2   0  15  105.05   18.90
  -2   0 -15  116.58   23.32
   2   0  16   51.98   59.74
   2   0  16   50.78   70.73
  -2   0 -16   59.04   62.71
   2   0  17   60.19   52.65
   2   0  17   35.86   54.79
  -2   0 -17   44.66   67.96
  -2   1  17    7.37   15.25
  -2  -1  17   11.15   17.49
  -2  -1  17    9.16   15.58
  -2   1  16  185.39   21.18
  -2  -1  16  181.65   50.17
  -2   1  16  185.08   71.49
  -2  -1  16  190.05   20.28
   2   1 -16  201.98   19.44
  -2  -1  15  228.16   22.28
  -2   1  15  183.14   21.60
  -2   1  15  210.13   20.84
  -2  -1  15  254.33   22.81
   2  -1 -15  230.48   17.87
   2   1 -15  193.03   19.84
  -2  -1  14    4.05   11.01
  -2   1  14    1.26    6.75
  -2   1  14    3.88    7.68
  -2  -1  14   -0.93   11.14
   2  -1 -14    9.02    8.42
   2   1 -14    3.19    7.34
  -2  -1  13  132.54   20.73
  -2   1  13  146.54   19.94
  -2   1  13  136.98   22.76
  -2  -1  13   97.53   15.94
   2  -1 -13  115.37   14.62
   2   1 -13  145.00   20.01
  -2  -1  12  219.01   25.70
  -2   1  12  262.25   30.40
  -2   1  12  210.05   24.73
  -2  -1  12  203.81   33.27
   2  -1 -12  207.16   20.62
   2   1 -12  232.61   25.95
  -2   1  11   18.49   30.29
  -2  -1  11   20.52   13.91
  -2   1  11   24.39    7.57
  -2  -1  11   12.68    9.61
   2  -1 -11   12.59    6.67
   2   1 -11   23.49   18.62
  -2   1  10   95.30   63.12
  -2  -1  10   95.73   37.64
  -2  -1  10   70.28   12.09
  -2   1  10   78.11   13.72
   2  -1 -10   86.61   10.47
   2   1 -10   85.49   12.67
  -2  -1   9  590.32   36.89
  -2   1   9  619.93   39.72
  -2   1   9  619.97   33.21
  -2  -1   9  637.07   36.48
   2  -1  -9  759.41   38.57
   2   1  -9  665.24   36.47
  -2   1   8  503.95   31.67
  -2  -1   8  653.61   36.62
  -2   1   8  505.20   27.38
  -2  -1   8  593.91   41.55
   2  -1  -8  567.52   29.98
   2   1  -8  568.25   33.20
  -2  -1   7  543.38   37.34
  -2   1   7  545.01   35.91
  -2  -1   7  510.03   29.02
  -2   1   7  523.77   28.54
   2  -1  -7  485.54   25.41
   2   1  -7  576.23   31.28
  -2   1   7  519.37   32.77
  -2   1   6 1539.58   65.49
  -2  -1   6 1448.69   63.47
  -2  -1   6 1398.28   62.81
  -2   1   6 1475.96   60.40
   2   1  -6 1653.48   66.56
   2  -1  -6 1499.80   60.64
  -2   1   6 1503.60   61.86
   2   1  -6 1404.36   61.22
   2   1  -5 1159.38   49.86
  -2   1   5 1180.23   50.80
  -2  -1   5 1457.71   62.76
  -2   1   5 1278.87   52.10
   2  -1  -5 1219.91   49.95
   2   1  -5 1288.49   52.03
   2  -1  -5 1235.10   49.62
  -2   1   5 1128.56   46.30
   2   1  -5 1147.78   47.91
   2   1  -4 2366.34   55.49
  -2   1   4 2296.80   53.13
  -2   1   4 2281.78   51.50
   2  -1  -4 2098.79   46.40
   2   1  -4 2382.63   49.46
   2  -1  -4 2090.51   43.63
  -2   1   4 2071.20   43.43
   2  -1  -3  115.89    8.03
  -2   1   3  134.94    7.76
   2   1  -3  126.50    7.79
  -2  -1   3  106.53    6.46
  -2  -1   3  106.09    7.18
   2   1  -3  124.22    6.94
  -2   1   3  125.54    6.94
   2  -1  -3  123.74    6.50
  -2  -1   3  117.44    5.56
   2   1  -3  146.68    6.59
   2  -1  -3  125.11    4.65
  -2   1   3  140.23    6.22
   2  -1  -2 1469.40   34.75
  -2   1   2 1714.80   38.92
   2   1  -2 1571.71   37.62
  -2  -1   2 1481.05   35.18
  -2  -1   2 1417.49   34.05
  -2   1   2 1540.20   35.01
   2  -1  -2 1371.45   35.23
   2  -1  -2 1441.47   29.95
  -2  -1   2 1520.16   32.05
  -2   1   2 1598.96   32.62
   2   1  -1  811.84   23.42
  -2  -1   1  647.57   19.13
  -2   1   1  826.13   21.54
   2   1  -1  842.14   22.57
  -2   1   1  808.84   18.27
  -2  -1   1  689.26   16.83
   2  -1   0   50.94    4.25
  -2   1   0   63.37    4.72
   2   1   0   53.66    4.85
  -2  -1   0   62.38    4.89
   2  -1   0   48.15    4.76
  -2   1   0   56.12    5.22
  -2  -1   0   53.75    5.28
   2   1   0   50.53    4.76
  -2   1   0   56.04    6.41
  -2  -1   0   50.93    3.61
   2   1   0   51.91    4.05
  -2   1   0   53.93    4.97
   2  -1   1 1916.70   41.22
  -2   1  -1 1852.88   39.45
   2   1   1 1824.82   40.57
  -2  -1  -1 1913.83   41.46
  -2  -1  -1 1964.89   44.11
   2  -1   1 1955.76   45.19
  -2   1  -1 2025.77   46.79
  -2  -1  -1 2054.63   46.90
   2   1   1 1907.68   42.91
   2  -1   1 1902.84   42.93
   2  -1   2 1825.01   39.56
  -2   1  -2 1809.50   38.45
   2   1   2 1758.98   39.95
  -2  -1  -2 2024.88   44.59
   2   1   2 1928.56   46.83
  -2  -1  -2 1974.55   44.65
   2  -1   2 1918.23   45.65
  -2  -1  -2 1895.03   45.17
   2   1   2 1729.35   41.10
  -2   1  -2 1901.15   47.82
   2  -1   3  782.04   20.55
   2   1   3  812.83   22.32
  -2   1  -3  795.23   19.76
   2   1   3  812.97   27.76
  -2  -1  -3  701.87   22.64
   2  -1   3  822.21   25.31
  -2  -1  -3  712.47   23.90
  -2   1  -3  855.37   27.34
   2   1   4  565.10   18.86
   2  -1   4  592.59   17.97
  -2   1  -4  564.18   17.76
   2   1   4  602.29   21.44
   2  -1   4  647.42   23.04
  -2  -1  -4  660.12   30.21
  -2   1  -4  551.35   24.97
   2  -1   5 1486.62   61.16
   2   1   5 1356.84   56.85
   2   1   5 1464.69   68.65
   2  -1   5 1362.66   70.66
  -2  -1  -5 1405.60   62.07
  -2   1  -5 1678.25   73.64
   2   1   6  403.43   31.21
   2  -1   6  300.34   21.89
   2   1   6  437.10   33.88
   2  -1   6  280.49   22.25
  -2  -1  -6  302.94   25.16
  -2   1  -6  455.90   38.46
   2   1   7   44.60    8.45
   2  -1   7   43.55    7.92
   2   1   7   43.95    7.88
   2  -1   7   45.26   10.65
  -2  -1  -7   49.91   10.81
  -2   1  -7   51.80   14.37
   2  -1   8  360.75   22.03
   2   1   8  472.71   41.89
   2   1   8  482.02   29.43
   2  -1   8  366.20   25.39
  -2  -1  -8  403.22   29.33
  -2   1  -8  526.83   37.17
   2   1   9  104.37   13.53
   2  -1   9   92.08   10.96
   2   1   9   97.27   12.87
   2  -1   9   93.83   13.29
  -2  -1  -9  114.39   25.92
  -2   1  -9  114.66   17.76
   2  -1  10   84.05   10.49
   2   1  10   71.59   20.06
   2  -1  10  108.34   35.95
   2   1  10   59.16   38.54
  -2  -1 -10   94.30   25.45
  -2   1 -10   73.56   59.45
   2  -1  11  291.84   27.11
   2   1  11  272.14   24.21
   2  -1  11  270.39   22.47
   2   1  11  280.41   25.09
  -2  -1 -11  291.06   31.02
  -2   1 -11  328.40   35.57
   2  -1  12  214.02   21.24
   2   1  12  290.02   36.27
   2   1  12  305.73   27.87
   2  -1  12  208.87   24.87
  -2  -1 -12  199.92   23.99
  -2   1 -12  313.83   57.89
   2   1  13   69.22   63.33
   2  -1  13   74.61   40.41
   2   1  13   64.84   13.56
   2  -1  13   85.98   57.92
  -2  -1 -13   91.49   20.81
  -2   1 -13   51.07   52.20
   2   1  14    5.79   15.93
   2  -1  14    9.74   10.79
   2   1  14   10.42   10.11
   2  -1  14    9.59   13.20
  -2  -1 -14   16.06   19.96
  -2   1 -14   13.14   17.89
   2  -1  15  106.27   42.41
   2   1  15   97.10   17.45
   2   1  15  108.52   18.37
   2  -1  15  111.68   20.14
  -2  -1 -15  117.89   20.14
  -2   1 -15   97.24   43.69
   2  -1  16   37.77   45.43
   2   1  16   44.30   61.96
   2   1  16   41.40   55.47
   2  -1  16   49.70   61.50
  -2  -1 -16   63.14   63.39
  -2   1 -16   55.17   75.85
   2   1  17   18.49   33.38
   2  -1  17   26.89   39.25
   2   1  17   19.54   27.41
   2  -1  17   23.55   35.19
  -2  -1 -17   20.63   44.35
  -2   1 -17   20.85   40.39
  -2  -2  17   39.45   41.77
  -2   2  17   47.47   46.54
  -2  -2  17   31.77   40.28
  -2  -2  16  101.22   60.66
  -2   2  16  119.43  112.65
  -2  -2  16  117.20   22.06
   2   2 -16  103.21   17.13
  -2  -2  15   36.53   34.68
  -2   2  15   24.98   21.10
  -2   2  15   41.05   11.30
  -2  -2  15   36.78   31.08
   2  -2 -15   25.72   29.34
   2   2 -15   23.56   26.03
  -2   2  14  180.93   19.17
  -2  -2  14  148.35   19.23
  -2   2  14  198.81   19.83
  -2  -2  14  136.74   34.10
   2  -2 -14  128.30   12.76
   2   2 -14  186.95   21.79
  -2  -2  13  356.31   32.19
  -2   2  13  392.70   34.79
  -2   2  13  331.70   26.95
  -2  -2  13  377.56   84.78
   2  -2 -13  320.12   26.12
   2   2 -13  408.06   34.64
  -2   2  12   -0.45   14.08
  -2  -2  12    3.26   10.64
  -2   2  12    3.57    7.00
  -2  -2  12    9.64   12.18
   2  -2 -12    0.71    4.04
   2   2 -12    1.62    7.33
  -2   2  11  197.23   19.66
  -2  -2  11  171.49   17.00
  -2   2  11  156.36   23.45
  -2  -2  11  175.11   25.63
   2  -2 -11  139.26   10.76
   2   2 -11  180.25   16.89
  -2   2  10  310.01   29.16
  -2  -2  10  285.74   25.76
  -2   2  10  294.93   22.62
  -2  -2  10  277.46   39.31
   2  -2 -10  292.12   22.18
   2   2 -10  371.67   32.95
  -2   2   9  153.05   16.65
  -2  -2   9  142.41   14.72
  -2  -2   9  128.20   14.63
  -2   2   9  141.56   16.79
   2  -2  -9  124.32   15.46
   2   2  -9  152.71   15.49
  -2   2   8  320.23   24.23
  -2  -2   8  247.71   26.13
  -2   2   8  304.08   17.82
  -2  -2   8  249.26   24.01
   2  -2  -8  228.20   19.80
   2   2  -8  366.74   27.35
  -2   2   7  538.50   32.27
  -2  -2   7  743.09   39.55
  -2  -2   7  680.12   37.11
  -2   2   7  502.48   25.55
   2  -2  -7  690.10   39.85
   2   2  -7  507.10   31.73
  -2   2   6  274.18   24.43
  -2  -2   6  319.47   23.16
  -2   2   6  276.74   18.68
  -2  -2   6  319.89   24.68
   2  -2  -6  315.35   20.73
   2  -2  -6  336.40   22.60
  -2   2   6  248.72   17.78
   2   2  -6  305.28   24.00
   2   2  -5  657.97   31.38
  -2   2   5  729.71   34.92
  -2   2   5  699.57   29.59
  -2  -2   5  744.56   34.71
   2  -2  -5  639.53   27.40
   2   2  -5  666.32   33.07
   2  -2  -5  635.75   29.86
  -2   2   5  684.85   31.25
   2   2  -4  148.02    9.39
  -2   2   4  151.47   11.36
  -2  -2   4  163.71   16.19
  -2   2   4  155.70    9.14
   2  -2  -4  153.66    7.24
  -2  -2   4  156.88   11.29
   2   2  -4  133.63    8.63
   2  -2  -4  154.61    7.24
  -2   2   4  165.81    9.03
   2   2  -3  808.73   23.75
  -2  -2   3  817.48   22.48
  -2   2   3  778.71   26.50
  -2  -2   3  803.33   23.29
  -2   2   3  838.87   20.16
   2  -2  -3  770.40   19.60
  -2  -2   3  801.28   24.24
   2  -2  -3  736.42   19.12
   2   2  -3  814.93   21.91
  -2   2   3  872.68   21.15
  -2   2   2  383.64   13.42
   2   2  -2  430.72   14.94
  -2  -2   2  403.94   13.50
  -2   2   2  413.12   14.66
  -2   2   2  379.56   11.66
  -2  -2   2  410.92   14.54
  -2   2   2  374.36   11.72
   2  -2  -2  341.19   11.35
  -2  -2   2  404.64   14.09
   2   2  -2  404.78   12.77
  -2   2   2  425.84   12.17
  -2   2   1  353.66   12.04
   2   2  -1  342.20   12.73
   2  -2  -1  429.43   13.75
  -2   2   1  342.64   11.39
  -2  -2   1  437.87   14.81
   2   2  -1  329.70   12.56
   2  -2  -1  414.43   16.54
  -2   2   1  316.75   13.31
  -2  -2   1  436.65   16.04
   2   2  -1  346.45   11.02
   2  -2   0 2342.69   49.67
  -2   2   0 2335.05   49.93
   2   2   0 2321.35   51.47
  -2  -2   0 2370.29   51.13
   2  -2   0 2189.34   48.84
  -2   2   0 2465.05   53.81
  -2  -2   0 2607.45   57.79
   2   2   0 2385.60   54.42
   2  -2   0 2342.08   51.56
  -2   2   0 2314.93   50.26
  -2  -2   0 2435.92   52.44
   2   2   0 2396.01   51.77
   2  -2   1 1190.14   27.37
  -2   2  -1 1215.33   27.66
   2   2   1 1113.91   28.04
  -2  -2  -1 1183.40   28.19
   2  -2   1 1240.16   32.22
  -2   2  -1 1142.93   30.98
  -2  -2  -1 1210.49   30.90
   2   2   1 1050.52   27.51
   2  -2   1 1176.11   34.57
  -2   2  -1 1042.77   26.95
  -2  -2  -1 1205.03   29.93
   2   2   1 1064.47   27.33
   2  -2   2  300.76    9.11
  -2   2  -2  298.93    8.65
   2   2   2  311.88   24.22
  -2  -2  -2  314.69   12.12
   2  -2   2  310.97   14.04
  -2  -2  -2  295.75   13.02
  -2   2  -2  353.49   16.55
   2   2   3  519.23   27.48
   2  -2   3  713.26   23.69
  -2  -2  -3  730.71   31.42
  -2   2  -3  544.71   22.02
   2  -2   4 1124.14   45.57
   2   2   4  784.57   35.23
  -2   2  -4  831.06   35.80
   2   2   4  819.75   37.39
  -2  -2  -4 1031.32   44.08
   2  -2   4  963.85   53.93
  -2  -2  -4 1123.26   52.15
  -2   2  -4  841.71   42.01
   2  -2   5  563.45   25.24
   2   2   5  473.53   42.68
  -2   2  -5  444.72   28.15
   2   2   5  429.11   30.59
   2  -2   5  512.05   36.37
  -2  -2  -5  542.78   46.21
  -2   2  -5  508.35   39.33
   2  -2   6  916.33   39.61
   2   2   6  859.53   48.81
   2   2   6  873.96   45.08
   2  -2   6  862.00   42.74
  -2  -2  -6  977.54   47.97
  -2   2  -6  896.31   47.79
   2   2   7 1692.51   88.30
   2  -2   7 1778.04  128.41
   2   2   7 1618.50   80.81
   2  -2   7 1821.48  134.74
  -2  -2  -7 1686.46   89.32
  -2   2  -7 1792.24  138.81
   2  -2   8  435.75   24.82
   2   2   8  511.71   30.07
   2   2   8  538.53   31.36
   2  -2   8  444.58   30.58
  -2  -2  -8  456.23   29.41
  -2   2  -8  501.04   39.80
   2  -2   9   62.58    9.83
   2   2   9   64.60   48.41
   2   2   9   54.82   10.18
   2  -2   9   65.19   50.79
  -2  -2  -9   68.65   15.52
  -2   2  -9   56.63   16.80
   2   2  10 1056.07   72.04
   2  -2  10  938.27   59.77
   2   2  10 1021.92   67.10
   2  -2  10 1073.51   73.35
  -2  -2 -10 1069.73   77.42
  -2   2 -10 1176.11   89.34
   2   2  11  149.10   42.07
   2  -2  11  186.95   21.55
   2   2  11  138.81   17.95
   2  -2  11  195.96   45.49
  -2  -2 -11  198.62   25.85
  -2   2 -11  157.88   27.50
   2   2  12    7.24   10.93
   2  -2  12   12.34   12.54
   2   2  12    7.63    7.33
   2  -2  12    8.58   13.42
  -2  -2 -12   14.12   17.13
  -2   2 -12   11.33   16.95
   2   2  13   22.10   14.25
   2  -2  13    7.58    9.03
   2   2  13   19.92   19.91
   2  -2  13    4.63   11.76
  -2  -2 -13    3.32   13.81
  -2   2 -13   17.41   33.99
   2   2  14  256.29   24.65
   2  -2  14  326.46   21.99
   2   2  14  267.38   20.34
   2  -2  14  297.23   28.77
  -2  -2 -14  354.31   48.38
  -2   2 -14  325.97   36.77
   2  -2  15    3.26    7.16
   2   2  15    5.03    7.72
   2   2  15    4.18    6.84
   2  -2  15    4.45    7.50
  -2  -2 -15    5.40   10.28
  -2   2 -15    5.49    9.14
   2   2  16    1.84    7.36
   2  -2  16    8.91   13.32
   2   2  16    1.75   11.62
   2  -2  16    4.10   12.76
  -2  -2 -16   11.70   12.86
  -2   2 -16    7.03   15.28
  -2  -3  16  174.04   69.07
  -2   3  16  145.57   23.37
  -2  -3  16  166.57   31.59
   2   3 -16  159.27   30.52
  -2  -3  15   28.23   21.70
  -2   3  15   20.64   24.91
  -2  -3  15   22.95   33.15
   2  -3 -15   32.75   26.66
   2   3 -15   34.43   21.48
  -2   3  14   -2.01   16.31
  -2  -3  14   -1.01   11.48
  -2  -3  14    4.63   16.01
   2  -3 -14    1.69    8.04
   2   3 -14   -0.93   10.59
  -2   3  13  128.45   22.29
  -2  -3  13  200.51   25.87
  -2   3  13  133.11   19.01
  -2  -3  13  191.10   25.17
   2  -3 -13  162.33   17.63
   2   3 -13  125.33   17.94
  -2   3  12  297.16   29.13
  -2  -3  12  257.23   30.56
  -2   3  12  268.91   30.97
  -2  -3  12  262.95   43.58
   2  -3 -12  268.83   23.30
   2   3 -12  283.82   30.17
  -2   3  11  309.20   31.08
  -2  -3  11  324.66   35.70
  -2   3  11  300.15   32.88
  -2  -3  11  332.16   39.85
   2  -3 -11  306.47   27.72
   2   3 -11  337.71   34.66
  -2   3  10  181.82   15.94
  -2  -3  10  196.29   15.60
  -2   3  10  160.15   15.93
  -2  -3  10  195.52   17.33
   2  -3 -10  191.80   11.95
   2   3 -10  194.24   19.08
  -2   3   9  394.13   35.70
  -2  -3   9  302.71   28.89
  -2   3   9  328.86   25.92
  -2  -3   9  307.42   30.11
   2  -3  -9  312.54   25.59
   2   3  -9  383.72   34.68
  -2   3   8  693.71   61.94
  -2  -3   8  721.22   43.14
  -2   3   8  674.43   36.22
  -2  -3   8  726.52   40.59
   2  -3  -8  691.08   32.83
   2  -3  -8  699.11   35.59
   2   3  -8  711.35   41.53
  -2   3   7   45.21   10.55
  -2  -3   7   53.67    8.40
  -2   3   7   45.30    9.43
  -2  -3   7   63.20   12.53
   2  -3  -7   44.38    5.71
   2  -3  -7   48.25   10.69
   2   3  -7   51.90    9.19
   2   3  -6  711.05   35.66
  -2   3   6  741.17   39.93
  -2   3   6  671.82   31.18
  -2  -3   6  765.79   40.68
   2  -3  -6  697.78   32.45
  -2  -3   6  814.18   40.68
   2  -3  -6  737.78   36.50
   2   3  -5  376.86   27.76
  -2   3   5  375.74   27.63
  -2   3   5  378.31   24.10
  -2  -3   5  407.61   28.86
  -2  -3   5  436.27   32.81
   2  -3  -5  436.80   32.33
   2   3  -4   11.13    4.92
  -2   3   4   13.14   12.22
  -2   3   4    7.58    6.29
  -2  -3   4    7.17   10.08
  -2   3   4   10.14    7.02
  -2  -3   4    8.71    4.13
   2  -3  -4    7.90    4.60
  -2   3   4    8.90    6.53
   2   3  -3  408.10   26.98
  -2  -3   3  334.46   23.65
  -2   3   3  415.35   29.24
  -2   3   3  361.58   23.26
  -2  -3   3  329.43   31.33
  -2   3   3  458.84   28.24
  -2  -3   3  325.41   23.32
   2  -3  -3  354.14   23.72
  -2   3   3  416.96   26.61
  -2   3   2 2015.67   48.25
   2   3  -2 2152.20   49.18
  -2  -3   2 2225.40   49.55
  -2   3   2 2057.68   46.62
   2  -3  -2 2281.13   48.13
  -2   3   2 2387.93   50.33
  -2  -3   2 2429.48   57.04
  -2  -3   2 2291.28   53.17
   2  -3  -2 2120.56   48.96
  -2   3   2 2087.75   46.95
  -2   3   1  251.11    9.42
   2   3  -1  242.33   10.62
  -2  -3   1  223.44    9.66
  -2   3   1  239.37    9.59
   2  -3  -1  219.96    9.34
  -2   3   1  260.59    9.52
  -2  -3   1  225.37   12.89
   2  -3  -1  222.18   13.49
  -2  -3   1  218.79   12.46
  -2   3   1  258.70   12.67
   2  -3   0  553.14   14.85
  -2   3   0  540.67   15.62
   2   3   0  558.77   18.18
  -2  -3   0  572.82   16.97
   2  -3   0  583.70   18.45
  -2   3   0  604.60   19.32
  -2  -3   0  551.61   17.59
   2   3   0  619.28   19.32
   2  -3   0  568.30   20.34
  -2  -3   0  560.37   23.80
   2  -3   1  746.40   18.53
  -2   3  -1  650.83   17.41
   2   3   1  708.84   21.21
   2  -3   1  652.58   21.34
  -2   3  -1  674.87   20.41
  -2  -3  -1  629.09   19.34
   2   3   1  633.76   19.28
   2  -3   1  707.09   23.26
  -2  -3  -1  699.96   21.23
   2  -3   2 1873.90   38.42
   2   3   2 1827.01   44.31
  -2   3  -2 1943.52   39.52
  -2  -3  -2 1812.69   41.99
   2  -3   2 1742.86   48.33
  -2  -3  -2 1710.62   40.39
   2  -3   2 1830.28   46.44
  -2  -3  -2 1797.76   44.84
   2  -3   3  816.76   32.78
   2   3   3  874.09   38.90
  -2   3  -3  754.32   30.52
  -2  -3  -3  808.21   35.50
   2  -3   3  863.49   40.22
  -2  -3  -3  804.20   35.32
  -2  -3  -3  755.21   39.21
  -2   3  -3  814.97   39.63
   2  -3   4  496.98   30.70
   2   3   4  515.50   35.10
  -2   3  -4  469.73   28.74
  -2  -3  -4  576.07   26.44
   2  -3   4  631.91   33.50
  -2  -3  -4  553.03   26.18
  -2  -3  -4  579.07   29.47
  -2   3  -4  516.36   38.97
   2  -3   5  810.32   33.70
   2   3   5 1029.30   47.94
  -2   3  -5  961.52   39.39
   2   3   5  917.23   44.92
   2  -3   5  912.01   61.30
  -2  -3  -5  853.42   47.92
  -2   3  -5  965.22   60.18
   2  -3   6  196.09   16.59
   2   3   6  198.58   18.26
  -2   3  -6  188.35   16.44
   2   3   6  183.10   15.01
   2  -3   6  213.82   22.28
  -2  -3  -6  236.94   21.03
  -2   3  -6  213.87   26.81
   2  -3   7   59.23    7.96
   2   3   7   57.95   11.64
   2   3   7   61.72    8.89
   2  -3   7   56.56   44.60
  -2  -3  -7   78.33   24.89
  -2   3  -7   67.08   17.33
   2   3   8  412.86   41.20
   2  -3   8  397.30   27.59
   2   3   8  416.36   25.39
   2  -3   8  404.82   28.75
  -2  -3  -8  504.07   33.67
  -2   3  -8  405.54   49.65
   2   3   9   58.18   42.92
   2  -3   9   53.57   20.14
   2   3   9   57.86    9.64
   2  -3   9   81.74   55.04
  -2  -3  -9   71.03   54.40
  -2   3  -9   70.85   57.19
   2   3  10  292.14   36.61
   2  -3  10  285.90   23.18
   2   3  10  285.45   23.74
   2  -3  10  334.43   34.63
  -2  -3 -10  286.41   27.51
  -2   3 -10  274.47   43.89
   2  -3  11   39.34    8.77
   2   3  11   40.28   30.21
   2   3  11   46.07   34.77
   2  -3  11   50.97   27.71
  -2  -3 -11   55.25   36.22
  -2   3 -11   46.04   25.14
   2   3  12  279.33   28.73
   2  -3  12  334.05   33.78
   2   3  12  273.93   38.32
   2  -3  12  386.64   39.76
  -2  -3 -12  331.13   32.76
  -2   3 -12  317.51   43.10
   2   3  13  252.62   43.05
   2  -3  13  237.21   20.82
   2   3  13  247.12   43.49
   2  -3  13  240.30   26.88
  -2  -3 -13  227.03   25.79
  -2   3 -13  235.80   38.50
   2  -3  14    1.36    5.23
   2   3  14   -0.87   15.66
   2   3  14   -0.15    8.71
   2  -3  14   -3.48   16.92
  -2  -3 -14   -0.87   15.56
  -2   3 -14    1.91   12.43
   2   3  15  100.74   21.41
   2  -3  15  124.30   17.79
   2  -3  15  102.47   41.75
  -2  -3 -15   96.69   69.33
  -2   3 -15  128.17   47.52
   2  -3  16   11.26   14.88
   2   3  16   11.07   32.25
   2  -3  16   21.61   20.73
  -2  -3 -16   16.42   30.11
  -2   3 -16   18.14   18.45
  -2  -4  16   24.61   29.14
  -2   4  16   13.43   11.43
  -2  -4  16   26.62   24.42
   2   4 -16    8.77   20.05
  -2  -4  15  143.69   25.73
  -2   4  15  103.38   18.78
  -2  -4  15  120.01   20.32
   2  -4 -15  139.22   18.61
   2   4 -15  125.04   24.40
  -2   4  14  261.15   24.04
  -2  -4  14  275.03   18.57
  -2  -4  14  303.50   63.27
   2  -4 -14  322.69   22.15
   2   4 -14  313.73   33.73
  -2   4  13  138.54   38.01
  -2  -4  13  166.41   18.30
  -2  -4  13  158.68   23.68
   2  -4 -13  170.51   17.49
   2   4 -13  149.78   21.45
  -2   4  12  113.53   62.81
  -2  -4  12  141.36   17.99
  -2  -4  12  102.50   64.33
   2  -4 -12  124.31   14.65
   2   4 -12  125.91   20.77
  -2   4  11   88.34   16.36
  -2  -4  11   54.49   11.49
  -2   4  11   98.08    9.06
  -2  -4  11   47.81   35.09
   2  -4 -11   61.11   10.69
   2   4 -11   93.03   32.64
  -2   4  10  390.21   32.84
  -2  -4  10  438.88   31.77
  -2   4  10  377.11   32.13
  -2  -4  10  463.68   54.36
   2  -4 -10  505.35   35.95
   2   4 -10  404.78   37.33
  -2   4   9   35.96   23.13
  -2  -4   9   25.79   19.10
  -2   4   9   44.47    5.83
  -2  -4   9   25.76   19.28
   2  -4  -9   35.67   17.73
   2   4  -9   54.45   16.56
  -2   4   8   42.91   24.31
  -2  -4   8   16.46    9.77
  -2   4   8   27.11    4.59
  -2  -4   8   15.09   18.94
   2  -4  -8   16.00    3.34
   2  -4  -8   20.46   13.68
   2   4  -8   27.35   28.53
  -2   4   7  968.69   50.01
  -2  -4   7  842.92   45.94
  -2   4   7  851.04   37.58
  -2  -4   7  845.72   48.45
   2  -4  -7  883.64   44.10
   2   4  -6  332.51   24.06
  -2   4   6  333.40   25.45
  -2   4   6  328.17   15.66
  -2  -4   6  344.48   45.76
  -2  -4   6  363.14   22.53
   2  -4  -6  356.66   22.16
   2   4  -5  230.28   19.99
  -2   4   5  252.27   25.06
  -2   4   5  234.70   14.34
  -2   4   5  245.17   14.91
  -2  -4   5  256.12   37.53
  -2  -4   5  256.59   24.00
   2  -4  -5  241.77   19.07
   2   4  -4 1148.63   49.24
  -2   4   4 1200.32   55.37
  -2   4   4 1196.59   46.60
  -2  -4   4 1154.46   51.15
  -2   4   4 1170.29   45.35
  -2  -4   4 1085.73   56.07
   2  -4  -4 1149.27   52.65
   2   4  -3 1954.24   82.35
  -2   4   3 1861.36   78.81
  -2   4   3 1878.36   73.24
  -2  -4   3 2105.57   88.30
  -2   4   3 1911.08   74.70
  -2  -4   3 1893.80   79.46
   2  -4  -3 2127.55   90.65
   2   4  -2  269.65   22.08
  -2   4   2  254.20   18.47
   2  -4  -2  223.22   14.91
  -2   4   2  270.68   17.55
  -2  -4   2  236.65   25.40
  -2  -4   2  229.39   21.56
   2  -4  -2  222.77   17.53
  -2   4   1   79.34    9.29
   2   4  -1   88.15    8.70
  -2   4   1   77.37    7.23
   2  -4  -1   42.79    5.66
  -2   4   1   73.02    6.56
  -2  -4   1   34.96   12.80
   2  -4  -1   39.04    6.90
  -2  -4   1   28.80    6.25
  -2   4   0  674.59   28.11
   2   4   0  680.14   31.09
  -2   4   0  708.81   29.95
   2  -4   0  759.16   35.55
  -2   4   0  745.87   32.20
  -2  -4   0  729.39   32.75
   2  -4   0  729.21   35.69
  -2  -4   0  720.59   37.25
  -2   4  -1  170.14   12.43
   2   4   1  175.18   16.36
  -2   4  -1  174.55   11.88
   2  -4   1  144.72   12.82
  -2  -4  -1  136.92   11.93
   2  -4   1  142.20   13.38
  -2  -4  -1  138.91   12.50
  -2   4  -2  128.97    8.28
   2   4   2  120.82   12.09
  -2   4  -2  126.17    8.03
   2  -4   2  124.74   12.11
  -2  -4  -2  167.88   13.70
   2   4   2  134.81   11.16
   2  -4   2  124.59   12.86
  -2  -4  -2  127.06   12.02
   2   4   3  546.63   37.06
  -2  -4  -3  544.86   25.01
   2  -4   3  545.38   29.21
  -2  -4  -3  622.08   28.59
   2  -4   3  490.79   36.33
  -2  -4  -3  556.20   36.34
   2  -4   4  541.97   21.86
   2   4   4  575.47   30.24
  -2   4  -4  526.45   21.32
  -2  -4  -4  560.90   28.32
   2  -4   4  532.98   31.91
  -2  -4  -4  593.05   27.61
  -2  -4  -4  569.68   30.13
   2  -4   5  127.60    8.97
   2   4   5  129.39   13.51
  -2   4  -5  134.00   10.42
   2  -4   5  127.62   15.69
  -2  -4  -5  122.31   10.87
  -2  -4  -5  127.10   17.07
  -2   4  -5  151.27   23.46
   2  -4   6    7.66    5.93
   2   4   6    5.94    9.75
  -2   4  -6    8.37    4.40
   2  -4   6    9.74   10.71
  -2  -4  -6    5.66    5.81
  -2  -4  -6    8.80   10.98
  -2   4  -6    5.47   13.74
   2  -4   7  529.17   28.16
   2   4   7  644.23   37.00
  -2   4  -7  585.61   29.06
   2   4   7  615.97   33.63
   2  -4   7  540.09   41.41
  -2  -4  -7  503.78   31.96
  -2   4  -7  649.73   45.80
   2  -4   8  245.28   19.50
   2   4   8  291.17   27.26
   2   4   8  290.37   23.47
   2  -4   8  276.35   30.32
  -2  -4  -8  321.77   32.56
  -2   4  -8  334.53   41.54
   2  -4   9   16.35   10.97
   2   4   9   13.74   17.57
   2   4   9    7.31    7.00
   2  -4   9   16.56   22.15
  -2  -4  -9   32.91   33.18
  -2   4  -9   12.76   19.75
   2  -4  10  122.11    9.18
   2   4  10  108.77   15.00
   2   4  10  121.80   11.29
   2  -4  10  145.88   24.04
  -2  -4 -10  150.33   21.05
  -2   4 -10  116.85   42.17
   2  -4  11  270.02   22.55
   2   4  11  284.83   29.39
   2   4  11  328.91   26.17
   2  -4  11  273.68   30.83
  -2  -4 -11  303.25   28.24
  -2   4 -11  295.51   40.49
   2  -4  12    3.30    5.26
   2   4  12    3.10   14.53
   2   4  12    1.14    4.24
   2  -4  12    3.98   10.44
  -2  -4 -12   -1.81   14.89
  -2   4 -12   -4.27   18.03
   2  -4  13   86.03   16.31
   2   4  13   99.41   89.31
   2  -4  13   82.17   69.44
  -2  -4 -13  109.32   19.65
  -2   4 -13  104.82   86.74
   2   4  14  136.08   21.21
   2  -4  14  123.79   24.54
  -2  -4 -14  141.20   23.60
  -2   4 -14  135.41   52.93
   2   4  15   55.33   58.43
   2  -4  15   46.36   46.61
  -2  -4 -15   96.10   19.65
  -2   4 -15   87.48   48.95
   2   4  16   21.55   24.80
   2  -4  16    9.61   14.49
  -2  -4 -16   16.00   37.45
  -2   4 -16   24.11   28.23
  -2   5  16  110.06   24.82
  -2  -5  16   81.88   45.29
  -2   5  15   73.09   53.22
  -2  -5  15   30.78   58.03
   2  -5 -15   33.40   52.47
   2   5 -15   86.08   19.54
  -2   5  14   28.02   29.87
  -2  -5  14   27.81   30.60
  -2  -5  14   24.61   27.30
   2  -5 -14   32.64   31.32
   2   5 -14   33.38   23.79
  -2   5  13  153.42   18.64
  -2  -5  13  148.15   17.97
  -2  -5  13  124.95   22.09
   2  -5 -13  129.52   13.42
   2   5 -13  155.74   21.74
  -2   5  12  129.49   32.06
  -2  -5  12  187.22   17.86
  -2  -5  12  204.38   39.26
   2  -5 -12  176.00   16.74
   2   5 -12  149.57   23.79
  -2   5  11  110.34   19.42
  -2  -5  11  149.68   21.16
  -2  -5  11  161.70   23.10
   2  -5 -11  135.73   16.01
   2   5 -11  121.06   30.77
  -2   5  10   64.12   45.23
  -2  -5  10   25.91   25.12
  -2  -5  10   38.10   28.93
   2  -5 -10   16.24   22.54
   2   5 -10   49.94   18.73
  -2   5   9  368.15   30.57
  -2  -5   9  462.04   36.19
  -2  -5   9  419.90   51.51
   2  -5  -9  425.15   32.13
   2   5  -9  377.86   35.57
  -2   5   8  348.36   30.11
  -2  -5   8  286.96   20.79
  -2  -5   8  337.20   30.62
   2  -5  -8  294.01   24.09
   2   5  -8  290.19   32.89
  -2   5   7   34.12   18.84
  -2  -5   7   28.81   18.36
  -2  -5   7   33.71   23.89
  -2  -5   7   29.22   23.24
   2  -5  -7   26.61   26.34
   2   5  -6  553.35   32.97
  -2   5   6  619.77   35.04
  -2  -5   6  573.51   35.24
  -2  -5   6  511.71   41.27
   2  -5  -6  536.99   31.18
   2   5  -5  807.47   41.23
  -2   5   5  824.52   42.07
  -2  -5   5  786.52   42.16
  -2  -5   5  835.23   60.72
   2  -5  -5  772.32   48.45
   2   5  -4  197.33   16.15
  -2   5   4  199.95   19.86
  -2  -5   4  134.80   15.03
  -2  -5   4  139.31   19.95
   2  -5  -4  167.82   17.23
   2   5  -3  105.69    9.73
  -2   5   3  115.87   11.92
  -2   5   3  107.58    8.56
  -2  -5   3   72.91    9.61
  -2  -5   3   87.97   15.23
   2  -5  -3   86.91   13.33
   2   5  -2  724.49   38.98
  -2   5   2  747.07   37.26
   2  -5  -2  850.54   40.82
  -2   5   2  762.45   34.67
  -2  -5   2  879.58   47.76
  -2  -5   2  888.74   47.19
   2  -5  -2  829.29   42.55
  -2   5   1  118.50   10.74
   2   5  -1  120.43   14.75
  -2   5   1  127.49   11.09
   2  -5  -1  167.89   14.93
  -2   5   1  128.15   10.07
  -2  -5   1  195.54   17.13
   2  -5  -1  187.67   18.39
  -2  -5   1  170.98   17.25
  -2   5   0  128.50    9.42
   2   5   0  127.26   11.07
  -2   5   0  145.26   11.79
   2  -5   0  147.56   13.10
  -2  -5   0  153.42   13.14
   2  -5   0  139.84   14.04
  -2  -5   0  139.61   15.22
  -2   5  -1  632.79   25.74
   2   5   1  704.77   32.77
  -2   5  -1  659.11   27.17
   2  -5   1  747.11   35.72
  -2  -5  -1  644.46   29.47
   2  -5   1  674.64   37.52
  -2  -5  -1  709.71   35.42
   2   5   2  245.77   21.35
   2  -5   2  193.00   17.12
  -2  -5  -2  211.93   18.31
   2  -5   2  203.06   19.10
  -2  -5  -2  203.26   18.66
   2   5   3  231.16   20.35
   2  -5   3  183.38   16.99
  -2  -5  -3  188.27   16.39
   2  -5   3  208.78   23.08
  -2  -5  -3  211.36   19.91
   2   5   4  493.73   29.89
   2  -5   4  455.60   28.54
  -2  -5  -4  456.06   23.74
   2  -5   4  463.65   33.15
  -2  -5  -4  459.50   29.14
   2   5   5  770.49   57.45
   2  -5   5  749.75   59.46
  -2  -5  -5  755.63   36.16
  -2  -5  -5  737.42   41.50
  -2   5  -5  768.05   48.67
   2  -5   6  117.22    4.37
   2  -5   6  123.17    4.00
   2   5   6   89.60   11.07
   2  -5   6  112.06   15.09
  -2  -5  -6  128.64    8.89
  -2  -5  -6  128.38   18.22
  -2   5  -6   91.75   21.63
   2  -5   7   71.53    5.11
   2  -5   7   67.55    4.71
   2   5   7   74.26   12.74
   2  -5   7   81.21   52.74
  -2  -5  -7   71.15    7.42
  -2  -5  -7  105.93   40.03
  -2   5  -7   76.71   23.47
   2  -5   8  261.91   17.71
   2   5   8  241.16   23.84
   2  -5   8  252.28   26.12
  -2  -5  -8  293.29   21.78
  -2  -5  -8  270.64   25.98
  -2   5  -8  241.53   35.97
   2  -5   9  281.91   19.35
   2   5   9  214.53   21.00
   2  -5   9  317.13   62.87
  -2  -5  -9  363.25   26.34
  -2  -5  -9  364.38   34.93
  -2   5  -9  205.87   32.85
   2  -5  10    2.01    4.14
   2   5  10   14.17   18.73
   2   5  10    6.09    6.22
   2  -5  10    2.16    9.48
  -2  -5 -10   -2.75   13.86
  -2   5 -10    5.16   14.68
   2  -5  11   31.14    6.52
   2   5  11   67.45   29.90
   2  -5  11   47.12   34.69
  -2  -5 -11   33.39   39.11
  -2   5 -11   51.95   47.04
   2   5  12  243.17   38.93
   2  -5  12  235.73   43.34
  -2  -5 -12  288.48   28.36
  -2   5 -12  239.92   32.74
   2   5  13   35.12   27.46
   2  -5  13   47.60   35.23
  -2  -5 -13   52.84   58.90
  -2   5 -13   54.21   25.23
   2   5  14    0.60   13.99
   2  -5  14    7.76   12.82
  -2  -5 -14    9.48    9.48
  -2   5 -14    7.01   19.31
   2   5  15  237.06   23.49
   2  -5  15  224.68   30.68
  -2  -5 -15  294.17   32.52
  -2   5 -15  320.00   38.10
  -2   6  15   18.29   21.96
  -2  -6  15    5.10   10.98
   2  -6 -15    3.67   15.83
   2   6 -15   35.73   16.59
  -2   6  14   13.60   24.93
  -2  -6  14   38.18   20.73
   2  -6 -14   38.31   37.06
   2   6 -14   25.04   33.96
  -2   6  13  194.21   24.33
  -2  -6  13  184.89   88.13
   2  -6 -13  196.63   17.04
   2   6 -13  201.97   32.11
  -2   6  12   -4.49   15.87
  -2  -6  12    4.00    6.67
  -2  -6  12    3.36    7.54
   2  -6 -12   -0.02    8.72
   2   6 -12    8.70   18.50
  -2   6  11   95.06   16.72
  -2  -6  11  135.32   15.03
  -2  -6  11  137.59   21.42
   2  -6 -11  115.77   13.85
   2   6 -11  152.75   24.90
  -2   6  10  214.31   22.80
  -2  -6  10  192.87   20.52
  -2  -6  10  171.06   35.51
   2  -6 -10  169.64   21.93
   2   6 -10  198.37   26.50
  -2   6   9   11.64   16.98
  -2  -6   9   10.92   11.72
  -2  -6   9   11.90   24.05
   2  -6  -9   -0.20   12.24
   2   6  -9   14.51   13.06
  -2   6   8  136.55   18.28
  -2  -6   8  124.27   24.92
  -2  -6   8  119.26   17.61
  -2  -6   8  134.89   15.08
   2  -6  -8  144.74   17.15
  -2   6   7  214.83   20.67
  -2  -6   7  199.80   11.02
  -2  -6   7  202.19   26.93
  -2  -6   7  211.44   24.43
   2  -6  -7  186.97   14.74
   2   6  -6  141.78   13.51
  -2   6   6  162.11   19.64
  -2  -6   6  181.53   18.82
  -2  -6   6  203.36   22.92
   2  -6  -6  195.45   20.86
   2   6  -5   57.48   10.26
  -2   6   5   53.84    8.60
  -2  -6   5   52.69   35.71
  -2  -6   5   53.29   11.94
   2  -6  -5   57.90   49.67
   2   6  -4  370.30   20.35
  -2   6   4  330.53   20.23
  -2  -6   4  463.40   45.37
  -2  -6   4  444.11   30.56
   2  -6  -4  461.48   30.21
   2   6  -3  257.85   21.63
  -2   6   3  243.44   21.51
   2  -6  -3  275.72   20.63
  -2  -6   3  287.67   19.71
  -2   6   3  218.45   16.27
  -2  -6   3  262.52   29.17
   2  -6  -3  268.86   26.52
   2   6  -2  263.36   24.60
  -2   6   2  243.48   19.96
   2  -6  -2  271.20   21.60
  -2  -6   2  285.34   16.44
  -2   6   2  277.50   21.26
   2  -6  -2  275.86   27.57
  -2  -6   2  309.38   24.01
   2   6  -1  481.81   34.67
  -2   6   1  496.09   24.74
   2  -6  -1  568.28   28.98
  -2  -6   1  574.66   31.69
   2  -6  -1  585.60   35.71
  -2  -6   1  545.73   39.51
  -2   6   0  129.10    9.85
   2   6   0  125.50   11.70
  -2   6   0  120.25   13.04
   2  -6   0  111.51   12.67
  -2  -6   0  104.40   12.11
   2  -6   0  125.74   29.65
  -2  -6   0  114.52   18.45
  -2   6  -1  515.79   23.19
   2   6   1  544.25   28.97
  -2   6  -1  533.93   23.88
   2  -6   1  580.20   32.58
  -2  -6  -1  541.73   35.33
   2  -6   1  566.85   37.51
  -2  -6  -1  561.05   35.00
   2   6   2   75.48    9.94
   2  -6   2   91.05   15.43
  -2  -6  -2   96.30   10.93
   2  -6   2   93.23   16.98
  -2  -6  -2   89.43   13.94
   2   6   3  146.78   15.30
   2  -6   3  181.10   19.81
  -2  -6  -3  201.88   17.29
   2  -6   3  185.95   20.88
  -2  -6  -3  212.77   27.77
   2   6   4  760.24   40.57
   2  -6   4  896.59   49.19
  -2  -6  -4  871.69   40.72
   2  -6   4  822.34   55.84
  -2  -6  -4  899.22   49.24
   2   6   5  127.41   29.31
   2  -6   5  117.08   15.95
  -2  -6  -5  114.97    7.37
   2  -6   5  108.07   18.73
  -2  -6  -5  104.73   13.47
   2   6   6  293.60   37.18
   2  -6   6  319.51   29.68
  -2  -6  -6  349.71   23.27
  -2  -6  -6  359.97   30.82
  -2   6  -6  336.56   36.40
   2   6   7  793.32   54.59
   2  -6   7  814.56   62.66
  -2  -6  -7  817.42   49.67
  -2  -6  -7  837.30   64.30
  -2   6  -7  853.08   67.09
   2   6   8  219.70   26.05
   2  -6   8  359.78   40.69
  -2  -6  -8  317.91   26.68
  -2  -6  -8  331.00   36.54
  -2   6  -8  243.70   57.34
   2   6   9   64.33   37.01
   2  -6   9   64.96   50.84
  -2  -6  -9   85.73    8.20
  -2  -6  -9   66.31   53.05
  -2   6  -9   45.04   30.87
   2   6  10  255.16   27.67
   2  -6  10  186.66   28.57
  -2  -6 -10  218.97   26.31
  -2   6 -10  216.98   34.92
   2   6  11   55.40   44.59
   2  -6  11   43.15   59.66
  -2  -6 -11   60.99   42.39
  -2   6 -11   42.84   28.09
   2   6  12   50.72   49.04
   2  -6  12   56.01   53.66
  -2  -6 -12   65.96   59.61
  -2   6 -12   58.18   30.07
   2   6  13   98.09   20.17
   2  -6  13   50.30   55.30
  -2  -6 -13   68.91   77.33
  -2   6 -13   63.29   91.40
   2   6  14   54.35   68.86
   2  -6  14   57.62   59.61
  -2  -6 -14   63.00   59.45
  -2   6 -14   52.87   65.12
   2   6  15   25.03   39.43
   2  -6  15   25.22   37.42
  -2  -6 -15   49.40   46.72
  -2   6 -15   39.91   21.00
  -2   7  14   22.74   13.75
  -2  -7  14   22.80   26.95
   2  -7 -14   14.88   23.49
  -2   7  13  118.79   21.38
  -2  -7  13  148.63   65.61
   2  -7 -13  134.09   16.41
   2   7 -13   90.23   21.23
  -2   7  12  222.41   23.59
  -2  -7  12  217.71   33.24
   2  -7 -12  212.32   19.23
   2   7 -12  241.54   36.14
  -2   7  11   26.02   19.93
  -2  -7  11   43.15   41.20
   2  -7 -11   28.76   10.76
   2   7 -11   24.95   34.77
  -2   7  10   38.89   19.83
  -2  -7  10   26.52   32.05
   2  -7 -10   28.20   31.35
   2   7 -10   41.92   28.92
  -2   7   9  477.28   40.76
  -2  -7   9  499.41   36.54
  -2  -7   9  558.45   49.97
   2  -7  -9  481.66   47.35
  -2   7   8   95.29   51.77
  -2  -7   8   70.66   19.75
  -2  -7   8   60.72   53.63
  -2  -7   8   93.00   29.93
   2  -7  -8   68.20   13.32
  -2   7   7   51.34   32.44
  -2  -7   7   53.42   21.10
  -2  -7   7   55.71   49.99
  -2  -7   7   52.01   37.60
   2  -7  -7   47.90   41.12
   2   7  -6  526.47   34.15
  -2   7   6  531.88   37.05
  -2  -7   6  585.67   46.18
  -2  -7   6  593.13   45.93
   2  -7  -6  547.66   44.18
   2   7  -5  180.39   10.62
  -2   7   5  183.72   13.69
  -2  -7   5  182.73   19.93
  -2  -7   5  194.87   21.94
   2  -7  -5  191.95   15.78
   2   7  -4   11.32    9.68
  -2   7   4    7.99   10.26
  -2  -7   4    4.19    7.95
  -2  -7   4    5.58    8.84
   2  -7  -4    5.36   10.67
   2   7  -3   75.13   22.30
  -2   7   3   67.39    7.83
   2  -7  -3   54.62    6.40
  -2  -7   3   55.16   12.06
  -2   7   3   71.62    3.60
  -2  -7   3   59.40   11.43
   2  -7  -3   74.45   16.87
   2   7  -2  408.38   32.80
  -2   7   2  390.38   29.76
   2  -7  -2  367.65   28.24
  -2  -7   2  363.15   31.09
  -2   7   2  320.37   23.23
  -2  -7   2  394.91   35.27
   2  -7  -2  389.00   35.24
   2   7  -1  172.43   13.44
  -2   7   1  177.77    8.42
   2  -7  -1  204.29   17.61
  -2  -7   1  194.97   18.98
   2  -7  -1  207.48   30.15
  -2  -7   1  220.06   26.49
  -2   7   0   17.43    4.63
   2   7   0   22.41   15.18
  -2   7   0   20.27   14.81
   2  -7   0   23.68    8.70
  -2  -7   0   21.19   22.31
   2  -7   0   25.66   25.79
  -2  -7   0   21.49   19.19
  -2   7  -1  614.41   42.20
   2   7   1  607.49   53.81
  -2   7  -1  625.58   43.03
   2  -7   1  710.48   55.17
  -2  -7  -1  678.26   53.04
   2  -7   1  665.67   61.10
  -2  -7  -1  669.99   56.39
   2   7   2  639.78   49.70
   2  -7   2  423.03   40.72
  -2  -7  -2  430.25   36.44
   2  -7   2  458.59   41.52
  -2  -7  -2  464.00   41.81
   2   7   3    9.12   11.85
   2  -7   3    6.15    6.52
  -2  -7  -3    2.31    4.94
   2  -7   3    2.73    7.11
  -2  -7  -3    2.60    6.84
   2   7   4  160.34   19.13
   2  -7   4  175.37   16.78
  -2  -7  -4  176.88    8.82
   2  -7   4  173.99   17.21
  -2  -7  -4  167.61   15.72
   2   7   5  142.97   14.10
   2  -7   5  164.42   48.63
  -2  -7  -5  149.90    8.01
   2  -7   5  153.39   22.03
  -2  -7  -5  138.28   16.18
   2   7   6  233.42   19.10
   2  -7   6  176.61   27.40
  -2  -7  -6  174.72    9.07
   2  -7   6  191.35   57.46
  -2  -7  -6  208.19   67.68
   2   7   7  167.62   22.19
   2  -7   7  200.68   30.22
  -2  -7  -7  189.41   18.48
  -2  -7  -7  188.70   25.27
  -2   7  -7  179.30   26.42
   2   7   8   75.36   33.84
   2  -7   8   91.41   67.85
  -2  -7  -8   91.71   27.44
  -2   7  -8   75.95   29.61
   2   7   9  341.99   60.18
   2  -7   9  363.79   38.59
  -2  -7  -9  357.57   31.34
  -2   7  -9  348.49   39.26
   2   7  10   55.61   48.09
   2  -7  10   56.10   59.56
  -2  -7 -10   67.39   56.08
  -2   7 -10   47.14   36.63
   2   7  11   34.46   39.95
   2  -7  11   44.04   51.60
  -2  -7 -11   57.29   49.73
  -2   7 -11   53.91   27.58
   2   7  12   87.37   80.26
   2  -7  12   63.17   61.91
  -2  -7 -12  105.61   23.90
  -2   7 -12   65.91   95.69
   2   7  13    3.52   10.88
   2  -7  13    0.91   18.19
  -2  -7 -13    4.21   14.25
  -2   7 -13   32.23   28.90
   2   7  14   27.60   29.05
   2  -7  14   29.47   37.05
  -2  -7 -14   29.64   44.54
  -2   8  13   14.24   20.94
  -2  -8  13   23.28   32.48
   2  -8 -13   20.94   26.77
   2   8 -13   20.52   20.04
  -2   8  12   -0.04    9.46
  -2  -8  12   13.61   17.09
   2  -8 -12    8.87   10.49
   2   8 -12    1.74   18.67
  -2   8  11   82.32   46.08
  -2  -8  11   66.93   49.11
   2  -8 -11   93.06   23.89
   2   8 -11   80.99   35.62
  -2   8  10   88.95   71.40
  -2  -8  10  120.72   83.20
   2  -8 -10  143.67   20.81
   2   8 -10   65.62   57.51
  -2   8   9   14.13   13.86
  -2  -8   9   10.66   17.98
  -2  -8   9    8.49    8.10
   2  -8  -9    5.94   13.35
  -2   8   8    5.96    9.89
  -2  -8   8    7.66    6.50
  -2  -8   8    6.93    7.53
   2  -8  -8    6.05   12.09
  -2   8   7   33.14   23.18
  -2  -8   7   27.66   19.68
  -2  -8   7   37.58   31.29
   2  -8  -7   26.79   15.83
  -2   8   6  465.19   50.54
  -2  -8   6  506.91   42.80
  -2  -8   6  496.50   48.96
   2  -8  -6  461.97   38.08
   2   8  -5   34.31   11.37
  -2   8   5   43.76   23.39
  -2  -8   5   38.05   17.97
  -2  -8   5   52.48   30.89
   2  -8  -5   29.23   21.61
   2   8  -4   92.33    6.94
  -2   8   4  103.98   22.67
  -2  -8   4   75.11   14.97
  -2  -8   4   89.90   35.62
   2  -8  -4   74.65   13.73
   2   8  -3  908.23   56.19
  -2   8   3  948.41   58.37
   2  -8  -3  893.38   51.95
  -2  -8   3  881.46   57.53
   2  -8  -3  998.11   69.27
  -2  -8   3  905.32   66.48
   2   8  -2    6.50    6.44
  -2   8   2    6.09    7.91
   2  -8  -2    4.02    3.61
  -2  -8   2    3.96    6.20
  -2  -8   2    5.65   10.02
   2  -8  -2    3.01    7.11
   2   8  -1  388.48   34.18
  -2   8   1  397.31   26.28
   2  -8  -1  317.46   23.12
  -2  -8   1  314.32   41.08
   2  -8  -1  313.31   28.94
  -2  -8   1  339.37   33.26
   2   8   0  447.20   41.97
  -2   8   0  460.53   30.48
   2  -8   0  476.41   32.84
  -2  -8   0  440.17   30.87
   2  -8   0  457.14   43.02
  -2  -8   0  479.81   45.58
   2   8   1  427.46   30.90
  -2   8  -1  409.28   23.99
   2  -8   1  294.19   28.22
  -2  -8  -1  302.37   22.36
   2  -8   1  316.39   68.57
  -2  -8  -1  304.31   30.45
   2   8   2  166.93   23.42
   2  -8   2  165.28   15.94
  -2  -8  -2  139.77    9.63
   2  -8   2  140.69   89.12
  -2  -8  -2  152.90   18.30
   2   8   3   35.01   25.66
   2  -8   3   60.90   12.41
  -2  -8  -3   60.14   18.37
   2  -8   3   64.87   54.38
  -2  -8  -3   70.25   20.31
   2   8   4  645.33   55.10
   2  -8   4  658.04   57.36
  -2  -8  -4  593.49   46.98
   2  -8   4  692.52   64.17
  -2  -8  -4  580.69   56.60
   2   8   5    3.31    6.14
   2  -8   5   -2.01   13.17
  -2  -8  -5    1.72    3.84
   2  -8   5    1.08   11.98
  -2  -8  -5    3.47   13.67
   2   8   6    5.22    7.66
   2  -8   6   18.66   13.10
   2  -8   6   13.66   17.74
  -2  -8  -6   11.44   11.85
   2   8   7  365.06   32.80
   2  -8   7  407.06   39.31
  -2  -8  -7  401.45   46.53
  -2   8  -7  371.53   46.78
   2   8   8    9.28   10.99
   2  -8   8    2.42   12.03
  -2  -8  -8   -0.40   13.52
  -2   8  -8   14.16   25.54
   2   8   9   63.28   50.56
   2  -8   9   61.11   65.34
  -2  -8  -9   66.27   60.31
  -2   8  -9   63.39   57.94
   2   8  10  261.37   84.25
   2  -8  10  237.52   27.03
  -2  -8 -10  254.65   27.26
  -2   8 -10  287.24   43.03
   2   8  11   97.78   18.64
   2  -8  11   90.36   99.62
  -2  -8 -11  117.15   21.03
  -2   8 -11  108.08   34.78
   2   8  12    1.21   12.23
   2  -8  12    9.55   17.70
  -2  -8 -12   10.19   19.42
  -2   8 -12    1.65   22.78
   2   8  13   32.85   24.98
   2  -8  13   46.58   40.57
  -2  -8 -13   58.16   60.80
  -2   8 -13   15.29   42.28
  -2   9  12  103.30   18.18
  -2  -9  12   70.41   67.57
   2  -9 -12   79.27   55.98
   2   9 -12   91.87   25.95
  -2   9  11   98.34   16.96
  -2  -9  11   87.06   51.68
   2  -9 -11  103.61   23.34
   2   9 -11  111.50   23.03
  -2   9  10   57.09   50.53
  -2  -9  10   49.88   35.78
   2  -9 -10   33.44   37.17
   2   9 -10   49.34   45.46
  -2   9   9  149.64   40.52
  -2  -9   9  116.53   32.27
  -2  -9   9  136.61   44.53
   2  -9  -9  150.54   21.14
  -2   9   8  130.05   32.85
  -2  -9   8  164.23   22.34
  -2  -9   8  163.73   21.37
   2  -9  -8  171.85   21.76
  -2   9   7   13.22   15.84
  -2  -9   7   12.84   25.60
  -2  -9   7   14.70   15.53
   2  -9  -7   22.01   19.44
  -2   9   6  259.67   22.98
  -2  -9   6  325.61   34.26
  -2  -9   6  289.86   35.74
   2  -9  -6  317.62   34.55
  -2   9   5   24.38   18.46
  -2  -9   5   51.29   50.43
  -2  -9   5   54.50   50.03
   2  -9  -5   52.60   54.78
  -2   9   4   97.91   12.51
  -2  -9   4  105.41   16.37
  -2  -9   4  124.11   37.47
   2  -9  -4   88.27   18.57
   2   9  -3   75.26    7.93
  -2   9   3   78.62    8.34
  -2  -9   3   80.21   39.59
   2  -9  -3   93.99   17.28
  -2  -9   3   70.07   59.27
   2   9  -2  247.01   19.29
  -2   9   2  227.49   18.12
   2  -9  -2  173.55    9.44
  -2  -9   2  160.28   16.72
  -2  -9   2  178.86   71.04
   2  -9  -2  183.49   23.62
   2   9  -1  230.21   19.04
  -2   9   1  232.82   17.01
   2  -9  -1  232.82   18.56
  -2  -9   1  236.12   21.57
   2  -9  -1  249.82   33.64
  -2  -9   1  265.55   53.27
   2   9   0    2.94    4.66
   2  -9   0    5.27    5.56
  -2  -9   0    4.51    8.31
   2  -9   0    5.54   11.59
  -2  -9   0   -4.03   16.79
   2   9   1  118.90   33.09
   2  -9   1   84.84   13.12
  -2  -9  -1   82.82   12.73
   2  -9   1   99.98   22.31
  -2  -9  -1   98.73   51.80
   2   9   2  228.76   21.43
   2  -9   2  229.48   22.09
  -2  -9  -2  246.95   21.36
   2  -9   2  247.38   34.52
  -2  -9  -2  243.38   26.46
   2   9   3    2.76    5.89
   2  -9   3    5.30    8.78
  -2  -9  -3    7.02    8.74
   2  -9   3   15.03   27.99
  -2  -9  -3    9.79   16.51
   2   9   4   43.89   20.85
   2  -9   4   47.74   49.02
   2  -9   4   57.81   34.94
  -2  -9  -4   53.08   52.31
   2   9   5   66.82   27.88
   2  -9   5   99.58   43.34
   2  -9   5   94.72   75.39
  -2  -9  -5  113.25   21.50
   2   9   6   32.77   24.14
   2  -9   6   12.73   16.40
   2  -9   6   20.68   18.25
  -2  -9  -6   29.02   34.17
   2   9   7   14.05   14.65
   2  -9   7   22.50   21.06
  -2  -9  -7   14.73   27.28
   2   9   8  131.26   25.49
   2  -9   8  119.32  104.13
  -2  -9  -8  161.77   23.01
  -2   9  -8  175.00   36.91
   2   9   9   46.05   36.78
   2  -9   9   22.63   35.44
  -2  -9  -9   53.07   26.72
  -2   9  -9   58.61   24.05
   2   9  10   28.21   35.24
   2  -9  10   23.41   28.97
  -2  -9 -10   44.06   42.07
  -2   9 -10   35.96   24.59
   2   9  11   38.90   43.95
  -2  -9 -11   40.35   50.90
  -2   9 -11   29.89   37.75
   2   9  12  141.74   51.46
   2  -9  12   79.79   92.39
  -2  -9 -12  151.53   26.95
  -2   9 -12  146.00   37.51
  -2  10  11  116.89   18.95
  -2 -10  11  138.19   86.90
   2 -10 -11  121.64   22.99
   2  10 -11  142.38   32.17
  -2  10  10   14.12   18.11
  -2 -10  10   26.04   34.24
   2 -10 -10   18.57   35.13
   2  10 -10   13.40   12.70
  -2  10   9   17.87   18.03
  -2 -10   9   21.50   26.84
   2 -10  -9   16.33   18.63
  -2  10   8   69.99   21.16
  -2 -10   8   63.90   62.63
  -2 -10   8   72.07   74.68
   2 -10  -8   75.81   22.66
  -2  10   7  198.40   18.02
  -2 -10   7  219.92   22.05
  -2 -10   7  210.78   67.33
   2 -10  -7  214.36   27.65
  -2  10   6   72.99   29.34
  -2 -10   6   60.30   57.69
  -2 -10   6   82.90   21.55
   2 -10  -6   81.37   26.23
  -2  10   5    6.43    9.37
  -2 -10   5    6.85   14.16
  -2 -10   5   10.91   14.68
   2 -10  -5    6.64   14.28
  -2  10   4   80.65   25.56
  -2 -10   4   47.20   52.71
  -2 -10   4   69.90   66.76
   2 -10  -4   79.86   40.97
  -2 -10   3   43.22   39.51
  -2 -10   3   46.54   46.00
   2 -10  -3   46.37   37.44
  -2 -10   2   14.11   16.82
   2 -10  -2   10.07   11.38
  -2 -10   2   19.61   18.42
  -2 -10   1   29.35   28.11
   2 -10  -1   53.02   22.23
  -2 -10   1   32.64   45.72
   2  10   0  175.38   16.79
   2 -10   0  242.52   22.20
  -2 -10   0  196.22   18.65
   2 -10   0  268.59   33.01
  -2 -10   0  232.36   32.90
   2  10   1  123.29   11.12
   2 -10   1  141.86   14.30
  -2 -10  -1  123.57   13.40
   2 -10   1  115.82   65.57
  -2 -10  -1  139.34   18.71
   2  10   2    5.83    4.50
   2 -10   2    5.10    7.68
   2 -10   2    7.35   23.41
  -2 -10  -2    5.72   14.88
   2  10   3  194.18   40.52
   2 -10   3  203.42   22.86
   2 -10   3  199.37   32.34
  -2 -10  -3  217.48   31.58
   2  10   4   66.44   19.06
   2 -10   4   87.57   14.84
   2 -10   4   77.49   78.68
  -2 -10  -4   77.48   74.93
   2  10   5   32.40   24.28
   2 -10   5   42.70   55.54
   2 -10   5   46.69   36.49
  -2 -10  -5   45.45   33.70
   2  10   6   64.54   18.98
   2 -10   6   42.47   54.18
   2 -10   6   47.21   71.59
  -2 -10  -6   53.07   46.54
   2  10   7   74.11   15.86
   2 -10   7   43.30   67.28
   2 -10   7   53.88   53.02
  -2 -10  -7   58.76   52.75
   2  10   8    5.84   11.84
   2 -10   8   12.00   13.48
  -2 -10  -8   11.40   19.58
  -2  10  -8    5.69   19.09
   2  10   9    2.73   10.38
   2 -10   9   -4.51   16.73
  -2 -10  -9    6.28   10.58
  -2  10  -9   -4.70   22.37
   2  10  10   83.55   25.68
   2 -10  10   62.13   69.61
  -2 -10 -10  129.82   24.51
  -2  10 -10   93.42   35.15
  -2  11   9  151.87   17.97
  -2 -11   9  162.79   24.56
  -2 -11   9  159.43   27.11
   2 -11  -9  150.31   23.83
  -2  11   8   49.44   19.63
  -2 -11   8   42.37   26.59
  -2 -11   8   20.82   45.18
   2 -11  -8   30.13   35.10
  -2  11   7    9.49   14.72
  -2 -11   7    8.30   19.60
  -2 -11   7   22.58   31.53
   2 -11  -7    8.40   24.13
  -2 -11   6   95.56   19.49
  -2 -11   6   57.37   76.43
   2 -11  -6   76.39   45.28
  -2 -11   5   31.57   33.74
  -2 -11   5   34.24   32.19
   2 -11  -5   27.98   40.70
  -2 -11   4    3.14    8.77
  -2 -11   4   -0.04   12.77
   2 -11  -4    8.03    8.22
  -2 -11   3   68.59   13.00
  -2 -11   3   34.11   40.10
   2 -11  -3   69.32   54.93
  -2 -11   2   71.46   12.06
   2 -11  -2   50.88   62.54
  -2 -11   2   51.20   54.76
  -2 -11   1   65.04   11.53
   2 -11  -1   54.55   50.77
  -2 -11   1   59.52   54.84
  -2 -11   0    3.87    4.90
   2 -11   0    7.66   16.99
  -2 -11   0    4.23   17.11
   2 -11   1   64.51   65.22
  -2 -11  -1   67.34   50.23
   2 -11   2  164.77   39.34
   2 -11   2  198.52   31.82
  -2 -11  -2  173.37   26.67
   2  11   3   45.87   14.78
   2 -11   3   38.72   41.63
  -2 -11  -3   30.03   32.31
   2  11   4    1.25    6.46
   2 -11   4    0.45   11.08
   2 -11   4   -6.85   17.65
  -2 -11  -4    6.89   18.81
   2  11   5  222.51   24.86
   2 -11   5  227.94   26.35
   2 -11   5  243.41   30.89
  -2 -11  -5  225.02   67.32
   2  11   6   40.10   55.63
   2 -11   6   40.74   50.15
   2 -11   6   29.84   47.10
  -2 -11  -6   48.47   38.99
   2  11   7    7.29   10.85
   2 -11   7    6.76    6.91
   2 -11   7   10.73   13.38
  -2 -11  -7    1.32   18.13
   2  11   8   82.61   14.98
   2 -11   8   72.40   65.76
  -2 -11  -8   61.75   75.40
  -2  11  -8   51.66   78.63
  -2 -12   6  111.01   20.85
  -2 -12   6  115.76   27.49
   2 -12  -6   89.85   62.47
  -2 -12   5    6.34   11.25
  -2 -12   5    7.26    9.70
   2 -12  -5    8.70   18.60
  -2 -12   4    6.01   14.28
  -2 -12   4   -0.16    8.56
   2 -12  -4    5.14   18.02
  -2 -12   3  186.84   23.14
   2 -12  -3  209.91   26.19
  -2 -12   3  193.40   67.90
  -2 -12   2   23.50   20.72
   2 -12  -2   11.01   17.49
   2 -12  -1   29.00   52.95
  -2 -12   1   26.86   32.54
   2 -12   0   34.61   40.20
  -2 -12   0   33.93   35.25
   2 -12   1   16.56   23.18
  -2 -12  -1    8.28   20.03
   2 -12   2   45.93   26.56
  -2 -12  -2   46.38   22.62
   2 -12   3   54.93   19.63
  -2 -12  -3   47.65   60.42
   2 -12   4  151.18   42.15
  -2 -12  -4  127.61   45.92
   2 -12   5    0.81    9.87
   2 -12   5    5.62   15.57
  -2 -12  -5   -0.93    8.77
  -3   0  17    2.11    7.45
  -3   0  17    3.69    6.59
  -3   0  16   53.92   47.08
  -3   0  16   48.77   50.36
  -3   0  15  220.45   27.20
  -3   0  15  177.23   27.15
  -3   0  14   23.61   23.21
  -3   0  14   20.56   16.29
   3   0 -14   16.89    7.41
  -3   0  13   12.26   20.57
  -3   0  13   -4.69   11.11
   3   0 -13    2.05    9.11
  -3   0  12   97.01   52.20
  -3   0  12   92.79   12.80
   3   0 -12  124.97   14.55
  -3   0  11  149.81   21.59
  -3   0  11  138.01   13.02
   3   0 -11  138.81   10.66
  -3   0  10    5.13   13.09
  -3   0  10    1.87   10.35
   3   0 -10    1.77    3.98
  -3   0   9  185.19   22.33
  -3   0   9  144.05   13.31
   3   0  -9  157.04    9.98
  -3   0   8  308.93   22.92
  -3   0   8  310.57   39.45
   3   0  -8  268.93   22.15
  -3   0   7   18.48   11.02
  -3   0   7   19.25   13.32
   3   0  -7   10.21    5.70
   3   0  -7   15.14   11.56
  -3   0   6  581.61   30.29
  -3   0   6  551.42   48.96
   3   0  -6  578.31   24.86
   3   0  -5 1209.09   52.90
  -3   0   5 1315.33   56.55
   3   0  -5 1158.22   45.31
   3   0  -5 1075.30   42.06
   3   0  -4  157.38   10.35
  -3   0   4  154.45   15.73
   3   0  -3  322.44   15.08
  -3   0   3  346.16   14.35
   3   0  -2 1441.00   36.15
  -3   0   2 1387.20   36.08
  -3   0   2 1515.82   30.45
   3   0  -1  531.12   17.93
  -3   0   1  516.16   18.17
   3   0  -1  510.21   17.50
  -3   0   1  509.07   13.84
   3   0   0 1662.54   40.10
  -3   0   0 1624.99   38.00
  -3   0   0 1502.30   41.26
  -3   0   0 1747.65   40.06
   3   0   0 1496.38   38.00
   3   0   1  673.15   20.39
   3   0   1  694.73   23.11
  -3   0  -1  654.00   21.81
   3   0   1  707.85   21.47
   3   0   2  276.48   12.34
   3   0   2  245.18   12.67
  -3   0  -2  257.13   14.48
   3   0   3  783.78   25.33
   3   0   3  791.64   26.43
  -3   0  -3  814.87   28.12
   3   0   4 2897.51  175.28
   3   0   4 2875.45  117.18
  -3   0  -4 2902.12  175.57
   3   0   5  400.59   27.83
   3   0   5  393.08   29.36
  -3   0  -5  387.27   31.43
   3   0   6  846.93   42.84
   3   0   6  799.23   48.94
  -3   0  -6  789.58   46.73
   3   0   7   32.02   24.94
   3   0   7   30.86   18.14
  -3   0  -7   31.58   37.09
   3   0   8   75.79   11.63
   3   0   8   98.45   20.18
  -3   0  -8   81.13   19.44
   3   0   9  287.64   26.91
   3   0   9  274.42   36.71
  -3   0  -9  269.34   31.38
   3   0  10  106.52   20.74
   3   0  10  119.22   19.07
  -3   0 -10  116.58   21.27
   3   0  11    8.19    9.29
   3   0  11   10.91   11.59
  -3   0 -11   14.05   15.55
   3   0  12  158.56   19.87
   3   0  12  162.95   42.68
  -3   0 -12  203.51   29.74
   3   0  13  115.63   49.70
   3   0  13  100.60   17.23
  -3   0 -13  122.68   20.96
   3   0  14    1.07    8.78
   3   0  14    6.24    9.77
  -3   0 -14   17.27   30.68
   3   0  15  132.86   20.15
   3   0  15  132.08   21.00
  -3   0 -15  131.75   23.07
   3   0  16  126.63   63.42
   3   0  16  116.16   18.61
  -3   0 -16  118.99   21.60
  -3  -1  17  234.17   76.50
  -3   1  17  240.00   24.09
  -3  -1  17  246.75   28.26
  -3   1  16   37.08   41.37
  -3  -1  16   30.76   28.58
  -3   1  16   31.88   43.20
  -3  -1  16   27.79   26.15
  -3  -1  15   28.72   25.59
  -3   1  15   32.50   37.92
  -3   1  15   41.68   44.87
  -3  -1  15   40.92   32.16
  -3   1  14  160.24   25.62
  -3  -1  14  186.00   68.28
  -3   1  14  140.64   44.08
  -3  -1  14  199.33   31.78
   3  -1 -14  206.78   14.29
   3   1 -14  147.37   15.33
  -3   1  13  141.71   34.77
  -3  -1  13  164.41   27.04
  -3   1  13  142.85   40.00
  -3  -1  13  181.51   33.85
   3  -1 -13  146.87   15.06
   3   1 -13  149.07   17.73
  -3  -1  12  117.06   17.00
  -3   1  12  120.11   53.75
  -3  -1  12  118.41   17.38
  -3   1  12  105.63   21.37
   3  -1 -12   97.56   12.38
   3   1 -12  100.07   13.71
  -3  -1  11  179.85   18.92
  -3   1  11  179.45   23.17
  -3  -1  11  197.85   35.85
  -3   1  11  148.41   22.58
   3  -1 -11  154.79   10.68
   3   1 -11  179.23   14.12
  -3   1  10  580.26   50.85
  -3  -1  10  590.63   55.87
  -3  -1  10  543.28   44.59
  -3   1  10  588.05   39.95
   3  -1 -10  550.13   35.51
   3   1 -10  552.28   36.73
  -3  -1   9   63.74   12.36
  -3   1   9   87.74   13.31
  -3  -1   9   64.31   35.46
  -3   1   9   80.04   14.48
   3  -1  -9   64.36   15.91
   3   1  -9   87.24   10.97
  -3   1   8  274.31   27.27
  -3  -1   8  280.45   26.98
  -3  -1   8  315.13   22.83
  -3   1   8  265.32   23.53
   3   1  -8  271.36   22.66
   3  -1  -8  259.74   22.37
   3   1  -8  262.07   31.40
  -3   1   8  267.55   22.98
  -3   1   7 1421.66   70.99
  -3  -1   7 1493.87   79.51
  -3   1   7 1431.91   65.88
  -3  -1   7 1430.89   68.26
   3   1  -7 1494.56   66.94
   3  -1  -7 1394.78   64.25
   3   1  -7 1474.30   67.64
  -3   1   7 1419.28   64.69
   3   1  -6  440.70   33.98
  -3   1   6  380.34   28.33
  -3   1   6  416.84   27.93
  -3  -1   6  542.04   28.76
   3   1  -6  447.25   28.28
   3  -1  -6  485.86   29.88
  -3   1   6  437.56   28.09
   3   1  -5  367.11   25.87
  -3   1   5  355.26   25.56
  -3   1   5  363.81   24.16
  -3  -1   5  373.97   37.01
   3  -1  -5  342.78   21.15
  -3   1   5  394.30   25.16
   3   1  -5  379.57   26.14
   3  -1  -4 1056.91   47.14
   3   1  -4  902.24   42.41
  -3  -1   4 1023.14   45.11
  -3   1   4  798.31   35.92
  -3   1   4  791.44   32.08
  -3  -1   3  814.68   27.36
  -3   1   3  690.58   21.09
   3  -1  -2   86.71    8.47
   3   1  -2  131.04   13.05
  -3  -1   2   98.87    8.91
  -3   1   2  122.92    8.85
  -3   1   2  117.94    7.49
  -3  -1   2   92.73    4.18
   3   1  -2  121.88    5.17
  -3   1   2  115.07    7.93
   3  -1  -1  960.57   26.67
   3   1  -1  944.65   27.38
  -3   1   1  987.88   26.16
  -3   1   1  886.46   28.73
  -3   1   1  987.74   28.37
  -3   1   1  898.04   22.90
  -3  -1   1  989.14   24.52
   3   1  -1  993.54   24.62
  -3   1   1  891.70   22.45
   3  -1   0  846.61   23.52
   3   1   0 1006.39   27.70
  -3   1   0  849.90   22.91
   3  -1   0  889.23   27.41
  -3  -1   0  840.22   25.47
  -3  -1   0  878.74   22.59
   3   1   0  805.95   22.27
  -3   1   0  900.88   24.83
   3  -1   1 1237.32   31.55
   3   1   1 1362.38   37.90
  -3   1  -1 1287.63   30.96
   3  -1   1 1214.97   35.70
  -3  -1  -1 1256.42   36.54
  -3  -1  -1 1247.01   40.51
   3   1   1 1374.24   35.16
  -3   1  -1 1333.04   36.19
   3  -1   1 1325.33   33.57
   3  -1   2  132.09   20.09
  -3   1  -2  110.02   13.60
   3   1   2  107.95    8.84
   3   1   2  111.72   15.28
   3  -1   2  127.23   26.21
  -3  -1  -2  106.34    8.48
  -3   1  -2   94.49   11.28
   3  -1   3  674.56   23.36
   3   1   3  760.09   27.17
   3  -1   3  664.25   26.33
  -3  -1  -3  765.42   26.09
  -3   1  -3  770.08   32.77
   3  -1   4 1790.26   73.14
   3   1   4 1888.74   77.78
   3   1   4 1856.75   80.32
   3  -1   4 1833.74   79.17
  -3  -1  -4 1828.68   81.26
  -3   1  -4 2062.95   88.42
   3  -1   5  205.54   16.12
   3   1   5  188.66   16.00
   3   1   5  211.70   21.25
   3  -1   5  217.59   20.26
  -3  -1  -5  211.27   21.25
  -3   1  -5  203.14   22.66
   3  -1   6  602.13   39.34
   3   1   6  543.66   33.87
   3   1   6  475.91   31.39
   3  -1   6  546.45   32.12
  -3  -1  -6  543.64   41.31
  -3   1  -6  542.65   39.53
   3   1   7  557.64   30.39
   3  -1   7  544.27   30.16
   3   1   7  492.67   29.94
   3  -1   7  498.94   35.92
  -3  -1  -7  516.70   37.73
  -3   1  -7  597.99   45.74
   3  -1   8  123.68   27.04
   3   1   8  107.20   14.18
   3   1   8  115.08   16.14
   3  -1   8   92.39   13.82
  -3  -1  -8  106.71   19.98
  -3   1  -8  121.23   21.45
   3   1   9  445.31   36.87
   3  -1   9  471.48   37.75
   3   1   9  437.42   36.60
   3  -1   9  463.17   49.43
  -3  -1  -9  525.87   48.06
  -3   1  -9  437.05   45.83
   3   1  10  258.35   22.23
   3  -1  10  214.80   15.66
   3   1  10  238.06   24.49
   3  -1  10  227.49   20.70
  -3  -1 -10  232.90   57.01
  -3   1 -10  260.82   30.07
   3   1  11  304.82   30.13
   3  -1  11  316.00   60.98
   3   1  11  331.80   33.45
   3  -1  11  380.51   41.93
  -3  -1 -11  356.34   40.27
  -3   1 -11  366.25   81.72
   3   1  12   13.73   19.14
   3  -1  12   13.95   14.33
   3   1  12   23.97   30.43
   3  -1  12   23.27   12.68
  -3  -1 -12   21.25   11.72
  -3   1 -12   22.22   16.70
   3   1  13   21.19   28.49
   3  -1  13   25.92   27.16
   3   1  13   32.41   24.23
   3  -1  13   26.80   26.99
  -3  -1 -13   27.02   21.15
  -3   1 -13   44.18   23.66
   3  -1  14  160.92   17.08
   3   1  14  238.84   25.87
   3  -1  14  186.90   56.08
   3   1  14  225.63   20.69
  -3  -1 -14  188.33   69.46
  -3   1 -14  217.09   40.60
   3   1  15   14.44   27.27
   3  -1  15   13.35   13.06
   3  -1  15   17.19   24.21
   3   1  15   16.23   27.98
  -3  -1 -15   18.84   23.40
  -3   1 -15   17.88   32.61
   3  -1  16   19.35   38.15
   3   1  16   26.90   32.48
   3  -1  16   24.95   27.39
   3   1  16   16.92   19.27
  -3  -1 -16   30.16   46.38
  -3   1 -16   35.26   24.15
  -3  -2  17   32.23   53.49
  -3   2  17   54.51   63.22
  -3  -2  17   36.35   48.35
  -3   2  16   84.54   83.88
  -3  -2  16  123.36   18.99
  -3  -2  16  107.93   23.96
  -3  -2  15   35.54   24.29
  -3   2  15   10.28   19.96
  -3  -2  15   30.06   38.33
  -3   2  14   16.81   13.50
  -3  -2  14    6.03    7.32
  -3   2  14   10.70    9.84
  -3  -2  14   13.58   10.76
   3  -2 -14   13.30   10.49
   3   2 -14    8.92   10.86
  -3   2  13  185.74   61.95
  -3  -2  13  155.27   20.73
  -3   2  13  174.57   17.71
  -3  -2  13  166.82   57.54
   3  -2 -13  168.51   15.31
   3   2 -13  170.34   31.72
  -3   2  12  386.20   34.76
  -3  -2  12  339.28   30.36
  -3   2  12  357.89   49.01
  -3  -2  12  298.85   46.51
   3  -2 -12  325.38   25.64
   3   2 -12  371.82   31.58
  -3  -2  11   77.58   14.46
  -3   2  11   77.84   14.94
  -3   2  11   64.87   38.36
  -3  -2  11   74.52   53.57
   3  -2 -11   58.95    7.60
   3   2 -11   64.47   19.80
  -3   2  10   -0.38   11.64
  -3  -2  10    8.16   12.20
  -3   2  10    5.42    6.88
  -3  -2  10    6.60   11.21
   3  -2 -10    1.48    4.10
   3   2 -10    1.71    7.52
  -3   2   9  484.09   42.03
  -3  -2   9  499.22   41.02
  -3  -2   9  522.90   42.82
  -3   2   9  441.92   36.30
   3  -2  -9  501.42   36.87
   3   2  -9  494.05   38.75
  -3   2   8  414.96   28.17
  -3  -2   8  379.77   25.64
  -3   2   8  430.16   23.31
  -3  -2   8  347.23   43.19
   3  -2  -8  379.70   20.00
   3   2  -8  401.48   25.12
  -3   2   7    7.70   10.66
  -3  -2   7    6.11    9.15
  -3   2   7   12.26    6.64
  -3  -2   7   10.24   11.28
   3  -2  -7   12.86   10.16
  -3   2   7    8.07    5.07
   3   2  -7    6.35   11.62
   3   2  -6  144.08   13.84
  -3   2   6  156.52   35.56
  -3   2   6  139.34   11.35
  -3  -2   6  198.15   28.19
   3   2  -6  146.01   14.70
   3  -2  -6  191.36   13.58
  -3   2   6  136.65   11.07
   3   2  -6  149.63   13.18
   3   2  -5 1506.26   64.97
  -3   2   5 1406.36   60.93
  -3  -2   5 1488.87   63.45
  -3   2   5 1321.69   54.82
   3  -2  -5 1234.65   51.97
  -3  -2   5 1381.78   57.57
   3  -2  -5 1293.14   52.64
   3   2  -5 1371.37   55.07
  -3   2   5 1383.09   56.43
   3   2  -4  380.25   26.40
  -3   2   4  370.41   25.85
  -3  -2   4  406.19   31.63
  -3   2   4  402.03   27.09
   3  -2  -4  430.23   28.38
  -3  -2   4  409.37   26.55
   3  -2  -4  423.30   27.13
   3   2  -4  378.03   24.80
  -3   2   4  386.02   24.02
   3  -2  -3  340.94   24.42
   3   2  -3  393.55   26.83
  -3   2   3  440.40   28.45
  -3  -2   3  327.57   23.99
  -3   2   3  491.22   31.77
   3  -2  -3  311.74   21.72
  -3  -2   3  340.74   25.37
  -3   2   3  416.06   25.75
   3   2  -3  430.62   27.04
   3  -2  -2 2239.14   51.81
   3   2  -2 2541.85   58.24
  -3   2   2 2393.20   53.56
  -3  -2   2 2151.58   54.41
  -3   2   2 2611.15   58.67
   3  -2  -2 2311.53   49.36
  -3   2   2 2554.98   54.09
  -3  -2   2 2186.18   47.92
   3   2  -2 2289.02   48.92
  -3   2   1  253.77   11.00
   3   2  -1  263.68   13.85
  -3   2   1  260.20   12.48
  -3  -2   1  394.38   25.05
   3  -2   0  480.67   15.63
  -3   2   0  447.58   14.22
   3   2   0  464.52   17.29
   3  -2   0  444.31   16.75
  -3  -2   0  461.98   18.15
  -3   2   0  476.87   15.78
  -3  -2   0  443.58   14.77
   3   2   0  464.03   15.59
  -3   2   0  455.86   22.82
   3   2   1 2945.63   71.16
   3  -2   1 2707.24   62.65
  -3  -2  -1 2593.39   61.18
  -3  -2  -1 2531.94   56.51
   3  -2   2  340.98   12.58
  -3   2  -2  299.41   10.59
   3   2   2  260.02   12.99
   3  -2   2  343.88   19.09
  -3  -2  -2  356.99   17.13
  -3  -2  -2  324.42   18.83
  -3   2  -2  259.45   17.23
   3  -2   3  119.82    9.74
   3   2   3  150.75   21.58
  -3   2  -3  162.15   11.67
   3   2   3  140.32   16.24
   3  -2   3  132.69   15.27
  -3  -2  -3  110.59   11.08
  -3   2  -3  144.49   16.97
   3  -2   4   10.95    6.41
   3   2   4   25.22    7.34
  -3   2  -4   25.01    3.54
   3   2   4   23.24   24.06
   3  -2   4   10.16    4.98
  -3  -2  -4    9.11    7.20
  -3   2  -4   25.74   11.49
   3  -2   5  494.51   32.47
   3   2   5  550.90   32.58
   3   2   5  605.02   31.22
   3  -2   5  538.88   31.06
  -3  -2  -5  517.53   39.33
  -3   2  -5  615.98   38.17
   3  -2   6  189.46   15.83
   3   2   6  103.43   12.05
   3   2   6   89.32   11.23
   3  -2   6  184.20   19.64
  -3  -2  -6  230.70   23.72
  -3   2  -6   91.98   22.35
   3  -2   7  104.53   11.60
   3   2   7  116.17   15.18
   3   2   7  113.43   17.50
   3  -2   7  103.26   16.90
  -3  -2  -7  117.75   18.57
  -3   2  -7  111.44   19.74
   3   2   8   61.21   46.62
   3  -2   8   81.02   10.62
   3   2   8   55.01   13.91
   3  -2   8   77.21   14.19
  -3  -2  -8   97.11   16.22
  -3   2  -8   58.19   22.77
   3   2   9  535.86   39.60
   3  -2   9  589.75   40.17
   3   2   9  504.52   43.47
   3  -2   9  579.95   43.75
  -3  -2  -9  686.93   56.29
  -3   2  -9  609.90   50.70
   3  -2  10  269.85   16.46
   3   2  10  309.11   28.20
   3   2  10  306.33   27.42
   3  -2  10  273.50   27.28
  -3  -2 -10  328.62   67.72
  -3   2 -10  330.64   37.72
   3  -2  11   26.63   26.35
   3   2  11   11.22   13.22
   3   2  11   11.30   10.00
   3  -2  11   28.52   26.84
  -3  -2 -11   38.82   41.98
  -3   2 -11   30.71   21.69
   3   2  12  567.50   46.58
   3  -2  12  560.46   51.64
   3   2  12  595.85   48.46
   3  -2  12  622.46   32.44
  -3  -2 -12  653.99   35.30
  -3   2 -12  653.65   42.16
   3   2  13  148.19   20.14
   3  -2  13  122.24   13.12
   3   2  13  157.33   22.44
   3  -2  13  162.41   24.86
  -3  -2 -13  173.27   23.70
  -3   2 -13  192.10   28.61
   3  -2  14   -4.47   10.00
   3   2  14    5.54   11.18
   3   2  14    2.64    6.96
   3  -2  14   -1.08   17.78
  -3  -2 -14   -7.56   16.43
  -3   2 -14    3.51   14.81
   3   2  15  186.33   20.83
   3  -2  15  147.22   17.11
   3   2  15  192.81   21.86
   3  -2  15  164.14   23.85
  -3  -2 -15  156.43   49.62
  -3   2 -15  210.31   28.02
   3   2  16   24.84   41.15
   3  -2  16   64.55   14.87
   3   2  16   29.27   62.26
   3  -2  16   94.50   20.68
  -3  -2 -16   85.24   24.47
  -3   2 -16   80.85   27.62
  -3   3  16  164.78   21.62
  -3  -3  16  199.89   26.48
  -3  -3  16  174.11   50.34
  -3   3  15  165.89   60.67
  -3  -3  15  151.31   22.60
  -3  -3  15  145.62   49.05
  -3   3  14  178.73   26.66
  -3  -3  14  142.20   19.07
  -3  -3  14  133.46   36.09
   3   3 -14  167.66   18.51
  -3   3  13  236.61   27.65
  -3  -3  13  269.29   26.02
  -3  -3  13  225.62   23.76
   3  -3 -13  284.05   21.86
   3   3 -13  263.64   25.31
  -3   3  12   66.66   56.98
  -3  -3  12   61.69   17.54
  -3   3  12   65.53   13.83
  -3  -3  12   53.69   49.61
   3  -3 -12   65.60    9.73
   3   3 -12   56.73   45.34
  -3   3  11  116.61   72.30
  -3  -3  11  161.05   22.13
  -3   3  11  112.72   17.61
  -3  -3  11  150.37   31.54
   3  -3 -11  158.12   16.85
   3   3 -11  119.28   18.45
  -3   3  10  325.23   29.83
  -3  -3  10  310.56   28.49
  -3   3  10  299.06   23.18
  -3  -3  10  278.77   37.05
   3  -3 -10  312.22   26.33
   3   3 -10  304.28   26.47
  -3   3   9  139.10   15.50
  -3  -3   9  133.82   12.53
  -3   3   9  124.14   27.74
  -3  -3   9  135.21   20.10
   3  -3  -9  123.71    8.62
   3   3  -9  133.71   17.36
  -3   3   8  110.86   49.02
  -3  -3   8  104.61   11.90
  -3  -3   8  132.61   24.71
  -3   3   8   97.40    7.12
   3  -3  -8  104.63    7.69
   3   3  -8   97.27   10.98
   3   3  -7  417.51   25.12
  -3   3   7  418.47   30.27
  -3  -3   7  322.97   44.60
  -3   3   7  425.53   23.59
   3  -3  -7  309.87   17.42
   3  -3  -7  337.97   20.29
   3   3  -7  477.94   29.53
   3   3  -6  856.54   47.80
  -3   3   6  883.90   46.78
  -3  -3   6  920.88   47.25
  -3   3   6  826.12   39.22
   3  -3  -6  943.16   44.36
  -3  -3   6  936.09   50.27
   3  -3  -6  933.95   46.04
   3   3  -5   50.23    8.44
  -3   3   5   53.35    9.44
  -3  -3   5   64.50   11.06
  -3   3   5   48.79    5.87
  -3  -3   5   67.85    8.87
   3  -3  -5   66.65   10.28
  -3   3   5   49.51    6.54
   3   3  -4  388.04   27.32
  -3   3   4  397.80   28.01
  -3   3   4  381.18   25.09
  -3  -3   4  367.11   34.25
  -3   3   4  476.70   30.30
  -3  -3   4  407.13   30.89
   3  -3  -4  409.73   28.14
  -3   3   4  409.59   26.22
   3   3  -3  848.21   38.21
  -3   3   3  851.12   38.73
  -3   3   3  791.94   33.82
  -3  -3   3  826.60   38.88
  -3   3   3  733.08   32.27
   3  -3  -3  822.95   41.72
  -3  -3   3  815.27   37.41
  -3   3   3  787.71   33.73
   3  -3  -2    1.98    2.82
   3   3  -2    0.06    3.69
  -3   3   2    1.06    1.75
  -3  -3   2   -0.08    8.52
  -3   3   2    1.22    3.33
   3  -3  -2    3.31    4.64
  -3  -3   2    1.55    4.71
  -3   3   2    1.20    1.94
   3  -3  -1  776.64   33.79
   3   3  -1  777.10   36.12
   3  -3  -1  750.07   35.12
  -3   3   1  740.84   33.46
  -3  -3   1  837.63   38.31
   3  -3  -1  791.24   36.69
  -3  -3   1  812.53   40.78
   3  -3   0 1153.51   48.98
  -3   3   0 1274.96   51.98
   3   3   0 1387.20   58.85
   3  -3   0 1345.84   58.28
  -3  -3   0 1244.84   53.67
   3  -3   0 1246.94   55.95
  -3  -3   0 1366.27   57.82
   3  -3   1   46.87    5.37
   3   3   1   92.13   10.88
   3  -3   1   41.80    9.52
  -3  -3  -1   50.39    8.02
   3  -3   1   46.23   16.30
  -3  -3  -1   55.95    8.72
   3  -3   2  302.44   19.73
   3   3   2  323.61   23.74
  -3   3  -2  335.25   21.41
   3  -3   2  300.29   23.15
  -3  -3  -2  297.79   22.04
  -3  -3  -2  317.30   24.28
  -3   3  -2  338.29   36.33
   3  -3   3  444.54   28.17
   3   3   3  331.04   24.34
  -3   3  -3  341.21   21.66
   3  -3   3  460.01   33.12
  -3  -3  -3  496.33   33.81
  -3  -3  -3  445.13   35.44
  -3   3  -3  326.26   28.21
   3  -3   4  782.58   34.56
   3   3   4  807.61   43.81
  -3   3  -4  738.94   32.93
   3  -3   4  646.78   33.60
  -3  -3  -4  691.50   43.36
  -3  -3  -4  641.23   41.66
  -3   3  -4  813.90   46.01
   3  -3   5   51.63    6.20
   3   3   5   46.97   35.30
  -3   3  -5   46.15    7.35
   3   3   5   46.18    8.47
   3  -3   5   50.83   42.73
  -3  -3  -5   56.74   41.81
  -3   3  -5   47.09   47.12
   3  -3   6  293.51   17.19
   3   3   6  297.37   33.07
   3   3   6  313.34   19.64
   3  -3   6  278.98   28.72
  -3  -3  -6  282.05   22.01
  -3   3  -6  346.08   35.03
   3  -3   7  709.26   34.49
   3   3   7  659.30   58.25
   3   3   7  687.40   47.68
   3  -3   7  626.31   38.17
  -3  -3  -7  703.04   40.19
  -3   3  -7  635.00   43.32
   3  -3   8  235.12   23.94
   3   3   8  348.53   32.27
   3   3   8  285.93   25.78
   3  -3   8  288.53   31.24
  -3  -3  -8  241.11   25.42
  -3   3  -8  295.31   30.38
   3  -3   9  300.35   24.43
   3   3   9  410.84   34.17
   3   3   9  338.19   27.53
   3  -3   9  335.36   34.09
  -3  -3  -9  335.41   29.55
  -3   3  -9  345.76   33.60
   3   3  10  554.93   50.16
   3  -3  10  535.93   45.29
   3   3  10  592.09   54.09
   3  -3  10  519.15   49.48
  -3  -3 -10  550.88   62.62
  -3   3 -10  606.03   61.37
   3  -3  11   43.21   11.28
   3   3  11    9.12    9.44
   3   3  11   13.85   11.73
   3  -3  11   52.14   40.67
  -3  -3 -11   35.90   31.35
  -3   3 -11   12.68   24.53
   3   3  12    6.24    8.95
   3  -3  12   -3.56    7.61
   3   3  12    5.41    8.49
   3  -3  12    4.50   16.13
  -3  -3 -12    5.50   11.28
  -3   3 -12    4.46    9.83
   3  -3  13   60.18   18.73
   3   3  13   79.90   60.67
   3   3  13   76.14   13.50
   3  -3  13   52.89   50.15
  -3  -3 -13   63.86   48.14
  -3   3 -13   82.46   61.95
   3   3  14  151.73   23.19
   3  -3  14  175.09   16.97
   3   3  14  156.66   18.69
   3  -3  14  190.39   26.36
  -3  -3 -14  173.43   23.97
  -3   3 -14  151.76   27.21
   3   3  15   53.92   46.59
   3  -3  15   55.12   54.73
   3  -3  15   56.64   43.35
  -3  -3 -15   81.15   18.29
  -3   3 -15   72.11   49.09
   3   3  16    6.96   10.42
   3  -3  16    0.94   15.70
  -3  -3 -16    8.04   13.90
  -3   3 -16   -2.37   18.27
  -3   4  16   36.00   34.79
  -3  -4  16   18.29   31.78
  -3  -4  16   20.97   18.11
  -3   4  15   27.60   22.20
  -3  -4  15   34.39   35.06
  -3  -4  15   47.18   19.49
  -3   4  14   22.50   25.75
  -3  -4  14    9.53   12.98
  -3  -4  14   11.22   12.59
   3   4 -14   13.73   17.61
  -3   4  13   36.14   26.56
  -3  -4  13   17.94   17.44
  -3  -4  13   21.72   17.37
   3  -4 -13   19.56   17.55
   3   4 -13   42.14   16.30
  -3   4  12  526.47   59.83
  -3  -4  12  619.34   28.40
  -3  -4  12  542.53   87.85
   3  -4 -12  574.89   23.76
   3   4 -12  553.40   44.22
  -3   4  11   63.32   57.57
  -3  -4  11   42.77   29.24
  -3  -4  11   53.53   38.12
   3  -4 -11   45.35    9.17
   3   4 -11   64.93   23.63
  -3   4  10   58.16   35.66
  -3  -4  10   62.70   11.61
  -3   4  10   43.54   10.97
  -3  -4  10   55.51   42.25
   3  -4 -10   48.99    8.06
   3   4 -10   47.35   38.74
  -3   4   9  363.21   34.86
  -3  -4   9  404.02   30.66
  -3   4   9  368.29   25.59
  -3  -4   9  430.57   53.50
   3  -4  -9  438.44   29.81
   3   4  -9  367.27   31.66
  -3   4   8  243.45   36.06
  -3  -4   8  304.78   27.45
  -3   4   8  262.53   22.59
  -3  -4   8  286.69   39.55
   3  -4  -8  293.20   24.13
   3   4  -8  226.22   24.20
   3   4  -7   35.70   24.03
  -3   4   7   32.48    9.04
  -3   4   7   23.79    3.53
  -3   4   7   32.10   10.78
  -3  -4   7   49.22   27.68
  -3  -4   7   34.64   24.11
   3  -4  -7   33.49   24.59
   3   4  -6   16.90    9.58
  -3   4   6   13.89    9.89
  -3   4   6   12.28    8.68
  -3  -4   6   18.54   18.36
  -3   4   6   14.24    6.28
  -3  -4   6   18.14   14.06
   3  -4  -6   19.74   15.71
   3   4  -5  155.71   14.95
  -3   4   5  149.86   17.43
  -3   4   5  143.97   10.88
  -3  -4   5  221.19   27.25
  -3   4   5  156.57   11.30
  -3  -4   5  220.59   20.99
   3  -4  -5  219.51   17.68
   3   4  -4  143.45   15.86
  -3   4   4  135.87   15.30
  -3   4   4  134.84   10.92
  -3  -4   4  101.43   15.52
  -3   4   4  146.21   13.69
  -3  -4   4   92.85   11.82
   3  -4  -4   98.14   10.96
   3   4  -3  413.28   30.81
  -3   4   3  413.47   28.47
  -3   4   3  414.35   26.85
  -3  -4   3  440.55   39.39
  -3   4   3  450.01   29.11
   3  -4  -3  418.55   29.18
  -3  -4   3  436.41   30.53
   3   4  -2  918.93   41.60
  -3   4   2 1013.61   46.16
   3  -4  -2 1090.04   48.14
  -3   4   2  985.07   45.37
  -3  -4   2 1144.61   53.86
   3  -4  -2 1091.09   52.88
  -3  -4   2 1218.22   56.20
   3   4  -1 1036.52   50.44
  -3   4   1  938.99   40.50
   3  -4  -1  935.99   43.78
  -3  -4   1 1024.69   49.52
   3  -4  -1  953.54   43.62
  -3  -4   1  979.05   43.95
   3  -4   0   16.35    3.87
  -3   4   0   11.83   10.69
   3   4   0    9.84   11.10
   3  -4   0   11.91   11.17
  -3  -4   0   15.80   11.00
   3  -4   0   18.04    9.29
  -3  -4   0   19.05   20.28
   3  -4   1  200.32   14.89
  -3   4  -1  127.11    9.59
   3   4   1  145.13   14.33
   3  -4   1  208.01   17.59
  -3  -4  -1  211.08   16.96
   3  -4   1  218.13   18.46
  -3  -4  -1  211.70   17.37
   3  -4   2  922.97   37.53
   3   4   2  888.63   47.87
  -3   4  -2  886.32   36.58
   3  -4   2  910.22   42.58
  -3  -4  -2 1033.31   46.19
   3  -4   2  977.66   54.43
  -3  -4  -2 1064.02   47.98
   3  -4   3  169.11   11.57
   3   4   3   90.82   11.56
  -3   4  -3  107.86    7.77
   3  -4   3  148.94   16.24
  -3  -4  -3  149.57   13.56
  -3  -4  -3  164.70   17.34
  -3   4  -3  128.99   17.39
   3  -4   4   29.86    6.00
   3   4   4   49.68   33.10
  -3   4  -4   46.81    6.30
   3  -4   4   18.33   13.50
  -3  -4  -4   24.44    7.09
  -3  -4  -4   26.59   22.79
  -3   4  -4   58.82   36.64
   3  -4   5 1151.62   23.91
   3   4   5 1020.18   57.51
  -3   4  -5 1042.06   46.14
   3  -4   5 1220.03   36.39
  -3  -4  -5 1057.79   55.31
  -3  -4  -5 1049.63   53.43
  -3   4  -5 1092.47   66.07
   3  -4   6  314.32   16.80
   3   4   6  227.95   29.16
  -3   4  -6  248.72   19.54
   3  -4   6  276.29   30.71
  -3  -4  -6  260.60   32.89
  -3  -4  -6  260.53   26.97
  -3   4  -6  293.88   32.17
   3  -4   7   34.13   14.44
   3   4   7   33.87   23.34
   3   4   7   32.30    6.43
   3  -4   7   31.88   21.74
  -3  -4  -7   31.54   26.18
  -3   4  -7   36.98   14.15
   3  -4   8  437.50   32.40
   3   4   8  347.99   29.75
   3   4   8  355.57   39.76
   3  -4   8  474.71   39.61
  -3  -4  -8  446.47   35.26
  -3   4  -8  392.53   37.60
   3  -4   9  312.20   24.60
   3   4   9  522.17   39.88
   3   4   9  475.98   34.79
   3  -4   9  338.53   30.46
  -3  -4  -9  337.74   30.13
  -3   4  -9  494.79   47.33
   3  -4  10   26.08   21.37
   3   4  10   15.74   13.54
   3   4  10   15.26   13.85
   3  -4  10   21.51   17.52
  -3  -4 -10   29.09   22.81
  -3   4 -10   14.92   24.10
   3  -4  11  189.04   24.36
   3   4  11  197.70   74.80
   3   4  11  169.83   46.39
   3  -4  11  193.56   26.34
  -3  -4 -11  215.61   55.63
  -3   4 -11  165.39   31.62
   3  -4  12   77.49    9.94
   3   4  12  113.16   38.57
   3   4  12   98.78   28.04
   3  -4  12   95.89   37.53
  -3  -4 -12   85.07   44.47
  -3   4 -12  147.37   33.21
   3  -4  13   76.15   11.42
   3   4  13   94.44   41.28
   3   4  13   87.20   13.56
   3  -4  13  114.17   32.26
  -3  -4 -13   73.89   64.54
  -3   4 -13   71.08   71.90
   3   4  14   19.83   15.79
   3  -4  14   16.84   21.73
  -3  -4 -14   13.91   16.56
  -3   4 -14   28.97   30.10
   3   4  15   50.39   51.44
   3  -4  15   36.17   33.12
  -3  -4 -15   42.29   37.09
  -3   4 -15   44.39   53.39
  -3   5  15   13.95   31.73
  -3  -5  15   25.49   29.70
  -3  -5  15   40.97   36.03
  -3   5  14  151.06   20.75
  -3  -5  14  242.86   29.60
  -3  -5  14  214.49   27.64
   3   5 -14  197.44   33.26
  -3   5  13  140.26   18.66
  -3  -5  13  121.66   16.97
  -3  -5  13  120.85   74.39
   3  -5 -13  104.19   11.98
   3   5 -13  128.44   22.05
  -3   5  12   13.98   16.53
  -3  -5  12   15.36   12.77
  -3  -5  12   15.40   21.91
   3  -5 -12   13.84   11.94
   3   5 -12   21.35   16.39
  -3   5  11  467.13   41.44
  -3  -5  11  389.78   39.64
  -3  -5  11  394.47   60.69
   3  -5 -11  390.32   29.98
   3   5 -11  482.85   42.20
  -3   5  10   52.65   37.65
  -3  -5  10   88.40   13.96
  -3  -5  10  105.58   54.80
   3  -5 -10   86.93   33.14
   3   5 -10   32.80   40.85
  -3   5   9   93.60   20.96
  -3  -5   9   55.51    8.98
  -3  -5   9   62.56   48.39
   3  -5  -9   67.42   10.28
   3   5  -9   82.62   12.99
  -3   5   8  469.99   41.38
  -3  -5   8  412.67   30.59
  -3  -5   8  388.94   37.33
  -3  -5   8  359.89   41.56
   3  -5  -8  353.34   30.70
   3   5  -7  211.81   25.33
  -3   5   7  229.57   22.02
  -3   5   7  198.37    3.99
  -3  -5   7  249.79   41.84
  -3  -5   7  238.53   24.03
   3  -5  -7  245.11   20.81
   3   5  -6  103.40   17.12
  -3   5   6   81.41   14.61
  -3   5   6   93.06    3.42
  -3   5   6   96.12    3.19
  -3  -5   6  103.64   14.62
  -3  -5   6  117.47   14.84
   3  -5  -6  134.58   13.09
   3   5  -5   28.57   20.01
  -3   5   5   37.22   24.10
  -3   5   5   32.80    3.66
  -3  -5   5   46.12   36.94
  -3   5   5   31.28    3.60
  -3  -5   5   40.12   36.31
   3  -5  -5   36.82   13.35
   3   5  -4  844.80   42.47
  -3   5   4  821.75   43.19
  -3   5   4  802.01   35.91
  -3  -5   4  881.55   45.90
  -3   5   4  850.56   39.02
  -3  -5   4  858.37   44.09
   3  -5  -4  822.94   45.43
   3   5  -3 1122.17   57.65
  -3   5   3 1124.29   55.48
  -3   5   3 1142.48   51.73
  -3  -5   3 1265.64   62.89
  -3   5   3 1182.59   56.63
   3  -5  -3 1309.46   64.33
  -3  -5   3 1296.11   63.74
   3   5  -2   77.99    9.16
  -3   5   2   73.74    8.34
   3  -5  -2   78.30    8.92
  -3   5   2   81.52    7.75
  -3  -5   2   86.94   11.67
   3  -5  -2   80.38   21.99
  -3  -5   2  100.03   24.56
   3   5  -1  340.21   23.42
  -3   5   1  357.40   20.30
   3  -5  -1  266.47   23.22
  -3  -5   1  283.66   18.84
   3  -5  -1  254.56   24.19
  -3  -5   1  255.33   24.81
  -3   5   0  623.00   29.63
   3   5   0  555.13   38.19
  -3   5   0  606.58   30.19
   3  -5   0  653.33   34.39
  -3  -5   0  643.21   34.55
   3  -5   0  677.83   40.39
  -3  -5   0  626.16   38.53
  -3   5  -1  448.70   21.49
   3   5   1  454.44   26.73
  -3   5  -1  455.26   22.74
   3  -5   1  486.98   29.14
  -3  -5  -1  449.03   28.51
   3  -5   1  493.82   30.86
  -3  -5  -1  456.50   29.37
   3   5   2  196.26   17.95
  -3   5  -2  254.75   18.92
  -3   5  -2  218.20   15.59
   3  -5   2  219.68   20.93
  -3  -5  -2  213.95   17.62
   3  -5   2  237.05   24.50
  -3  -5  -2  228.24   20.41
   3   5   3  163.55   17.26
  -3   5  -3  168.04   12.52
   3  -5   3  175.37   20.33
  -3  -5  -3  167.18   18.07
   3  -5   3  174.82   22.90
  -3  -5  -3  187.67   24.32
   3  -5   4  475.57   20.98
   3   5   4  444.57   31.97
   3  -5   4  431.95   38.26
  -3  -5  -4  535.37   28.62
  -3  -5  -4  495.76   50.55
  -3   5  -4  483.50   35.36
   3  -5   5   83.00    3.69
   3   5   5   98.66   13.43
  -3   5  -5   87.03    3.59
   3  -5   5   88.80   14.25
  -3  -5  -5   96.97   10.25
  -3  -5  -5   90.45   49.01
  -3   5  -5   94.99   22.41
   3  -5   6  245.02   20.84
   3   5   6  250.46   45.87
  -3   5  -6  259.98   18.80
   3  -5   6  237.36   25.84
  -3  -5  -6  258.82   22.05
  -3  -5  -6  252.09   24.79
  -3   5  -6  289.40   32.76
   3  -5   7  500.41   30.86
   3   5   7  548.02   41.78
   3  -5   7  454.28   40.75
  -3  -5  -7  437.47   30.87
  -3  -5  -7  496.29   39.97
  -3   5  -7  537.52   50.72
   3  -5   8  501.92   30.96
   3   5   8  420.22   42.18
   3  -5   8  557.02   46.00
  -3  -5  -8  528.29   35.74
  -3  -5  -8  522.34   39.28
  -3   5  -8  489.51   48.94
   3  -5   9   13.81   11.27
   3   5   9   15.18   13.69
   3  -5   9   21.14   23.39
  -3  -5  -9   28.54   25.93
  -3  -5  -9   20.10   11.53
  -3   5  -9   14.16   20.74
   3  -5  10   87.80   10.42
   3   5  10  124.72   19.12
   3  -5  10   78.74   75.09
  -3  -5 -10   84.66   11.75
  -3  -5 -10  124.55   21.16
  -3   5 -10  134.23   35.26
   3   5  11  175.48   24.16
   3   5  11  173.28   18.73
   3  -5  11  217.71   28.68
  -3  -5 -11  238.26   28.43
  -3   5 -11  176.63   31.83
   3   5  12   11.06   17.86
   3  -5  12   13.01   17.00
  -3  -5 -12    7.06   12.64
  -3   5 -12    1.69    9.98
   3   5  13   14.93   20.43
   3  -5  13   32.66   26.55
  -3  -5 -13   17.44   19.52
  -3   5 -13   52.97   38.46
   3   5  14   73.87   71.71
   3  -5  14  120.62   42.38
  -3  -5 -14  124.34   20.57
  -3   5 -14   77.11   93.25
   3   5  15   12.30   13.94
   3  -5  15   -2.08   10.02
  -3  -5 -15    5.32   12.05
  -3   5 -15    8.37   17.25
  -3   6  15   34.01   26.90
  -3   6  14    2.59   12.33
  -3  -6  14    5.27   13.32
   3   6 -14    5.85    7.99
  -3   6  13   50.95   60.23
  -3  -6  13   49.28   48.01
  -3  -6  13   65.00   54.54
   3  -6 -13   64.89   27.15
   3   6 -13   62.97   46.82
  -3   6  12   76.48   59.41
  -3  -6  12   60.95   36.94
  -3  -6  12   67.91   59.56
   3  -6 -12   61.15   40.01
   3   6 -12   50.88   36.86
  -3   6  11   46.27   40.57
  -3  -6  11   78.28   13.00
  -3  -6  11   75.03   65.43
   3  -6 -11   69.65   12.24
   3   6 -11   53.29   14.57
  -3   6  10   56.74   44.61
  -3  -6  10   33.82    9.93
  -3  -6  10   44.57   42.15
   3  -6 -10   27.26   31.29
   3   6 -10   44.17   15.05
  -3   6   9  330.58   29.52
  -3  -6   9  344.19   25.95
  -3  -6   9  381.48   40.99
   3  -6  -9  348.09   30.91
   3   6  -9  317.78   33.03
  -3   6   8   71.00   51.41
  -3  -6   8   69.19   10.80
  -3  -6   8   77.80   16.82
  -3  -6   8   70.52   21.86
   3  -6  -8   80.22   11.14
   3   6  -7   68.81   13.17
  -3   6   7   66.25   29.07
  -3  -6   7   64.15   48.97
  -3  -6   7   81.19   13.91
   3  -6  -7   68.84   12.43
   3   6  -6  518.88   34.83
  -3   6   6  511.44   42.62
  -3  -6   6  513.09   45.86
  -3  -6   6  593.45   55.02
   3  -6  -6  523.94   39.09
   3   6  -5  381.47   30.16
  -3   6   5  351.04   30.25
  -3  -6   5  271.33   28.33
  -3  -6   5  304.54   28.33
   3  -6  -5  276.40   31.15
   3   6  -4  324.97   26.05
  -3   6   4  385.84   31.88
  -3   6   4  343.67   24.19
  -3  -6   4  358.24   31.90
  -3   6   4  306.89   23.35
   3  -6  -4  346.72   31.31
  -3  -6   4  289.26   31.71
   3   6  -3   66.48    9.15
  -3   6   3   67.60   19.22
  -3   6   3   71.73    7.02
  -3  -6   3   56.52   44.14
  -3  -6   3   55.06   11.02
   3  -6  -3   48.91   11.05
   3   6  -2  261.26   23.53
  -3   6   2  243.25   20.66
   3  -6  -2  158.95   14.52
  -3   6   2  232.63   18.71
  -3  -6   2  145.35   16.19
   3  -6  -2  148.62   17.32
  -3  -6   2  165.47   21.52
   3   6  -1  416.47   25.26
  -3   6   1  413.57   25.76
   3  -6  -1  368.36   21.35
  -3  -6   1  342.74   29.92
   3  -6  -1  335.57   27.59
  -3  -6   1  320.28   24.45
  -3   6   0  171.10   14.11
   3   6   0  173.25   20.50
  -3   6   0  175.73   14.82
   3  -6   0  164.94   16.20
  -3  -6   0  167.63   17.42
   3  -6   0  179.50   21.74
  -3  -6   0  171.55   19.00
  -3   6  -1  573.52   26.33
   3   6   1  590.54   48.51
  -3   6  -1  536.29   25.34
   3  -6   1  588.75   35.53
  -3  -6  -1  636.27   33.56
   3  -6   1  628.49   38.15
  -3  -6  -1  583.45   43.51
  -3   6  -2  162.22   12.18
   3   6   2  146.30   22.37
  -3   6  -2  152.14   11.39
   3  -6   2  119.91   14.89
  -3  -6  -2  107.07   13.00
   3  -6   2  119.90   20.46
  -3  -6  -2  118.09   15.06
   3   6   3   98.17   17.10
   3  -6   3  130.79   14.31
  -3  -6  -3  122.90   10.77
   3  -6   3  121.84   16.91
  -3  -6  -3  133.11   14.56
   3   6   4   85.10   14.17
   3  -6   4  121.23   29.54
  -3  -6  -4  129.87   10.71
   3  -6   4  153.93   50.31
  -3  -6  -4  125.72   15.18
   3   6   5  581.08   49.78
   3  -6   5  511.47   39.15
  -3  -6  -5  559.00   36.60
  -3  -6  -5  576.90   46.93
  -3   6  -5  567.94   46.80
   3   6   6   20.17   21.44
   3  -6   6    7.62    8.83
  -3  -6  -6    5.47    5.89
  -3  -6  -6    8.82   10.03
  -3   6  -6   22.37   14.37
   3   6   7  252.81   33.03
   3  -6   7  256.38   22.66
  -3  -6  -7  275.18   21.65
  -3  -6  -7  301.35   28.06
  -3   6  -7  271.21   29.32
   3   6   8  262.06   25.96
   3  -6   8  243.12   26.99
  -3  -6  -8  263.77   21.61
  -3  -6  -8  264.40   26.15
  -3   6  -8  280.89   40.00
   3   6   9  357.24   51.00
   3  -6   9  431.11   41.92
  -3  -6  -9  445.22   35.26
  -3  -6  -9  472.14   42.01
  -3   6  -9  355.25   46.31
   3   6  10   79.27   16.88
   3  -6  10   83.58   77.33
  -3  -6 -10   79.85   68.23
  -3   6 -10  107.78   84.98
   3   6  11   19.10   25.84
   3  -6  11   14.77   24.62
  -3  -6 -11   11.97   12.90
  -3   6 -11   20.24   30.32
   3   6  12  121.45   19.76
   3  -6  12  154.86   27.49
  -3  -6 -12  188.53   24.11
  -3   6 -12  101.94  100.13
   3   6  13   45.59   51.76
   3  -6  13   59.25   48.13
  -3  -6 -13   71.27   69.77
  -3   6 -13   47.07   74.47
   3   6  14   25.49   32.58
   3  -6  14   20.93   24.86
  -3  -6 -14   40.51   32.30
  -3   6 -14   13.28   36.26
  -3   7  14   62.96   73.99
  -3  -7  14   78.31   92.05
   3   7 -14  101.08   68.63
  -3   7  13  192.22   25.63
  -3  -7  13  208.98   28.33
   3  -7 -13  228.09   23.55
   3   7 -13  207.29   31.55
  -3   7  12    9.48   20.97
  -3  -7  12    2.81   21.66
   3  -7 -12    8.40   15.14
   3   7 -12   12.89   21.28
  -3   7  11   53.93   53.01
  -3  -7  11   65.32   59.54
   3  -7 -11   64.91   47.32
   3   7 -11   79.65   18.66
  -3   7  10  274.70   28.88
  -3  -7  10  232.73   19.01
  -3  -7  10  287.16   36.80
   3  -7 -10  252.60   23.13
   3   7 -10  225.79   25.93
  -3   7   9   35.58   31.00
  -3  -7   9   55.88    8.80
  -3  -7   9   50.47   27.18
  -3  -7   9   45.29   45.80
   3  -7  -9   46.46   38.62
  -3   7   8   51.47   41.06
  -3  -7   8   35.99    8.28
  -3  -7   8   44.49   27.06
  -3  -7   8   32.54   22.23
   3  -7  -8   35.07   31.84
   3   7  -7  230.82   19.36
  -3   7   7  259.51   30.85
  -3  -7   7  284.85   30.11
  -3  -7   7  314.89   43.23
   3  -7  -7  286.93   28.77
   3   7  -6  477.68   40.83
  -3   7   6  465.72   41.66
  -3  -7   6  384.97   37.89
  -3  -7   6  429.96   66.85
   3  -7  -6  441.14   43.98
   3   7  -5    7.17    5.33
  -3   7   5   10.79    7.27
  -3  -7   5   -1.55   11.35
  -3  -7   5    3.30   10.48
   3  -7  -5   11.67   10.47
   3   7  -4  626.93   41.29
  -3   7   4  639.00   44.69
  -3  -7   4  748.84   51.49
  -3   7   4  622.77   36.77
   3  -7  -4  753.47   61.83
  -3  -7   4  730.36   51.16
   3   7  -3  588.32   42.42
  -3   7   3  573.04   39.97
   3  -7  -3  699.81   42.76
  -3  -7   3  679.27   46.77
   3  -7  -3  676.11   47.91
  -3  -7   3  670.21   48.82
   3   7  -2  110.76   11.61
  -3   7   2  100.40   17.33
   3  -7  -2  116.20   14.51
  -3  -7   2  110.55   25.52
   3  -7  -2  124.94   16.95
  -3  -7   2  114.01   18.41
   3   7  -1  139.63   11.64
  -3   7   1  141.96    9.39
   3  -7  -1  159.39   16.15
  -3  -7   1  154.95   12.80
   3  -7  -1  165.64   21.09
  -3  -7   1  171.83   19.73
  -3   7   0  432.53   32.41
   3   7   0  475.17   37.98
  -3   7   0  437.81   32.07
   3  -7   0  389.63   31.87
  -3  -7   0  373.13   30.11
   3  -7   0  380.94   38.44
  -3  -7   0  378.13   36.19
  -3   7  -1   26.29    7.26
   3   7   1   32.44   17.59
  -3   7  -1   34.42    3.00
   3  -7   1   28.53   24.62
  -3  -7  -1   28.30   23.87
   3  -7   1   37.92   21.28
  -3  -7  -1   40.36   21.30
   3   7   2   78.05   10.02
   3  -7   2   89.40   14.35
  -3  -7  -2   72.67   10.20
   3  -7   2   69.90   55.54
  -3  -7  -2   65.78   12.49
   3   7   3  177.92   20.34
   3  -7   3  206.85   19.85
  -3  -7  -3  223.17   17.74
   3  -7   3  215.22   26.37
  -3  -7  -3  209.14   24.63
   3   7   4  398.34   39.84
   3  -7   4  353.54   28.88
  -3  -7  -4  359.16   27.35
   3  -7   4  370.52   34.04
  -3  -7  -4  326.20   28.28
   3   7   5   77.30   13.62
   3  -7   5   75.11   14.72
  -3  -7  -5   77.07   10.37
   3  -7   5   66.22   55.65
  -3  -7  -5   75.20   14.26
   3   7   6  511.87   49.12
   3  -7   6  545.71   58.80
  -3  -7  -6  518.94   48.60
  -3  -7  -6  550.74   50.24
  -3   7  -6  452.64   56.28
   3   7   7   84.23   18.96
   3  -7   7  117.31   21.98
  -3  -7  -7  113.67   19.29
  -3  -7  -7  109.33   17.39
  -3   7  -7   79.89   29.38
   3   7   8   -2.20   12.44
   3  -7   8    5.40    9.94
  -3  -7  -8    4.70    8.18
  -3   7  -8   15.23   20.50
   3   7   9  108.03   20.37
   3  -7   9   76.12   66.14
  -3  -7  -9   92.22   19.50
  -3   7  -9  132.42   42.34
   3   7  10   94.60   77.94
   3  -7  10   72.83   68.92
  -3  -7 -10   85.89   81.36
  -3   7 -10  156.46   32.97
   3   7  11  122.40   23.05
   3  -7  11  128.61   24.59
  -3  -7 -11  169.58   23.21
  -3   7 -11  176.45   37.59
   3   7  12   19.72   32.80
   3  -7  12   16.72   19.35
  -3  -7 -12    6.13   18.73
  -3   7 -12   43.10   35.74
   3   7  13   54.76   73.35
   3  -7  13   38.39   37.60
  -3  -7 -13   45.05   49.31
  -3   7 -13   48.77   72.24
  -3   8  13   13.11   21.40
  -3  -8  13   10.68   12.53
   3   8 -13   20.50   21.50
  -3   8  12   37.39   44.57
  -3  -8  12   64.50   53.98
   3  -8 -12   51.66   56.18
   3   8 -12   54.02   71.56
  -3   8  11   10.12   11.84
  -3  -8  11    1.70   11.46
   3  -8 -11    4.43   11.50
   3   8 -11    4.55    8.58
  -3   8  10    5.97    9.05
  -3  -8  10   -3.20   18.27
   3  -8 -10   -2.96    9.42
   3   8 -10   11.90   18.67
  -3   8   9  241.75   18.91
  -3  -8   9  236.15   25.39
  -3  -8   9  226.71   21.12
   3  -8  -9  230.83   21.51
  -3   8   8  169.49   18.44
  -3  -8   8  223.64   25.07
  -3  -8   8  243.31   27.69
   3  -8  -8  225.69   21.59
   3   8  -7   61.38   10.31
  -3   8   7   52.03   44.57
  -3  -8   7   65.51   45.50
  -3  -8   7   70.12   17.81
   3  -8  -7   63.37   26.24
   3   8  -6  132.07   14.39
  -3   8   6  139.46   27.90
  -3  -8   6  123.14   27.79
  -3  -8   6  148.14   20.44
   3  -8  -6  128.90   20.35
   3   8  -5   46.23    6.54
  -3   8   5   55.03   27.19
  -3  -8   5  101.80   14.42
  -3  -8   5  115.50   19.89
   3  -8  -5  111.45   20.44
   3   8  -4   26.08   18.62
  -3   8   4   32.37   23.85
  -3  -8   4   10.15    9.64
   3  -8  -4   11.89   20.33
  -3  -8   4   10.27   14.41
   3   8  -3   57.77    9.30
  -3   8   3   67.27   13.57
   3  -8  -3   36.69    4.29
  -3  -8   3   35.05   36.46
  -3  -8   3   37.83   33.20
   3  -8  -3   45.44   26.49
   3   8  -2   80.13    9.34
  -3   8   2   81.26   20.01
   3  -8  -2  122.53    9.60
  -3  -8   2  147.42   16.60
   3  -8  -2  140.93   30.33
  -3  -8   2  164.61   25.55
   3   8  -1  201.07   14.96
  -3   8   1  179.93    9.05
   3  -8  -1  195.58   12.72
  -3  -8   1  185.38   16.07
   3  -8  -1  199.15   21.71
  -3  -8   1  246.98   49.86
   3   8   0  141.66   12.68
  -3   8   0  137.92    6.90
   3  -8   0  138.98   12.75
  -3  -8   0  135.12   23.31
   3  -8   0  163.05   21.24
  -3  -8   0  149.77   20.78
   3   8   1   48.15   38.15
   3  -8   1   90.09   10.98
  -3  -8  -1   76.62   13.43
   3  -8   1   87.19   16.68
  -3  -8  -1  102.45   18.89
   3   8   2  753.00   27.52
   3  -8   2  761.38   29.71
  -3  -8  -2  691.35   57.15
   3  -8   2  762.47   45.12
  -3  -8  -2  734.51   65.58
   3   8   3   54.76   42.37
   3  -8   3   53.29   45.56
  -3  -8  -3   45.45   17.22
   3  -8   3   54.22   41.68
  -3  -8  -3   35.71   37.92
   3   8   4   33.98   22.39
   3  -8   4   38.03   44.22
  -3  -8  -4   33.62   28.27
   3  -8   4   43.54   28.40
  -3  -8  -4   46.51   33.83
   3   8   5  305.17   60.91
   3  -8   5  252.23   59.02
  -3  -8  -5  253.33   21.68
   3  -8   5  260.54   35.41
  -3  -8  -5  294.65   32.02
   3   8   6  182.65   21.47
   3  -8   6  243.32   32.28
  -3  -8  -6  224.34   26.55
  -3   8  -6  225.77   39.86
   3   8   7   22.04   12.10
   3  -8   7   31.52   21.41
  -3  -8  -7   12.70   26.98
  -3   8  -7   14.69   32.98
   3   8   8   68.51   63.77
   3  -8   8   66.90   65.25
  -3  -8  -8   67.96   54.17
  -3   8  -8   72.97  102.15
   3   8   9   49.04   38.46
   3  -8   9   74.51   82.09
  -3  -8  -9   79.29   78.80
  -3   8  -9   39.88   48.34
   3   8  10   40.40   30.59
   3  -8  10   39.82   44.37
  -3  -8 -10   41.08   50.56
  -3   8 -10   55.28   36.01
   3   8  11   89.53   29.79
   3  -8  11   54.91   50.95
  -3  -8 -11   71.94   75.68
  -3   8 -11   76.04   23.41
   3   8  12  131.64   21.76
   3  -8  12  127.68   25.52
  -3  -8 -12  119.95   26.96
  -3   8 -12   73.80  124.55
  -3   9  12    6.54   13.10
  -3  -9  12    9.64   10.70
   3  -9 -12    7.94    9.64
   3   9 -12    7.19   17.01
  -3   9  11   94.65   17.15
  -3  -9  11   91.27   94.72
   3  -9 -11  118.81   22.03
   3   9 -11   86.45   61.81
  -3   9  10   39.14   40.70
  -3  -9  10   36.82   37.27
   3  -9 -10   38.95   43.84
  -3   9   9   15.81   15.52
  -3  -9   9   16.08   36.90
  -3  -9   9   13.78   17.81
   3  -9  -9   10.62   15.56
  -3   9   8   41.56   38.20
  -3  -9   8   43.44   49.06
  -3  -9   8   45.05   51.43
   3  -9  -8   41.03   50.20
  -3   9   7  198.28   16.34
  -3  -9   7  120.19   97.38
  -3  -9   7  141.07   18.41
   3  -9  -7  157.77   21.42
  -3   9   6  243.90   22.78
  -3  -9   6  259.23   31.34
  -3  -9   6  230.49   32.85
   3  -9  -6  253.43   28.84
  -3   9   5   15.74   14.20
  -3  -9   5   10.75   10.89
  -3  -9   5   12.40   14.59
   3  -9  -5   25.94   16.50
   3   9  -4  203.18   20.61
  -3   9   4  257.85   22.40
  -3  -9   4  187.74   24.08
  -3  -9   4  179.89   22.41
   3  -9  -4  199.89   26.48
   3   9  -3  136.34   14.75
  -3   9   3  155.33   15.59
  -3  -9   3  169.99   23.70
  -3  -9   3  151.42   21.20
   3  -9  -3  144.24   39.43
   3   9  -2   15.39   13.39
  -3   9   2   20.80   22.20
  -3  -9   2   11.66   13.58
   3  -9  -2   15.82   13.66
  -3  -9   2   17.33   12.09
   3   9  -1  298.03   24.54
   3  -9  -1  282.03   22.64
  -3  -9   1  283.85   25.16
   3  -9  -1  318.57   35.64
  -3  -9   1  271.79   45.68
   3   9   0  254.25   23.26
   3  -9   0  237.11   22.14
  -3  -9   0  226.47   21.06
   3  -9   0  233.76   35.30
  -3  -9   0  273.08   38.91
   3   9   1  143.03   15.65
   3  -9   1  134.60   16.37
  -3  -9  -1  140.42   16.58
   3  -9   1  142.22   21.19
  -3  -9  -1  162.73   68.13
   3   9   2    8.00   11.18
   3  -9   2    6.28   10.45
  -3  -9  -2    8.86    9.30
   3  -9   2   14.00   14.47
  -3  -9  -2   18.13   17.89
   3   9   3  296.08   36.68
   3  -9   3  221.88   24.47
  -3  -9  -3  205.78   27.14
   3  -9   3  231.23   31.07
  -3  -9  -3  234.20   28.89
   3   9   4  254.12   58.93
   3  -9   4  285.31   30.43
  -3  -9  -4  253.43   19.52
   3  -9   4  265.93   40.42
  -3  -9  -4  283.13   29.21
   3   9   5   30.25   15.84
   3  -9   5   27.64   20.60
   3  -9   5   40.72   39.22
  -3  -9  -5   22.00   31.03
   3   9   6   17.75   11.59
   3  -9   6    9.78   13.40
  -3  -9  -6   16.30   18.80
   3   9   7  120.77   40.67
   3  -9   7  141.80   20.50
  -3  -9  -7  161.42   27.42
  -3   9  -7  157.45   28.13
   3   9   8    9.27   14.03
   3  -9   8    6.61   11.51
  -3  -9  -8   19.40   15.15
  -3   9  -8   26.18   29.50
   3   9   9    4.94   13.90
   3  -9   9   23.66   25.56
  -3  -9  -9   22.11   15.88
  -3   9  -9   20.19   19.47
   3   9  10   94.79   34.48
   3  -9  10   86.87   53.43
  -3  -9 -10   98.08   91.88
  -3   9 -10   95.00   29.54
   3   9  11   22.75   21.44
   3  -9  11   38.54   25.43
  -3  -9 -11   26.11   51.78
  -3   9 -11   39.65   31.17
  -3  10  10   11.82   12.59
  -3 -10  10   15.25   24.34
  -3 -10  10   18.44   15.92
   3 -10 -10   12.25   19.90
  -3  10   9   84.22   83.23
  -3 -10   9   93.34   81.23
  -3 -10   9  127.55   33.72
   3 -10  -9  100.44   19.14
  -3  10   8   39.44   36.81
  -3 -10   8   14.31   24.99
  -3 -10   8   36.24   44.48
   3 -10  -8   48.16   21.86
  -3  10   7   12.49   11.19
  -3 -10   7   18.64   25.03
  -3 -10   7   12.42   19.15
   3 -10  -7   10.89   16.19
  -3  10   6   29.27   25.19
  -3 -10   6   17.56   23.43
  -3 -10   6   22.09   24.32
   3 -10  -6   29.35   25.51
  -3  10   5  130.73   12.80
  -3 -10   5  132.24   24.88
  -3 -10   5  125.24  109.83
   3 -10  -5  174.55   23.69
  -3  10   4   27.98   26.60
  -3 -10   4   38.71   41.14
  -3 -10   4   41.63   31.60
   3 -10  -4   40.87   33.91
  -3 -10   3   20.36   15.98
   3 -10  -3   12.84   21.35
  -3 -10   3   16.61   21.75
  -3 -10   2  148.65   18.29
   3 -10  -2  154.97   36.16
  -3 -10   2  159.28   21.10
   3  10  -1   65.07    9.79
  -3 -10   1   50.29   10.66
   3 -10  -1   51.90   25.73
  -3 -10   1   45.96   42.98
   3  10   0   50.72    9.23
   3 -10   0   48.83   10.35
  -3 -10   0   47.72   35.02
   3 -10   0   48.97   45.47
  -3 -10   0   50.33   44.55
   3  10   1  196.72   17.63
   3 -10   1  190.42   19.91
  -3 -10  -1  163.57   16.31
   3 -10   1  184.70   35.46
  -3 -10  -1  192.67   28.05
   3  10   2  145.13   16.38
   3 -10   2  142.53   17.88
  -3 -10  -2  121.93   11.88
   3 -10   2  159.07   22.43
  -3 -10  -2  158.00   24.97
   3  10   3   44.95   40.19
   3 -10   3   38.17   43.18
   3 -10   3   52.12   22.47
  -3 -10  -3   46.09   34.31
   3  10   4    3.78   10.62
   3 -10   4    3.86    9.30
   3 -10   4    6.01   12.34
  -3 -10  -4    2.88   11.16
   3  10   5   80.36   14.13
   3 -10   5   77.25   51.98
   3 -10   5   78.87   69.32
  -3 -10  -5   92.64   20.61
   3  10   6   11.03   23.75
   3 -10   6    7.87   10.16
   3 -10   6    3.32   18.16
  -3 -10  -6    7.70   15.64
   3  10   7   10.93   16.20
   3 -10   7    3.52   11.35
  -3 -10  -7    3.75    6.28
  -3  10  -7   15.26   16.32
   3  10   8   49.01   47.31
   3 -10   8   41.04   54.92
  -3 -10  -8   59.22   83.00
  -3  10  -8   53.03   54.22
   3  10   9   50.49   52.98
   3 -10   9   56.36   75.95
  -3 -10  -9   56.19   64.83
  -3  10  -9   62.27   66.20
   3  10  10    6.55   10.88
   3 -10  10    5.66    9.96
  -3 -10 -10    6.66   14.66
  -3  10 -10    7.10   23.12
  -3  11   8   16.72   31.93
  -3 -11   8    8.64   21.46
  -3 -11   8   32.50   32.84
   3 -11  -8   14.47   25.30
  -3 -11   7   48.87   57.81
  -3 -11   7   49.18   68.12
   3 -11  -7   48.60   59.39
  -3 -11   6   52.40   63.71
  -3 -11   6   49.97   52.53
   3 -11  -6   72.30   46.39
  -3 -11   5    2.05   12.29
  -3 -11   5   -7.03   17.23
   3 -11  -5    9.66   17.26
  -3 -11   4   36.96   58.04
  -3 -11   4   61.97   71.12
   3 -11  -4   47.23   45.07
  -3 -11   3  145.03   20.55
   3 -11  -3  159.04   50.45
  -3 -11   3  163.33   29.24
  -3 -11   2    7.74    9.21
   3 -11  -2    8.88   25.04
  -3 -11   2   12.22   19.12
  -3 -11   1   39.72   37.16
   3 -11  -1   63.78   39.86
  -3 -11   1   59.55   53.92
  -3 -11   0   13.50   14.00
   3 -11   0   16.54   23.47
  -3 -11   0   13.78   22.02
   3 -11   1   38.57   29.69
  -3 -11  -1   19.64   18.14
   3  11   2  103.31   13.83
   3 -11   2   76.02   13.20
   3 -11   2   96.59   54.86
  -3 -11  -2   73.07   69.22
   3  11   3   16.16   16.11
   3 -11   3   21.81   30.70
   3 -11   3   41.71   31.05
  -3 -11  -3   40.11   38.59
   3  11   4   73.21   13.02
   3 -11   4   43.10   53.72
   3 -11   4   47.07   56.20
  -3 -11  -4   50.96   57.04
   3  11   5    7.79    9.32
   3 -11   5   10.24   13.81
   3 -11   5   18.99   20.46
  -3 -11  -5   16.02   22.74
   3  11   6   15.27   22.45
   3 -11   6    5.14   12.27
   3 -11   6    8.39   17.25
  -3 -11  -6    8.55   19.50
   3  11   7  109.95   53.27
   3 -11   7  147.56   24.41
  -3 -11  -7  163.90   30.46
  -3  11  -7   89.72  131.76
   3  11   8   25.39   20.70
   3 -11   8   16.26   23.47
  -3 -11  -8   33.92   34.78
  -3  11  -8    8.24   28.30
  -3 -12   5    5.58   10.68
   3 -12  -5    5.92   15.64
  -3 -12   5    6.64   11.82
  -3 -12   4    9.53    9.37
  -3 -12   4    4.42   10.22
   3 -12  -4   11.81   17.61
  -3 -12   3    4.93   15.17
  -3 -12   3    7.75   17.34
   3 -12  -3   10.94   17.16
   3 -12  -2   38.84   52.58
  -3 -12   2   39.69   44.83
   3 -12  -1   98.78   22.66
  -3 -12   1   74.02   67.33
   3 -12   0   26.58   42.74
  -3 -12   0   17.75   29.35
   3 -12   1   16.19   28.35
  -3 -12  -1   12.36   21.14
   3 -12   2   73.46   97.40
  -3 -12  -2   98.04   19.22
   3 -12   3   32.65   30.66
  -3 -12  -3   21.02   29.56
   3 -12   4   24.70   31.36
  -3 -12  -4   33.59   52.51
  -4   0  16    3.94    9.02
  -4   0  16    2.97    7.27
  -4   0  15   53.95   63.15
  -4   0  15   53.15   50.27
  -4   0  14  122.53   22.15
  -4   0  14  147.10   20.00
  -4   0  13  153.43   22.71
  -4   0  13  133.40   16.66
  -4   0  12  157.66   20.79
  -4   0  12  131.78   31.23
   4   0 -12  117.76   11.87
  -4   0  11    5.17   11.75
  -4   0  11    8.04   10.68
   4   0 -11    3.14    7.23
  -4   0  10  237.52   20.35
  -4   0  10  234.66   33.29
   4   0 -10  229.67   15.38
  -4   0   9    7.60   15.03
  -4   0   9    5.55    4.97
   4   0  -9    4.40    3.45
  -4   0   8   27.51   26.67
  -4   0   8   26.41   16.76
   4   0  -8   28.38    4.48
   4   0  -8   21.98    8.64
  -4   0   7  156.26   19.77
  -4   0   7  156.56   20.25
   4   0  -7  160.70   11.98
   4   0  -6  705.85   39.05
  -4   0   6  647.23   33.80
   4   0  -5   44.84   10.56
  -4   0   5   38.22   29.06
   4   0  -4  506.06   49.26
  -4   0   4  518.41   34.76
   4   0  -3  576.50   28.42
  -4   0   3  583.49   31.71
   4   0  -2    7.64    5.26
  -4   0   2    4.31   11.03
  -4   0   2    5.87    3.33
   4   0  -1  466.53   31.70
  -4   0   1  493.54   34.00
  -4   0   1  497.65   31.51
   4   0  -1  443.24   28.73
   4   0   0 1074.31   54.59
  -4   0   0 1086.79   49.23
  -4   0   0 1215.42   51.18
   4   0   0 1230.03   51.80
   4   0   1  351.89   24.93
   4   0   1  375.18   32.54
  -4   0  -1  399.47   28.94
   4   0   2   33.02    7.44
   4   0   2   29.54   21.42
  -4   0  -2   29.92    7.49
   4   0   3  180.57   15.91
   4   0   3  168.91   15.86
  -4   0  -3  176.64   18.27
   4   0   4  416.28   30.56
   4   0   4  507.34   37.49
  -4   0  -4  450.58   34.62
   4   0   5   28.68   24.81
   4   0   5   31.75   30.42
  -4   0  -5   32.40   29.31
   4   0   6  186.11   16.31
   4   0   6  191.54   20.55
  -4   0  -6  185.18   20.72
   4   0   7  231.11   23.10
   4   0   7  242.12   28.06
  -4   0  -7  226.78   28.10
   4   0   8  439.84   47.82
   4   0   8  428.84   37.32
  -4   0  -8  433.96   39.82
   4   0   9   23.26   20.11
   4   0   9   21.25   19.12
  -4   0  -9   20.40   13.47
   4   0  10  206.13   27.24
   4   0  10  211.22   26.11
  -4   0 -10  216.88   37.88
   4   0  11  324.41   41.74
   4   0  11  319.42   31.14
  -4   0 -11  387.77   43.57
   4   0  12   25.96   22.08
   4   0  12   25.63   14.20
  -4   0 -12   21.31   20.32
   4   0  13   38.93   29.95
   4   0  13   38.61   14.78
  -4   0 -13   38.09   44.95
   4   0  14   57.78   55.11
   4   0  14   86.00   37.71
  -4   0 -14  109.16   90.43
   4   0  15   43.68   51.11
   4   0  15   46.64   44.95
  -4   0 -15   45.27   47.52
   4   0  16   -1.91   14.52
   4   0  16   -4.05   13.25
  -4   0 -16    2.93   11.71
  -4  -1  16   48.79   43.61
  -4   1  16   38.31   40.16
  -4  -1  16   48.17   22.19
  -4   1  15  214.55   80.10
  -4  -1  15  217.90   50.17
  -4   1  15  227.16   32.02
  -4  -1  15  204.40   30.60
  -4   1  14   26.24   30.17
  -4  -1  14   28.54   29.57
  -4   1  14   27.43   30.68
  -4  -1  14   27.72   27.23
  -4  -1  13   51.03   54.03
  -4   1  13   61.52   55.28
  -4  -1  13   42.56   42.89
  -4   1  13   76.74   26.69
  -4   1  12  423.21   39.43
  -4  -1  12  459.76   42.99
  -4   1  12  444.73   35.66
  -4  -1  12  468.53   40.23
   4  -1 -12  426.65   31.24
   4   1 -12  426.37   32.23
  -4   1  11  117.47   65.83
  -4  -1  11  152.75   23.44
  -4  -1  11  133.55   22.83
  -4   1  11   98.53   15.00
   4  -1 -11  145.15   13.92
   4   1 -11  111.95   13.90
  -4  -1  10   50.18   33.30
  -4   1  10   75.55   45.92
  -4  -1  10   52.56   35.89
  -4   1  10   66.93    9.94
   4  -1 -10   45.87    4.83
   4   1 -10   55.73   17.94
  -4   1   9  757.09   55.25
  -4  -1   9  805.91   55.27
  -4   1   9  750.20   49.29
  -4  -1   9  754.40   50.36
   4  -1  -9  862.98   53.28
   4   1  -9  792.87   48.64
  -4   1   9  702.96   43.55
  -4  -1   8  245.97   24.68
  -4   1   8  273.54   26.54
  -4  -1   8  235.72   21.92
  -4   1   8  322.55   32.50
   4  -1  -8  271.00   19.67
   4   1  -8  254.42   19.81
  -4   1   8  257.18   20.05
   4   1  -7  172.88   20.42
  -4   1   7  196.98   50.85
  -4  -1   7  162.32   26.33
  -4   1   7  182.98   17.83
   4   1  -7  161.27   13.83
   4  -1  -7  158.36   12.88
   4   1  -7  160.58   15.71
   4   1  -6  425.12   29.93
  -4   1   6  364.09   24.79
  -4   1   6  388.02   31.83
  -4  -1   6  534.95   31.02
   4   1  -6  426.86   19.61
   4   1  -6  403.03   19.89
   4  -1  -5 1154.42   58.45
   4   1  -5 1196.74   58.85
  -4  -1   5 1069.01   52.75
  -4   1   5 1131.98   54.76
   4   1  -5 1032.42   44.73
   4  -1  -4  142.67   16.15
   4   1  -4  134.36   13.78
  -4  -1   4  135.57   14.42
  -4   1   4  165.90   14.92
  -4  -1   4  133.30    9.69
   4   1  -4  142.98    9.30
   4  -1  -3  463.14   32.12
   4   1  -3  524.16   32.61
  -4  -1   3  501.94   34.53
  -4   1   3  612.84   30.39
  -4  -1   3  478.06   30.21
  -4   1   3  540.60   21.82
  -4   1   3  559.90   23.41
   4  -1  -2 1178.74   54.61
   4   1  -2 1194.43   51.60
  -4  -1   2 1266.31   55.47
  -4   1   2 1137.08   50.57
  -4   1   2 1163.04   46.70
  -4  -1   2 1195.68   47.94
   4   1  -2 1156.11   47.38
  -4   1   2 1230.79   52.06
   4  -1  -1  989.01   43.54
   4   1  -1  884.39   47.81
  -4  -1   1 1072.76   48.09
  -4   1   1  904.57   41.72
  -4   1   1  859.51   37.37
  -4  -1   1 1040.23   42.58
   4   1  -1  869.12   37.29
  -4   1   1  916.37   39.39
   4  -1   0  569.29   28.98
   4   1   0  627.26   46.46
   4  -1   0  643.15   31.84
  -4  -1   0  616.07   31.55
  -4  -1   0  613.03   27.52
   4   1   0  586.43   27.61
  -4   1   0  630.54   30.11
   4  -1   0  602.64   28.16
   4  -1   1  597.66   28.21
   4   1   1  465.63   31.65
   4  -1   1  544.43   28.13
  -4  -1  -1  605.30   34.59
  -4  -1  -1  650.80   30.96
  -4   1  -1  533.84   28.14
   4  -1   2  499.99   33.15
   4   1   2  535.38   28.09
   4   1   2  665.57   33.39
   4  -1   2  500.66   36.90
  -4  -1  -2  570.97   29.24
  -4   1  -2  572.85   31.68
   4  -1   3  284.73   20.87
   4   1   3  196.51   16.58
   4   1   3  220.05   20.16
   4  -1   3  286.63   24.03
  -4  -1  -3  261.72   25.57
  -4   1  -3  207.28   22.84
   4  -1   4  997.33   44.62
   4   1   4  879.04   43.01
   4   1   4  912.63   44.97
   4  -1   4 1033.66   50.63
  -4  -1  -4 1020.26   51.01
  -4   1  -4  852.30   59.32
   4   1   5  924.10   46.81
   4  -1   5  687.48   38.71
   4   1   5  894.92   49.05
   4  -1   5  714.93   41.08
  -4  -1  -5  717.37   40.75
  -4   1  -5  863.48   54.65
   4  -1   6  377.52   23.19
   4   1   6  322.66   21.04
   4   1   6  312.00   23.33
   4  -1   6  386.98   32.13
  -4  -1  -6  373.99   25.77
  -4   1  -6  329.67   29.42
   4   1   7   13.88   11.98
   4  -1   7   11.13   10.79
   4   1   7    6.62    9.29
   4  -1   7   11.82   10.54
  -4  -1  -7   12.20   15.01
  -4   1  -7    5.65   13.07
   4  -1   8  631.38   48.74
   4   1   8  614.70   48.44
   4   1   8  694.31   56.32
   4  -1   8  641.72   52.76
  -4  -1  -8  690.82   56.46
  -4   1  -8  692.91   60.18
   4   1   9  304.98   32.02
   4  -1   9  346.26   27.68
   4   1   9  311.32   29.20
   4  -1   9  323.32   31.75
  -4  -1  -9  308.69   33.35
  -4   1  -9  322.18   34.12
   4  -1  10   11.60    7.47
   4   1  10   22.92   14.53
   4   1  10   30.34   20.64
   4  -1  10   13.77   14.37
  -4  -1 -10   15.76   19.81
  -4   1 -10   16.02   19.29
   4  -1  11   85.10   15.57
   4   1  11   81.09   30.60
   4   1  11   80.99   22.26
   4  -1  11   70.76   55.06
  -4  -1 -11   97.01   20.57
  -4   1 -11   93.29   72.14
   4  -1  12  343.30   52.59
   4   1  12  337.38   32.27
   4   1  12  353.94   33.93
   4  -1  12  396.94   52.74
  -4  -1 -12  367.83   34.55
  -4   1 -12  344.18   39.36
   4  -1  13   75.19   13.79
   4   1  13   83.48   17.93
   4   1  13   61.90   57.69
   4  -1  13   83.59   20.16
  -4  -1 -13   72.66   73.38
  -4   1 -13   74.63   71.80
   4  -1  14   22.68   17.10
   4   1  14   13.12   21.16
   4   1  14    9.16   24.43
   4  -1  14   14.99   13.85
  -4  -1 -14   23.17   32.28
  -4   1 -14   26.54   22.63
   4  -1  15   35.35   45.18
   4   1  15   25.71   27.36
   4   1  15   32.25   54.74
   4  -1  15   38.00   34.75
  -4  -1 -15   34.62   39.44
  -4   1 -15   46.95   53.90
   4  -1  16  126.96   19.00
   4   1  16  131.61   24.04
   4   1  16   98.59   20.69
   4  -1  16  116.24   22.75
  -4  -1 -16  152.03   25.97
  -4   1 -16  133.84   83.00
  -4  -2  16   30.29   34.86
  -4   2  16   31.74   42.78
  -4  -2  16   39.05   30.08
  -4   2  15   64.04   70.69
  -4  -2  15   55.16   57.76
  -4  -2  15   63.18   51.40
  -4   2  14  165.68   73.30
  -4  -2  14  176.24   32.49
  -4   2  14  160.70   27.39
  -4  -2  14  162.38   28.38
  -4  -2  13   43.42   28.21
  -4   2  13   56.33   67.45
  -4  -2  13   39.85   35.51
  -4   2  13   38.57   27.10
  -4   2  12   26.33   36.06
  -4  -2  12   27.70   27.88
  -4   2  12   22.12   17.00
  -4  -2  12   23.98   21.93
   4  -2 -12   18.28   19.54
   4   2 -12   20.03   19.31
  -4   2  11  137.04   17.11
  -4  -2  11  166.92   22.21
  -4  -2  11  148.71   28.32
  -4   2  11  159.80   14.49
   4  -2 -11  144.09    9.78
   4   2 -11  151.97   13.64
  -4   2  10  145.74   18.85
  -4  -2  10  146.21   14.67
  -4  -2  10  137.85   23.26
  -4   2  10  146.11   24.14
   4  -2 -10  137.27    8.79
   4   2 -10  132.33   13.65
  -4   2   9   22.39   13.75
  -4  -2   9   30.86   16.39
  -4  -2   9   29.93   10.20
  -4   2   9   20.27    8.74
   4  -2  -9   28.90    4.20
   4   2  -9   21.03   17.16
  -4   2   8  291.54   30.29
  -4  -2   8  325.46   40.28
  -4   2   8  279.07   23.07
   4   2  -8  280.37   22.10
   4  -2  -8  321.27   23.95
   4   2  -8  311.60   25.75
   4   2  -7  248.81   43.40
  -4   2   7  272.27   26.60
  -4  -2   7  238.19   28.48
  -4   2   7  236.07   23.78
   4   2  -7  241.05   20.26
   4  -2  -7  250.22   19.46
  -4   2   7  234.17   18.82
   4   2  -7  257.41   22.85
   4   2  -6  223.06   22.35
  -4   2   6  209.31   21.79
  -4  -2   6  265.27   24.21
  -4   2   6  195.88   15.29
   4  -2  -6  291.64   17.25
   4   2  -6  198.59   14.83
  -4   2   6  173.82   12.61
   4   2  -6  194.06   15.03
   4   2  -5   34.26    9.98
  -4   2   5   31.98    9.27
  -4  -2   5   43.75   10.05
  -4   2   5   33.44    6.23
  -4  -2   5   39.96    7.10
   4  -2  -5   35.47    4.35
   4   2  -5   36.99    6.72
  -4   2   5   35.98    3.82
   4  -2  -4  921.52   43.38
   4   2  -4  765.89   36.86
  -4  -2   4  848.56   42.05
  -4   2   4  746.78   35.07
   4  -2  -4  853.61   35.41
  -4  -2   4  815.53   35.26
  -4   2   4  712.95   29.18
   4   2  -4  812.54   33.54
   4  -2  -3  216.05   18.05
   4   2  -3  354.14   25.93
  -4  -2   3  201.39   19.02
  -4   2   3  319.68   22.83
   4  -2  -3  228.01   15.95
  -4  -2   3  217.23   15.26
   4   2  -3  347.65   22.22
   4  -2  -2 1084.09   55.30
   4   2  -2 1205.03   55.17
  -4  -2   2 1193.18   54.13
  -4   2   2 1256.17   54.67
  -4   2   2 1249.90   52.21
  -4  -2   2 1180.07   51.33
   4   2  -2 1203.40   49.55
  -4   2   2 1341.40   55.68
   4  -2  -1  360.62   24.82
   4   2  -1  331.53   26.66
  -4  -2   1  400.99   29.46
  -4   2   1  325.45   21.71
  -4  -2   1  402.86   28.89
   4   2  -1  330.13   23.59
  -4   2   1  345.52   24.62
   4  -2   0  322.72   22.42
   4   2   0  489.43   37.34
   4  -2   0  318.23   23.09
  -4  -2   0  331.73   25.17
  -4  -2   0  349.03   23.47
  -4   2   0  518.13   37.04
   4  -2   1  401.78   27.07
   4   2   1  317.86   24.13
   4  -2   1  393.06   35.43
  -4  -2  -1  386.53   28.11
  -4  -2  -1  409.47   27.95
  -4   2  -1  310.90   25.57
   4  -2   2   74.95    9.57
   4   2   2   75.76   21.25
   4  -2   2   61.07    9.76
  -4  -2  -2   63.29    9.82
  -4  -2  -2   79.77   23.57
  -4   2  -2   64.35   10.64
   4  -2   3 1047.45   45.48
   4   2   3 1255.33   55.80
   4  -2   3 1064.54   53.14
  -4  -2  -3 1026.01   49.87
  -4  -2  -3 1046.77   50.26
  -4   2  -3 1210.90   58.44
   4  -2   4  997.99   48.07
   4   2   4  895.59   46.11
   4   2   4  950.27   49.48
   4  -2   4  964.79   51.86
  -4   2  -4  810.50   46.49
   4  -2   5   17.99   16.87
   4   2   5   20.51   13.74
   4   2   5   17.47   17.36
   4  -2   5    9.04   20.61
  -4  -2  -5   13.04   25.36
  -4   2  -5   29.19   18.84
   4  -2   6  149.09   16.45
   4   2   6  172.43   19.42
   4   2   6  190.80   24.72
   4  -2   6  169.34   24.72
  -4  -2  -6  178.94   22.18
  -4   2  -6  175.55   26.35
   4  -2   7  402.91   32.39
   4   2   7  513.39   48.76
   4   2   7  505.34   47.93
   4  -2   7  400.36   36.13
  -4  -2  -7  478.55   43.41
  -4   2  -7  549.49   52.05
   4   2   8   96.97   21.39
   4  -2   8   65.96    8.79
   4   2   8   78.45   37.45
   4  -2   8   66.49   15.19
  -4  -2  -8   89.08   14.77
  -4   2  -8   94.03   57.41
   4   2   9  299.33   28.31
   4  -2   9  300.00   24.40
   4   2   9  301.22   27.25
   4  -2   9  260.70   47.63
  -4  -2  -9  300.49   29.64
  -4   2  -9  267.20   35.73
   4  -2  10   14.29   10.54
   4   2  10   19.87   19.61
   4   2  10   22.97   16.96
   4  -2  10    7.88   24.95
  -4  -2 -10   11.04   12.15
  -4   2 -10   21.13   18.83
   4  -2  11  131.77   27.68
   4   2  11   76.18   58.81
   4   2  11   90.90   16.17
   4  -2  11  128.10   85.51
  -4  -2 -11  139.32   22.50
  -4   2 -11   77.33   25.89
   4  -2  12    4.77    7.91
   4   2  12    5.14    8.26
   4   2  12    4.06   12.45
   4  -2  12    7.49   10.58
  -4  -2 -12    7.15   12.84
  -4   2 -12    7.24   16.75
   4  -2  13   18.93   12.46
   4   2  13   36.13   20.94
   4   2  13   30.44   22.15
   4  -2  13   22.34   33.34
  -4  -2 -13   15.76   29.47
  -4   2 -13   28.12   37.47
   4  -2  14   78.18   13.18
   4   2  14  106.21   17.96
   4   2  14   72.46   33.54
   4  -2  14   80.01   62.44
  -4  -2 -14   81.69   74.07
  -4   2 -14   55.63   75.25
   4  -2  15   65.35   40.61
   4   2  15   66.41   50.70
   4   2  15   73.84   18.02
   4  -2  15   61.99   77.87
  -4  -2 -15   46.53   64.07
  -4   2 -15   89.85   27.31
  -4   3  16   39.30   31.72
  -4  -3  16  104.17   21.75
  -4  -3  16  105.18   18.47
  -4   3  15   32.56   38.99
  -4  -3  15   50.60   44.84
  -4  -3  15   49.78   47.37
  -4   3  14    6.84   15.12
  -4  -3  14    4.25    9.54
  -4  -3  14   -1.53   17.91
  -4   3  13   33.21   31.52
  -4  -3  13   39.98   30.05
  -4  -3  13   31.90   27.34
  -4   3  12  309.39   35.24
  -4  -3  12  295.15   34.06
  -4   3  12  319.34   24.84
  -4  -3  12  262.20   49.48
   4  -3 -12  254.83   20.13
   4   3 -12  269.95   26.87
  -4   3  11   24.33   22.55
  -4  -3  11   18.48   12.92
  -4   3  11   20.49   14.98
  -4  -3  11   12.59   23.64
   4  -3 -11   16.77   17.84
   4   3 -11   33.50   14.74
  -4   3  10   15.94   14.68
  -4  -3  10   15.51   11.55
  -4  -3  10   11.88   18.11
  -4   3  10   15.22   10.83
   4  -3 -10   21.38    7.52
   4   3 -10   28.79   22.10
  -4   3   9  737.87   58.86
  -4  -3   9  802.62   53.97
  -4  -3   9  813.10   56.00
  -4   3   9  764.39   48.31
   4  -3  -9  792.83   50.46
   4   3  -9  826.49   53.50
   4   3  -8  295.81   26.89
  -4   3   8  292.89   27.99
  -4   3   8  283.32   22.99
  -4  -3   8  289.94   37.01
   4  -3  -8  311.99   24.16
   4   3  -8  279.70   24.38
   4   3  -7   10.70   10.62
  -4   3   7   10.68   13.29
  -4  -3   7   19.42   14.43
  -4   3   7   13.38    7.34
   4  -3  -7   10.61    9.09
  -4   3   7   11.32    9.19
   4   3  -7   11.71    8.51
   4   3  -6   52.54   11.90
  -4   3   6   41.69    9.76
  -4  -3   6   38.51   24.47
  -4   3   6   55.51    7.02
  -4  -3   6   39.30    6.79
   4  -3  -6   37.63    6.51
  -4   3   6   43.16    5.34
   4   3  -5  938.09   47.56
  -4   3   5 1068.80   55.79
  -4  -3   5 1068.02   55.91
  -4   3   5 1118.77   52.61
  -4  -3   5 1044.24   49.76
   4  -3  -5  976.99   45.34
  -4   3   5  937.44   43.12
   4   3  -4   10.83   17.36
  -4   3   4    6.56   10.06
  -4  -3   4    1.80    8.57
  -4   3   4    9.41    5.25
   4  -3  -4    1.44    4.48
  -4  -3   4    2.04    3.87
  -4   3   4   11.00    7.40
   4  -3  -3  372.65   22.58
   4   3  -3  428.93   25.90
  -4  -3   3  403.76   26.44
  -4   3   3  432.13   31.02
   4  -3  -3  354.46   19.89
  -4  -3   3  360.24   26.48
  -4   3   3  417.59   20.96
   4  -3  -2 1118.32   52.71
   4   3  -2  925.16   43.47
  -4  -3   2 1150.08   52.01
  -4   3   2  944.92   52.90
   4  -3  -2 1028.60   44.86
  -4  -3   2 1015.14   46.25
   4  -3  -1  269.70   20.58
   4   3  -1  325.98   25.17
   4  -3  -1  285.05   21.52
  -4  -3   1  266.57   21.20
   4  -3  -1  251.99   19.79
  -4  -3   1  270.98   19.62
   4  -3   0  629.63   28.98
   4   3   0  707.15   34.60
   4  -3   0  599.98   29.96
  -4  -3   0  723.53   35.87
  -4  -3   0  659.67   33.87
  -4   3   0  719.42   35.01
   4  -3   1 1261.65   52.74
   4   3   1 1173.93   60.74
   4  -3   1 1428.28   62.88
  -4  -3  -1 1390.26   64.28
  -4  -3  -1 1331.30   65.82
  -4   3  -1 1293.15   57.82
   4  -3   2 1228.94   51.85
   4   3   2 1303.75   60.91
   4  -3   2 1383.92   65.07
  -4  -3  -2 1393.89   61.90
  -4  -3  -2 1402.25   60.51
  -4   3  -2 1446.88   73.44
   4  -3   3  457.15   24.48
   4   3   3  518.75   35.37
   4  -3   3  500.00   31.99
  -4  -3  -3  507.30   29.77
  -4  -3  -3  458.16   29.52
  -4   3  -3  530.80   37.51
   4  -3   4   82.64    9.24
   4   3   4   78.53   51.25
   4  -3   4  107.04   42.78
  -4  -3  -4  105.43   16.28
  -4  -3  -4   83.08   13.13
  -4   3  -4   68.38   17.27
   4  -3   5 1010.35   47.61
   4   3   5  865.27   45.50
   4  -3   5  881.51   48.94
  -4  -3  -5  947.49   50.40
  -4  -3  -5  944.12   50.35
  -4   3  -5  950.52   79.03
   4  -3   6   65.07   15.48
   4   3   6   41.23   34.34
   4   3   6   45.25   39.23
   4  -3   6   52.23   45.43
  -4  -3  -6   62.51   16.89
  -4   3  -6   57.32   21.94
   4  -3   7   25.24   20.46
   4   3   7   23.94   16.87
   4   3   7   25.65   14.69
   4  -3   7   24.94   20.09
  -4  -3  -7   36.64   25.16
  -4   3  -7   26.78   18.01
   4  -3   8   49.40    7.05
   4   3   8   81.15   14.60
   4   3   8   75.02   21.08
   4  -3   8   50.04   14.94
  -4  -3  -8   51.11   35.83
  -4   3  -8   74.02   23.65
   4  -3   9  365.24   25.99
   4   3   9  360.35   30.95
   4   3   9  334.42   28.34
   4  -3   9  354.48   32.62
  -4  -3  -9  394.98   41.87
  -4   3  -9  335.15   38.51
   4  -3  10  152.51   14.23
   4   3  10  163.96   17.50
   4   3  10  178.80   30.04
   4  -3  10  149.46   22.11
  -4  -3 -10  154.22   20.06
  -4   3 -10  175.59   31.27
   4  -3  11   46.82    9.21
   4   3  11   84.89   22.36
   4   3  11   91.77   19.62
   4  -3  11   48.79   19.20
  -4  -3 -11   62.45   42.66
  -4   3 -11   60.61   57.01
   4  -3  12  392.82   25.89
   4   3  12  475.22   35.93
   4   3  12  535.67   33.27
   4  -3  12  472.04   40.21
  -4  -3 -12  498.33   31.81
  -4   3 -12  461.77   45.90
   4  -3  13   61.86   26.52
   4   3  13  142.93   22.21
   4   3  13  118.21   16.63
   4  -3  13   84.79   72.40
  -4  -3 -13   94.54   60.66
  -4   3 -13  146.74   25.26
   4  -3  14   14.39   17.10
   4   3  14   28.25   25.77
   4   3  14   16.65   33.23
   4  -3  14   14.35   17.53
  -4  -3 -14   18.23   34.60
  -4   3 -14   37.61   26.37
   4   3  15  111.43   40.48
   4  -3  15  110.07   31.49
  -4  -3 -15  139.38   25.68
  -4   3 -15  113.49   30.67
  -4   4  16    7.23   17.75
  -4  -4  16   12.10   20.34
  -4   4  15  139.72   72.38
  -4  -4  15  129.38   18.88
  -4  -4  15  132.99   21.19
  -4   4  14  120.08   25.81
  -4  -4  14   83.40   49.34
  -4  -4  14  104.59   20.01
  -4   4  13   60.61   52.87
  -4  -4  13   82.79   39.66
  -4  -4  13   85.55   68.03
  -4   4  12    4.61   10.64
  -4  -4  12    6.41   11.52
  -4  -4  12   -2.53   13.61
   4  -4 -12    5.62    7.78
   4   4 -12   10.92   13.60
  -4   4  11   20.48   26.27
  -4  -4  11    9.24   16.19
  -4  -4  11   12.76   17.31
   4  -4 -11   20.12   15.36
   4   4 -11   35.45   22.45
  -4   4  10  285.64   39.14
  -4  -4  10  355.01   32.02
  -4   4  10  321.48   23.58
  -4  -4  10  363.00   35.80
   4  -4 -10  301.09   25.79
   4   4 -10  278.96   32.41
  -4   4   9  107.40   16.25
  -4  -4   9   83.98   12.45
  -4   4   9  102.47    9.78
  -4  -4   9   98.21   17.00
   4  -4  -9   99.00   12.06
   4   4  -9   96.08   25.89
   4   4  -8  156.23   16.21
  -4   4   8  137.57   17.81
  -4   4   8  142.91   15.68
  -4  -4   8  112.32   15.29
   4  -4  -8  107.44    9.11
   4   4  -8  138.56   26.81
   4   4  -7  586.89   49.58
  -4   4   7  645.96   53.25
  -4  -4   7  704.35   55.73
  -4   4   7  624.83   44.51
  -4  -4   7  680.83   50.82
   4  -4  -7  716.18   53.05
   4   4  -6  369.45   30.31
  -4   4   6  383.98   52.96
  -4  -4   6  352.89   30.97
  -4   4   6  378.82   27.85
  -4  -4   6  366.76   31.31
   4  -4  -6  386.29   31.03
   4   4  -5  301.95   21.36
  -4   4   5  302.26   23.90
  -4  -4   5  341.01   52.56
  -4   4   5  313.20   24.08
  -4  -4   5  288.71   22.10
   4  -4  -5  293.40   28.21
   4   4  -4  270.43   24.68
  -4   4   4  307.07   22.86
  -4  -4   4  274.27   25.60
  -4   4   4  294.86   19.49
   4  -4  -4  268.41   25.60
  -4  -4   4  280.00   31.46
   4   4  -3  773.26   41.39
  -4   4   3  723.71   37.85
  -4  -4   3  631.48   35.51
  -4   4   3  646.60   33.25
   4  -4  -3  621.18   35.81
  -4  -4   3  606.89   41.16
   4   4  -2   21.68    9.25
  -4   4   2   17.59    5.54
   4  -4  -2   23.19   14.94
  -4  -4   2   22.09   15.18
   4  -4  -2   19.91   18.99
  -4  -4   2   19.20   16.45
   4  -4  -1  399.48   22.89
   4   4  -1  360.86   23.90
   4  -4  -1  391.13   23.59
  -4  -4   1  356.73   22.96
   4  -4  -1  396.55   23.89
  -4  -4   1  384.21   22.71
   4  -4   0  158.50   13.49
   4   4   0  189.78   17.77
   4  -4   0  162.29   16.43
  -4  -4   0  138.92   14.32
   4  -4   0  154.13   19.71
  -4  -4   0  155.92   16.45
   4  -4   1  718.56   35.53
   4   4   1  732.62   43.56
   4  -4   1  594.42   36.97
  -4  -4  -1  724.19   38.63
  -4  -4  -1  725.76   47.81
   4  -4   2  350.62   19.02
  -4   4  -2  426.52   25.20
   4   4   2  398.80   25.63
   4  -4   2  354.15   23.48
  -4  -4  -2  360.32   27.84
  -4  -4  -2  404.29   26.63
  -4   4  -2  397.96   32.40
   4  -4   3  285.53   20.96
   4   4   3  194.84   18.71
  -4   4  -3  192.07   13.50
   4  -4   3  319.39   24.39
  -4  -4  -3  304.81   21.84
  -4  -4  -3  269.87   19.71
  -4   4  -3  195.49   25.13
   4  -4   4  157.45   14.70
   4   4   4  205.38   50.94
  -4   4  -4  185.17   15.03
   4  -4   4  176.29   21.83
  -4  -4  -4  140.09   16.36
  -4  -4  -4  160.94   17.60
  -4   4  -4  193.37   28.59
   4  -4   5   86.33    9.35
   4   4   5   60.58   12.07
   4  -4   5  142.96   23.10
  -4  -4  -5   81.18   12.77
  -4  -4  -5   74.19   13.01
  -4   4  -5   65.22   19.01
   4  -4   6  428.75   35.18
   4   4   6  360.95   32.97
   4  -4   6  392.36   35.85
  -4  -4  -6  430.69   35.54
  -4  -4  -6  428.30   36.64
  -4   4  -6  452.95   49.72
   4  -4   7  332.81   25.22
   4   4   7  295.37   25.21
   4  -4   7  271.61   26.31
  -4  -4  -7  337.02   27.58
  -4  -4  -7  305.82   27.20
  -4   4  -7  379.88   44.86
   4  -4   8  463.95   31.16
   4   4   8  411.02   32.06
   4   4   8  427.48   31.80
   4  -4   8  430.54   40.27
  -4  -4  -8  440.87   35.53
  -4   4  -8  471.36   45.64
   4  -4   9   82.09   10.59
   4   4   9   62.21   36.24
   4   4   9   72.14   21.94
   4  -4   9   82.67   77.20
  -4  -4  -9   80.01   55.30
  -4   4  -9   58.80   42.09
   4  -4  10   57.96   25.82
   4   4  10   41.52   35.65
   4   4  10   45.42   12.65
   4  -4  10   60.56   63.45
  -4  -4 -10   56.40   50.33
  -4   4 -10   46.60   46.92
   4  -4  11  178.49   21.37
   4   4  11  160.97   22.75
   4   4  11  168.17   20.49
   4  -4  11  176.47   26.02
  -4  -4 -11  187.52   23.82
  -4   4 -11  198.32   41.46
   4  -4  12    5.96    7.36
   4   4  12    8.95   18.57
   4   4  12    6.56   10.66
   4  -4  12    3.54   10.23
  -4  -4 -12   11.39   14.48
  -4   4 -12    5.57   14.50
   4   4  13   79.05   39.31
   4   4  13   78.65   13.09
   4  -4  13   87.21   82.46
  -4  -4 -13  104.77   19.94
  -4   4 -13  121.90   37.54
   4   4  14   90.08   95.54
   4  -4  14  123.05   25.73
  -4  -4 -14   68.29   89.57
  -4   4 -14   79.30   92.29
   4   4  15   29.81   28.53
   4  -4  15   31.26   38.85
  -4  -4 -15   31.21   33.91
  -4   4 -15   34.44   35.29
  -4   5  15   29.15   27.21
  -4  -5  15   23.90   38.61
  -4  -5  15   23.28   45.58
  -4   5  14   34.91   33.33
  -4  -5  14   22.12   26.58
  -4  -5  14   21.39   24.95
  -4   5  13   65.69   56.01
  -4  -5  13   68.00   37.45
  -4  -5  13   48.18   64.78
  -4   5  12  217.02   26.22
  -4  -5  12  244.57   22.21
  -4  -5  12  254.78   42.57
   4   5 -12  194.45   24.36
  -4   5  11  165.98   40.74
  -4  -5  11  159.34   18.11
  -4  -5  11  142.77   26.62
   4  -5 -11  174.67   18.15
   4   5 -11  176.63   29.65
  -4   5  10   16.99   17.07
  -4  -5  10   48.53   10.51
  -4  -5  10   20.10   26.22
   4  -5 -10   40.01   29.43
   4   5 -10   40.27   27.12
  -4   5   9  259.34   26.90
  -4  -5   9  215.62   23.50
  -4  -5   9  218.72   25.14
   4  -5  -9  227.55   20.01
   4   5  -9  226.97   23.44
   4   5  -8  209.85   18.75
  -4   5   8  200.64   23.65
  -4   5   8  218.61    8.61
  -4  -5   8  203.66   25.19
  -4  -5   8  200.71   35.34
   4  -5  -8  232.95   17.62
   4   5  -7  102.11   22.85
  -4   5   7   93.30   20.90
  -4  -5   7   86.30   13.52
  -4   5   7   93.81    5.12
  -4  -5   7   79.66   24.97
   4  -5  -7   88.31   11.04
   4   5  -6  368.42   28.55
  -4   5   6  382.69   32.93
  -4   5   6  369.73   23.76
  -4  -5   6  299.57   27.24
  -4   5   6  375.15   23.72
  -4  -5   6  340.63   26.78
   4  -5  -6  308.10   24.88
   4   5  -5  137.51   13.66
  -4   5   5  131.23   14.42
  -4   5   5  129.59   13.50
  -4  -5   5  177.74   17.08
  -4   5   5  149.82    7.95
  -4  -5   5  188.67   20.06
   4  -5  -5  180.46   14.85
   4   5  -4   36.85    8.72
  -4   5   4   38.62   25.29
  -4   5   4   35.74    5.28
  -4  -5   4   34.68   28.31
  -4   5   4   36.62    5.52
  -4  -5   4   38.83   11.03
   4  -5  -4   29.29   25.40
   4   5  -3   50.07    9.62
  -4   5   3   55.56    9.36
  -4  -5   3   52.64   31.07
  -4   5   3   61.68    9.26
   4  -5  -3   49.37   11.73
  -4  -5   3   42.00    8.53
   4   5  -2  809.00   43.00
  -4   5   2  816.81   42.25
   4  -5  -2  760.69   44.11
  -4  -5   2  768.85   53.98
   4  -5  -2  828.16   47.35
  -4  -5   2  742.65   45.52
   4   5  -1  263.99   24.27
  -4   5   1  289.45   17.34
   4  -5  -1  322.18   20.82
  -4  -5   1  323.49   23.47
   4  -5  -1  319.61   25.81
  -4  -5   1  303.38   21.65
   4   5   0    3.84    5.94
  -4   5   0    0.20    5.03
   4  -5   0   -0.26    7.91
  -4  -5   0   -4.79    8.44
   4  -5   0    5.62    6.10
  -4  -5   0    2.89    5.05
   4  -5   1  458.80   23.14
  -4   5  -1  449.00   22.39
   4   5   1  402.17   27.72
   4  -5   1  413.48   25.97
  -4  -5  -1  476.39   29.65
   4  -5   1  453.13   34.63
  -4  -5  -1  406.38   25.23
   4  -5   2  352.03   19.17
  -4   5  -2  454.08   23.73
   4   5   2  415.14   26.66
   4  -5   2  365.90   26.26
  -4  -5  -2  373.20   25.47
   4  -5   2  346.09   24.94
  -4  -5  -2  348.08   24.02
   4  -5   3   33.18   10.46
   4   5   3   14.10   15.09
  -4   5  -3   19.44    3.68
   4  -5   3   39.02   33.52
  -4  -5  -3   33.48   12.44
  -4  -5  -3   38.27   20.26
  -4   5  -3   18.61   10.61
   4  -5   4  405.38   29.02
   4   5   4  363.98   30.58
  -4   5  -4  375.85   26.75
   4  -5   4  454.32   39.92
  -4  -5  -4  438.26   35.69
  -4  -5  -4  434.70   37.22
  -4   5  -4  366.39   37.91
   4  -5   5  115.52    6.19
   4   5   5  152.59   31.54
  -4   5  -5  138.94    7.18
   4  -5   5  122.23   38.60
  -4  -5  -5  120.25   11.51
  -4  -5  -5  118.71   20.54
  -4   5  -5  154.21   22.45
   4  -5   6  207.27   14.83
   4   5   6  169.50   16.00
   4  -5   6  176.63   21.53
  -4  -5  -6  216.71   20.33
  -4  -5  -6  224.34   51.95
  -4   5  -6  177.66   27.03
   4  -5   7  103.38    7.46
   4   5   7  115.17   38.91
   4  -5   7  115.20   22.31
  -4  -5  -7  117.44   12.46
  -4  -5  -7  112.29   15.11
  -4   5  -7  130.90   25.68
   4  -5   8  111.86    7.35
   4   5   8  157.29   22.49
   4  -5   8  127.63   22.28
  -4  -5  -8  159.62   20.26
  -4  -5  -8  158.93   47.33
  -4   5  -8  169.45   34.01
   4  -5   9  410.43   27.56
   4   5   9  583.51   49.58
   4  -5   9  458.83   72.27
  -4  -5  -9  530.32   43.82
  -4  -5  -9  563.52   49.85
  -4   5  -9  549.56   59.85
   4   5  10    6.98   17.22
   4  -5  10    7.99   15.39
  -4  -5 -10    3.66   13.70
  -4  -5 -10   13.65   23.79
  -4   5 -10   10.29   32.32
   4   5  11   30.10   30.53
   4  -5  11   29.24   30.13
  -4  -5 -11   33.67   34.24
  -4  -5 -11   52.83   38.04
  -4   5 -11   31.48   28.25
   4   5  12  320.14   31.12
   4  -5  12  284.72   79.61
  -4  -5 -12  398.58   33.14
  -4   5 -12  357.38   42.64
   4   5  13    6.16   15.94
   4  -5  13   25.24   38.36
  -4  -5 -13   20.88   28.31
  -4   5 -13   14.43   31.89
   4   5  14    4.79    8.57
   4  -5  14    4.72   10.41
  -4  -5 -14   -9.20   20.03
  -4   5 -14    2.54   18.85
  -4   6  14  110.79   20.60
  -4  -6  14   97.52   23.59
  -4   6  13   41.95   47.80
  -4  -6  13   41.87   47.89
  -4  -6  13   50.15   42.60
  -4   6  12   13.26   14.58
  -4  -6  12    2.21   10.00
  -4  -6  12    7.17   18.82
   4   6 -12   14.80   16.37
  -4   6  11  178.13   23.16
  -4  -6  11  209.75   17.25
  -4  -6  11  231.42   27.20
   4  -6 -11  200.96   16.18
   4   6 -11  160.91   18.64
  -4   6  10   94.57   31.47
  -4  -6  10   67.03   10.69
  -4  -6  10   63.78   44.26
   4  -6 -10   87.76   16.39
   4   6 -10   92.31   19.88
  -4   6   9   35.29   28.52
  -4  -6   9   37.51    9.87
  -4  -6   9   56.49   37.50
   4  -6  -9   39.81   32.48
   4   6  -8   66.09   25.67
  -4   6   8   65.52   14.61
  -4  -6   8   66.09   41.59
  -4  -6   8   61.98   22.83
   4  -6  -8   74.17   13.63
   4   6  -7   42.64   31.75
  -4   6   7   40.13   35.49
  -4  -6   7   85.98   31.28
  -4  -6   7   59.31   10.92
   4  -6  -7   74.91   10.71
   4   6  -6   77.41   15.56
  -4   6   6   63.21   11.72
  -4  -6   6   93.35   20.38
  -4   6   6   62.70    3.87
  -4  -6   6   75.86   55.07
   4  -6  -6   87.13   10.67
   4   6  -5   42.15   11.15
  -4   6   5   43.90   10.74
  -4  -6   5   50.82   36.83
  -4   6   5   48.30    4.69
  -4  -6   5   52.65   13.28
   4  -6  -5   41.84    8.39
   4   6  -4  644.77   43.07
  -4   6   4  663.21   44.83
  -4  -6   4  741.90   52.44
  -4   6   4  622.45   38.92
  -4  -6   4  764.90   61.42
   4  -6  -4  718.91   56.15
   4   6  -3  227.79   22.27
  -4   6   3  229.80   37.43
  -4  -6   3  311.94   29.95
  -4   6   3  201.81   17.52
   4  -6  -3  310.46   28.96
  -4  -6   3  279.35   30.79
   4   6  -2   59.28   10.29
  -4   6   2   60.70    9.26
   4  -6  -2   43.46    6.16
  -4  -6   2   39.76   26.74
   4  -6  -2   42.12    9.78
  -4  -6   2   48.19   19.02
   4   6  -1   28.34   25.07
  -4   6   1   28.37   16.02
   4  -6  -1   62.35    9.16
  -4  -6   1   63.87   16.68
   4  -6  -1   60.15   27.45
  -4  -6   1   59.11   13.16
   4   6   0  192.71   18.97
  -4   6   0  193.43   17.02
   4  -6   0  188.29   18.77
  -4  -6   0  186.16   16.49
   4  -6   0  184.47   19.34
  -4  -6   0  181.22   14.51
  -4   6  -1  128.20    6.61
   4   6   1  114.92   12.07
  -4   6  -1  126.57    8.73
   4  -6   1  118.98   11.90
  -4  -6  -1  116.16   13.25
   4  -6   1  119.34   13.53
  -4  -6  -1  113.46   14.92
   4   6   2  117.38   47.73
  -4   6  -2  120.75    5.36
  -4   6  -2  114.53    5.74
   4  -6   2  115.19   16.04
  -4  -6  -2  120.07   13.04
   4  -6   2  131.00   25.00
  -4  -6  -2  118.13   12.37
   4   6   3  365.82   29.56
  -4   6  -3  384.47   23.88
   4  -6   3  252.01   23.56
  -4  -6  -3  303.23   24.18
  -4  -6  -3  301.08   28.97
   4   6   4  419.42   38.40
  -4   6  -4  401.70   23.94
   4  -6   4  441.16   40.98
  -4  -6  -4  431.49   31.80
  -4  -6  -4  413.57   32.51
  -4   6  -4  429.08   59.88
   4   6   5   29.75   14.42
   4  -6   5   37.72   30.62
  -4  -6  -5   31.30   24.51
  -4  -6  -5   49.79   26.59
  -4   6  -5   25.40   16.89
   4   6   6  145.66   16.77
   4  -6   6  144.34   18.96
  -4  -6  -6  142.05   15.97
  -4  -6  -6  152.24   22.41
  -4   6  -6  144.63   30.29
   4   6   7  235.71   24.41
   4  -6   7  269.26   31.71
  -4  -6  -7  295.98   24.95
  -4  -6  -7  296.81   29.43
  -4   6  -7  221.85   34.87
   4   6   8   24.85   19.80
   4  -6   8    4.56   12.51
  -4  -6  -8    6.91    9.78
  -4  -6  -8   15.65   17.89
  -4   6  -8   32.55   26.12
   4   6   9   11.21    8.83
   4  -6   9   -1.49   17.90
  -4  -6  -9    6.38    9.30
  -4  -6  -9    2.85   14.00
  -4   6  -9   -6.78   22.35
   4   6  10  140.75   19.19
   4  -6  10  127.49   24.90
  -4  -6 -10  157.61   15.20
  -4  -6 -10  155.75   23.15
  -4   6 -10  148.35   30.04
   4   6  11  118.32   25.74
   4  -6  11   68.13   89.97
  -4  -6 -11  113.41   21.89
  -4   6 -11  136.94   29.18
   4   6  12   17.64   29.40
   4  -6  12   23.00   29.50
  -4  -6 -12   18.28   25.74
  -4   6 -12   20.18   25.55
   4   6  13   23.42   28.07
   4  -6  13   21.85   30.73
  -4  -6 -13   18.54   26.79
  -4   6 -13   42.16   61.79
   4   6  14   58.04   73.83
   4  -6  14   66.29   94.00
  -4  -6 -14  118.96   25.46
  -4   6 -14   61.77  100.39
  -4   7  13   30.39   27.79
  -4  -7  13   18.45   36.63
  -4   7  12  103.82   18.57
  -4  -7  12  138.99   42.25
   4   7 -12  110.58   27.38
  -4   7  11   62.93   65.74
  -4  -7  11   64.83   32.86
  -4  -7  11   51.70   42.10
   4  -7 -11   58.37   25.09
   4   7 -11   43.99   55.49
  -4   7  10   61.84   36.90
  -4  -7  10   55.56   14.24
  -4  -7  10   43.99   38.10
   4  -7 -10   45.03   47.36
   4   7 -10   36.74   37.13
  -4   7   9  133.10   22.46
  -4  -7   9  116.34   14.39
  -4  -7   9  127.11   21.06
  -4  -7   9  116.32   34.07
   4  -7  -9  120.27   15.97
   4   7  -8  185.21   18.38
  -4   7   8  188.10   20.24
  -4  -7   8  190.87   30.73
  -4  -7   8  179.58   32.88
   4  -7  -8  210.29   21.34
   4   7  -7  130.13   12.44
  -4   7   7  147.49   32.63
  -4  -7   7  163.15   50.08
  -4  -7   7  152.14   18.13
   4  -7  -7  134.98   27.19
   4   7  -6   35.11   34.71
  -4   7   6   39.08   38.07
  -4  -7   6   74.39   37.83
  -4  -7   6   51.18   12.09
   4  -7  -6   55.34   53.09
   4   7  -5  746.84   26.25
  -4   7   5  758.74   28.37
  -4  -7   5  760.93   33.77
  -4  -7   5  672.58   58.38
   4  -7  -5  641.92   61.01
   4   7  -4  103.08   14.40
  -4   7   4  114.10   11.93
  -4  -7   4  122.14   34.13
  -4   7   4  112.74    7.61
   4  -7  -4  116.08   15.11
  -4  -7   4  106.02   18.40
   4   7  -3   55.73    9.56
  -4   7   3   71.22   12.08
  -4  -7   3   48.44   39.85
  -4   7   3   60.18   15.57
   4  -7  -3   56.11   48.21
  -4  -7   3   54.15   16.48
   4   7  -2  845.02   55.89
  -4   7   2  842.13   52.17
   4  -7  -2  916.97   55.94
  -4  -7   2  906.96   59.73
   4  -7  -2  958.78   63.81
  -4  -7   2  920.69   61.39
   4   7  -1  781.50   61.24
  -4   7   1  816.63   50.64
   4  -7  -1  799.92   51.23
  -4  -7   1  809.27   53.92
   4  -7  -1  912.60   63.60
  -4  -7   1  805.24   59.56
   4   7   0   74.49   12.22
  -4   7   0   73.38    6.73
   4  -7   0   84.21   10.92
  -4  -7   0   75.05   10.92
   4  -7   0   76.99   14.65
  -4  -7   0   78.47   17.36
   4   7   1  407.21   30.76
  -4   7  -1  425.10   26.24
   4  -7   1  429.76   35.60
  -4  -7  -1  456.00   33.08
   4  -7   1  455.65   35.90
  -4  -7  -1  396.98   36.76
   4   7   2  470.18   36.91
   4  -7   2  409.82   34.46
  -4  -7  -2  450.90   34.21
   4  -7   2  470.85   41.95
  -4  -7  -2  415.42   52.50
   4   7   3  129.26   18.67
   4  -7   3   91.31   16.01
  -4  -7  -3   96.53   13.78
   4  -7   3  107.44   22.30
  -4  -7  -3  102.89   15.62
   4   7   4   60.19   57.53
   4  -7   4   49.66   34.48
  -4  -7  -4   41.38   10.40
  -4  -7  -4   48.34   43.25
  -4   7  -4   56.14   39.52
   4   7   5  319.51   40.92
   4  -7   5  346.00   35.43
  -4  -7  -5  353.70   31.23
  -4  -7  -5  329.59   35.05
  -4   7  -5  325.09   50.01
   4   7   6  159.37   17.59
   4  -7   6  158.14   19.81
  -4  -7  -6  159.03   14.87
  -4  -7  -6  164.51   18.88
  -4   7  -6  148.04   51.58
   4   7   7   52.16   21.57
   4  -7   7   71.01   64.67
  -4  -7  -7   54.14   22.47
  -4  -7  -7   57.26   37.85
  -4   7  -7   48.53   65.78
   4   7   8  262.31   26.14
   4  -7   8  263.90   28.68
  -4  -7  -8  334.07   26.65
  -4  -7  -8  330.05   36.13
  -4   7  -8  311.59   48.30
   4   7   9  138.22   49.76
   4  -7   9  205.64   28.35
  -4  -7  -9  185.57   23.82
  -4   7  -9  100.49  106.22
   4   7  10    4.22   17.05
   4  -7  10   13.06   20.62
  -4  -7 -10    9.28   15.50
  -4   7 -10    1.78   15.65
   4   7  11   62.49   65.43
   4  -7  11   58.12   79.61
  -4  -7 -11   66.79   83.68
  -4   7 -11   60.76   79.83
   4   7  12   27.78   30.09
   4  -7  12   24.14   24.59
  -4  -7 -12   39.03   45.55
  -4   7 -12   31.46   35.67
   4   7  13   30.72   23.89
   4  -7  13   -3.29   20.88
  -4  -7 -13   12.59   22.65
  -4   7 -13   18.30   21.01
  -4   8  12   12.40   15.14
  -4  -8  12   16.33   21.35
   4   8 -12    8.67   14.99
  -4   8  11  121.33   17.64
  -4  -8  11  110.23   63.54
   4  -8 -11  101.30   15.21
   4   8 -11   95.56   60.80
  -4   8  10   29.65   25.23
  -4  -8  10   22.74   19.68
   4  -8 -10   17.89   18.21
  -4   8   9   13.51   10.15
  -4  -8   9    3.06   20.97
  -4  -8   9   12.50   14.00
   4  -8  -9   15.15   11.52
   4   8  -8   70.53    9.26
  -4   8   8   63.43   14.05
  -4  -8   8   44.36   40.86
  -4  -8   8   44.68   38.28
   4  -8  -8   57.56   14.61
   4   8  -7  138.34   14.12
  -4   8   7  121.51   14.55
  -4  -8   7   98.45   83.75
  -4  -8   7  147.20   37.01
   4  -8  -7  127.19   27.38
   4   8  -6  438.73   37.22
  -4   8   6  460.04   48.96
  -4  -8   6  423.16   36.06
  -4  -8   6  468.58   46.12
   4  -8  -6  420.60   36.08
   4   8  -5   21.70   19.09
  -4   8   5   20.49   16.96
  -4  -8   5   14.28   18.25
  -4  -8   5   17.66   22.21
   4  -8  -5   12.63   15.31
   4   8  -4  128.18   21.71
  -4   8   4  169.77   47.50
  -4  -8   4  119.71   23.26
   4  -8  -4  114.52   29.86
  -4  -8   4  104.44   17.17
   4   8  -3  185.58   18.73
  -4   8   3  183.04   22.65
  -4  -8   3  155.68   15.63
   4  -8  -3  175.31   19.19
  -4  -8   3  168.67   46.49
   4   8  -2  157.58   13.20
  -4   8   2  168.83   10.98
   4  -8  -2  153.72   11.03
  -4  -8   2  136.37   15.41
   4  -8  -2  166.61   20.60
  -4  -8   2  171.27   43.78
   4   8  -1  436.77   52.21
  -4   8   1  399.44   32.68
   4  -8  -1  350.22   36.45
  -4  -8   1  451.51   41.96
   4  -8  -1  460.74   46.39
  -4  -8   1  407.58   44.11
   4   8   0   87.32   47.56
  -4   8   0   85.51    6.72
   4  -8   0   40.59   34.72
  -4  -8   0   39.85   33.63
   4  -8   0   51.36   28.83
  -4  -8   0   42.35   41.77
   4   8   1  101.09   20.75
   4  -8   1  165.19   21.29
  -4  -8  -1  159.50   19.76
   4  -8   1  166.10   24.61
  -4  -8  -1  163.37   23.40
   4   8   2   13.22   11.76
   4  -8   2   17.49   14.99
  -4  -8  -2   21.76   12.08
   4  -8   2   18.37   23.68
  -4  -8  -2   19.36   16.71
   4   8   3   31.50   21.90
   4  -8   3   10.21   11.23
  -4  -8  -3   11.56    7.59
   4  -8   3   11.55   13.84
  -4  -8  -3    7.91    9.60
   4   8   4  132.13   25.19
   4  -8   4  123.56   34.01
  -4  -8  -4  130.72   14.53
   4  -8   4  151.12   62.25
  -4  -8  -4  134.40   22.51
   4   8   5   70.79   14.02
   4  -8   5   71.39   58.17
  -4  -8  -5   75.94   12.27
  -4  -8  -5   87.70   45.86
  -4   8  -5   83.31   91.36
   4   8   6  143.14   23.58
   4  -8   6  202.11   26.93
  -4  -8  -6  225.32   21.72
  -4  -8  -6  162.65   22.32
  -4   8  -6  135.17   28.87
   4   8   7  108.21   34.82
   4  -8   7   97.34   22.17
  -4  -8  -7   73.93   31.05
  -4   8  -7  102.51   73.72
   4   8   8   33.83   23.43
   4  -8   8   44.27   47.79
  -4  -8  -8   54.90   56.85
  -4   8  -8   30.53   26.06
   4   8   9   57.50   45.66
   4  -8   9   29.70   43.01
  -4  -8  -9   67.08   47.46
  -4   8  -9   41.20   32.09
   4   8  10   37.09   45.01
   4  -8  10   38.33   55.18
  -4  -8 -10   48.43   35.62
  -4   8 -10   54.93   32.93
   4   8  11   61.27   75.82
   4  -8  11  132.92   30.29
  -4  -8 -11   91.44   81.69
  -4   8 -11   61.93   80.88
   4   8  12   15.34   25.28
   4  -8  12   13.00   15.06
  -4  -8 -12   29.98   32.94
  -4   8 -12   12.75   26.48
  -4   9  11   16.31   20.30
  -4  -9  11   23.68   26.40
   4   9 -11   19.76   23.02
  -4   9  10    9.21    9.52
  -4  -9  10    8.30   11.94
  -4  -9  10    7.43   13.70
   4  -9 -10   11.37   15.02
  -4   9   9  159.73   18.14
  -4  -9   9  201.07   34.88
  -4  -9   9  175.41   61.17
   4  -9  -9  187.19   29.31
  -4   9   8   15.39   13.60
  -4  -9   8   16.18   19.59
  -4  -9   8   34.73   22.45
   4  -9  -8   23.35   29.96
  -4   9   7   28.08   28.91
  -4  -9   7   35.46   14.27
   4  -9  -7   26.88   44.52
  -4   9   6   84.57   26.04
  -4  -9   6  118.68   37.58
  -4  -9   6  114.06   20.55
   4  -9  -6  122.17   19.22
   4   9  -5  125.38   13.86
  -4   9   5  112.89   20.62
  -4  -9   5  107.21   17.02
  -4  -9   5  127.31   19.22
   4  -9  -5  145.55   24.51
   4   9  -4   77.41   29.49
  -4   9   4   67.14   16.72
  -4  -9   4   59.22   47.49
   4  -9  -4   74.91   19.03
  -4  -9   4   96.60   21.21
   4   9  -3    8.97   10.63
  -4   9   3    8.60    8.24
  -4  -9   3   18.58   16.02
   4  -9  -3   28.96   27.63
  -4  -9   3   20.88   20.34
   4   9  -2   81.83   26.17
  -4  -9   2   67.71   14.47
   4  -9  -2   56.58   47.17
  -4  -9   2   68.49   15.43
   4   9  -1  106.33   12.62
   4  -9  -1  107.25   20.07
  -4  -9   1  117.03   15.42
   4  -9  -1  138.16   19.80
  -4  -9   1  112.27   22.43
   4   9   0   15.93   21.73
   4  -9   0   18.01   13.76
  -4  -9   0   16.39   12.95
   4  -9   0   18.79   17.76
   4   9   1  177.43   25.83
   4  -9   1  159.19   16.84
  -4  -9  -1  179.38   18.77
   4  -9   1  174.34   78.01
  -4  -9  -1  168.13   24.21
   4   9   2  244.47   58.19
   4  -9   2  223.28   22.09
  -4  -9  -2  228.86   26.58
   4  -9   2  195.71   24.22
  -4  -9  -2  216.41   25.31
   4   9   3  104.78   15.15
   4  -9   3   58.02   46.94
  -4  -9  -3   79.53   10.78
   4  -9   3   52.76   58.09
  -4  -9  -3   71.24   60.63
   4   9   4   24.05   19.10
   4  -9   4   17.94   14.02
  -4  -9  -4   19.34   21.33
   4  -9   4   24.65   13.95
  -4  -9  -4   22.11   25.52
   4   9   5  341.62   26.68
   4  -9   5  334.04   27.89
  -4  -9  -5  355.46   29.59
  -4   9  -5  259.12   33.88
   4   9   6   10.80    7.57
   4  -9   6   10.68   12.67
  -4  -9  -6    9.48   13.10
  -4   9  -6   21.72   19.89
   4   9   7   17.87   21.18
   4  -9   7   14.54   22.98
  -4  -9  -7   15.56   19.60
  -4   9  -7   24.84   20.85
   4   9   8   69.86   78.31
   4  -9   8   47.47   66.44
  -4  -9  -8   65.03   65.39
  -4   9  -8  101.29   35.91
   4   9   9   66.26   41.96
   4  -9   9   55.75   69.26
  -4  -9  -9   60.68   50.42
  -4   9  -9   96.49   37.91
   4   9  10   10.85   11.00
   4  -9  10    3.96   13.03
  -4  -9 -10    9.10   11.96
  -4   9 -10   18.53   24.90
  -4 -10  10   42.77   56.27
  -4 -10  10   43.40   62.91
   4 -10 -10   72.45   16.54
  -4  10   9   15.93   31.47
  -4 -10   9   13.08   27.45
  -4 -10   9   17.69   27.57
   4 -10  -9   14.48   32.05
  -4  10   8  126.14   18.66
  -4 -10   8  126.52   23.14
  -4 -10   8  125.72   46.09
   4 -10  -8  131.81   23.01
  -4  10   7   33.17   43.23
  -4 -10   7   81.10   18.58
  -4 -10   7   67.67   73.57
   4 -10  -7   96.92   54.13
  -4  10   6   82.89   12.64
  -4 -10   6   54.01   40.06
  -4 -10   6  103.89   28.37
   4 -10  -6   84.53   70.25
  -4 -10   5   15.59   11.17
   4 -10  -5   14.05   17.66
  -4 -10   5   14.40   15.31
  -4 -10   4   33.39   34.78
  -4 -10   4   30.56   33.01
   4 -10  -4   32.51   39.42
  -4 -10   3   27.27   25.69
   4 -10  -3   28.37   21.73
  -4 -10   3   20.92   34.38
   4  10  -2   17.61   30.34
  -4 -10   2   28.59   31.27
   4 -10  -2   10.66   24.86
  -4 -10   2   16.16   30.21
   4  10  -1    2.91    6.96
  -4 -10   1    9.22   10.09
   4 -10  -1    6.01   12.57
  -4 -10   1   13.46   19.32
   4  10   0  143.31   14.44
  -4 -10   0  150.67   19.05
   4 -10   0  167.89   52.00
  -4 -10   0  163.11   37.30
   4  10   1   52.66   18.43
   4 -10   1   61.94   11.14
  -4 -10  -1   74.57   14.09
   4 -10   1   64.50   47.17
  -4 -10  -1   57.26   46.79
   4  10   2    4.01    7.14
   4 -10   2    2.74    5.60
  -4 -10  -2    2.57    4.21
   4 -10   2    4.66   10.02
  -4 -10  -2    2.52   13.04
   4  10   3  160.24   17.91
   4 -10   3  190.91   21.03
   4 -10   3  198.66   32.34
  -4 -10  -3  159.52   23.12
   4  10   4  247.21   20.43
   4 -10   4  259.95   24.65
   4 -10   4  291.72   30.36
  -4 -10  -4  226.49   38.74
   4  10   5    5.68   11.69
   4 -10   5    2.76    9.72
  -4 -10  -5    7.37   13.14
   4  10   6   31.24   32.02
   4 -10   6    5.47   17.09
  -4 -10  -6   15.16   24.42
  -4  10  -6   20.26   31.50
   4  10   7   95.97   22.28
   4 -10   7   40.12   70.94
  -4 -10  -7   72.01   65.43
  -4  10  -7   75.07   92.92
   4  10   8   14.55   11.72
   4 -10   8    8.54   19.27
  -4 -10  -8   13.42   18.25
  -4  10  -8   17.62   28.08
   4  10   9   21.19   28.65
   4 -10   9   10.33   23.44
  -4 -10  -9   19.32   28.82
  -4  10  -9   51.68   41.70
  -4 -11   7    7.65   19.70
  -4 -11   7   10.04   15.38
   4 -11  -7    4.95   10.76
  -4 -11   6   54.90   70.03
  -4 -11   6   76.82   19.92
   4 -11  -6   62.00   19.78
  -4 -11   5   17.05   27.22
   4 -11  -5   16.55   29.26
  -4 -11   5   21.26   17.73
  -4 -11   4   28.64   41.95
   4 -11  -4   26.65   48.45
  -4 -11   4   53.11   65.42
  -4 -11   3   18.48   18.10
   4 -11  -3   23.71   21.84
  -4 -11   3   11.74   15.46
  -4 -11   2   19.13   27.95
   4 -11  -2   24.19   33.41
  -4 -11   2   15.95   22.52
  -4 -11   1  237.26   22.76
   4 -11  -1  283.20   33.17
  -4 -11   1  267.22   30.93
  -4 -11   0    5.20   13.30
   4 -11   0    6.65   11.29
  -4 -11   0    4.84   11.10
   4  11   1   11.89   14.08
   4 -11   1   12.27   15.67
  -4 -11  -1    8.18   13.95
   4  11   2  240.79   18.78
   4 -11   2  244.05   32.50
  -4 -11  -2  247.65   34.54
   4  11   3    9.68    6.87
   4 -11   3    9.96   18.09
   4 -11   3   15.45   29.96
  -4 -11  -3    6.98   13.12
   4  11   4   17.87   28.42
   4 -11   4    9.20   20.18
   4 -11   4    5.93   14.31
  -4 -11  -4   12.58   23.94
   4  11   5   42.45   45.95
   4 -11   5   30.18   42.19
  -4 -11  -5   52.31   66.27
   4 -11   6   30.54   17.33
  -4 -11  -6   13.12   19.98
  -4  11  -6   -2.31   20.15
   4  11   7    7.25    8.27
  -4 -11  -7   13.61   15.59
  -4 -12   4   48.26   67.14
   4 -12  -4   46.76   89.96
  -4 -12   3   36.59   32.57
  -4 -12   3   41.11   54.79
   4 -12  -3   29.99   37.22
  -4 -12   2    1.30    8.56
  -4 -12   2    0.67    5.92
   4 -12  -1   33.56   43.26
  -4 -12   1   28.17   37.83
   4 -12   0   14.76   15.68
  -4 -12   0   24.20   24.80
   4 -12   1   26.05   52.92
  -4 -12  -1   13.92   31.29
   4 -12   2   46.74   66.43
  -4 -12  -2   21.09   36.05
   4 -12   3    2.31   15.05
  -4 -12  -3   -2.96   15.57
  -5   0  16  113.22   24.41
  -5   0  16  116.94   54.15
  -5   0  15  113.04   26.21
  -5   0  15  115.10   47.56
  -5   0  14   10.88   15.94
  -5   0  14    6.12    8.34
  -5   0  13   35.25   34.56
  -5   0  13   32.05   31.85
  -5   0  12  530.61   45.27
  -5   0  12  603.82   29.85
  -5   0  11   -1.18   13.26
  -5   0  11    0.37    8.47
  -5   0  10  213.68   25.19
  -5   0  10  210.69   23.72
  -5   0   9  133.69   18.72
  -5   0   9  133.56   19.12
  -5   0   8  104.48   18.60
  -5   0   8  118.45   13.02
   5   0  -7  794.51   60.79
  -5   0   7  845.66   62.65
   5   0  -6    8.18   16.55
  -5   0   6   13.94   12.20
   5   0  -5  252.30   25.67
  -5   0   5  238.79   20.59
   5   0  -4  144.04   15.87
  -5   0   4  160.87   17.13
   5   0  -3  112.33   15.33
  -5   0   3  156.59   41.03
  -5   0   3  124.86    8.49
  -5   0   3  108.60    7.88
   5   0  -2  148.24   15.88
  -5   0   2  142.30   15.49
  -5   0   2  155.82   14.12
   5   0  -2  135.71   10.27
   5   0  -1   65.15   40.87
  -5   0   1   48.37   10.27
  -5   0   1   57.06    7.96
   5   0  -1   43.83    6.79
   5   0   0   18.36   12.18
  -5   0   0   24.43   17.76
  -5   0   0   24.30   15.58
   5   0   1  648.51   34.36
  -5   0  -1  651.59   35.68
  -5   0  -1  664.09   41.13
   5   0   2  325.06   21.59
   5   0   2  329.40   26.75
  -5   0  -2  335.32   22.74
   5   0   3   26.33   13.05
   5   0   3   17.94   16.07
  -5   0  -3   23.16   24.45
   5   0   4   32.32   18.85
   5   0   4   41.22   31.86
  -5   0  -4   34.89   11.56
   5   0   5  218.81   27.25
   5   0   5  197.73   22.03
  -5   0  -5  231.87   27.31
   5   0   6  332.54   29.74
   5   0   6  358.89   33.54
  -5   0  -6  308.60   30.04
   5   0   7   69.55   11.17
   5   0   7   72.80   17.66
  -5   0  -7   68.95   15.10
   5   0   8   35.92   29.45
   5   0   8   36.89   29.22
  -5   0  -8   45.97   29.15
   5   0   9  196.24   24.46
   5   0   9  188.96   29.43
  -5   0  -9  190.90   30.38
   5   0  10   -0.15   11.44
   5   0  10    1.83   10.96
  -5   0 -10   -1.03   18.13
   5   0  11   33.27   29.25
   5   0  11   30.23   35.92
  -5   0 -11   28.08   36.63
   5   0  12  211.32   18.50
   5   0  12  222.70   29.24
  -5   0 -12  248.22   96.89
   5   0  13   33.26   24.23
   5   0  13   34.54   23.18
  -5   0 -13   31.23   28.47
   5   0  14   -0.92   12.43
   5   0  14    6.32   10.83
  -5   0 -14    8.48   18.43
   5   0  15  113.95   39.38
   5   0  15  152.99   64.61
  -5   0 -15  143.08   27.40
  -5   1  16   42.38   39.82
  -5  -1  16   54.12   47.56
  -5  -1  16   27.93   49.32
  -5  -1  15   44.49   30.55
  -5  -1  15   44.39   43.65
  -5   1  15   46.90   24.72
  -5  -1  14   63.08   18.92
  -5   1  14   31.17   19.21
  -5  -1  14   39.43   35.15
  -5   1  14   26.97   33.59
  -5   1  13   27.19   16.72
  -5  -1  13   26.80   28.49
  -5  -1  13   32.96   19.20
  -5   1  13   35.30   22.32
  -5  -1  12   92.00   17.64
  -5   1  12   75.93   17.59
  -5  -1  12   76.21   18.06
  -5   1  12   76.42   23.20
  -5  -1  11  125.20   16.58
  -5   1  11  134.75   90.49
  -5  -1  11   92.36   60.86
  -5   1  11  130.27   24.05
  -5   1  10  248.84   31.59
  -5  -1  10  293.70   32.17
  -5  -1  10  247.40   44.72
  -5   1  10  259.54   30.06
  -5  -1   9  456.62   37.06
  -5   1   9  454.85   36.41
  -5   1   9  508.80   35.91
  -5  -1   9  408.06   57.82
   5   1  -9  462.34   26.65
   5   1  -8  256.59   24.36
  -5   1   8  227.72   22.24
  -5  -1   8  173.53   14.74
  -5   1   8  243.65   21.44
   5   1  -7  709.59   55.94
  -5   1   7  542.98   44.69
  -5   1   7  704.43   59.78
  -5  -1   7  712.59   55.07
   5  -1  -6  794.16   44.91
   5   1  -6  761.47   44.33
  -5  -1   6  783.29   42.76
  -5   1   6  802.97   42.05
   5  -1  -5   34.06   11.93
   5   1  -5   35.37   25.58
  -5   1   5   33.66   29.84
  -5  -1   5   41.42   16.12
   5  -1  -4  488.63   29.61
   5   1  -4  447.19   28.73
  -5  -1   4  496.31   29.03
  -5   1   4  458.18   26.85
  -5  -1   4  479.63   21.61
   5  -1  -3  209.32   17.79
   5   1  -3  199.38   18.45
  -5  -1   3  229.31   22.14
  -5   1   3  225.09   19.71
  -5   1   3  230.81   15.07
  -5  -1   3  217.23   16.51
  -5   1   3  234.70   15.29
   5  -1  -2  143.66   18.65
   5   1  -2  138.76   14.34
  -5  -1   2  171.24   19.41
  -5   1   2  155.39   17.12
  -5   1   2  146.86   10.60
  -5  -1   2  140.95   13.16
  -5   1   2  158.21   12.44
   5   1  -2  142.77   11.27
   5  -1  -1  570.41   29.32
   5   1  -1  478.91   34.52
  -5  -1   1  532.95   30.27
  -5   1   1  505.15   36.91
  -5   1   1  488.18   32.90
  -5  -1   1  533.79   24.33
  -5   1   1  581.04   28.78
   5   1  -1  534.89   25.73
   5  -1   0  697.10   36.03
   5   1   0  696.86   43.96
  -5  -1   0  671.71   37.52
  -5   1   0  685.46   36.95
  -5  -1   0  716.80   32.43
  -5   1   0  771.11   43.63
   5  -1   1 1135.67   57.92
   5   1   1 1236.37   61.61
   5  -1   1 1238.94   63.79
  -5  -1  -1 1440.14   72.03
  -5  -1  -1 1389.74   65.55
  -5   1  -1 1240.26   61.02
   5  -1   2   89.28   37.87
   5   1   2   80.14   19.91
   5  -1   2   87.31   13.36
  -5  -1  -2   89.50   14.25
  -5  -1  -2   71.62   10.60
  -5   1  -2   84.26   14.06
   5  -1   3  823.59   43.30
   5   1   3  833.02   43.40
   5   1   3  831.12   47.56
   5  -1   3  793.63   51.91
  -5  -1  -3  861.83   47.99
  -5   1  -3  778.89   45.04
   5  -1   4  937.81   48.22
   5   1   4  706.84   38.39
   5   1   4  739.53   44.91
   5  -1   4  886.75   51.10
  -5  -1  -4  877.50   60.57
  -5   1  -4  696.39   41.67
   5  -1   5    7.35    7.31
   5   1   5    5.98    6.55
   5   1   5    5.63   11.50
   5  -1   5    8.95   10.57
  -5  -1  -5    9.62   14.48
  -5   1  -5   10.54   10.82
   5  -1   6  158.85   13.09
   5   1   6  172.58   16.26
   5   1   6  167.99   16.02
   5  -1   6  181.94   20.09
  -5  -1  -6  149.68   17.61
  -5   1  -6  183.32   18.95
   5   1   7  122.41   14.58
   5  -1   7  119.25   12.92
   5   1   7  149.96   50.48
   5  -1   7  129.11   21.43
  -5  -1  -7  134.92   21.96
  -5   1  -7  142.83   37.77
   5   1   8  101.53   15.51
   5  -1   8  131.71   14.52
   5   1   8  106.03   54.91
   5  -1   8  149.07   39.81
  -5  -1  -8  157.55   27.99
  -5   1  -8  107.08   21.82
   5  -1   9   95.86   14.15
   5   1   9   89.40   13.75
   5   1   9   82.78   16.30
   5  -1   9  126.70   29.30
  -5  -1  -9  100.16   18.56
  -5   1  -9   98.59   76.54
   5  -1  10  294.89   27.33
   5   1  10  280.85   52.84
   5  -1  10  293.99   37.18
   5   1  10  291.77   32.26
  -5  -1 -10  281.53   30.35
  -5   1 -10  320.72   35.12
   5   1  11  165.03   34.85
   5  -1  11  175.01   19.76
   5  -1  11  176.52   32.67
   5   1  11  167.79   21.49
  -5  -1 -11  187.33   30.61
  -5   1 -11  222.26   48.34
   5   1  12   10.86   14.53
   5  -1  12    5.63   14.26
   5   1  12    5.63    8.53
   5  -1  12    7.86    7.58
  -5  -1 -12    2.59   25.11
  -5   1 -12    8.49   21.41
   5   1  13   47.72   61.27
   5  -1  13   53.42   44.22
   5  -1  13   44.78   82.43
   5   1  13   47.80   44.19
  -5  -1 -13   79.09   22.25
  -5   1 -13   59.58   20.63
   5   1  14  147.13   23.99
   5  -1  14  124.94   17.89
   5  -1  14  125.01   21.45
   5   1  14  159.37   26.33
  -5  -1 -14  168.89   68.18
  -5   1 -14  138.04   26.25
   5   1  15   19.74   26.26
   5  -1  15   17.82   21.84
   5  -1  15   24.97   31.72
   5   1  15   25.88   37.56
  -5  -1 -15   11.94   25.29
  -5   1 -15   11.54   26.32
  -5  -2  16   50.24   50.43
  -5  -2  16   50.74   51.61
  -5   2  15  137.76   30.09
  -5  -2  15  114.97   60.94
  -5  -2  15  134.60   35.52
  -5  -2  14    6.14   16.94
  -5   2  14    8.91   11.81
  -5  -2  14   11.28   14.36
  -5   2  13   71.99   46.82
  -5  -2  13   56.56   46.71
  -5   2  13   84.69   12.29
  -5  -2  13   52.74   36.54
  -5   2  12  200.16   32.48
  -5  -2  12  209.05   35.28
  -5  -2  12  167.56   32.37
  -5   2  12  200.25   19.12
  -5   2  11   76.76   54.48
  -5  -2  11   47.03   40.82
  -5   2  11   70.98   18.05
  -5  -2  11   44.20   39.02
  -5   2  10  135.63   27.87
  -5  -2  10  115.83   15.46
  -5   2  10  130.81   16.88
  -5  -2  10   98.29   16.39
   5   2 -10  139.55   13.98
  -5   2   9  383.32   34.76
  -5  -2   9  381.67   32.08
  -5  -2   9  375.29   74.81
  -5   2   9  368.33   27.43
   5   2  -9  319.68   21.98
   5   2  -8   95.82   14.36
  -5   2   8   92.87   15.09
  -5  -2   8   65.21   45.14
  -5   2   8   72.31   14.49
   5  -2  -8   68.29    2.47
   5   2  -8   83.80    4.55
   5   2  -8   75.56   10.30
   5   2  -7   34.92   16.58
  -5   2   7   26.87   16.47
  -5  -2   7   21.82   19.42
  -5   2   7   26.47   23.33
   5   2  -7   30.09    5.03
   5   2  -7   27.13   10.61
   5   2  -6  323.19   39.56
  -5  -2   6  381.29   25.79
  -5   2   6  345.74   30.13
   5   2  -6  306.25   19.47
   5   2  -6  320.48   16.69
   5  -2  -5  758.72   55.48
   5   2  -5  888.81   47.37
  -5  -2   5  683.39   41.27
  -5   2   5  820.50   41.62
  -5  -2   5  691.11   34.59
  -5   2   5  779.85   34.11
  -5   2   5  732.31   32.99
   5  -2  -4  136.91   14.35
   5   2  -4  102.46   13.11
  -5  -2   4  143.13   18.19
  -5   2   4   98.41   11.52
  -5  -2   4  149.36   12.88
  -5   2   4  100.09    7.74
   5   2  -4   95.62   13.79
   5  -2  -3   96.40   11.96
   5   2  -3   68.48   11.33
  -5  -2   3  121.12   18.90
  -5   2   3   70.07    9.87
  -5   2   3   74.58   10.69
  -5  -2   3  102.26    9.83
   5   2  -3   77.26   13.96
  -5   2   3   68.16    7.65
   5  -2  -2 1203.80   66.10
   5   2  -2 1180.61   58.04
  -5  -2   2 1268.43   62.71
  -5   2   2 1147.56   57.56
  -5   2   2 1134.80   52.61
  -5  -2   2 1259.05   57.33
   5   2  -2 1109.59   52.74
  -5   2   2 1282.93   59.85
   5  -2  -1  199.36   17.56
   5   2  -1  186.20   17.83
  -5  -2   1  195.25   19.30
  -5   2   1  200.78   18.92
  -5  -2   1  186.04   19.69
  -5   2   1  211.57   21.95
   5  -2   0   89.94   10.07
   5   2   0  102.29   14.15
   5  -2   0  105.01   12.76
  -5  -2   0   80.99   12.30
  -5  -2   0   96.15   19.35
  -5   2   0   96.49   11.79
   5  -2   1  284.55   18.46
   5   2   1  252.69   23.84
   5  -2   1  275.83   19.70
  -5  -2  -1  319.67   22.88
  -5  -2  -1  277.33   17.52
  -5   2  -1  263.50   24.55
   5  -2   2  354.98   21.71
   5   2   2  457.85   28.56
   5  -2   2  369.70   24.99
  -5  -2  -2  391.95   26.54
  -5  -2  -2  395.76   31.38
  -5   2  -2  444.63   29.90
   5  -2   3   23.07   22.69
   5   2   3   15.91   20.23
   5  -2   3   19.60   12.16
  -5  -2  -3   18.06    9.49
  -5  -2  -3   22.63   16.36
  -5   2  -3   32.42   22.59
   5  -2   4  224.30   27.23
   5   2   4  251.91   24.66
   5  -2   4  222.75   24.64
  -5  -2  -4  239.11   23.29
  -5   2  -4  272.21   29.90
   5  -2   5  472.54   28.92
   5   2   5  336.58   24.34
   5   2   5  386.67   28.10
   5  -2   5  383.82   33.78
  -5  -2  -5  461.97   42.10
  -5   2  -5  340.88   30.24
   5  -2   6  505.38   39.70
   5   2   6  457.97   38.18
   5   2   6  468.78   58.85
   5  -2   6  453.54   39.83
  -5  -2  -6  552.82   47.14
  -5   2  -6  469.96   52.34
   5  -2   7   21.68   12.09
   5   2   7   16.87   13.46
   5   2   7    9.14   14.39
   5  -2   7   30.98   16.85
  -5  -2  -7   22.79   17.23
  -5   2  -7   19.51   27.28
   5  -2   8   73.69   10.54
   5   2   8   40.47   32.94
   5   2   8   43.63   23.83
   5  -2   8   75.56   53.23
  -5  -2  -8   88.17   72.34
  -5   2  -8   26.10   19.82
   5  -2   9  560.65   49.02
   5   2   9  538.90   63.63
   5   2   9  548.30   51.00
   5  -2   9  538.21   52.65
  -5  -2  -9  563.48   53.59
  -5   2  -9  559.94   57.04
   5  -2  10   21.70   21.47
   5   2  10   33.22   23.63
   5   2  10   43.07   25.25
   5  -2  10   20.21   29.09
  -5  -2 -10   28.24   30.32
  -5   2 -10   50.65   25.97
   5  -2  11    5.77    8.15
   5   2  11    7.32   11.79
   5   2  11    4.51   12.37
   5  -2  11    5.34   11.47
  -5  -2 -11    8.31   18.39
  -5   2 -11    5.01   11.77
   5  -2  12  354.65   22.21
   5   2  12  340.42   29.96
   5   2  12  339.05   52.87
   5  -2  12  361.81  100.83
  -5  -2 -12  389.61   40.76
  -5   2 -12  366.87   63.41
   5  -2  13   -3.33   10.26
   5   2  13    2.96    6.63
   5   2  13    5.85   11.72
   5  -2  13    8.72   15.60
  -5  -2 -13   10.50   12.71
  -5   2 -13   10.49   21.57
   5  -2  14   19.93   33.22
   5   2  14   18.29   21.17
   5   2  14   21.21   36.24
   5  -2  14   51.02   19.59
  -5  -2 -14   30.72   36.48
  -5   2 -14   54.35   29.30
   5  -2  15   16.01   14.25
   5   2  15    9.73   19.72
   5   2  15   21.96   21.91
   5  -2  15   34.45   50.28
  -5  -2 -15   13.97   18.08
  -5   2 -15   31.21   23.04
  -5   3  15   52.90   58.59
  -5  -3  15   26.60   33.17
  -5  -3  15   21.77   38.19
  -5   3  14   94.94   89.75
  -5  -3  14  100.73   15.81
  -5  -3  14  111.23   20.41
  -5   3  13   70.39   53.41
  -5  -3  13  112.43   21.04
  -5  -3  13  108.77   75.19
  -5   3  12    2.50    8.73
  -5  -3  12    0.53   13.01
  -5   3  12    3.48    6.90
  -5  -3  12   -2.24   14.06
  -5   3  11   20.51   17.01
  -5  -3  11   49.08   46.72
  -5  -3  11   53.23   36.90
  -5   3  11   37.01   24.14
  -5   3  10  288.37   70.29
  -5  -3  10  224.62   23.38
  -5  -3  10  201.23   34.66
  -5   3  10  248.22   20.88
   5   3 -10  236.58   20.04
   5   3  -9   35.22   32.30
  -5   3   9   37.41   36.61
  -5   3   9   33.65    7.00
  -5  -3   9   14.71   14.44
   5  -3  -9   12.68    9.28
   5   3  -9   26.55   17.98
   5   3  -8    7.48    8.77
  -5   3   8    6.81   19.87
  -5  -3   8    6.87    9.86
  -5   3   8    2.35    5.06
   5  -3  -8    8.72    8.96
   5   3  -8   -0.04    5.91
   5   3  -7  654.34   46.72
  -5   3   7  723.94   73.84
  -5  -3   7  769.49   53.33
  -5   3   7  716.85   48.61
   5  -3  -7  779.36   46.76
  -5   3   7  663.57   40.27
   5   3  -7  641.90   42.00
   5   3  -6   70.27   45.94
  -5   3   6   85.77   45.13
  -5  -3   6   40.78   20.36
  -5   3   6   73.45    9.16
   5  -3  -6   30.47    6.62
  -5  -3   6   33.97    6.85
   5   3  -6   76.68    5.50
  -5   3   6   62.11    4.34
   5   3  -5  367.18   25.93
  -5   3   5  346.44   24.71
  -5  -3   5  311.39   22.88
  -5   3   5  395.63   24.52
   5  -3  -5  356.94   19.46
  -5  -3   5  360.66   20.28
  -5   3   5  347.16   17.18
   5  -3  -4  778.18   45.81
   5   3  -4  711.81   38.34
  -5  -3   4  892.54   49.15
  -5   3   4  789.76   56.33
   5  -3  -4  852.60   42.00
  -5  -3   4  855.23   41.11
  -5   3   4  735.81   35.20
   5  -3  -3  394.52   25.11
   5   3  -3  506.37   30.03
  -5  -3   3  438.88   33.55
  -5   3   3  482.88   27.88
  -5   3   3  526.26   25.73
  -5  -3   3  427.69   23.21
   5  -3  -2   37.13   32.82
   5   3  -2   39.78   35.65
  -5  -3   2   40.75   28.97
  -5   3   2   46.98    9.07
  -5  -3   2   37.33   13.73
  -5   3   2   44.24   22.35
   5  -3  -1  557.67   30.89
   5   3  -1  532.18   33.08
   5  -3  -1  540.48   31.75
  -5  -3   1  511.50   30.56
  -5  -3   1  487.83   29.68
  -5   3   1  522.45   30.91
   5  -3   0   56.49    8.36
   5   3   0   58.10   11.45
   5  -3   0   62.40   25.69
  -5  -3   0   60.73   14.23
  -5  -3   0   57.03    7.77
  -5   3   0   71.88   13.38
   5  -3   1   74.98    9.40
   5   3   1  107.83   16.64
   5  -3   1   78.83   22.48
  -5  -3  -1   66.28   12.09
  -5  -3  -1   78.49    9.65
  -5   3  -1   80.95   13.38
   5  -3   2   38.20   27.60
   5   3   2   27.37   25.92
   5  -3   2   34.38   34.18
  -5  -3  -2   36.69   10.80
  -5  -3  -2   33.82   26.47
  -5   3  -2   21.69   10.23
   5  -3   3  297.42   18.38
   5   3   3  309.72   24.59
   5  -3   3  318.99   29.30
  -5  -3  -3  348.52   24.86
  -5  -3  -3  322.68   23.18
  -5   3  -3  337.90   31.60
   5  -3   4  235.35   20.46
   5   3   4  153.81   17.76
   5  -3   4  222.07   55.84
  -5  -3  -4  218.06   23.66
  -5  -3  -4  251.59   24.51
  -5   3  -4  163.75   26.33
   5  -3   5  332.22   30.68
   5   3   5  272.62   25.96
   5  -3   5  253.18   27.19
  -5  -3  -5  321.03   30.13
  -5  -3  -5  353.65   31.44
  -5   3  -5  285.43   42.38
   5  -3   6  477.98   32.12
   5   3   6  477.77   37.77
   5  -3   6  520.70   40.11
  -5  -3  -6  517.88   41.93
  -5   3  -6  566.07   48.69
   5  -3   7  459.33   35.63
   5   3   7  582.07   43.58
   5   3   7  592.75   45.77
   5  -3   7  501.33   58.97
  -5  -3  -7  575.23   66.54
  -5   3  -7  613.36   92.32
   5  -3   8  194.04   34.55
   5   3   8  262.14   76.63
   5   3   8  255.94   27.34
   5  -3   8  230.97   30.82
  -5  -3  -8  265.13   30.53
  -5   3  -8  258.06   39.08
   5  -3   9   61.01    9.79
   5   3   9   38.44   29.24
   5   3   9   62.38   41.47
   5  -3   9   47.85   45.48
  -5  -3  -9   64.26   53.32
  -5   3  -9   52.18   43.01
   5  -3  10   61.44   24.48
   5   3  10   24.76   21.99
   5   3  10   33.82   29.70
   5  -3  10   50.98   43.51
  -5  -3 -10   74.01   54.54
  -5   3 -10   27.02   38.85
   5  -3  11  139.44   32.24
   5   3  11  123.14   18.09
   5   3  11  152.47   19.39
   5  -3  11  152.51   23.61
  -5  -3 -11  164.97   26.74
  -5   3 -11  141.10   73.93
   5  -3  12    8.95    8.71
   5   3  12    6.14    9.05
   5   3  12    2.55    7.18
   5  -3  12    5.97   19.77
  -5  -3 -12   13.48   23.82
  -5   3 -12   23.21   23.28
   5  -3  13   29.35   26.18
   5   3  13    6.15   17.93
   5   3  13    8.89   14.73
   5  -3  13   37.71   47.84
  -5  -3 -13   29.79   16.40
  -5   3 -13   17.88   18.05
   5   3  14   81.85   19.85
   5   3  14   67.68   71.62
   5  -3  14   90.63   80.96
  -5  -3 -14  129.70   67.13
  -5   3 -14  109.60   27.96
  -5   4  15  205.61   28.15
  -5  -4  15  242.19   29.77
  -5  -4  15  232.13   27.10
  -5   4  14   28.36   35.37
  -5  -4  14   21.38   33.98
  -5  -4  14   31.99   28.59
  -5   4  13   44.01   40.18
  -5  -4  13   34.10   33.59
  -5  -4  13   32.05   24.06
  -5   4  12  343.35   29.36
  -5  -4  12  391.47   42.96
  -5  -4  12  393.17   34.46
  -5   4  11   35.67   40.93
  -5  -4  11   15.79   17.02
  -5  -4  11   13.91   11.34
  -5   4  10  140.71   21.33
  -5  -4  10  102.74   16.29
  -5   4  10  117.21   21.91
  -5  -4  10  119.02   25.14
   5   4 -10  129.96   20.68
   5   4  -9  149.14   54.41
  -5   4   9  154.52   23.11
  -5   4   9  181.06   11.09
  -5  -4   9  186.17   22.56
   5  -4  -9  224.90   17.01
   5   4  -9  147.30   25.90
   5   4  -8  128.64   13.71
  -5   4   8  129.26   19.71
  -5  -4   8  146.73   19.67
  -5   4   8  131.69   27.74
   5  -4  -8  146.92   10.39
   5   4  -8  116.67   11.55
   5   4  -7   19.78   10.06
  -5   4   7    7.92   12.06
  -5  -4   7   17.41   14.30
  -5   4   7   21.77   18.18
  -5  -4   7   23.49   17.44
   5  -4  -7   19.94   13.49
   5   4  -6  120.79   13.49
  -5   4   6  107.91   12.96
  -5  -4   6  126.81   13.88
  -5   4   6  115.67   10.90
  -5  -4   6  134.74   18.32
   5  -4  -6  129.94   17.97
   5   4  -5  383.74   33.53
  -5   4   5  378.48   34.58
  -5  -4   5  499.58   41.78
  -5   4   5  373.91   28.96
   5  -4  -5  450.17   38.58
  -5  -4   5  454.16   37.46
   5   4  -4  175.29   16.71
  -5   4   4  192.62   34.01
  -5  -4   4  187.00   17.29
  -5   4   4  186.56   17.40
   5  -4  -4  182.36   11.23
  -5  -4   4  195.39   19.62
   5  -4  -3  106.69   16.31
   5   4  -3   87.54   13.17
  -5  -4   3   97.55   17.16
  -5   4   3   87.77   11.41
   5  -4  -3   92.15   11.49
  -5  -4   3   82.35   10.68
   5  -4  -2  361.51   28.24
   5   4  -2  354.60   24.47
  -5  -4   2  346.90   26.92
  -5   4   2  329.96   21.91
   5  -4  -2  329.22   22.82
  -5  -4   2  359.61   33.78
   5  -4  -1  246.26   22.57
   5   4  -1  185.28   19.59
   5  -4  -1  253.54   24.59
  -5  -4   1  251.54   24.26
  -5  -4   1  237.95   21.84
   5  -4   0    1.68    3.75
   5   4   0   -0.86   10.85
   5  -4   0    5.06    7.40
  -5  -4   0    0.32    9.86
  -5  -4   0    5.85    7.13
  -5   4   0    0.20    9.50
   5  -4   1  291.41   18.33
   5   4   1  268.92   25.13
   5  -4   1  306.75   22.75
  -5  -4  -1  315.05   23.10
  -5  -4  -1  336.65   22.84
  -5   4  -1  297.91   26.50
   5  -4   2  495.29   26.06
   5   4   2  533.43   32.86
   5  -4   2  473.57   31.14
  -5  -4  -2  532.68   33.72
  -5  -4  -2  483.80   33.04
  -5   4  -2  598.71   39.79
   5  -4   3   93.17    7.39
   5   4   3   98.41   13.31
   5  -4   3  110.19   44.39
  -5  -4  -3  109.54   13.90
  -5  -4  -3  109.19   13.32
  -5   4  -3  110.93   21.98
   5  -4   4   85.22    8.44
   5   4   4   74.79   13.56
   5  -4   4   66.51   40.85
  -5  -4  -4   73.23   14.72
  -5  -4  -4   64.46   10.82
  -5   4  -4  100.42   24.18
   5  -4   5  206.52   16.26
   5   4   5  196.77   18.58
   5  -4   5  194.03   22.00
  -5  -4  -5  199.40   19.58
  -5  -4  -5  206.73   54.90
  -5   4  -5  220.77   42.50
   5  -4   6   99.03    8.86
   5   4   6  100.06   14.29
   5  -4   6   93.19   37.19
  -5  -4  -6  108.64   14.85
  -5  -4  -6   96.04   14.95
  -5   4  -6  100.44   22.23
   5  -4   7   54.95   22.71
   5   4   7   83.93   43.63
   5  -4   7   57.55   47.42
  -5  -4  -7   63.61   14.00
  -5  -4  -7   75.17   46.83
  -5   4  -7   69.53   59.18
   5  -4   8  386.07   29.05
   5   4   8  361.39   33.50
   5  -4   8  339.82   32.74
  -5  -4  -8  354.73   32.92
  -5  -4  -8  387.65   36.50
  -5   4  -8  378.85   45.24
   5  -4   9  121.19   14.84
   5   4   9   69.61   52.43
   5  -4   9  136.44   90.48
  -5  -4  -9  106.07   68.58
  -5   4  -9   78.21   28.22
   5  -4  10   69.65   11.09
   5   4  10   71.53   54.01
   5   4  10   87.77   16.56
   5  -4  10   66.47   53.63
  -5  -4 -10   73.52   47.33
  -5   4 -10   83.81   31.63
   5  -4  11  120.55   12.23
   5   4  11  133.36   20.61
   5   4  11  144.50   17.98
   5  -4  11  140.96   23.01
  -5  -4 -11  167.24   76.47
  -5   4 -11  113.99   94.28
   5   4  12   57.46   55.19
   5   4  12   68.40   15.48
   5  -4  12   30.12   52.60
  -5  -4 -12   39.11   34.54
  -5   4 -12   47.73   72.44
   5   4  13   18.72   26.07
   5   4  13    9.49   17.94
   5  -4  13   21.15   19.69
  -5  -4 -13   31.71   37.37
  -5   4 -13   12.95   32.41
   5   4  14    6.84   18.62
   5  -4  14    6.90   19.12
  -5  -4 -14    9.25   14.91
  -5   4 -14   -1.85   20.76
  -5   5  14  119.07   26.32
  -5  -5  14   80.96   16.72
  -5  -5  14   72.60   63.75
  -5   5  13   23.50   25.08
  -5  -5  13   29.66   39.55
  -5  -5  13   40.97   51.74
  -5   5  12   -1.53   18.10
  -5  -5  12    2.33    7.61
  -5  -5  12    9.78   15.15
  -5   5  11  246.90   55.02
  -5  -5  11  203.21   18.35
  -5  -5  11  173.33   20.42
  -5   5  10  158.41   23.01
  -5  -5  10  155.82   19.16
  -5  -5  10  178.68   55.17
   5   5 -10  161.83   18.57
   5   5  -9  116.12   42.37
  -5   5   9  111.50   40.70
  -5  -5   9  114.29   20.01
   5  -5  -9  107.44   15.07
   5   5  -9  121.56   16.75
   5   5  -8   98.92   13.04
  -5   5   8  102.00   16.12
  -5  -5   8  139.81   62.55
  -5   5   8  115.23    8.13
  -5  -5   8  118.32   24.16
   5  -5  -8  122.01   19.30
   5   5  -7  172.17   19.41
  -5   5   7  181.06   38.30
  -5  -5   7  160.53   20.93
  -5   5   7  179.02   16.31
  -5  -5   7  144.73   17.78
   5  -5  -7  132.52   13.97
   5   5  -6  501.70   72.19
  -5   5   6  474.12   36.28
  -5  -5   6  412.98   42.58
  -5   5   6  452.05   30.02
   5  -5  -6  454.79   31.69
  -5  -5   6  443.10   33.59
   5   5  -5   47.49    9.52
  -5   5   5   67.76   13.55
  -5  -5   5   51.33   43.49
  -5   5   5   65.15   20.91
   5  -5  -5   55.18    6.93
  -5  -5   5   49.84    8.86
   5   5  -4  245.62   21.28
  -5   5   4  256.03   22.23
  -5  -5   4  217.77   21.36
  -5   5   4  283.06   22.44
   5  -5  -4  270.98   20.83
  -5  -5   4  247.19   22.50
   5   5  -3  497.71   55.48
  -5   5   3  444.70   35.67
  -5  -5   3  442.93   37.40
  -5   5   3  446.25   36.11
   5  -5  -3  459.22   37.48
  -5  -5   3  471.13   39.33
   5   5  -2  365.24   33.35
  -5   5   2  343.22   31.21
  -5  -5   2  414.29   36.27
   5  -5  -2  404.42   33.14
  -5  -5   2  363.24   29.87
   5  -5  -1  229.89   20.47
   5   5  -1  192.99   24.09
   5  -5  -1  226.23   30.83
  -5  -5   1  215.97   23.92
   5  -5  -1  221.18   26.08
  -5  -5   1  217.53   20.58
   5  -5   0  386.64   29.46
   5   5   0  452.96   42.06
   5  -5   0  417.73   35.21
  -5  -5   0  353.53   30.29
   5  -5   0  363.87   40.06
  -5  -5   0  352.99   29.15
   5  -5   1  710.38   51.12
   5   5   1  645.39   50.55
   5  -5   1  686.84   60.69
  -5  -5  -1  698.58   57.59
  -5  -5  -1  708.50   54.91
  -5   5  -1  712.25   56.56
   5  -5   2   44.94    6.20
   5   5   2   31.69   25.16
   5  -5   2   44.81   11.18
  -5  -5  -2   42.11   40.63
  -5  -5  -2   42.42   20.71
  -5   5  -2   38.79   40.29
   5  -5   3  193.36   20.76
   5   5   3  208.85   20.58
   5  -5   3  229.47   27.03
  -5  -5  -3  215.84   22.47
  -5  -5  -3  202.02   15.58
  -5   5  -3  213.03   26.44
   5  -5   4  515.43   32.89
   5   5   4  457.77   64.10
   5  -5   4  487.24   41.10
  -5  -5  -4  552.67   40.51
  -5  -5  -4  486.71   39.42
  -5   5  -4  551.89   48.38
   5  -5   5    4.02    2.61
   5   5   5    7.89    9.36
   5  -5   5    8.33   12.50
  -5  -5  -5   16.48   14.97
  -5  -5  -5    5.42    5.86
  -5   5  -5   17.57   23.31
   5  -5   6  136.85    9.44
   5   5   6  125.49   27.17
   5  -5   6  136.06   23.65
  -5  -5  -6  158.70   15.80
  -5  -5  -6  162.94   23.64
  -5   5  -6  132.12   29.01
   5  -5   7  335.53   30.91
   5   5   7  391.63   48.87
   5  -5   7  391.46   38.47
  -5  -5  -7  386.03   31.60
  -5  -5  -7  386.39   34.95
  -5   5  -7  399.00   46.14
   5  -5   8   52.43    7.17
   5   5   8   20.65   17.55
   5  -5   8   54.76   52.40
  -5  -5  -8   53.82   46.43
  -5  -5  -8   62.17   48.86
  -5   5  -8   34.29   22.32
   5   5   9   16.07   14.43
   5  -5   9   11.51   20.49
  -5  -5  -9    7.03    7.98
  -5  -5  -9   13.06   16.30
  -5   5  -9    7.58   12.79
   5   5  10  173.36   99.09
   5  -5  10  113.39   26.24
  -5  -5 -10  160.70   18.97
  -5  -5 -10  147.68   64.24
  -5   5 -10  181.70   31.44
   5   5  11   85.86   86.64
   5  -5  11  106.47   23.54
  -5  -5 -11  109.10   20.68
  -5  -5 -11   91.10   20.22
  -5   5 -11  140.80   53.45
   5   5  12    7.65   11.13
   5  -5  12   11.04   11.98
  -5  -5 -12   -0.56    6.91
  -5  -5 -12    0.00   12.39
  -5   5 -12    8.29   24.14
   5   5  13   53.56   40.78
   5  -5  13   58.10   82.27
  -5  -5 -13   61.20   62.02
  -5   5 -13   53.22   49.84
   5   5  14   64.05   73.67
   5  -5  14   67.69   60.97
  -5  -5 -14   65.57   72.26
  -5   5 -14  118.82   38.27
  -5   6  14    9.71   15.27
  -5  -6  14   10.36   12.60
  -5  -6  14    7.96   18.02
  -5   6  13   36.23   46.63
  -5  -6  13   24.75   32.65
  -5  -6  13   29.96   37.33
  -5   6  12   91.49   85.80
  -5  -6  12   96.84   14.53
  -5  -6  12   77.54   53.49
  -5   6  11   43.75   43.44
  -5  -6  11   39.75   47.85
  -5  -6  11   51.44   37.73
  -5   6  10   37.05   30.50
  -5  -6  10   32.56    9.79
  -5  -6  10   21.95   29.65
   5   6 -10   34.82   25.18
   5   6  -9  162.44   17.93
  -5   6   9  152.28   23.05
  -5  -6   9  168.24   36.17
  -5  -6   9  170.48   50.61
   5  -6  -9  193.40   19.23
   5   6  -8  132.08   28.38
  -5   6   8  115.75   18.04
  -5  -6   8  149.84   26.38
  -5  -6   8  180.58   36.90
   5  -6  -8  161.42   20.81
   5   6  -7   18.13   10.65
  -5   6   7   14.71   15.48
  -5  -6   7   -0.42   15.49
  -5  -6   7   21.57   23.70
   5  -6  -7   15.27   20.66
   5   6  -6  113.58   12.70
  -5   6   6  130.17   23.65
  -5  -6   6  116.96   30.82
  -5   6   6  119.94    8.28
   5  -6  -6  117.16   18.16
  -5  -6   6  112.12   19.87
   5   6  -5  178.68   15.15
  -5   6   5  167.61   19.76
  -5  -6   5  125.72   16.29
  -5   6   5  183.76   18.81
   5  -6  -5  140.95   13.26
  -5  -6   5  135.63   16.16
   5   6  -4   43.86    9.82
  -5   6   4   62.41   13.61
  -5  -6   4   43.02   34.67
  -5   6   4   59.84    8.63
   5  -6  -4   34.77   28.34
  -5  -6   4   33.06   33.11
   5   6  -3   58.55   25.13
  -5   6   3   46.84   33.52
  -5  -6   3   59.57   52.80
  -5   6   3   63.19    9.28
   5  -6  -3   77.98   26.39
  -5  -6   3   60.87   14.64
   5   6  -2  772.89   54.50
  -5   6   2  768.15   49.47
   5  -6  -2  733.55   58.13
  -5  -6   2  756.18   51.40
   5  -6  -2  797.65   54.25
  -5  -6   2  736.69   60.25
   5   6  -1  202.13   16.00
  -5   6   1  203.83   13.19
   5  -6  -1  251.33   20.57
  -5  -6   1  207.62   21.01
   5  -6  -1  228.85   26.52
  -5  -6   1  237.77   23.26
   5   6   0  171.77   15.41
  -5   6   0  187.53   12.01
   5  -6   0  183.47   15.64
  -5  -6   0  172.20   16.83
   5  -6   0  175.22   18.83
  -5  -6   0  172.80   17.96
   5   6   1   34.74   25.46
  -5   6  -1   44.11    6.03
   5  -6   1   88.74   14.26
  -5  -6  -1   84.50   14.01
   5  -6   1  113.77   18.56
  -5  -6  -1   87.28   15.58
   5  -6   2  588.39   39.81
   5   6   2  474.49   35.64
   5  -6   2  642.81   47.45
  -5  -6  -2  584.46   49.03
  -5  -6  -2  582.65   45.06
  -5   6  -2  471.55   52.68
   5  -6   3  163.76    9.17
   5   6   3  168.75   17.87
   5  -6   3  166.28   20.48
  -5  -6  -3  154.46   15.77
  -5  -6  -3  145.17   33.91
  -5   6  -3  191.23   37.44
   5  -6   4  130.44    6.68
   5   6   4  108.81   16.58
   5  -6   4  122.71   15.96
  -5  -6  -4  135.77   28.89
  -5  -6  -4  158.25   55.02
  -5   6  -4  100.69   28.93
   5  -6   5  120.82    7.89
   5   6   5  131.84   20.19
   5  -6   5  127.76   19.47
  -5  -6  -5  121.95   13.34
  -5  -6  -5  134.00   20.24
  -5   6  -5  163.82   35.00
   5   6   6  137.93   18.99
   5  -6   6  142.60   54.49
  -5  -6  -6  132.58   14.24
  -5  -6  -6  171.34   23.85
  -5   6  -6  181.11   31.47
   5   6   7   58.06   57.28
   5  -6   7   75.31   29.47
  -5  -6  -7   67.99   11.81
  -5  -6  -7   80.96   17.72
  -5   6  -7   67.59   21.76
   5   6   8  104.03   73.47
   5  -6   8  129.65   22.55
  -5  -6  -8  147.75   17.51
  -5  -6  -8  142.98   18.90
  -5   6  -8  157.63   33.08
   5   6   9  134.78   19.53
   5  -6   9  196.92   27.63
  -5  -6  -9  207.93   19.57
  -5  -6  -9  198.29   21.24
  -5   6  -9  150.19  109.82
   5   6  10   15.02   19.11
   5  -6  10   16.05   17.92
  -5  -6 -10   17.18   20.51
  -5  -6 -10   15.90   12.05
  -5   6 -10   23.10   23.55
   5   6  11   13.65   17.12
   5  -6  11   11.35    7.98
  -5  -6 -11    3.51   15.46
  -5   6 -11   23.63   32.46
   5   6  12  124.24   22.94
   5  -6  12  153.00   32.66
  -5  -6 -12  176.87   62.73
  -5   6 -12  136.41  121.56
   5   6  13   36.26   60.95
   5  -6  13   20.23   28.58
  -5  -6 -13   31.84   22.87
  -5   6 -13   50.11   34.87
  -5   7  13   48.59   55.02
  -5  -7  13   42.88   53.13
  -5   7  12    7.60   19.45
  -5  -7  12    5.21   16.03
  -5   7  11   42.55   49.47
  -5  -7  11   37.43   47.56
  -5  -7  11   45.17   62.61
  -5   7  10   70.25   56.94
  -5  -7  10   88.81   13.62
  -5  -7  10   76.85   69.90
   5   7 -10   77.11   14.66
   5   7  -9   30.12   31.38
  -5   7   9   31.02   27.76
  -5  -7   9   19.74   16.72
  -5  -7   9   16.96   23.45
   5  -7  -9   19.67   28.35
   5   7  -8    9.20    8.57
  -5   7   8    6.35   10.83
  -5  -7   8    3.06   12.71
  -5  -7   8    7.15   15.40
   5  -7  -8   18.01   15.96
   5   7  -7  135.44   17.08
  -5   7   7  140.90   20.47
  -5  -7   7  142.45   18.37
  -5  -7   7  167.45   44.06
   5  -7  -7  129.03   16.97
   5   7  -6  137.08   31.19
  -5   7   6  126.59   36.08
  -5  -7   6   98.15   17.03
   5  -7  -6  116.10   17.94
  -5  -7   6  108.54   15.70
   5   7  -5   23.98   23.41
  -5   7   5   22.63   18.06
  -5  -7   5   37.47   24.40
   5  -7  -5   36.75   28.68
  -5  -7   5   30.73   22.01
   5   7  -4   99.22   11.44
  -5   7   4  117.41   13.61
  -5  -7   4  121.42   32.27
  -5   7   4  111.79   10.38
   5  -7  -4  137.30   16.85
  -5  -7   4  129.05   14.95
   5   7  -3   60.87   12.89
  -5   7   3   49.23   27.85
  -5  -7   3   31.34   29.12
  -5   7   3   60.03   17.93
   5  -7  -3   30.39   30.55
  -5  -7   3   40.75   24.25
   5   7  -2   10.91   11.04
  -5   7   2    4.08    7.26
   5  -7  -2    2.80    4.97
  -5  -7   2    8.10    9.63
   5  -7  -2   -1.37   11.21
  -5  -7   2   -2.40   10.32
   5   7  -1  105.89   12.90
  -5   7   1  114.45    9.81
   5  -7  -1   99.22   12.67
  -5  -7   1   89.39   12.83
   5  -7  -1   97.48   14.75
  -5  -7   1   98.24   17.75
   5   7   0  150.83   41.51
  -5   7   0  127.01   10.35
   5  -7   0  139.42   16.79
  -5  -7   0  134.31   27.24
   5  -7   0  170.59   25.84
  -5  -7   0  138.48   21.26
   5   7   1  267.21   32.33
  -5   7  -1  261.16   22.87
   5  -7   1  243.60   25.49
  -5  -7  -1  249.29   29.47
   5  -7   1  221.89   26.51
  -5  -7  -1  223.34   51.01
   5   7   2    9.54   12.97
  -5   7  -2    6.41    4.92
   5  -7   2   10.06   11.28
  -5  -7  -2    0.32    7.73
  -5  -7  -2    6.56   12.52
   5   7   3  537.65   64.75
   5  -7   3  522.49   41.98
  -5  -7  -3  513.09   38.64
  -5  -7  -3  521.66   51.86
  -5   7  -3  606.15   53.42
   5   7   4  108.82   16.48
   5  -7   4  154.21   29.15
  -5  -7  -4  146.40   13.59
  -5  -7  -4  157.24   21.29
  -5   7  -4   91.89   18.98
   5   7   5   54.69   38.90
   5  -7   5   56.33   46.86
  -5  -7  -5   58.95   14.01
  -5  -7  -5   57.09   50.47
  -5   7  -5   59.87   46.08
   5   7   6  227.96   56.53
   5  -7   6  196.27   25.41
  -5  -7  -6  190.84   35.77
  -5  -7  -6  215.14   25.37
  -5   7  -6  213.92   34.69
   5   7   7   64.08   49.52
   5  -7   7   81.77   20.52
  -5  -7  -7   71.77   11.53
  -5  -7  -7   63.27   59.11
  -5   7  -7   88.29   32.43
   5   7   8   76.01   57.23
   5  -7   8   62.13   51.49
  -5  -7  -8  100.30   14.71
  -5  -7  -8  104.74   39.89
  -5   7  -8   84.07   28.94
   5   7   9   10.29   12.17
   5  -7   9    2.39   11.35
  -5  -7  -9   -6.18   16.68
  -5   7  -9    5.54   14.06
   5   7  10  158.18   21.65
   5  -7  10  154.28   55.85
  -5  -7 -10  197.08   30.02
  -5   7 -10  166.77  118.89
   5   7  11  122.25   21.23
   5  -7  11  141.71   27.81
  -5  -7 -11  196.98   26.08
  -5   7 -11  156.02   47.06
   5   7  12   16.27   31.74
   5  -7  12   19.27   24.25
  -5  -7 -12   21.89   31.15
  -5   7 -12   11.18   18.85
  -5   8  12   20.63   24.42
  -5  -8  12   32.49   49.72
  -5   8  11   69.93   62.42
  -5  -8  11   90.03   64.58
  -5   8  10   18.97   22.97
  -5  -8  10   18.67   22.29
  -5   8   9   97.46   42.83
  -5  -8   9  125.50   48.43
  -5  -8   9  117.16   18.61
   5  -8  -9   91.97   43.78
   5   8  -8   91.01   12.82
  -5   8   8   86.94   16.62
  -5  -8   8  101.67   18.54
  -5  -8   8  101.50   16.79
   5  -8  -8  105.51   16.84
   5   8  -7   27.08   18.44
  -5   8   7   41.84   36.15
  -5  -8   7   41.88   37.61
  -5  -8   7   30.23   39.54
   5  -8  -7   40.65   39.44
   5   8  -6  131.02   14.19
  -5   8   6  138.39   23.44
  -5  -8   6  136.22   26.00
   5  -8  -6  120.11   34.99
  -5  -8   6  123.33   17.74
   5   8  -5   90.96   11.61
  -5   8   5   90.41   13.82
  -5  -8   5   95.85   22.57
  -5  -8   5   95.02   22.38
   5  -8  -5  113.42   16.56
   5   8  -4  117.33   14.80
  -5   8   4   93.48   11.15
  -5  -8   4   84.76   55.61
   5  -8  -4   90.98   48.81
  -5  -8   4   97.45   17.66
   5   8  -3    5.69    8.68
  -5   8   3    2.33    6.59
  -5  -8   3    1.53    9.72
   5  -8  -3    2.78    5.40
  -5  -8   3   -0.97   12.30
   5   8  -2   27.77   24.87
  -5   8   2   30.62   28.29
   5  -8  -2   62.28   11.12
  -5  -8   2   56.45   42.34
   5  -8  -2   64.57   48.72
  -5  -8   2   84.50   19.67
   5   8  -1  371.25   32.31
  -5   8   1  403.13   31.40
   5  -8  -1  393.31   32.97
  -5  -8   1  438.69   40.17
   5  -8  -1  380.45   38.34
  -5  -8   1  436.94   39.14
   5   8   0   10.14   17.57
   5  -8   0    9.45   14.56
  -5  -8   0   11.75   16.75
   5  -8   0   11.23   12.42
  -5  -8   0   19.14   12.74
   5   8   1  252.85   54.23
   5  -8   1  213.95   24.26
  -5  -8  -1  251.66   24.94
   5  -8   1  209.85   26.97
  -5  -8  -1  228.78   28.53
   5   8   2  320.58   29.53
   5  -8   2  264.69   27.15
  -5  -8  -2  282.60   25.92
   5  -8   2  263.41   57.48
  -5  -8  -2  275.22   30.32
   5   8   3   17.66   14.33
   5  -8   3   22.08   22.65
  -5  -8  -3   33.84   24.81
  -5  -8  -3   36.11   21.09
  -5   8  -3   13.70   20.68
   5   8   4   85.84   45.56
   5  -8   4   69.93   60.37
  -5  -8  -4   74.34   13.75
  -5  -8  -4   53.92   33.94
  -5   8  -4   60.67   44.07
   5   8   5  251.38   28.46
   5  -8   5  161.89   20.71
  -5  -8  -5  188.45   19.76
  -5  -8  -5  176.01   21.34
  -5   8  -5  243.04   35.59
   5   8   6    6.49   20.72
   5  -8   6   19.36   19.38
  -5  -8  -6   21.56   20.35
  -5  -8  -6   32.93   21.96
  -5   8  -6   26.92   33.46
   5   8   7    5.12   12.57
   5  -8   7   14.60   18.87
  -5  -8  -7    8.18   12.47
  -5   8  -7   10.73   13.28
   5   8   8   23.65   33.86
   5  -8   8   16.87   24.39
  -5  -8  -8   28.10   29.08
  -5   8  -8   45.43   32.56
   5   8   9   62.52   47.28
   5  -8   9   55.75   69.07
  -5  -8  -9   86.80   53.81
  -5   8  -9   70.31   35.84
   5   8  10    3.97   15.37
   5  -8  10    4.32   16.50
  -5  -8 -10    8.40   17.40
  -5   8 -10    4.76   19.02
   5   8  11   19.09   35.15
   5  -8  11   11.75   21.49
  -5  -8 -11    2.19   12.33
  -5   8 -11    8.25   27.10
  -5   9  10    7.89   14.41
  -5  -9  10    8.53   16.11
  -5  -9  10    9.09   13.52
  -5   9   9    8.90    8.78
  -5  -9   9   16.75   36.88
  -5  -9   9   13.72   23.47
   5  -9  -9   14.99   19.29
  -5   9   8  110.23   52.48
  -5  -9   8  132.98   24.98
  -5  -9   8  137.28   25.85
   5  -9  -8   99.21   17.30
  -5   9   7  128.46   14.96
  -5  -9   7  110.94   56.51
  -5  -9   7  139.94   24.39
   5  -9  -7  134.20   19.63
   5   9  -6   95.67   18.55
  -5   9   6   86.72   15.53
  -5  -9   6   97.94   18.87
   5  -9  -6  126.13   16.39
  -5  -9   6   97.55   16.83
   5   9  -5   10.51    8.40
  -5   9   5    3.18    4.74
  -5  -9   5    4.50   12.01
  -5  -9   5    1.49    9.38
   5  -9  -5    4.19    8.89
   5   9  -4   68.09   13.72
  -5   9   4   70.83   14.60
  -5  -9   4   98.19   18.64
   5  -9  -4   95.80   15.38
  -5  -9   4   77.91   52.59
   5   9  -3  222.98   34.45
  -5  -9   3  195.59   21.75
   5  -9  -3  241.34   26.90
  -5  -9   3  217.14   25.62
   5   9  -2   11.94   13.82
  -5  -9   2   11.21   14.43
   5  -9  -2   23.17   22.85
  -5  -9   2   15.33   21.39
   5   9  -1   12.78   12.86
   5  -9  -1   22.00   19.10
  -5  -9   1   26.24   27.57
   5  -9  -1   46.68   42.10
  -5  -9   1   37.90   20.39
   5   9   0  117.34   15.38
   5  -9   0  115.38   15.09
  -5  -9   0  113.27   15.43
   5  -9   0  112.12   22.14
  -5  -9   0  115.51   18.52
   5   9   1   68.74   13.05
   5  -9   1   87.61   21.48
  -5  -9  -1   66.50   10.57
   5  -9   1   93.45   24.53
  -5  -9  -1   82.86   57.03
   5   9   2    7.55   14.23
   5  -9   2   -4.30    9.50
  -5  -9  -2    0.94    5.15
   5  -9   2    5.28   11.34
  -5  -9  -2    3.77    9.82
   5   9   3  142.39   20.83
   5  -9   3  169.22   19.78
  -5  -9  -3  166.06   16.78
   5  -9   3  168.72   24.68
  -5  -9  -3  165.72   22.03
   5   9   4  239.73   52.65
   5  -9   4  202.46   25.90
  -5  -9  -4  197.56   30.35
  -5  -9  -4  201.99   61.04
  -5   9  -4  203.42   37.37
   5   9   5   24.54   17.81
   5  -9   5   29.26   32.02
  -5  -9  -5   30.89   33.81
  -5   9  -5   27.17   44.82
   5   9   6   72.98   68.98
   5  -9   6   95.44   17.21
  -5  -9  -6  113.54   25.81
  -5   9  -6   90.83  102.29
   5   9   7   51.17   51.36
   5  -9   7   63.76   18.42
  -5  -9  -7   48.01   40.08
  -5   9  -7   65.19   63.53
   5   9   8    7.10   10.51
   5  -9   8   12.62   16.19
  -5  -9  -8   14.65   18.14
  -5   9  -8    6.01   23.42
   5   9   9   24.55   33.29
   5  -9   9   26.32   36.07
  -5  -9  -9   32.11   37.68
  -5   9  -9   41.59   41.36
  -5  10   9   11.59   22.87
  -5 -10   9   13.71   18.47
  -5 -10   9   14.76   28.67
  -5  10   8  119.50   15.66
  -5 -10   8  100.28   18.80
  -5 -10   8   99.35   33.36
   5 -10  -8   92.62   31.45
  -5  10   7    4.61    5.10
  -5 -10   7    5.54    7.79
  -5 -10   7   -1.68   14.96
   5 -10  -7    6.29   13.56
  -5 -10   6   22.65   29.43
   5 -10  -6   13.97   32.29
  -5 -10   6   19.16   25.93
  -5 -10   5  237.53   24.97
  -5 -10   5  224.66   27.52
   5 -10  -5  220.95   25.72
  -5 -10   4    3.75    7.34
   5 -10  -4    5.18    9.72
  -5 -10   4    8.26   13.09
   5  10  -3   26.82   39.55
  -5 -10   3   15.24   12.72
   5 -10  -3   23.76   27.70
  -5 -10   3   15.92   19.78
   5  10  -2  218.49   16.91
  -5 -10   2  219.42   23.49
   5 -10  -2  253.39   30.92
  -5 -10   2  235.95   28.82
   5  10  -1    4.89    5.12
  -5 -10   1    0.64    4.92
   5 -10  -1   -3.10   12.62
  -5 -10   1    4.12   13.35
   5  10   0    3.03    6.69
  -5 -10   0    2.89    7.08
   5 -10   0   -5.33   14.39
  -5 -10   0    0.05   19.37
   5  10   1   69.82   12.76
   5 -10   1   81.99   14.93
  -5 -10  -1   78.57   45.88
   5 -10   1   63.88   71.53
  -5 -10  -1   67.50   78.75
   5  10   2   41.17   41.22
   5 -10   2    8.74   15.94
  -5 -10  -2   18.65   20.16
   5 -10   2   25.20   30.49
  -5 -10  -2   19.78   27.11
   5  10   3    2.55    4.62
   5 -10   3    3.17    8.77
   5 -10   3    2.24    9.73
  -5 -10  -3   -0.36    9.05
   5  10   4   12.22    9.82
   5 -10   4   10.99   13.15
  -5 -10  -4   16.83   19.11
  -5  10  -4   10.66   14.82
   5  10   5   45.98   41.56
   5 -10   5   66.83   62.61
  -5 -10  -5   75.20   70.85
  -5  10  -5   64.06   72.97
   5  10   6   18.14   17.47
   5 -10   6   19.44   32.19
  -5 -10  -6   15.68   24.15
  -5  10  -6   17.60   23.64
   5  10   7   12.30   16.67
   5 -10   7   17.20   35.70
  -5 -10  -7   22.54   24.98
  -5  10  -7   38.01   22.24
   5  10   8   29.58   41.38
   5 -10   8   53.40   23.02
  -5 -10  -8   42.35   63.58
  -5  10  -8   63.45   29.15
  -5 -11   6   55.23   58.42
   5 -11  -6   28.82   56.71
  -5 -11   6   34.66   56.92
  -5 -11   5    5.50   16.74
   5 -11  -5    9.66   22.99
  -5 -11   4   30.65   49.48
   5 -11  -4   34.21   43.12
  -5 -11   4   30.57   45.67
  -5 -11   3   37.95   48.79
   5 -11  -3   64.15   37.52
  -5 -11   3   50.54   50.03
  -5 -11   2    5.95    9.21
   5 -11  -2   -4.11   13.31
  -5 -11   2    4.60   11.82
  -5 -11   1   15.79   16.51
   5 -11  -1   21.24   22.00
  -5 -11   1   17.30   16.44
   5  11   0   24.92   33.59
  -5 -11   0   37.13   20.25
   5 -11   0   41.11   40.13
  -5 -11   0   28.00   34.89
   5  11   1   17.41   19.57
   5 -11   1   12.75   13.25
  -5 -11  -1    9.58   20.10
   5  11   2    2.61    5.73
   5 -11   2    2.74    8.23
  -5 -11  -2   -5.54   15.47
   5  11   3   46.31   56.69
   5 -11   3   16.09   35.29
   5 -11   3   33.86   41.07
  -5 -11  -3   32.55   27.62
   5  11   4  103.01   18.89
   5 -11   4  111.74   24.86
  -5 -11  -4  107.60   21.68
  -5  11  -4   82.84   91.93
   5  11   5    8.58    8.76
   5 -11   5    3.41   16.52
  -5 -11  -5   13.07   24.59
  -5  11  -5   -0.04   14.25
  -6   0  15   54.30   62.95
  -6   0  15   36.15   49.99
  -6   0  14   37.90   39.77
  -6   0  14   53.08   50.83
  -6   0  13   41.55   45.12
  -6   0  13   43.01   38.52
  -6   0  12   14.32   16.08
  -6   0  12   12.32   13.06
  -6   0  11  140.05   23.80
  -6   0  11  127.12   17.23
  -6   0  10  227.06   30.78
  -6   0  10  188.04   20.28
  -6   0   9   58.32   22.66
  -6   0   9   52.33   40.61
   6   0  -8  259.37   27.81
  -6   0   8  275.60   23.33
   6   0  -7 1428.46   40.57
  -6   0   7 1354.52   95.90
   6   0  -6  114.61   14.39
  -6   0   6  119.08   13.40
   6   0  -5   83.83   32.57
  -6   0   5   90.31   11.68
   6   0  -4  894.62   52.26
  -6   0   4 1066.39   55.05
   6   0  -3   11.67   12.30
  -6   0   3   10.72   11.75
  -6   0   3    7.84    2.99
  -6   0   3    5.79    4.63
   6   0  -2   61.74   14.11
  -6   0   2   42.93   44.04
  -6   0   2   57.02    6.69
   6   0  -2   56.19   13.32
   6   0  -1  607.11   35.35
  -6   0   1  731.91   42.35
  -6   0   1  681.95   34.04
   6   0   0   40.65   28.88
  -6   0   0   26.43   15.99
  -6   0   0   34.81   16.08
   6   0   1  363.89   24.16
  -6   0  -1  403.17   55.42
  -6   0  -1  392.17   26.41
   6   0   2  617.70   41.31
  -6   0  -2  626.69   40.26
  -6   0  -2  621.73   40.50
   6   0   3  285.45   17.53
   6   0   3  376.11   31.06
  -6   0  -3  291.97   25.48
   6   0   4  390.33   34.38
   6   0   4  383.35   36.79
  -6   0  -4  386.62   40.12
   6   0   5  147.47   14.59
   6   0   5  160.95   18.79
  -6   0  -5  164.60   22.09
   6   0   6    7.56    8.49
   6   0   6   11.86   10.46
  -6   0  -6   13.19   13.45
   6   0   7    4.39    6.95
   6   0   7    2.44   10.18
  -6   0  -7    9.72   15.10
   6   0   8  151.29   19.34
   6   0   8  176.83   44.40
  -6   0  -8  146.68   24.03
   6   0   9    5.35    9.77
   6   0   9    3.71    7.73
  -6   0  -9    4.22   12.74
   6   0  10  151.58   20.51
   6   0  10  143.49   19.40
  -6   0 -10  147.75   28.25
   6   0  11   12.70   16.18
   6   0  11   21.49   13.73
  -6   0 -11   14.21   25.00
   6   0  12    9.42   18.63
   6   0  12    1.62   16.69
  -6   0 -12    4.89   15.53
   6   0  13  111.40   40.46
   6   0  13  124.12   22.49
  -6   0 -13  133.79   53.83
   6   0  14   42.51   43.18
  -6   0 -14   44.16   50.73
  -6  -1  15  123.48   24.32
  -6   1  15   87.60   26.21
  -6  -1  15   99.17   17.14
  -6   1  15   77.51   51.07
  -6   1  14    2.24   17.37
  -6  -1  14    4.43   12.92
  -6  -1  14    8.17    9.28
  -6   1  14    7.02   10.96
  -6  -1  13   39.79   38.27
  -6   1  13   70.84   68.19
  -6  -1  13   32.24   45.13
  -6   1  13   75.19   20.96
  -6  -1  12  289.22   28.95
  -6   1  12  251.99   79.41
  -6  -1  12  236.61   21.62
  -6   1  12  224.64   42.38
  -6   1  11   55.90   50.58
  -6  -1  11   87.77   17.40
  -6   1  11   59.72   10.81
  -6  -1  11   86.80   19.56
  -6  -1  10   77.62   15.35
  -6   1  10   29.62   26.21
  -6  -1  10   60.00   36.02
  -6   1  10   29.35   31.55
   6   1  -9   61.62   45.76
  -6   1   9   50.19   41.18
  -6   1   9   53.01   28.36
  -6  -1   9   51.94   38.93
   6   1  -8  127.94   18.72
  -6   1   8  127.64   18.83
  -6  -1   8  198.44   58.34
  -6   1   8  152.99   16.28
   6  -1  -7  165.78   15.58
   6   1  -7  190.14   33.70
  -6   1   7  166.61   18.55
  -6  -1   7  173.17   23.44
   6  -1  -6   83.13   22.43
   6   1  -6  142.23   17.61
  -6   1   6  134.36   14.25
  -6  -1   6   88.71   13.08
   6  -1  -5  374.15   36.10
   6   1  -5  380.75   32.75
  -6  -1   5  370.05   31.68
  -6   1   5  391.35   32.77
   6  -1  -4  650.88   38.99
   6   1  -4  616.32   43.94
  -6   1   4  563.02   33.02
  -6  -1   4  702.55   47.78
  -6  -1   4  609.66   27.00
   6   1  -4  594.30   26.78
   6  -1  -3  252.02   24.79
   6   1  -3  338.68   26.70
  -6  -1   3  261.84   27.26
  -6   1   3  293.30   22.09
  -6   1   3  292.80   16.64
  -6  -1   3  248.82   20.93
  -6   1   3  314.52   17.15
   6  -1  -2  430.16   28.29
   6   1  -2  506.29   33.53
  -6  -1   2  401.02   27.20
  -6   1   2  510.57   33.60
  -6   1   2  452.48   26.61
  -6  -1   2  373.47   19.13
  -6   1   2  469.50   25.40
   6   1  -2  382.64   21.46
   6  -1  -1  276.58   26.62
   6   1  -1  314.63   24.12
  -6  -1   1  267.13   26.92
  -6   1   1  295.54   41.50
  -6  -1   1  269.32   21.83
  -6   1   1  323.08   23.26
   6   1   0    7.82    8.93
   6  -1   0   10.84   11.06
  -6  -1   0   11.99   14.70
  -6   1   0   16.69   12.95
  -6  -1   0    2.97    4.56
  -6   1   0   14.91   16.90
   6  -1   1  133.75   17.48
   6   1   1   67.17   13.81
  -6  -1  -1  128.31   19.76
  -6  -1  -1  144.12   15.81
  -6   1  -1   66.45   16.97
   6  -1   2  403.68   25.53
   6   1   2  416.92   27.27
   6  -1   2  449.96   32.83
  -6  -1  -2  448.49   32.77
  -6  -1  -2  462.42   37.69
  -6   1  -2  425.00   34.16
   6  -1   3  200.99   21.59
   6   1   3  197.83   22.48
   6  -1   3  150.10   19.73
  -6  -1  -3  155.26   22.26
  -6  -1  -3  164.45   31.52
  -6   1  -3  182.86   22.55
   6  -1   4   86.30   13.52
   6   1   4   41.37   26.95
   6   1   4   40.75   29.91
   6  -1   4   64.68   53.12
  -6  -1  -4   60.61   13.26
  -6   1  -4   50.58   33.19
   6  -1   5 1002.47   73.48
   6   1   5 1096.10   82.97
   6   1   5 1023.84   78.63
   6  -1   5 1197.90   90.37
  -6  -1  -5 1172.70   88.73
  -6   1  -5 1156.13   89.59
   6  -1   6  439.19   32.77
   6   1   6  462.37   35.79
   6   1   6  500.92   38.86
   6  -1   6  480.40   39.25
  -6  -1  -6  472.13   47.03
  -6   1  -6  495.83   44.00
   6  -1   7   38.40   25.17
   6   1   7   43.29   40.13
   6  -1   7   34.13   36.01
   6   1   7   36.38   28.03
  -6  -1  -7   32.66   16.77
  -6   1  -7   46.99   30.14
   6  -1   8  117.20   14.93
   6   1   8  133.22   18.59
   6   1   8  135.16   22.92
   6  -1   8  140.01   89.72
  -6  -1  -8  109.95   20.32
  -6   1  -8  145.76   98.30
   6   1   9  307.88   31.22
   6  -1   9  290.87   30.89
   6   1   9  335.87   53.91
   6  -1   9  299.97   55.44
  -6  -1  -9  303.72   33.87
  -6   1  -9  331.64   44.85
   6   1  10   10.35   25.21
   6  -1  10   35.53   27.76
   6   1  10   16.41   16.54
   6  -1  10   23.63   21.59
  -6  -1 -10   43.73   43.79
  -6   1 -10   19.46   18.98
   6   1  11   19.13   25.86
   6  -1  11   33.48   47.17
   6   1  11   26.66   32.57
   6  -1  11   28.75   26.89
  -6  -1 -11   35.84   33.42
  -6   1 -11   25.46   20.52
   6   1  12   76.56   84.16
   6  -1  12  107.40   16.73
   6   1  12   80.00   19.38
   6  -1  12  127.01   28.34
  -6  -1 -12  141.64   27.67
  -6   1 -12  102.96   24.46
   6   1  13   32.67   40.54
   6  -1  13   29.66   39.95
   6   1  13   35.20   45.84
   6  -1  13   44.68   51.58
  -6  -1 -13   40.89   45.51
  -6   1 -13   34.40   48.49
   6   1  14    3.64   14.65
   6  -1  14    2.36    7.17
   6   1  14    6.28   10.99
   6  -1  14   -3.78   16.65
  -6  -1 -14    5.63    8.72
  -6   1 -14   -0.04   13.13
  -6  -2  15   29.48   29.94
  -6   2  15   26.15   27.50
  -6  -2  15   32.50   36.16
  -6   2  14  129.86   28.32
  -6  -2  14  141.71   26.18
  -6  -2  14  109.81   17.80
  -6   2  13   67.48   66.46
  -6  -2  13   27.61   17.72
  -6  -2  13   45.29   57.94
  -6   2  13   72.18   11.39
  -6  -2  12    1.48   17.06
  -6   2  12   13.17   24.91
  -6   2  12   10.49   12.91
  -6  -2  12   11.98   13.36
  -6   2  11  171.85   23.77
  -6  -2  11  240.79   31.56
  -6   2  11  176.87   20.72
  -6  -2  11  190.78   23.26
  -6   2  10  116.27   27.40
  -6  -2  10   89.37   17.37
  -6  -2  10   81.32   52.50
  -6   2  10  114.38   13.76
   6   2  -9   10.56   14.17
  -6   2   9    8.21   11.06
  -6   2   9    2.95    6.82
  -6  -2   9    5.97    7.61
   6   2  -8   83.43   16.73
  -6   2   8  101.64   18.06
  -6  -2   8  110.06   30.73
  -6   2   8   98.52   10.79
   6   2  -7  474.88   35.60
  -6   2   7  475.45   37.35
  -6  -2   7  506.19   55.24
  -6   2   7  528.17   37.66
   6  -2  -6   15.94   14.62
   6   2  -6    7.80   11.91
  -6  -2   6   12.26   16.48
  -6   2   6    4.77    7.79
   6   2  -6    3.84    3.07
   6   2  -6    3.14    2.54
   6  -2  -5   29.08   25.56
   6   2  -5   47.25   30.51
  -6  -2   5   64.81   39.04
  -6   2   5   48.90    9.40
  -6  -2   5   51.36    4.03
   6   2  -5   37.55    4.52
   6  -2  -4  198.07   24.57
   6   2  -4  243.76   24.37
  -6  -2   4  182.24   18.64
  -6   2   4  260.66   32.91
  -6  -2   4  196.32   17.37
  -6   2   4  225.73   17.71
  -6   2   4  243.34   18.70
   6  -2  -3  126.35   18.08
   6   2  -3  151.54   18.16
  -6  -2   3  108.39   16.70
  -6   2   3  139.09   25.94
  -6   2   3  145.26   12.76
  -6  -2   3  117.26   14.39
   6   2  -3  141.66   13.60
  -6   2   3  144.92   14.53
   6  -2  -2   50.40   11.79
   6   2  -2   50.67   12.59
  -6  -2   2   46.12   29.44
  -6   2   2   46.87   31.62
  -6   2   2   46.76   11.31
  -6  -2   2   45.39    8.84
  -6   2   2   49.78    6.97
   6  -2  -1   88.03   41.87
   6   2  -1   99.87   15.14
  -6  -2   1   77.32   17.39
  -6   2   1   99.40   15.68
  -6  -2   1   84.55   20.40
  -6   2   1  103.62   25.87
   6  -2   0  480.34   29.81
   6   2   0  482.86   33.14
  -6  -2   0  517.94   33.29
  -6   2   0  472.09   35.02
  -6  -2   0  466.60   30.76
  -6   2   0  465.17   29.15
   6  -2   1  230.53   24.95
   6   2   1  232.83   23.64
   6  -2   1  210.51   22.41
  -6  -2  -1  241.68   29.03
  -6  -2  -1  208.13   19.65
  -6   2  -1  228.68   29.61
   6  -2   2  161.21   17.03
   6   2   2  190.14   21.71
   6  -2   2  169.39   22.39
  -6  -2  -2  168.53   21.59
  -6  -2  -2  171.47   18.01
  -6   2  -2  155.28   21.27
   6  -2   3  338.91   29.45
   6   2   3  307.65   30.68
   6  -2   3  350.48   33.31
  -6  -2  -3  374.37   70.55
  -6  -2  -3  381.13   32.56
  -6   2  -3  312.66   41.35
   6  -2   4  169.70   15.03
   6   2   4  190.16   20.80
   6  -2   4  188.21   53.26
  -6  -2  -4  183.04   21.86
  -6  -2  -4  184.46   16.32
  -6   2  -4  175.54   29.56
   6  -2   5   56.77    9.84
   6   2   5   43.20   35.74
   6  -2   5   44.06   40.81
  -6  -2  -5   62.96   45.56
  -6   2  -5   53.46   34.84
   6  -2   6  205.74   16.86
   6   2   6  256.90   26.39
   6   2   6  246.36   65.88
   6  -2   6  195.36   61.71
  -6  -2  -6  195.69   49.31
  -6   2  -6  238.49   27.10
   6  -2   7  341.79   31.83
   6   2   7  410.17   39.91
   6   2   7  396.93   40.59
   6  -2   7  338.79   37.95
  -6  -2  -7  396.18   41.40
  -6   2  -7  404.65   42.46
   6  -2   8   10.72   13.61
   6   2   8   14.14   11.34
   6   2   8   24.87   13.57
   6  -2   8    5.45   17.21
  -6  -2  -8   12.21   13.05
  -6   2  -8   11.60   28.01
   6  -2   9    2.77    6.51
   6   2   9    0.15    6.20
   6   2   9    6.28   10.97
   6  -2   9    2.76   11.93
  -6  -2  -9   -2.09    9.82
  -6   2  -9    1.92   14.01
   6  -2  10  242.38   21.29
   6   2  10  268.49   30.82
   6   2  10  233.94   23.48
   6  -2  10  270.83   34.86
  -6  -2 -10  268.34   29.82
  -6   2 -10  241.99   30.88
   6   2  11   84.86   37.81
   6  -2  11   78.23   11.46
   6   2  11  112.00   17.66
   6  -2  11   78.51   68.44
  -6  -2 -11   85.37   82.53
  -6   2 -11   97.96   80.16
   6   2  12   13.55   18.24
   6  -2  12    8.95   17.98
   6   2  12    6.34   11.42
   6  -2  12    6.42   15.90
  -6  -2 -12    5.29   14.95
  -6   2 -12   12.15   31.05
   6   2  13   19.32   14.17
   6  -2  13   21.26   38.85
   6   2  13   33.49   51.25
   6  -2  13   34.54   42.34
  -6  -2 -13   28.97   18.70
  -6   2 -13   19.10   23.62
   6   2  14  207.18   25.43
   6  -2  14  192.27   22.23
   6   2  14  228.33   25.48
   6  -2  14  213.45   39.00
  -6  -2 -14  182.77   26.12
  -6   2 -14  201.63   30.14
  -6  -3  15   63.55   54.95
  -6   3  15   65.72   72.27
  -6  -3  15   56.76   72.81
  -6   3  14   12.57   19.34
  -6  -3  14   23.14   27.48
  -6   3  13   19.92   22.57
  -6  -3  13   23.66   18.91
  -6  -3  13   22.30   23.92
  -6   3  12  305.83   26.96
  -6  -3  12  293.33   67.74
  -6  -3  12  291.86   27.24
  -6   3  11   14.00   16.68
  -6  -3  11   15.94   19.37
  -6  -3  11   13.58   12.49
  -6   3  11   16.93   15.91
  -6   3  10   49.01   62.27
  -6   3  10   28.92   27.41
  -6  -3  10   26.85   14.55
   6   3  -9  157.90   18.27
  -6   3   9  134.62   33.95
  -6   3   9  146.09   11.92
  -6  -3   9  153.10   16.38
   6   3  -8  304.86   34.11
  -6   3   8  318.16   33.55
  -6  -3   8  281.05   30.08
  -6   3   8  312.48   29.39
   6   3  -7   33.48   21.90
  -6   3   7   31.53   22.94
  -6  -3   7   25.75   31.31
  -6   3   7   33.76   11.69
   6   3  -7   27.84   17.98
   6   3  -6  137.69   14.26
  -6   3   6  129.36   18.52
  -6  -3   6  161.64   16.44
  -6   3   6  138.73   13.52
  -6  -3   6  165.54    9.67
   6  -3  -5  320.42   56.02
   6   3  -5  264.15   31.48
  -6  -3   5  327.12   29.76
  -6   3   5  236.65   21.25
  -6  -3   5  337.79   26.97
  -6   3   5  286.12   18.03
   6   3  -5  237.52   19.59
  -6   3   5  237.17   18.44
   6  -3  -4   41.09   41.19
   6   3  -4   40.79   27.50
  -6  -3   4   60.61   44.38
  -6   3   4   35.57   14.31
  -6  -3   4   53.23    6.07
  -6   3   4   33.24    7.60
  -6   3   4   21.95   17.45
   6  -3  -3   76.36   21.50
   6   3  -3   97.87   25.67
  -6  -3   3   72.77   18.97
  -6   3   3  106.70   13.26
  -6  -3   3   74.07    7.55
  -6   3   3   89.54   10.84
   6  -3  -2  378.11   32.36
   6   3  -2  366.62   36.75
  -6  -3   2  432.17   37.59
  -6   3   2  391.18   34.19
  -6  -3   2  384.04   31.05
  -6   3   2  341.40   33.62
   6  -3  -1  526.98   37.19
   6   3  -1  474.26   30.32
  -6  -3   1  501.25   32.39
  -6   3   1  480.09   31.21
  -6  -3   1  528.14   36.42
  -6   3   1  491.14   30.54
   6  -3   0   32.19   24.27
   6   3   0   22.59   25.85
   6  -3   0   27.67   26.45
  -6  -3   0   39.48   37.06
  -6  -3   0   35.90   27.51
  -6   3   0   33.14   27.70
   6  -3   1  321.17   27.08
   6   3   1  287.52   27.29
   6  -3   1  376.22   34.07
  -6  -3  -1  315.77   30.74
  -6  -3  -1  305.56   26.21
  -6   3  -1  286.17   46.53
   6  -3   2  310.40   26.12
   6   3   2  331.23   35.45
   6  -3   2  330.06   31.74
  -6  -3  -2  306.73   31.18
  -6  -3  -2  309.30   26.41
  -6   3  -2  347.36   34.57
   6  -3   3  106.73   10.01
   6   3   3  101.56   13.60
   6  -3   3   94.06   17.66
  -6  -3  -3  106.23   15.44
  -6  -3  -3   83.26   12.01
  -6   3  -3  111.05   57.65
   6  -3   4  236.59   20.73
   6   3   4  184.73   16.51
   6  -3   4  213.07   27.61
  -6  -3  -4  219.73   23.07
  -6  -3  -4  219.60   21.12
  -6   3  -4  213.99   35.99
   6  -3   5   12.83    9.78
   6   3   5   33.35   21.70
   6  -3   5   14.86   18.64
  -6  -3  -5   18.54   24.99
  -6  -3  -5   14.39    8.01
  -6   3  -5   24.23   15.13
   6  -3   6  229.13   15.96
   6   3   6  166.43   84.68
   6  -3   6  221.96   80.47
  -6  -3  -6  232.55   43.41
  -6  -3  -6  256.56   24.73
  -6   3  -6  185.25   28.33
   6  -3   7   28.51   26.43
   6   3   7   34.53   26.36
   6  -3   7   31.49   27.19
  -6  -3  -7   24.55   19.15
  -6  -3  -7   34.73   30.49
  -6   3  -7   31.66   36.70
   6  -3   8  158.85   12.83
   6   3   8  217.73   24.55
   6   3   8  241.15   30.26
   6  -3   8  163.09   23.09
  -6  -3  -8  172.44   41.65
  -6   3  -8  233.46   33.86
   6  -3   9  246.78   21.15
   6   3   9  241.19   39.44
   6   3   9  276.11   27.69
   6  -3   9  279.58   31.71
  -6  -3  -9  306.76   32.38
  -6   3  -9  261.92   40.56
   6  -3  10   84.36   18.48
   6   3  10   99.69   18.85
   6   3  10   91.23   31.49
   6  -3  10   80.74   64.08
  -6  -3 -10   78.41   66.51
  -6   3 -10   71.60   73.21
   6  -3  11   29.88   27.72
   6   3  11   37.28   47.60
   6   3  11   35.65   49.77
   6  -3  11   37.68   36.43
  -6  -3 -11   30.02   25.03
  -6   3 -11   61.53   24.25
   6  -3  12   22.88   36.13
   6   3  12   40.48   34.55
   6   3  12   28.31   26.67
   6  -3  12   39.41   46.31
  -6  -3 -12   36.76   26.13
  -6   3 -12   39.27   33.66
   6   3  13   28.60   49.83
   6   3  13   37.78   59.57
   6  -3  13   37.58   58.09
  -6  -3 -13   49.42   44.45
  -6   3 -13   46.29   49.78
   6   3  14   14.63   26.32
   6   3  14   19.24   17.19
   6  -3  14    7.04   16.57
  -6  -3 -14   15.96   19.93
  -6   3 -14   28.03   24.54
  -6   4  14   25.60   32.14
  -6  -4  14   28.90   22.37
  -6  -4  14   29.70   22.01
  -6   4  13   68.66   47.62
  -6  -4  13   75.06   18.69
  -6  -4  13   56.37   51.31
  -6   4  12   14.74   20.62
  -6  -4  12   10.52   14.90
  -6  -4  12    4.22   10.50
  -6   4  11   81.76   64.58
  -6  -4  11   46.17   51.26
  -6  -4  11   75.40   70.37
   6   4 -10  196.87   19.71
  -6   4  10  217.58   28.40
  -6  -4  10  219.70   30.55
   6   4  -9  107.92   15.74
  -6   4   9   92.78   20.20
  -6  -4   9   85.44   53.78
  -6   4   9   91.22   31.00
   6   4  -8  242.51   28.47
  -6   4   8  267.63   30.71
  -6  -4   8  210.38   24.28
  -6   4   8  232.47   29.06
   6   4  -8  235.99   20.13
   6   4  -7  234.19   30.47
  -6   4   7  194.01   24.23
  -6  -4   7  167.29   22.86
  -6   4   7  256.15   24.56
   6  -4  -7  182.48   16.27
  -6  -4   7  180.81   21.78
   6   4  -6   68.66   13.51
  -6   4   6   70.60   15.31
  -6  -4   6   62.08   15.46
  -6   4   6   85.44   26.12
   6  -4  -6   59.88   16.33
  -6  -4   6   59.72    8.05
   6   4  -5   39.84   16.57
  -6   4   5   54.98   42.82
  -6  -4   5   40.70   29.91
  -6   4   5   40.02   28.20
  -6  -4   5   45.50   12.26
   6  -4  -4  779.47   53.57
   6   4  -4  740.94   52.35
  -6  -4   4  818.62   56.88
  -6   4   4  667.48   48.52
  -6  -4   4  755.09   56.53
  -6   4   4  677.81   44.60
   6  -4  -3  226.01   19.77
   6   4  -3  231.87   23.32
  -6  -4   3  235.23   22.72
  -6   4   3  183.77   15.73
  -6  -4   3  225.11   20.85
  -6   4   3  207.39   18.70
   6  -4  -2  120.27   13.11
   6   4  -2  108.44   12.53
  -6  -4   2  128.61   20.40
  -6   4   2  112.17   13.58
  -6  -4   2  128.72   11.40
  -6   4   2  120.39   13.38
   6  -4  -1  164.20   12.64
   6   4  -1  140.56   14.02
  -6  -4   1  188.03   22.72
  -6  -4   1  163.15   11.91
  -6   4   1  151.01   14.27
   6  -4   0  294.42   24.70
   6   4   0  348.25   31.17
   6  -4   0  338.83   31.50
  -6  -4   0  318.60   34.88
  -6  -4   0  322.87   28.17
  -6   4   0  382.83   59.62
   6  -4   1  107.57   10.73
   6   4   1   63.40   11.75
   6  -4   1   95.82   23.28
  -6  -4  -1  102.06   19.49
  -6  -4  -1  106.38   13.71
  -6   4  -1   64.70   18.41
   6  -4   2    5.49    6.32
   6   4   2    4.05   11.54
   6  -4   2    4.76    8.50
  -6  -4  -2   13.63   14.01
  -6  -4  -2   10.51    6.97
  -6   4  -2   -3.77   11.53
   6  -4   3  357.42   25.60
   6   4   3  342.22   29.17
   6  -4   3  392.24   35.53
  -6  -4  -3  364.96   31.46
  -6  -4  -3  414.26   33.78
  -6   4  -3  345.97   40.20
   6  -4   4  128.62   10.49
   6   4   4   82.55   15.18
   6  -4   4  124.91   22.05
  -6  -4  -4  132.78   19.02
  -6  -4  -4  120.40   14.43
  -6   4  -4   83.08   65.33
   6  -4   5  126.17   12.07
   6   4   5  113.32   15.37
   6  -4   5  104.38   17.80
  -6  -4  -5  119.93   16.09
  -6  -4  -5  130.77   25.44
  -6   4  -5  136.86   77.43
   6  -4   6  492.79   41.99
   6   4   6  377.20   45.33
   6  -4   6  430.78   47.65
  -6  -4  -6  479.70   45.66
  -6  -4  -6  496.48   45.27
  -6   4  -6  417.00   43.56
   6  -4   7   52.04    9.36
   6   4   7   64.16   41.74
   6  -4   7   43.39   40.59
  -6  -4  -7   71.24   54.26
  -6  -4  -7   51.15   34.87
  -6   4  -7   75.17   49.93
   6  -4   8  231.14   22.56
   6   4   8  222.65   28.26
   6  -4   8  199.98  105.28
  -6  -4  -8  198.56   26.24
  -6  -4  -8  223.07   26.92
  -6   4  -8  229.42   60.48
   6  -4   9   14.75    7.58
   6   4   9   13.03   18.11
   6  -4   9   14.30   18.77
  -6  -4  -9   20.73   14.04
  -6   4  -9   15.69   22.82
   6  -4  10  103.79   28.24
   6   4  10  151.79   22.40
   6  -4  10  149.48   23.44
  -6  -4 -10  153.76   20.05
  -6  -4 -10  115.44   19.57
  -6   4 -10  143.21   32.72
   6   4  11   49.20   49.90
   6  -4  11   46.34   45.84
  -6  -4 -11   47.31   38.35
  -6   4 -11   68.86   42.46
   6   4  12   15.00   23.53
   6   4  12   11.98   13.17
   6  -4  12   22.70   29.35
  -6  -4 -12   16.37   26.41
  -6   4 -12   14.91   22.23
   6   4  13   73.97  102.14
   6   4  13   80.96   15.10
   6  -4  13   71.89   93.33
  -6  -4 -13   78.40   81.43
  -6   4 -13  103.25   48.10
  -6   5  14   23.38   29.00
  -6  -5  14   20.33   30.45
  -6  -5  14   19.20   25.55
  -6   5  13   49.68   65.05
  -6  -5  13   69.99   83.95
  -6  -5  13   58.28   53.03
  -6   5  12   20.25   26.39
  -6  -5  12   36.45   15.57
  -6  -5  12   21.11   21.60
  -6  -5  11   46.04   59.19
  -6  -5  11   34.92   33.04
   6   5 -10   66.98   21.30
  -6   5  10   53.97   16.25
  -6  -5  10   57.00   47.38
   6   5  -9   46.88   29.01
  -6   5   9   51.53   24.33
  -6  -5   9   70.67   64.63
   6   5  -8  228.22   28.47
  -6   5   8  228.33   28.84
  -6  -5   8  179.15   24.04
  -6   5   8  203.87   23.61
  -6  -5   8  177.79   18.97
   6   5  -7   46.75   29.40
  -6   5   7   46.26   28.68
  -6  -5   7   61.88   47.74
  -6   5   7   53.71    8.30
   6  -5  -7   60.07   14.09
  -6  -5   7   68.67   18.02
   6   5  -6   62.10   48.20
  -6   5   6   62.85   53.66
  -6  -5   6  122.00   59.79
  -6   5   6   75.14    9.18
   6  -5  -6  106.96   11.45
  -6  -5   6  109.19   12.77
   6   5  -5  322.17   32.27
  -6   5   5  310.74   29.70
  -6  -5   5  267.54   30.28
  -6   5   5  318.12   29.74
   6  -5  -5  262.58   27.95
  -6  -5   5  286.34   27.40
   6   5  -4   11.68   10.68
  -6   5   4   10.29    9.49
  -6  -5   4    5.42   10.34
  -6   5   4   11.31    7.27
   6  -5  -4   11.77    7.96
  -6  -5   4    4.38    7.54
   6   5  -3   40.18   27.01
  -6   5   3   35.87   10.15
  -6  -5   3   38.98   26.76
  -6   5   3   40.81   15.54
   6  -5  -3   33.91   28.26
  -6  -5   3   36.39   21.72
   6  -5  -2  208.82   19.72
   6   5  -2  217.99   28.21
  -6  -5   2  213.70   26.78
  -6   5   2  211.66   19.74
  -6  -5   2  202.11   15.58
  -6   5   2  218.66   22.64
   6  -5  -1  325.18   25.93
   6   5  -1  291.39   26.14
   6  -5  -1  267.23   24.53
  -6  -5   1  312.61   29.23
  -6  -5   1  278.72   26.78
  -6   5   1  259.74   26.14
   6  -5   0   19.70   14.77
   6   5   0   18.69   25.70
   6  -5   0   21.90   17.55
  -6  -5   0   15.79   12.50
  -6  -5   0   18.86   13.75
  -6   5   0   24.40   15.31
   6  -5   1  148.20   11.08
   6   5   1  122.16   15.07
   6  -5   1  157.02   15.87
  -6  -5  -1  150.75   18.07
  -6  -5  -1  130.17   12.51
  -6   5  -1  123.28   19.53
   6  -5   2  343.81   24.42
   6   5   2  413.31   61.07
   6  -5   2  384.39   30.87
  -6  -5  -2  362.88   43.03
  -6  -5  -2  361.13   31.95
  -6   5  -2  408.36   35.76
   6  -5   3   10.43    7.70
   6   5   3   15.00   23.21
   6  -5   3   16.45   14.81
  -6  -5  -3   14.66   13.66
  -6  -5  -3   16.18   15.26
  -6   5  -3   14.18   23.03
   6  -5   4   66.72    7.90
   6   5   4   44.45   40.60
   6  -5   4   62.20   47.71
  -6  -5  -4   79.31   37.79
  -6  -5  -4  102.28   33.25
  -6   5  -4   66.78   30.84
   6  -5   5  335.09   29.56
   6   5   5  400.98   39.87
   6  -5   5  274.85   33.18
  -6  -5  -5  341.75   35.88
  -6  -5  -5  311.83   32.94
  -6   5  -5  421.93   53.31
   6  -5   6  132.69   10.03
   6   5   6  143.07   24.35
   6  -5   6  146.42   41.10
  -6  -5  -6  158.48   19.68
  -6  -5  -6  160.08   18.24
  -6   5  -6  159.06   27.21
   6  -5   7    7.24    7.81
   6   5   7    3.79   13.51
   6  -5   7    6.77   13.84
  -6  -5  -7   16.42   18.32
  -6  -5  -7   10.26   12.65
  -6   5  -7    6.29   16.10
   6   5   8   69.61   49.41
   6  -5   8   92.05   69.02
  -6  -5  -8   98.35   15.31
  -6  -5  -8  122.55   20.37
  -6   5  -8  100.61   36.88
   6   5   9  428.39   35.64
   6  -5   9  408.83   41.18
  -6  -5  -9  452.98   55.01
  -6  -5  -9  433.16   28.56
  -6   5  -9  429.08   43.11
   6   5  10    3.25   12.62
   6  -5  10    3.84   13.01
  -6  -5 -10   -2.35   13.06
  -6  -5 -10    4.13    5.96
  -6   5 -10    4.51    8.75
   6   5  11   10.55   18.31
   6  -5  11    9.81   17.78
  -6  -5 -11    9.57   17.10
  -6  -5 -11   11.79   14.78
  -6   5 -11    6.58   18.25
   6   5  12  189.51   22.59
   6  -5  12  217.91   35.26
  -6  -5 -12  227.47   70.99
  -6  -5 -12  217.91   28.37
  -6   5 -12  180.65   46.24
   6   5  13   24.95   38.80
   6  -5  13   24.91   22.74
  -6  -5 -13   18.15   22.69
  -6   5 -13   60.81   38.38
  -6   6  13    1.92   12.72
  -6  -6  13    2.27    7.27
  -6  -6  13    7.12    8.85
  -6   6  12   -2.21   14.74
  -6  -6  12    6.53    9.25
  -6  -6  12    5.44    9.44
  -6   6  11  146.43   66.20
  -6  -6  11  154.72   33.05
  -6  -6  11  178.91   23.14
   6   6 -10   79.53   14.89
  -6   6  10   65.14   55.17
  -6  -6  10   65.39   52.14
   6   6  -9   13.76    6.95
  -6   6   9   11.18   13.38
  -6  -6   9   12.70   20.75
   6   6  -8   74.37   43.95
  -6   6   8   61.18   49.46
  -6  -6   8   48.06   37.28
  -6  -6   8   39.96   15.94
   6   6  -7  230.77   23.63
  -6   6   7  235.22   27.40
  -6  -6   7  193.12   25.43
   6  -6  -7  239.09   22.91
  -6  -6   7  217.89   21.46
   6   6  -6  116.11   16.55
  -6   6   6  121.40   18.87
  -6  -6   6  114.42   18.89
  -6   6   6  142.09   14.28
   6  -6  -6  159.65   19.61
  -6  -6   6  159.71   18.79
   6   6  -5   43.81   11.79
  -6   6   5   49.78   39.62
  -6  -6   5   39.82   36.30
  -6   6   5   58.79   10.82
   6  -6  -5   48.02   35.55
  -6  -6   5   46.12   37.54
   6   6  -4   48.46   44.23
  -6   6   4   48.66   31.56
  -6  -6   4   61.05   15.36
  -6   6   4   38.14    7.95
   6  -6  -4   80.41   20.16
  -6  -6   4   85.80   27.47
   6   6  -3   79.73   14.49
  -6   6   3   77.69   10.15
  -6  -6   3   86.48   14.72
  -6   6   3   59.79   42.91
   6  -6  -3   99.85   13.70
  -6  -6   3   99.88   13.81
   6   6  -2   26.89   32.97
  -6   6   2   35.74   28.00
  -6  -6   2   45.15   37.60
  -6   6   2   30.69   34.01
   6  -6  -2   35.22   35.88
  -6  -6   2   44.56    9.23
   6   6  -1   77.03   15.70
  -6   6   1   74.78   22.99
   6  -6  -1  112.06   31.07
  -6  -6   1   88.93   13.49
  -6  -6   1  113.46   15.86
   6  -6   0  288.59   25.48
   6   6   0  471.36   60.46
   6  -6   0  452.11   40.78
  -6  -6   0  382.06   38.51
  -6  -6   0  423.52   40.23
  -6   6   0  432.62   51.11
   6  -6   1  153.36   16.35
   6   6   1  129.00   19.73
   6  -6   1  134.41   19.01
  -6  -6  -1  158.81   19.95
  -6  -6  -1  154.66   19.56
  -6   6  -1  126.68   26.61
   6  -6   2   72.88   24.85
   6   6   2   96.28   16.36
   6  -6   2   71.77   15.68
  -6  -6  -2   62.45   12.86
  -6  -6  -2   69.31   14.32
  -6   6  -2   71.21   27.33
   6  -6   3  506.43   36.89
   6   6   3  516.68   42.53
   6  -6   3  454.88   42.66
  -6  -6  -3  477.48   39.63
  -6  -6  -3  519.21   42.67
  -6   6  -3  510.41   81.10
   6  -6   4  176.75   10.24
   6   6   4  124.29   26.58
   6  -6   4  149.43   18.76
  -6  -6  -4  176.92   21.14
  -6  -6  -4  177.16   18.67
  -6   6  -4  168.31   34.94
   6   6   5   68.99   54.50
   6  -6   5   36.23   50.83
  -6  -6  -5   61.26   47.19
  -6  -6  -5   57.56   42.23
  -6   6  -5   58.87   52.51
   6   6   6  144.37   21.33
   6  -6   6  134.71   20.29
  -6  -6  -6  146.09   42.29
  -6  -6  -6  155.95   27.26
  -6   6  -6  143.46   45.72
   6   6   7  136.47   31.34
   6  -6   7  172.02   23.59
  -6  -6  -7  186.89   19.54
  -6  -6  -7  184.20   23.05
  -6   6  -7  151.20   32.45
   6   6   8   13.09   14.25
   6  -6   8   16.67   11.50
  -6  -6  -8    9.66   10.80
  -6  -6  -8    8.18   11.25
  -6   6  -8   21.23   23.26
   6   6   9   35.40   37.74
   6  -6   9   46.67   44.77
  -6  -6  -9   46.60   47.00
  -6  -6  -9   54.95   44.68
  -6   6  -9   46.45   62.98
   6   6  10    5.78   27.78
   6  -6  10    7.07   10.10
  -6  -6 -10    3.91   13.39
  -6  -6 -10   10.66   20.84
  -6   6 -10   38.41   32.57
   6   6  11   40.47   45.11
   6  -6  11   46.33   51.35
  -6  -6 -11   91.51   44.22
  -6   6 -11   51.49   27.78
   6   6  12    9.86   21.40
   6  -6  12    4.45   10.30
  -6  -6 -12    1.78   17.25
  -6   6 -12    6.48   23.90
  -6   7  12  122.17   55.64
  -6  -7  12  119.57   21.76
  -6  -7  12   89.70  101.41
  -6   7  11   48.51   45.08
  -6  -7  11   21.87   32.68
  -6  -7  11   35.35   44.06
   6   7 -10   23.40   37.70
  -6   7  10   25.39   22.82
  -6  -7  10   34.52   26.45
   6   7  -9  131.93   15.58
  -6   7   9  125.19   22.43
  -6  -7   9  183.10   33.06
   6   7  -8   95.17   31.05
  -6   7   8   93.88   16.67
  -6  -7   8  114.20   26.71
  -6  -7   8  124.05   34.57
   6   7  -7   13.43   21.25
  -6   7   7   16.56   16.41
  -6  -7   7   14.66   15.07
  -6  -7   7   18.77   12.78
   6  -7  -7   13.01   14.71
   6   7  -6   72.44   12.09
  -6   7   6   72.74   15.44
  -6  -7   6   56.39   42.04
   6  -7  -6   42.19   35.19
  -6  -7   6   57.78   18.62
   6   7  -5  266.85   25.29
  -6   7   5  266.87   31.12
  -6  -7   5  325.81   35.62
   6  -7  -5  341.29   29.00
  -6  -7   5  309.63   29.85
   6   7  -4  231.40   58.87
  -6   7   4  240.33   29.35
  -6  -7   4  223.03   25.90
  -6   7   4  215.08   20.54
   6  -7  -4  205.44   25.56
  -6  -7   4  204.43   25.20
   6   7  -3    1.65    9.19
  -6   7   3    2.30    5.86
  -6  -7   3    7.39   14.74
  -6   7   3    5.51    7.73
   6  -7  -3    7.90   17.22
  -6  -7   3   10.53   13.34
   6   7  -2  300.66   28.75
  -6   7   2  329.79   26.21
  -6  -7   2  330.99   31.42
  -6   7   2  288.36   23.91
   6  -7  -2  275.89   29.57
  -6  -7   2  280.94   29.27
   6   7  -1   99.41   14.80
  -6   7   1  121.34   31.73
   6  -7  -1  118.98   16.16
  -6  -7   1  118.52   19.06
   6  -7  -1  128.81   22.96
  -6  -7   1  133.97   20.47
   6   7   0   69.29   15.45
  -6   7   0   59.64   16.27
   6  -7   0   65.58   14.59
  -6  -7   0   73.56   18.24
  -6  -7   0   77.18   20.70
   6   7   1  140.66   29.62
  -6   7  -1  134.06    9.21
   6  -7   1  143.58   16.71
  -6  -7  -1  130.93   16.83
  -6  -7  -1  147.55   16.07
  -6   7  -1  134.92   31.74
   6   7   2   42.05   29.14
   6  -7   2   51.74   51.53
  -6  -7  -2   60.80   17.93
  -6  -7  -2   80.31   56.74
  -6   7  -2   18.62   21.41
   6   7   3   72.02   50.66
   6  -7   3   77.84   17.07
  -6  -7  -3   65.24   14.34
  -6  -7  -3   69.85   14.80
  -6   7  -3   71.60   70.45
   6   7   4   35.96   18.81
   6  -7   4   16.18   17.95
  -6  -7  -4   26.43   14.50
  -6  -7  -4   17.64   17.60
  -6   7  -4   34.79   27.09
   6   7   5   78.75   50.03
   6  -7   5   86.49   19.61
  -6  -7  -5  103.78   12.58
  -6  -7  -5  116.62   16.83
  -6   7  -5   66.05   84.65
   6   7   6  185.41   21.78
   6  -7   6  181.64   31.08
  -6  -7  -6  166.12   16.71
  -6  -7  -6  171.72   20.98
  -6   7  -6  190.81   58.83
   6   7   7    4.64   17.99
   6  -7   7    0.59   10.90
  -6  -7  -7    3.75    7.57
  -6  -7  -7   -0.75   17.58
  -6   7  -7  -10.24   22.21
   6   7   8   48.81   51.57
   6  -7   8   43.16   55.51
  -6  -7  -8   63.32   13.98
  -6  -7  -8   56.28   55.29
  -6   7  -8   54.57   35.83
   6   7   9   60.52   70.49
   6  -7   9   57.24   80.00
  -6  -7  -9   67.09   73.70
  -6   7  -9   72.16   37.09
   6   7  10   32.44   39.67
   6  -7  10   36.16   35.87
  -6  -7 -10   19.18   37.43
  -6   7 -10   25.19   37.81
   6   7  11    6.00   11.96
   6  -7  11    7.41   13.66
  -6  -7 -11    8.92   28.06
  -6   7 -11   14.09   28.40
  -6  -8  11   21.20   17.32
  -6   8  10    8.17   13.97
  -6  -8  10   15.95   18.43
   6   8  -9   63.71   14.72
  -6   8   9   69.18   54.75
  -6  -8   9   49.68   49.52
   6   8  -8   57.25   11.70
  -6   8   8   50.53   47.75
  -6  -8   8   56.06   41.78
  -6  -8   8   63.49   18.71
   6   8  -7   16.79   23.15
  -6   8   7   21.50   22.01
  -6  -8   7   11.66   13.94
  -6  -8   7   17.69   29.32
   6  -8  -7   22.95   22.03
   6   8  -6  133.47   41.97
  -6   8   6  121.96   17.59
  -6  -8   6   89.70   67.73
   6  -8  -6  115.34   17.39
  -6  -8   6  112.38   19.59
   6   8  -5    4.94   11.42
  -6   8   5    4.66    8.75
  -6  -8   5    6.87   11.75
   6  -8  -5   13.82    9.38
  -6  -8   5    7.61   17.30
   6   8  -4  276.74   23.63
  -6   8   4  262.83   21.87
  -6  -8   4  233.46   26.76
   6  -8  -4  292.39   25.43
  -6  -8   4  240.92   25.67
   6   8  -3  147.20   17.78
  -6   8   3  159.94   16.33
  -6  -8   3  113.09   24.91
   6  -8  -3  103.97   38.03
  -6  -8   3  112.61   22.40
   6   8  -2    7.52    8.20
  -6   8   2    9.38   10.50
  -6  -8   2    3.94   17.95
   6  -8  -2   10.01   13.86
  -6  -8   2    8.64   13.69
   6   8  -1   57.84   39.50
   6  -8  -1   69.70   10.70
  -6  -8   1   66.61   57.13
   6  -8  -1   61.46   14.70
  -6  -8   1   61.30   48.97
   6   8   0   23.60   28.71
   6  -8   0   50.49   10.18
  -6  -8   0   39.74   51.37
   6  -8   0   71.67   19.72
  -6  -8   0   49.72   40.96
   6   8   1   44.89   38.75
   6  -8   1   31.77   30.00
  -6  -8  -1   36.05   35.73
  -6  -8  -1   37.59   28.63
  -6   8  -1   38.45   30.36
   6   8   2    6.13    7.29
   6  -8   2   -0.91    4.57
  -6  -8  -2    5.63   10.16
  -6  -8  -2   -1.19   12.94
  -6   8  -2   -3.83   14.37
   6   8   3   65.72   39.54
   6  -8   3  102.74   19.80
  -6  -8  -3   99.34   14.08
  -6  -8  -3  104.25   22.13
  -6   8  -3   77.41   27.05
   6   8   4  181.72   39.32
   6  -8   4  166.91   19.70
  -6  -8  -4  161.52   15.11
  -6  -8  -4  192.36   24.79
  -6   8  -4  176.11   43.35
   6   8   5  110.77   38.14
   6  -8   5   65.54   61.24
  -6  -8  -5   76.32   31.25
  -6  -8  -5   91.97   17.45
  -6   8  -5   75.16   85.20
   6   8   6  157.54   26.01
   6  -8   6  128.49   23.28
  -6  -8  -6  152.63   17.84
  -6  -8  -6  118.02   23.08
  -6   8  -6  132.60   25.18
   6   8   7   38.13   37.25
   6  -8   7   28.60   37.55
  -6  -8  -7   16.24   46.22
  -6   8  -7   32.14   51.61
   6   8   8   18.70   13.58
   6  -8   8   12.82   24.27
  -6  -8  -8   17.68   19.87
  -6   8  -8   14.02   25.85
   6   8   9   15.03   21.24
   6  -8   9   23.23   24.41
  -6  -8  -9   28.45   24.09
  -6   8  -9   15.68   23.98
   6   8  10  118.68   89.96
   6  -8  10  113.34   25.33
  -6  -8 -10  131.44   23.85
  -6   8 -10  130.36   33.27
  -6   9   9   -3.94   13.42
  -6  -9   9    7.31   16.50
  -6   9   8   51.78   64.79
  -6  -9   8   37.98   31.73
  -6  -9   8   33.87   43.31
  -6  -9   7   24.70   17.91
  -6  -9   7   19.14   35.78
   6   9  -6   73.05   36.27
  -6   9   6   63.34   26.14
  -6  -9   6   58.82   72.33
   6  -9  -6   60.28   68.00
  -6  -9   6   73.38   30.13
   6   9  -5  117.58   16.17
  -6   9   5  113.94   17.49
  -6  -9   5  104.95   17.49
   6  -9  -5  102.50   15.10
  -6  -9   5  100.23   27.87
   6   9  -4   25.35   10.89
  -6  -9   4   45.42   42.64
   6  -9  -4   42.00   40.26
  -6  -9   4   26.80   31.32
   6   9  -3   26.11   10.87
  -6  -9   3   11.85   16.17
   6  -9  -3   16.21   15.07
  -6  -9   3   10.94   16.46
   6   9  -2   28.48   26.39
  -6  -9   2   25.78   18.78
   6  -9  -2   24.43   42.89
  -6  -9   2   38.21   37.62
   6   9  -1   98.92   19.53
  -6  -9   1  134.22   16.25
   6  -9  -1  134.49   20.18
  -6  -9   1  144.21   20.57
   6   9   0   16.18   18.31
   6  -9   0   15.83   16.31
  -6  -9   0   23.26   22.75
   6  -9   0   19.96   20.92
  -6  -9   0   10.34   26.03
   6   9   1   33.17   35.14
   6  -9   1   15.34   18.47
  -6  -9  -1   25.09   10.33
   6  -9   1   14.54   31.91
  -6  -9  -1   19.97   14.85
   6   9   2   85.47   57.28
   6  -9   2   91.25   20.51
  -6  -9  -2   75.06   12.12
  -6  -9  -2   98.38   19.90
  -6   9  -2   79.40   86.77
   6   9   3    5.44    8.72
   6  -9   3   16.14   18.23
  -6  -9  -3    8.10   16.32
  -6  -9  -3   16.56   21.62
  -6   9  -3    8.58   20.43
   6   9   4   17.28   19.26
   6  -9   4   24.91   37.43
  -6  -9  -4   28.61   24.58
  -6  -9  -4   32.80   26.81
  -6   9  -4    4.70   20.92
   6   9   5   73.47   57.13
   6  -9   5   69.49   17.97
  -6  -9  -5   57.72   48.92
  -6   9  -5   63.56   64.36
   6   9   6  113.14   26.47
   6  -9   6  146.16   26.44
  -6  -9  -6  119.60   25.18
  -6   9  -6   89.32   94.64
   6   9   7   14.50   19.03
   6  -9   7   11.91   33.98
  -6  -9  -7   13.92   19.47
  -6   9  -7   15.87   23.12
   6   9   8   24.41   29.31
   6  -9   8   43.14   37.84
  -6  -9  -8   34.42   35.79
  -6   9  -8   37.81   32.32
  -6 -10   7  135.16   35.04
  -6 -10   7  115.09   18.88
  -6 -10   6    3.62    6.45
   6 -10  -6   11.41   24.34
  -6 -10   6    0.66   16.16
  -6 -10   5    2.67   11.81
   6 -10  -5    8.05   12.53
  -6 -10   5    3.63   11.27
  -6 -10   4   40.95   38.60
   6 -10  -4   41.96   16.61
  -6 -10   4   34.40   54.98
   6  10  -3  120.45   15.85
  -6 -10   3   73.68   76.74
   6 -10  -3   90.04   32.00
  -6 -10   3   80.26   17.53
   6  10  -2    8.64    9.47
  -6 -10   2    9.01   20.63
   6 -10  -2   22.83   29.22
  -6 -10   2   32.38   21.50
   6  10  -1   15.43   10.36
  -6 -10   1    3.13   14.62
   6 -10  -1   11.10   16.64
  -6 -10   1    9.80   20.25
   6  10   0  135.99   46.79
  -6 -10   0  168.16   31.43
   6 -10   0  168.16   24.79
  -6 -10   0  152.65   56.51
   6  10   1   31.69   31.25
  -6 -10  -1   43.03   49.14
   6 -10   1   45.94   51.80
  -6 -10  -1   34.61   32.65
   6  10   2    4.79   12.84
   6 -10   2    8.44   14.27
  -6 -10  -2    5.17   11.44
  -6 -10  -2    6.93   12.85
  -6  10  -2   -2.87   16.61
   6  10   3  225.86   22.74
   6 -10   3  208.30   22.95
  -6 -10  -3  215.78   28.69
  -6  10  -3  198.72   60.41
   6  10   4   43.21   35.92
   6 -10   4   24.40   41.83
  -6 -10  -4   23.51   18.86
  -6  10  -4   36.17   46.58
   6  10   5   -0.48   14.98
   6 -10   5    7.42   14.82
  -6 -10  -5    7.51   12.54
  -6  10  -5    6.01   12.72
   6  10   6  119.79   70.84
   6 -10   6  100.13   21.52
  -6 -10  -6  124.73   22.30
  -6  10  -6   70.32   73.04
  -6 -11   4   25.59   33.17
   6 -11  -4   19.95   44.40
  -6 -11   4   24.74   33.83
  -6 -11   3    6.23   18.13
   6 -11  -3    1.27   15.33
  -6 -11   3    1.21   10.59
  -6 -11   2    4.15   14.42
   6 -11  -2   11.53   27.97
  -6 -11   2   11.51   16.73
  -6 -11   1   34.09   49.21
   6 -11  -1   35.31   45.95
  -6 -11   1   44.45   61.98
   6  11   0    5.86   16.77
  -6 -11   0   -0.25    6.56
   6 -11   0   13.20   13.81
  -6 -11   0    9.87   12.32
   6  11   1   30.28   39.51
   6 -11   1   28.63   24.41
  -6 -11  -1   22.54   39.57
   6  11   2   93.42   54.77
  -6 -11  -2  102.49   22.30
  -6  11  -2   69.51   71.13
   6  11   3   40.20   50.71
  -6 -11  -3   30.45   32.78
  -6  11  -3   47.91   50.01
  -7   0  14   16.74   24.38
  -7   0  14   19.79   16.82
  -7   0  13   35.58   38.93
  -7   0  13   22.27   27.74
  -7   0  12  120.09   23.09
  -7   0  12  113.49   31.16
  -7   0  11   57.98   18.86
  -7   0  11   48.71   43.67
  -7   0  10  114.05   22.04
  -7   0  10  113.76   14.13
   7   0  -9   99.72   19.26
  -7   0   9  104.81   16.13
   7   0  -8    0.40    6.85
  -7   0   8    4.35    8.15
   7   0  -7   37.67   33.84
  -7   0   7   27.62   12.81
   7   0  -6   43.98   22.29
  -7   0   6   50.43   32.68
   7   0  -5  353.27   29.89
  -7   0   5  350.61   29.94
   7   0  -4  338.45   38.36
  -7   0   4  330.83   29.32
   7   0  -3   51.06   11.72
  -7   0   3   52.21   12.75
  -7   0   3   52.12    4.12
  -7   0   3   41.46    3.81
   7   0  -2  373.73   33.37
  -7   0   2  443.79   37.84
  -7   0   2  451.25   33.27
   7   0  -1  293.86   28.20
  -7   0   1  357.56   37.70
  -7   0   1  352.26   39.87
   7   0   0   67.67   13.44
  -7   0   0   69.67   16.84
  -7   0   0   82.74    9.30
   7   0   1  695.19   55.54
  -7   0  -1  748.11   61.84
  -7   0  -1  746.13   56.90
   7   0   2    6.30    6.31
  -7   0  -2    7.72   16.01
  -7   0  -2    7.93   13.04
   7   0   3   42.83   34.26
  -7   0  -3   41.59   32.61
  -7   0  -3   37.58   28.16
   7   0   4 1049.30   67.89
   7   0   4 1022.36   70.13
  -7   0  -4 1064.45   70.96
   7   0   5  462.98   34.92
   7   0   5  450.82   53.32
  -7   0  -5  458.82   62.73
   7   0   6  133.03   18.45
   7   0   6  129.73   21.93
  -7   0  -6  154.89   32.50
   7   0   7    3.91    9.92
   7   0   7    5.29   12.98
  -7   0  -7    3.98   10.46
   7   0   8   96.26   47.32
   7   0   8   73.14   55.07
  -7   0  -8  102.15   26.61
   7   0   9   24.31   26.00
   7   0   9   32.40   25.97
  -7   0  -9   33.22   29.90
   7   0  10    4.08    5.38
   7   0  10    3.56   12.85
  -7   0 -10    3.17   10.01
   7   0  11   15.54   21.34
  -7   0 -11   18.93   18.06
   7   0  12   53.50   62.16
   7   0  12   66.36   65.49
  -7   0 -12   79.11   23.78
   7   0  13   37.09   54.00
   7   0  13   24.43   21.04
  -7   0 -13   34.94   45.05
  -7  -1  14   98.98   31.37
  -7   1  14  149.11   24.16
  -7  -1  14  100.74   34.29
  -7   1  14  108.44   40.24
  -7  -1  13   12.92   19.22
  -7   1  13   14.25   15.48
  -7   1  13    2.67    7.46
  -7  -1  13    9.61   14.90
  -7   1  12   10.52   21.31
  -7  -1  12   24.10   20.46
  -7   1  12   19.95   25.77
  -7  -1  12   19.96   22.18
  -7  -1  11   46.17   46.87
  -7   1  11   84.82   23.73
  -7   1  11   72.14   16.96
  -7  -1  11   67.61   48.41
  -7  -1  10  170.69   25.42
  -7   1  10  229.52   78.04
  -7   1  10  179.89   33.85
  -7  -1  10  149.80   18.28
   7   1  -9   38.79   41.48
  -7   1   9   39.12   28.71
  -7  -1   9   30.08   32.37
  -7   1   9   36.27   28.20
   7   1  -8   95.63   70.80
   7  -1  -8   60.68   51.91
  -7   1   8   90.91   59.78
  -7  -1   8   79.27   18.79
   7  -1  -7  439.68   43.14
   7   1  -7  433.36   43.51
  -7  -1   7  430.94   58.21
  -7   1   7  395.81   41.90
   7   1  -6   26.71   16.58
   7  -1  -6   51.06   47.82
  -7   1   6   24.18   15.70
  -7  -1   6   53.81   13.10
   7  -1  -5   75.00   14.20
   7   1  -5   82.08   13.86
  -7  -1   5   62.81   52.22
  -7   1   5   94.48   13.13
   7  -1  -4   88.08   21.71
   7   1  -4   66.14   12.56
  -7  -1   4   90.40   14.09
  -7   1   4   68.95   15.47
  -7  -1   4  102.17    4.54
   7  -1  -3  123.83   39.96
   7   1  -3   76.35   12.99
  -7  -1   3  122.38   15.31
  -7   1   3   93.89   55.37
  -7   1   3  102.98    5.95
  -7  -1   3  121.75    6.22
  -7   1   3   93.06    7.22
   7  -1  -2  208.54   25.90
   7   1  -2  196.07   22.23
  -7  -1   2  189.01   22.24
  -7   1   2  179.91   16.99
  -7  -1   2  181.87   14.18
  -7   1   2  178.27   17.19
   7  -1  -1   20.74   25.46
   7   1  -1   15.17   13.68
  -7  -1   1   29.62   27.16
  -7   1   1    5.36   10.76
  -7  -1   1   22.07    4.99
  -7   1   1   12.16    9.60
   7  -1   0  429.98   38.40
   7   1   0  512.81   43.65
  -7  -1   0  371.02   34.77
  -7   1   0  459.07   40.07
  -7  -1   0  440.85   55.16
  -7   1   0  441.01   35.65
   7  -1   1  179.47   28.43
   7   1   1  151.07   15.80
  -7  -1  -1  178.64   20.03
  -7   1  -1  121.87   17.66
  -7  -1  -1  172.09   13.19
  -7   1  -1  137.56   13.58
   7  -1   2   -3.15    8.81
   7   1   2    2.51    7.37
  -7  -1  -2   -0.67   13.30
  -7  -1  -2    0.88    5.45
  -7   1  -2    3.44    9.11
   7  -1   3  467.01   34.92
   7   1   3  334.27   29.73
   7  -1   3  500.16   40.76
  -7  -1  -3  427.40   37.41
  -7  -1  -3  503.98   46.85
  -7   1  -3  386.34   37.27
   7  -1   4   77.33   55.48
   7   1   4  103.56   18.27
   7  -1   4   72.36   23.89
  -7  -1  -4   74.99   18.86
  -7  -1  -4   82.74   18.17
  -7   1  -4   93.90   57.28
   7   1   5  338.70   33.04
   7  -1   5  328.80   29.18
   7  -1   5  295.61   28.27
   7   1   5  286.17   29.16
  -7  -1  -5  311.43   30.31
  -7   1  -5  287.56   33.76
   7  -1   6   16.42    9.61
   7   1   6   13.39    8.67
   7   1   6   18.40   21.36
   7  -1   6   16.18   16.26
  -7  -1  -6   15.31   20.14
  -7   1  -6    8.68   15.50
   7  -1   7  201.30   22.81
   7   1   7  229.44   41.66
   7   1   7  236.15   62.77
   7  -1   7  223.56   32.04
  -7  -1  -7  259.90   30.31
  -7   1  -7  236.53   55.83
   7  -1   8  201.42   26.97
   7   1   8  189.20   46.03
   7   1   8  201.18   26.48
   7  -1   8  170.46   26.05
  -7  -1  -8  157.32   23.13
  -7   1  -8  186.62   28.32
   7  -1   9    8.12   11.53
   7   1   9    6.68   19.04
   7   1   9   11.53   17.37
   7  -1   9    3.03    9.32
  -7  -1  -9   10.42   19.36
  -7   1  -9    7.97   18.72
   7   1  10  157.14   21.54
   7  -1  10  154.74   17.57
   7  -1  10  157.24   23.60
   7   1  10  167.87   23.19
  -7  -1 -10  183.70   26.70
  -7   1 -10  124.42  114.07
   7  -1  11  113.37   18.40
   7   1  11  161.80   30.80
   7  -1  11  121.88   23.02
   7   1  11  148.05   22.38
  -7  -1 -11  112.43   91.44
  -7   1 -11  126.92   25.40
   7  -1  12    2.33    9.98
   7   1  12    1.88    9.14
   7  -1  12    1.30    8.14
   7   1  12   -3.48   13.98
  -7  -1 -12    0.69   17.34
  -7   1 -12    4.33   13.78
   7  -1  13   28.85   62.73
   7   1  13   27.95   42.07
   7  -1  13   41.10   54.25
  -7  -1 -13   42.40   72.12
  -7   1 -13   41.85   55.96
  -7   2  14   -1.03   17.82
  -7  -2  14    5.68   11.03
  -7  -2  14    2.12   10.11
  -7  -2  13   19.45   23.82
  -7   2  13   31.03   41.38
  -7  -2  13   26.48   24.36
  -7   2  13   23.78   31.19
  -7   2  12  176.13   26.62
  -7  -2  12  160.79   21.48
  -7  -2  12  149.25   59.12
  -7   2  12  165.99   19.06
  -7   2  11    9.53   14.16
  -7  -2  11   20.28   16.39
  -7   2  11    6.35    7.42
  -7  -2  11   13.92   10.64
   7   2 -10    8.26    8.41
  -7   2  10   12.36   17.69
  -7   2  10    7.97   13.90
  -7  -2  10    8.75   15.38
   7   2  -9  217.44   24.35
  -7   2   9  189.66   25.40
  -7  -2   9  187.80   22.11
  -7   2   9  218.77   38.17
   7   2  -8  317.95   38.73
  -7   2   8  290.74   30.42
  -7   2   8  295.15   25.65
  -7  -2   8  264.39   39.92
   7  -2  -7    6.19   10.61
   7   2  -7    5.66    8.45
  -7  -2   7    1.33    7.85
  -7   2   7   11.68   11.00
   7  -2  -6  351.35   32.95
   7   2  -6  280.71   28.38
  -7  -2   6  325.50   36.74
  -7   2   6  282.95   29.31
   7  -2  -5  567.97   52.70
   7   2  -5  559.62   42.25
  -7  -2   5  579.37   54.53
  -7   2   5  566.83   40.18
  -7  -2   5  565.57   33.13
   7  -2  -4  102.89   16.43
   7   2  -4  120.80   16.59
  -7  -2   4  101.68   47.41
  -7   2   4  146.60   33.28
  -7  -2   4  119.71    7.07
  -7   2   4  101.69    5.95
   7  -2  -3  154.05   15.14
   7   2  -3  128.26   16.23
  -7  -2   3  145.96   17.66
  -7   2   3  140.51   23.31
  -7  -2   3  167.37   10.20
  -7   2   3  144.89   11.07
   7  -2  -2  235.71   23.16
   7   2  -2  268.64   26.35
  -7  -2   2  239.33   23.49
  -7   2   2  313.75   61.46
  -7  -2   2  253.68   18.62
  -7   2   2  298.59   22.20
   7  -2  -1  189.58   16.65
   7   2  -1  195.72   22.82
  -7  -2   1  190.47   48.84
  -7   2   1  224.16   23.61
  -7  -2   1  199.71   29.41
  -7   2   1  200.23   17.31
   7  -2   0  107.40   15.28
   7   2   0  119.81   14.44
  -7  -2   0  113.28   15.26
  -7   2   0   88.62   15.56
  -7  -2   0  112.74   10.04
  -7   2   0  114.73   16.39
   7  -2   1  216.33   21.57
   7   2   1  291.63   26.75
  -7  -2  -1  214.05   23.67
  -7  -2  -1  212.48   18.65
  -7   2  -1  261.54   26.61
   7  -2   2  656.20   46.30
   7   2   2  633.36   47.88
   7  -2   2  772.50   56.99
  -7  -2  -2  627.47   47.88
  -7  -2  -2  634.93   54.66
  -7   2  -2  570.32   47.54
   7  -2   3   70.50   11.43
   7   2   3  113.79   72.99
   7  -2   3   68.21   61.99
  -7  -2  -3   70.37   18.98
  -7  -2  -3   76.99   42.55
  -7   2  -3   94.46   38.89
   7  -2   4    9.60   12.02
   7   2   4    0.17    9.46
   7  -2   4   10.14   14.12
  -7  -2  -4    7.43   12.03
  -7  -2  -4   -1.21   12.00
  -7   2  -4    5.68    4.60
   7  -2   5  225.03   24.26
   7   2   5  180.57   26.63
   7  -2   5  215.19   37.48
  -7  -2  -5  217.21   27.54
  -7  -2  -5  212.51   25.99
  -7   2  -5  172.32   33.12
   7  -2   6  253.19   25.31
   7   2   6  259.11   28.85
   7  -2   6  221.57   25.97
  -7  -2  -6  262.53   32.78
  -7  -2  -6  250.04   27.16
  -7   2  -6  207.19   33.32
   7  -2   7   33.61   31.97
   7   2   7   37.16   28.52
   7   2   7   45.23   39.77
   7  -2   7   26.73   35.58
  -7  -2  -7   45.82   31.08
  -7   2  -7   25.55   24.69
   7  -2   8   14.97   12.30
   7   2   8   31.55   30.84
   7   2   8   29.11   25.14
   7  -2   8   14.28   16.81
  -7  -2  -8   18.18   19.16
  -7   2  -8   53.00   18.62
   7  -2   9  125.65   33.68
   7   2   9  156.37   22.73
   7   2   9  171.40   22.02
   7  -2   9  139.13   22.12
  -7  -2  -9  184.99   38.94
  -7   2  -9  166.82   29.16
   7  -2  10    7.28   10.05
   7   2  10    9.14   20.47
   7   2  10    6.28    7.26
   7  -2  10   -0.06   17.20
  -7  -2 -10   10.21   10.81
  -7   2 -10   18.04   20.23
   7  -2  11    4.85   11.43
   7   2  11   14.04   17.67
   7   2  11   18.53   26.90
   7  -2  11   10.55   13.10
  -7  -2 -11    1.83   18.30
  -7   2 -11   10.10   21.67
   7  -2  12   66.83   14.97
   7   2  12   61.66   67.53
   7   2  12   90.62   23.06
   7  -2  12   66.28   68.69
  -7  -2 -12   78.47   81.74
  -7   2 -12   97.57   33.96
   7  -2  13    7.56   13.41
   7   2  13   15.06   27.77
   7   2  13   15.37   11.72
   7  -2  13    7.78   17.35
  -7  -2 -13    9.91   21.42
  -7   2 -13   23.05   19.97
  -7   3  14   85.82   22.49
  -7  -3  14   71.33   51.44
  -7  -3  14   95.48   18.30
  -7   3  13   29.17   48.92
  -7  -3  13   17.30   17.23
  -7  -3  13   10.22   17.25
  -7   3  12    7.12   15.55
  -7  -3  12    2.64   17.40
  -7  -3  12   16.67   21.68
  -7   3  11  106.42   19.55
  -7  -3  11   79.48   19.57
  -7   3  11   93.52   21.90
  -7  -3  11   97.30   18.40
   7   3 -10   62.27   59.78
  -7   3  10   50.24   44.60
  -7   3  10   76.42   10.58
  -7  -3  10   57.75   48.06
   7   3  -9   35.39   27.65
  -7   3   9   53.01   41.05
  -7  -3   9   31.87   30.83
  -7   3   9   54.98   13.31
   7   3  -8  100.46   17.44
  -7   3   8   84.74   68.22
  -7  -3   8   81.96   39.83
  -7   3   8   97.91   29.75
   7   3  -7   34.24   29.28
  -7   3   7   21.55   16.48
  -7  -3   7   13.71   20.16
  -7   3   7   20.34   17.48
   7  -3  -6   87.59   16.35
   7   3  -6   90.02   60.02
  -7  -3   6   99.14   18.72
  -7   3   6   72.65   38.86
   7  -3  -5   15.63   18.22
   7   3  -5    9.52    9.64
  -7  -3   5   14.65   21.21
  -7   3   5    9.35    7.85
  -7  -3   5    6.72    7.70
   7  -3  -4  479.66   40.12
   7   3  -4  497.32   38.57
  -7  -3   4  456.62   36.54
  -7   3   4  478.66   35.78
  -7  -3   4  494.37   33.79
   7  -3  -3   74.20   19.15
   7   3  -3   72.05   61.03
  -7  -3   3   50.75   51.72
  -7   3   3   87.68   23.31
  -7  -3   3   64.30   16.37
  -7   3   3   82.52   21.51
   7  -3  -2   67.71   10.62
   7   3  -2   73.93   53.33
  -7  -3   2   76.60   32.50
  -7   3   2   72.58   47.15
  -7  -3   2   74.44   12.39
  -7   3   2   66.90   18.37
   7  -3  -1  255.91   23.72
   7   3  -1  232.50   25.73
  -7  -3   1  233.30   24.46
  -7   3   1  216.67   23.13
  -7  -3   1  230.95   17.88
  -7   3   1  220.66   21.94
   7  -3   0  130.89   15.34
   7   3   0  156.38   16.47
  -7  -3   0  125.18   18.44
  -7   3   0  148.60   18.51
  -7  -3   0  149.54   12.48
  -7   3   0  148.09   20.79
   7  -3   1  193.47   14.72
   7   3   1  157.42   16.58
   7  -3   1  169.98   34.49
  -7  -3  -1  177.67   21.98
  -7  -3  -1  180.57   14.91
  -7   3  -1  144.39   16.67
   7  -3   2  140.31   12.91
   7   3   2  111.08   14.30
   7  -3   2  121.61   30.46
  -7  -3  -2  136.95   20.49
  -7  -3  -2  166.03   29.29
  -7   3  -2  121.78   21.30
   7  -3   3   37.51    9.08
   7   3   3   48.39   35.60
   7  -3   3   49.78   55.40
  -7  -3  -3   48.61   22.53
  -7  -3  -3   44.03   36.86
  -7   3  -3   61.52   53.97
   7  -3   4  428.06   38.89
   7   3   4  357.35   48.52
   7  -3   4  485.62   47.44
  -7  -3  -4  456.51   48.89
  -7  -3  -4  439.86   40.33
  -7   3  -4  436.17   46.51
   7  -3   5  148.19   17.65
   7   3   5  174.65   23.52
   7  -3   5  145.06   79.42
  -7  -3  -5  170.12   28.99
  -7  -3  -5  158.03   22.81
  -7   3  -5  206.93   31.21
   7  -3   6  133.50   13.98
   7   3   6  191.51   52.08
   7  -3   6  136.68   66.46
  -7  -3  -6  137.72   22.20
  -7  -3  -6  180.01   20.99
  -7   3  -6  151.94   75.86
   7  -3   7  168.55   19.50
   7   3   7  149.59   22.25
   7  -3   7  168.52   26.84
  -7  -3  -7  170.40   56.81
  -7  -3  -7  158.58   21.86
  -7   3  -7  155.80   31.98
   7  -3   8   78.78   10.78
   7   3   8   95.21   17.26
   7  -3   8   76.34   67.85
  -7  -3  -8   78.52   76.37
  -7  -3  -8   97.09   25.28
  -7   3  -8  112.16   76.30
   7  -3   9   35.18   29.13
   7   3   9   48.85   42.61
   7  -3   9   22.98   18.15
  -7  -3  -9   29.12   35.55
  -7  -3  -9   36.90   45.09
  -7   3  -9   70.44   63.61
   7  -3  10  115.08   14.32
   7   3  10  145.83   23.27
   7   3  10  137.07   60.81
   7  -3  10  108.53   22.10
  -7  -3 -10  115.01   83.04
  -7   3 -10   94.99  107.75
   7  -3  11   42.35   49.94
   7   3  11   40.43   53.18
   7   3  11   32.93   38.41
   7  -3  11   66.13   67.05
  -7  -3 -11   60.90   48.89
  -7   3 -11   47.88   24.24
   7   3  12   16.28   20.11
   7   3  12   12.60   17.19
   7  -3  12   15.86   26.19
  -7  -3 -12   15.38   25.65
  -7   3 -12   14.49   45.32
   7   3  13   47.75   50.32
   7   3  13   28.97   54.03
   7  -3  13   39.70   50.57
  -7  -3 -13   61.48   25.69
  -7   3 -13   41.77   42.50
  -7   4  13   85.36   18.62
  -7  -4  13  112.93   20.08
  -7  -4  13   68.03   38.18
  -7  -4  12   43.77   50.62
  -7  -4  12   46.43   47.62
  -7   4  11    7.04   20.32
  -7  -4  11   18.53   14.18
  -7  -4  11    6.29   12.81
   7   4 -10   40.52   39.87
  -7   4  10   34.97   19.69
  -7  -4  10   29.41   29.23
   7   4  -9  103.96   15.99
  -7   4   9   94.79   21.47
  -7  -4   9   69.41   62.22
  -7   4   9   95.91   22.28
   7   4  -8  168.00   32.84
  -7   4   8  174.37   24.28
  -7  -4   8  141.58   20.77
  -7   4   8  138.63   32.92
   7   4  -7  113.07   34.70
  -7   4   7  106.85   18.06
  -7  -4   7  115.17   20.06
  -7   4   7   99.21   15.03
   7   4  -6   34.45   28.75
  -7   4   6   27.84   19.48
  -7  -4   6   50.20   47.31
  -7   4   6   38.91   12.41
  -7  -4   6   54.34   14.36
   7  -4  -5  130.62   18.50
   7   4  -5  211.43   24.80
  -7  -4   5  112.32   16.70
  -7   4   5  214.16   23.31
  -7  -4   5  152.71   15.54
  -7   4   5  191.88   21.21
   7  -4  -4   76.26   30.69
   7   4  -4   48.05   28.87
  -7  -4   4   51.97   42.31
  -7   4   4   51.74   10.61
  -7  -4   4   58.13    9.09
  -7   4   4   43.12   10.34
   7  -4  -3  185.25   17.33
   7   4  -3  190.89   19.24
  -7  -4   3  184.92   19.12
  -7   4   3  189.23   17.89
  -7  -4   3  173.55   14.36
  -7   4   3  185.68   17.64
   7  -4  -2  151.42   16.17
   7   4  -2  103.96   16.89
  -7  -4   2  125.24   19.16
  -7   4   2  121.07   15.16
  -7  -4   2  116.34   22.27
  -7   4   2  107.24   13.70
   7  -4  -1  393.47   31.55
   7   4  -1  378.52   32.22
  -7  -4   1  384.68   35.31
  -7   4   1  385.61   31.67
  -7  -4   1  390.18   30.80
  -7   4   1  394.08   32.75
   7  -4   0   59.18   34.55
   7   4   0   64.96   38.94
   7  -4   0   76.72   18.55
  -7  -4   0   47.29   44.49
  -7  -4   0   48.39   33.24
  -7   4   0   47.96   36.10
   7  -4   1  169.97   13.48
   7   4   1  162.83   19.98
   7  -4   1  162.73   26.25
  -7  -4  -1  166.10   21.30
  -7  -4  -1  166.48   14.15
  -7   4  -1  212.94   39.77
   7  -4   2  178.37   13.56
   7   4   2  181.15   18.45
   7  -4   2  187.94   18.59
  -7  -4  -2  195.14   37.45
  -7  -4  -2  190.58   15.62
  -7   4  -2  188.23   19.97
   7  -4   3  102.27   12.59
   7   4   3   90.14   17.23
   7  -4   3  114.27   56.31
  -7  -4  -3   88.77   16.41
  -7  -4  -3  101.47   13.30
  -7   4  -3   95.85   16.16
   7  -4   4   63.55   11.80
   7   4   4   88.53   63.50
   7  -4   4   64.11   45.55
  -7  -4  -4   58.30   51.00
  -7  -4  -4   75.26   15.24
  -7   4  -4   70.51   63.04
   7  -4   5  297.30   25.25
   7   4   5  313.86   35.27
   7  -4   5  272.24   30.63
  -7  -4  -5  284.58   30.45
  -7  -4  -5  263.62   25.73
  -7   4  -5  352.62   43.55
   7  -4   6  123.82   14.33
   7   4   6   79.69   77.63
   7  -4   6  111.24   23.42
  -7  -4  -6  150.59   26.34
  -7  -4  -6  165.31   37.31
  -7   4  -6  105.56   26.39
   7  -4   7    4.77    8.12
   7   4   7    4.24   27.60
   7  -4   7   10.66   19.45
  -7  -4  -7    9.12   13.87
  -7  -4  -7    2.70    6.29
  -7   4  -7   13.95   18.19
   7  -4   8  292.22   23.89
   7   4   8  288.70   72.00
   7  -4   8  312.28   39.50
  -7  -4  -8  300.82   29.56
  -7  -4  -8  328.26   34.19
  -7   4  -8  251.43   31.55
   7  -4   9  121.36   13.58
   7   4   9  100.60   20.39
   7  -4   9  134.83   57.23
  -7  -4  -9  162.16   25.26
  -7  -4  -9  138.79   21.77
  -7   4  -9   87.25   89.04
   7   4  10    9.46   16.66
   7  -4  10    2.44   15.62
  -7  -4 -10    6.54   16.34
  -7  -4 -10    5.59   10.93
  -7   4 -10    5.33   25.98
   7   4  11   40.27   33.32
   7  -4  11   60.44   32.54
  -7  -4 -11   42.86   40.35
  -7  -4 -11   64.40   45.50
  -7   4 -11   23.97   36.63
   7   4  12   87.48   22.34
   7  -4  12  100.06   24.72
  -7  -4 -12   65.59   88.85
  -7  -4 -12   78.40   78.11
  -7   4 -12   82.58   90.86
  -7  -5  13   26.64   30.17
  -7  -5  13   29.96   28.65
  -7   5  12   12.30   19.88
  -7  -5  12    5.92   20.00
  -7  -5  12   11.29   12.67
  -7   5  11   17.67   20.47
  -7  -5  11   66.16   15.55
  -7  -5  11   40.90   19.91
   7   5 -10  150.65   19.02
  -7   5  10  151.63   22.92
  -7  -5  10  137.71   21.69
   7   5  -9   25.81   23.51
  -7  -5   9   10.59   11.79
   7   5  -8   10.73    7.42
  -7   5   8    4.37   14.09
  -7  -5   8    7.78   11.11
   7   5  -7  217.76   23.84
  -7   5   7  215.07   23.49
  -7  -5   7  222.40   25.79
  -7   5   7  233.22   21.08
   7   5  -6   11.08   16.82
  -7   5   6    9.43   13.17
  -7  -5   6   15.95   19.89
  -7   5   6    9.33    6.99
  -7  -5   6   11.60   16.34
   7   5  -5   28.39   33.06
  -7   5   5   17.47   17.89
  -7  -5   5   27.77   28.73
  -7   5   5   25.58    9.02
  -7  -5   5   17.45   19.87
  -7   5   5   20.43   22.49
   7   5  -4  149.50   19.44
  -7   5   4  156.90   22.92
  -7  -5   4  214.53   23.50
  -7   5   4  154.30   15.99
  -7  -5   4  224.96   23.85
  -7   5   4  154.08   17.86
   7  -5  -3   64.39   12.05
   7   5  -3   55.27   49.42
  -7  -5   3   79.07   20.57
  -7   5   3   67.92   11.24
  -7  -5   3   69.57   17.07
  -7   5   3   70.53   11.15
   7  -5  -2   16.88   29.25
   7   5  -2   15.98   20.81
  -7  -5   2   14.27   21.21
  -7   5   2   15.15   12.36
  -7  -5   2   25.94   18.36
  -7   5   2   18.55    9.49
   7  -5  -1  106.37   35.43
   7   5  -1   59.33   52.37
  -7  -5   1   96.16   16.12
  -7   5   1   48.06   46.33
  -7  -5   1   92.63   13.51
  -7   5   1   58.90   14.73
   7  -5   0  223.57   23.24
   7   5   0  235.20   28.81
   7  -5   0  216.09   25.77
  -7  -5   0  214.83   29.81
  -7  -5   0  221.93   31.80
  -7   5   0  260.57   31.42
   7  -5   1   76.16   24.51
   7   5   1   63.92   47.19
   7  -5   1   83.91   36.28
  -7  -5  -1   85.00   14.52
  -7  -5  -1   76.37   52.86
  -7   5  -1   80.07   22.49
   7  -5   2   18.36   15.23
   7   5   2    9.43   22.12
   7  -5   2   13.24   13.26
  -7  -5  -2   15.41   17.01
  -7  -5  -2   14.58   15.59
  -7   5  -2   15.29   18.24
   7  -5   3  206.19   19.20
   7   5   3  184.18   59.61
   7  -5   3  230.25   28.16
  -7  -5  -3  206.51   23.86
  -7  -5  -3  182.95   22.83
  -7   5  -3  185.47   29.09
   7  -5   4   84.41    9.78
   7   5   4   82.32   69.94
   7  -5   4   82.37   78.56
  -7  -5  -4   67.16   60.27
  -7  -5  -4   79.49   59.85
  -7   5  -4   79.14   18.20
   7  -5   5    7.34   11.01
   7   5   5   14.85   14.80
   7  -5   5   12.83   28.29
  -7  -5  -5   18.87   22.10
  -7  -5  -5   21.33   19.01
  -7   5  -5   13.55   13.81
   7  -5   6   14.88   13.78
   7   5   6   19.84   13.29
   7  -5   6   15.40   16.90
  -7  -5  -6   27.01   19.61
  -7  -5  -6   27.80   18.33
  -7   5  -6   22.52   27.61
   7   5   7  110.90   70.09
   7  -5   7   76.35   69.70
  -7  -5  -7  124.39   22.67
  -7  -5  -7  102.16   18.54
  -7   5  -7  120.74   66.62
   7   5   8   87.04   20.16
   7  -5   8   48.28   43.72
  -7  -5  -8   66.38   25.10
  -7  -5  -8   59.39   70.98
  -7   5  -8   78.45   99.16
   7   5   9   36.93   34.37
   7  -5   9   27.82   32.68
  -7  -5  -9   32.95   41.14
  -7  -5  -9   51.13   53.10
  -7   5  -9   52.41   27.93
   7   5  10   35.07   35.60
   7  -5  10   38.28   40.73
  -7  -5 -10   48.20   17.28
  -7  -5 -10   44.63   52.82
  -7   5 -10   29.97   50.05
   7   5  11   14.33   15.97
   7  -5  11   18.70   32.50
  -7  -5 -11   21.78   35.21
  -7  -5 -11   15.56   20.07
  -7   5 -11   12.71   17.34
  -7   6  12   68.18   77.72
  -7  -6  12   81.30   18.11
  -7  -6  12   67.00   64.65
  -7   6  11   -1.04   17.03
  -7  -6  11    8.50   22.13
   7   6 -10   14.67   17.69
  -7   6  10   15.00   31.31
  -7  -6  10   17.95   18.63
   7   6  -9  130.21   16.69
  -7   6   9  112.90   24.03
  -7  -6   9  141.21   25.79
   7   6  -8  105.85   16.71
  -7   6   8  115.30   23.63
  -7  -6   8  105.24   56.82
   7   6  -7   11.30   15.07
  -7   6   7    5.18    9.29
  -7  -6   7    9.19   19.12
   7   6  -6   67.55   56.87
  -7   6   6   70.84   16.71
  -7  -6   6   80.81   63.21
  -7  -6   6   76.58   10.69
   7   6  -5  484.00   39.24
  -7   6   5  439.63   38.17
  -7  -6   5  505.09   43.27
  -7   6   5  477.87   35.83
  -7  -6   5  445.81   35.10
   7   6  -4   34.26   34.36
  -7   6   4   36.02   42.02
  -7  -6   4   30.35   32.85
  -7   6   4   49.58   10.17
  -7  -6   4   28.21   27.41
  -7   6   4   41.87   16.04
   7   6  -3   77.12   14.96
  -7   6   3   78.26   11.56
  -7  -6   3   90.21   15.78
  -7   6   3   83.67   13.41
  -7  -6   3   90.27   18.89
  -7   6   3   94.49   27.70
   7   6  -2  147.39   20.59
  -7   6   2  138.97   15.92
  -7  -6   2  118.27   18.03
  -7   6   2  145.16   18.54
  -7  -6   2  129.18   42.53
  -7   6   2  128.33   23.29
   7  -6  -1  102.64   13.62
   7   6  -1   67.21   64.54
  -7  -6   1   96.28   17.68
  -7  -6   1   98.72   13.25
  -7   6   1   59.94   14.40
   7  -6   0   27.70   25.18
   7   6   0   32.72   29.16
   7  -6   0   28.47   24.75
  -7  -6   0   31.28   19.46
  -7  -6   0   23.96   19.25
  -7   6   0   32.83   14.78
   7  -6   1   72.26    9.78
   7   6   1   51.47   44.47
   7  -6   1   66.03   14.73
  -7  -6  -1   75.10   19.46
  -7  -6  -1   84.82   22.65
  -7   6  -1   63.49   18.82
   7  -6   2   66.21    8.66
   7   6   2   48.03   33.90
   7  -6   2   63.91   14.64
  -7  -6  -2   71.86   15.54
  -7  -6  -2   88.58   22.01
  -7   6  -2   44.50   16.34
   7  -6   3   82.15   20.31
   7   6   3   69.58   64.54
   7  -6   3   86.04   16.56
  -7  -6  -3   76.92   15.08
  -7  -6  -3   80.50   13.29
  -7   6  -3   83.71   67.47
   7  -6   4    2.16    4.39
   7   6   4   10.47   15.24
   7  -6   4    1.33   12.99
  -7  -6  -4    3.22    6.40
  -7  -6  -4    3.78    8.22
  -7   6  -4    6.54   13.40
   7   6   5  182.74   56.02
   7  -6   5  144.73   33.00
  -7  -6  -5  170.12   24.47
  -7  -6  -5  170.29   21.79
  -7   6  -5  200.84   30.35
   7   6   6  124.60   19.36
   7  -6   6  151.33   40.77
  -7  -6  -6  157.62   20.23
  -7  -6  -6  155.11   31.19
  -7   6  -6  146.14   32.76
   7   6   7    4.51    7.26
   7  -6   7    3.41   14.07
  -7  -6  -7   -1.52   12.44
  -7  -6  -7    3.07   10.88
  -7   6  -7    6.56   19.30
   7   6   8  154.58   25.15
   7  -6   8  146.92   26.71
  -7  -6  -8  142.50   20.91
  -7  -6  -8  153.31   32.23
  -7   6  -8  151.95  113.19
   7   6   9  156.19   67.61
   7  -6   9  210.55   32.08
  -7  -6  -9  166.06   20.98
  -7  -6  -9  171.41   25.21
  -7   6  -9  120.01  115.12
   7   6  10   13.50   19.02
   7  -6  10    4.96   14.35
  -7  -6 -10    8.92   15.89
  -7  -6 -10    0.83    7.86
  -7   6 -10   -7.53   23.19
   7   6  11   56.79   46.42
   7  -6  11   42.19   73.03
  -7  -6 -11   60.81   67.12
  -7   6 -11   58.08   88.72
  -7   7  11   -3.17   13.41
  -7  -7  11    6.89   12.24
  -7  -7  11   15.44   22.24
   7   7 -10   50.10   13.78
  -7   7  10   37.66   40.63
  -7  -7  10   49.11   45.71
   7   7  -9    6.99   12.87
  -7   7   9   12.39   14.19
  -7  -7   9    4.95   10.94
   7   7  -8   19.62   14.74
  -7   7   8   17.79   29.99
  -7  -7   8    8.23   19.19
   7   7  -7  111.11   22.65
  -7   7   7  101.98   16.20
  -7  -7   7  102.27   84.87
   7   7  -6   17.70   12.63
  -7   7   6   23.33   12.19
  -7  -7   6    7.32    7.55
  -7  -7   6   11.92   13.25
   7   7  -5   46.32   32.36
  -7   7   5   34.34   47.60
  -7  -7   5   49.33   39.02
   7  -7  -5   49.51   40.34
  -7  -7   5   34.13   26.09
   7   7  -4   58.05   52.18
  -7   7   4   62.89   49.25
  -7  -7   4   50.46   44.67
   7  -7  -4   55.95   28.40
  -7  -7   4   65.16   15.55
   7   7  -3   34.95   12.57
  -7   7   3   29.62   23.57
  -7  -7   3   43.69   30.63
  -7   7   3   25.96   21.15
  -7  -7   3   53.00   13.91
   7   7  -2   89.69   13.69
  -7   7   2   85.22   10.67
  -7  -7   2  100.96   19.96
  -7   7   2   67.76   11.64
  -7  -7   2  102.58   25.00
  -7   7   2   63.23   18.35
   7   7  -1   38.40   27.22
  -7   7   1   34.08   26.51
   7  -7  -1   29.25   32.55
  -7  -7   1   35.68   22.05
  -7  -7   1   39.05   37.29
  -7   7   1   43.46   26.98
   7   7   0  238.95   24.93
  -7   7   0  262.18   21.69
   7  -7   0  275.50   26.15
  -7  -7   0  291.27   31.39
  -7  -7   0  313.22   29.58
  -7   7   0  241.60   25.62
   7   7   1   80.72   54.43
   7  -7   1   92.36   14.45
  -7  -7  -1   79.02   18.21
  -7  -7  -1   71.53   22.57
  -7   7  -1   90.19   21.13
   7   7   2   26.02   20.99
   7  -7   2    7.82   10.34
  -7  -7  -2    7.30    7.15
  -7  -7  -2   11.38   11.83
  -7   7  -2    9.01   13.49
   7   7   3  190.07   24.62
   7  -7   3  185.62   21.84
  -7  -7  -3  171.72   40.76
  -7  -7  -3  200.24   23.99
  -7   7  -3  160.37   23.37
   7   7   4   75.63   65.49
   7  -7   4   79.62   41.68
  -7  -7  -4   61.58   13.06
  -7  -7  -4   62.51   56.49
  -7   7  -4   98.81   31.47
   7   7   5    6.99   12.41
   7  -7   5    7.54   14.64
  -7  -7  -5    9.82   11.44
  -7  -7  -5   10.45   10.45
  -7   7  -5    3.84   21.52
   7   7   6   12.07   19.54
   7  -7   6   17.85   20.59
  -7  -7  -6   13.14   27.89
  -7  -7  -6   16.02   32.83
  -7   7  -6    9.89   16.30
   7   7   7   22.10   22.96
   7  -7   7   17.06   17.90
  -7  -7  -7   23.79   37.20
  -7  -7  -7   24.78   28.43
  -7   7  -7   22.50   22.44
   7   7   8   40.36   45.87
   7  -7   8   55.02   49.16
  -7  -7  -8   73.17   16.65
  -7  -7  -8   73.50   58.97
  -7   7  -8   39.98   49.79
   7   7   9    8.86   13.87
   7  -7   9   -4.92   22.20
  -7  -7  -9    7.00    9.11
  -7   7  -9   -5.42   27.94
   7   7  10   43.36   60.46
   7  -7  10   36.45   65.39
  -7  -7 -10   41.00   44.00
  -7   7 -10   39.30   38.74
  -7  -8  10   14.95   15.97
   7   8  -9   19.69   20.49
  -7   8   9   21.51   21.84
  -7  -8   9   14.14   31.33
   7   8  -8   20.22   23.54
  -7   8   8   22.95   24.29
  -7  -8   8   31.80   35.91
   7   8  -7   15.92   16.46
  -7   8   7   22.00   18.48
  -7  -8   7   16.61   29.63
   7   8  -6   85.49   17.09
  -7   8   6   85.33   14.62
  -7  -8   6   53.94   44.17
  -7  -8   6   57.96   13.40
   7   8  -5   37.23   32.94
  -7   8   5   36.09   44.08
  -7  -8   5   36.33   32.16
   7  -8  -5   60.51   17.01
  -7  -8   5   68.24   15.39
   7   8  -4   19.51   13.48
  -7   8   4   20.33   19.18
  -7  -8   4    8.44   13.16
   7  -8  -4   16.42   11.62
  -7  -8   4   10.56   10.57
   7   8  -3   17.97   12.82
  -7   8   3   19.49   20.71
  -7  -8   3   22.71   19.46
   7  -8  -3   27.66   27.56
  -7  -8   3   28.89   25.72
   7   8  -2   96.54   18.06
  -7  -8   2   94.62   17.95
  -7   8   2   86.17   13.88
  -7  -8   2  110.00   16.72
   7   8  -1  142.33   19.18
   7  -8  -1  117.48   16.01
  -7  -8   1  124.99   16.34
  -7  -8   1  129.53   15.75
  -7   8   1  141.96   23.02
   7   8   0    1.58    5.48
   7  -8   0    6.58   10.73
  -7  -8   0    6.99    9.00
  -7  -8   0    8.42   10.42
  -7   8   0    0.15   12.47
   7   8   1   38.03   44.81
   7  -8   1   29.61   24.79
  -7  -8  -1   29.65   24.54
  -7  -8  -1   25.12   29.87
  -7   8  -1   48.04   20.99
   7   8   2   50.08   39.70
   7  -8   2   26.29   32.05
  -7  -8  -2   32.16   37.04
  -7  -8  -2   35.29   40.67
  -7   8  -2   46.62   53.71
   7   8   3    0.45   11.46
   7  -8   3   -3.84   12.88
  -7  -8  -3    5.16   14.41
  -7  -8  -3    7.28   11.33
  -7   8  -3    9.08   15.50
   7   8   4   61.16   68.57
   7  -8   4   78.74   17.19
  -7  -8  -4   65.12   16.44
  -7  -8  -4   66.11   61.28
  -7   8  -4   68.69   77.35
   7   8   5   55.35   59.79
   7  -8   5   77.17   66.30
  -7  -8  -5   90.39   13.61
  -7  -8  -5   80.34   73.33
  -7   8  -5   62.22   32.52
   7   8   6   40.89   45.60
   7  -8   6   40.07   43.28
  -7  -8  -6   25.29   46.51
  -7  -8  -6   38.41   47.75
  -7   8  -6   72.90   30.93
   7   8   7    4.53   11.85
   7  -8   7    3.01   15.14
  -7  -8  -7   16.83   13.10
  -7  -8  -7   14.43   18.51
  -7   8  -7    9.04   18.97
   7   8   8   24.57   44.20
   7  -8   8   33.94   37.62
  -7  -8  -8   71.95   21.61
  -7   8  -8   40.08   47.34
  -7   9   8   26.86   40.92
  -7  -9   8   51.70   44.45
   7   9  -7   10.30   25.74
  -7   9   7    9.15   18.81
  -7  -9   7   15.40   30.24
   7   9  -6   91.79   13.73
  -7   9   6  110.97   17.90
  -7  -9   6  128.08   67.21
  -7  -9   6  108.46   16.59
   7   9  -5    9.10    8.41
  -7  -9   5   21.01   31.51
  -7  -9   5   15.96   30.52
   7   9  -4   32.49   12.02
  -7  -9   4   24.16   35.06
   7  -9  -4   21.11   30.29
  -7  -9   4   27.30   32.45
   7   9  -3   82.91   36.93
  -7  -9   3   83.28   16.52
   7  -9  -3   69.15   14.53
  -7  -9   3   72.33   59.37
   7   9  -2   11.03   18.93
  -7  -9   2   16.52   22.08
   7  -9  -2    0.78    8.50
  -7  -9   2   10.07    6.86
   7   9  -1   21.19   25.71
  -7  -9   1   19.35   22.15
  -7  -9   1   28.53   26.75
  -7   9   1   21.62   27.73
   7   9   0  140.94   21.22
   7  -9   0  119.68   16.90
  -7  -9   0  132.30   20.44
  -7  -9   0  147.23   21.40
  -7   9   0  128.55   34.97
   7   9   1    7.40   10.42
   7  -9   1   13.72   18.59
  -7  -9  -1    8.98   11.62
  -7  -9  -1    7.11   19.61
  -7   9  -1    8.42   12.50
   7   9   2    3.85    8.87
   7  -9   2    8.88   16.84
  -7  -9  -2    4.46   10.37
  -7  -9  -2    8.64   10.69
  -7   9  -2   15.55   19.25
   7   9   3  142.07   18.48
   7  -9   3  120.56   17.87
  -7  -9  -3  121.22   15.68
  -7  -9  -3  117.63   31.91
  -7   9  -3  114.87   25.89
   7   9   4   17.28   12.10
   7  -9   4    9.40   17.70
  -7  -9  -4   17.43   12.33
  -7  -9  -4   23.37   19.67
  -7   9  -4    9.88   14.09
   7   9   5   -6.04   14.64
   7  -9   5    4.41   11.69
  -7  -9  -5    7.26   12.17
  -7  -9  -5    7.60   18.41
  -7   9  -5   -3.94   18.96
   7   9   6   21.00   27.33
   7  -9   6   10.07   11.81
  -7  -9  -6   20.76   25.34
  -7   9  -6   36.07   25.30
   7  -9   7   10.70   21.42
  -7 -10   5  126.00   22.94
  -7 -10   5  107.38   20.59
   7  10  -4   11.31   13.34
  -7 -10   4   18.41   28.86
   7 -10  -4   12.32   22.95
  -7 -10   4   12.86   24.40
   7  10  -3    9.78   10.63
  -7 -10   3    9.83   19.24
   7 -10  -3    3.75   11.06
  -7 -10   3   13.41   14.03
   7  10  -2   62.77   15.04
  -7 -10   2   41.37   64.03
   7 -10  -2   95.63   25.35
  -7 -10   2   81.47   17.86
   7  10  -1   17.43   17.03
  -7 -10   1    7.40   18.15
  -7 -10   1    8.05    8.92
   7  10   0   -3.28   12.61
  -7 -10   0   -1.11   14.60
  -7 -10   0   10.33   14.86
  -7  10   0   -4.83   14.03
   7  10   1   10.92   11.50
  -7 -10  -1    5.20    9.29
  -7 -10  -1   -0.09   12.40
  -7  10  -1   14.71   15.58
   7  10   2   94.27   18.49
  -7 -10  -2   63.35   28.03
  -7 -10  -2   51.69   46.70
  -7  10  -2   41.16   55.69
   7  10   3   15.24   14.17
   7 -10   3    7.17   10.25
  -7 -10  -3   16.03   20.51
  -7 -10  -3    6.91   11.34
  -7  10  -3   16.88   15.51
   7  10   4    2.71   10.25
   7 -10   4    5.58   11.57
  -7 -10  -4   11.32   12.44
  -7  10  -4   -1.40   18.22
  -8   0  13   21.11   37.11
  -8   0  13   15.38   13.88
  -8   0  12    4.12   10.13
  -8   0  12   -3.33   11.53
  -8   0  11   33.02   37.28
  -8   0  11   34.56   31.59
  -8   0  10  300.33   28.96
  -8   0  10  302.86   21.94
   8   0  -9    8.71   10.57
  -8   0   9    3.79   10.86
   8   0  -8  113.26   17.44
  -8   0   8  118.12   19.58
   8   0  -7  556.76   47.56
  -8   0   7  583.38   61.46
   8   0  -6   32.96   18.49
  -8   0   6   18.34   25.25
   8   0  -5    1.66    6.72
  -8   0   5   11.43   15.41
   8   0  -4  208.76   24.29
  -8   0   4  186.06   34.17
   8   0  -3   11.11   11.84
  -8   0   3   15.80   21.52
  -8   0   3    9.50    8.50
   8   0  -2  298.67   32.81
  -8   0   2  301.31   29.31
  -8   0   2  284.51   19.35
   8   0  -1   78.11   16.02
  -8   0   1  100.11   24.37
  -8   0   1   89.42    8.47
   8   0   0  357.60   33.87
  -8   0   0  310.05   32.49
  -8   0   0  355.59   26.38
   8   0   1  139.21   17.89
  -8   0  -1  159.65   20.81
  -8   0  -1  177.27   17.02
   8   0   2   36.47   35.52
  -8   0  -2   32.29   24.31
  -8   0  -2   27.52   21.97
   8   0   3  363.28   35.82
  -8   0  -3  430.86   46.76
  -8   0  -3  402.98   39.05
   8   0   4   24.31   19.25
  -8   0  -4   21.77   27.39
  -8   0  -4   19.02   22.69
   8   0   5   12.40   29.43
   8   0   5   12.46   11.80
  -8   0  -5   19.89   16.03
   8   0   6   19.32   13.81
   8   0   6   25.17   15.18
  -8   0  -6   13.66   14.81
   8   0   7  364.93   80.58
   8   0   7  343.26   37.35
  -8   0  -7  428.20   89.43
   8   0   8    1.70    8.26
   8   0   8   -1.12   14.33
  -8   0  -8    0.88    7.16
   8   0   9   -3.40   11.35
   8   0   9    5.23   11.30
  -8   0  -9    8.47   12.73
   8   0  10  179.19   22.13
   8   0  10  166.38   24.11
  -8   0 -10  192.01   27.22
   8   0  11    3.72   11.56
   8   0  11   -3.49   15.25
  -8   0 -11   13.25   18.37
   8   0  12    5.59   10.89
   8   0  12    0.07   17.46
  -8   0 -12   -6.83   18.88
  -8  -1  13   37.83   20.68
  -8   1  13   39.23   31.16
  -8  -1  13   45.73   18.92
  -8   1  13   42.67   24.21
  -8   1  12   46.14   17.76
  -8  -1  12   43.78   46.89
  -8   1  12   55.65   30.94
  -8  -1  12   40.76   53.08
  -8  -1  11   33.65   40.01
  -8   1  11   28.12   32.44
  -8   1  11   33.72   35.07
  -8  -1  11   29.44   33.38
   8   1 -10   20.83   19.33
  -8   1  10   27.53   16.63
  -8  -1  10   11.96   14.50
  -8   1  10   23.77   18.08
   8   1  -9   21.75   28.92
  -8   1   9   27.31   16.16
  -8   1   9   21.59   14.58
  -8  -1   9   -1.42   13.61
   8   1  -8  274.46   38.50
   8  -1  -8  224.70   29.63
  -8   1   8  292.32   26.72
  -8  -1   8  212.68   22.90
   8  -1  -7   14.65   16.89
   8   1  -7    9.44   10.70
  -8   1   7    8.60   13.82
  -8  -1   7   11.07   13.57
   8   1  -6  231.56   25.57
   8  -1  -6  265.78   30.59
  -8   1   6  253.61   23.84
  -8  -1   6  248.35   27.41
   8  -1  -5  405.30   35.50
   8   1  -5  449.06   44.57
  -8  -1   5  408.82   34.78
  -8   1   5  480.94   37.70
   8  -1  -4   46.81   42.55
   8   1  -4   44.87   31.44
  -8   1   4   34.77   33.79
  -8  -1   4   57.58   21.82
   8  -1  -3  180.67   26.10
   8   1  -3  155.36   19.77
  -8  -1   3  154.00   23.68
  -8   1   3  177.64   44.18
  -8  -1   3  148.70   13.30
  -8   1   3  166.76   14.82
   8  -1  -2  101.94   16.53
   8   1  -2   91.01   16.05
  -8   1   2   99.46   60.46
  -8  -1   2  114.02   32.45
  -8  -1   2   92.07   16.54
  -8   1   2  118.06    9.47
   8  -1  -1   62.54   13.46
   8   1  -1   89.58   18.87
  -8  -1   1   65.24   64.78
  -8   1   1   88.93   17.81
  -8  -1   1   68.43    8.47
  -8   1   1   87.73   18.71
   8  -1   0  117.88   15.24
   8   1   0  131.20   19.24
  -8   1   0  134.48   24.85
  -8  -1   0  121.57   18.67
  -8  -1   0  132.83   11.42
  -8   1   0  153.21   31.10
   8   1   1   84.16   16.65
   8  -1   1  114.61   14.51
  -8  -1  -1  104.78   17.91
  -8   1  -1   79.84   56.81
  -8  -1  -1  125.67   13.85
  -8   1  -1   84.14   18.06
   8  -1   2  100.04   13.48
   8   1   2  134.53   20.93
  -8  -1  -2   94.63   64.02
  -8   1  -2  136.61   25.42
  -8  -1  -2  100.34   13.04
  -8   1  -2  163.08   20.92
   8  -1   3   59.15   40.10
   8   1   3   48.52   54.55
  -8   1  -3   64.57   49.66
  -8  -1  -3   65.15   47.34
  -8  -1  -3   68.37   63.93
  -8   1  -3   69.87   17.85
   8   1   4  177.92   18.65
   8  -1   4  196.35   21.67
   8  -1   4  192.99   24.16
  -8  -1  -4  254.33   34.47
  -8  -1  -4  215.39   24.71
  -8   1  -4  206.75   28.10
   8  -1   5  199.82   56.88
   8   1   5  188.99   32.05
   8  -1   5  211.11   31.31
  -8  -1  -5  189.26   26.33
  -8  -1  -5  189.36   23.32
  -8   1  -5  191.27   28.11
   8  -1   6  214.80   26.13
   8   1   6  154.08   21.41
   8  -1   6  174.28   27.16
  -8  -1  -6  195.52   24.33
  -8   1  -6  182.70   26.32
   8   1   7   47.65   41.87
   8  -1   7   43.03   34.66
   8  -1   7   45.43   30.68
   8   1   7   50.54   46.55
  -8  -1  -7   47.95   42.33
  -8   1  -7   48.64   32.58
   8  -1   8   82.65   15.35
   8   1   8   55.99   72.95
   8   1   8   60.84   64.38
   8  -1   8   90.33   56.61
  -8  -1  -8   71.91   69.81
  -8   1  -8   98.86   27.63
   8  -1   9   24.30   24.56
   8   1   9   24.71   26.41
   8   1   9   23.25   25.03
   8  -1   9   28.72   29.01
  -8  -1  -9   20.18   36.79
  -8   1  -9   23.21   19.37
   8  -1  10  108.57   42.75
   8   1  10   54.21   65.11
   8   1  10   95.55   42.71
   8  -1  10   86.14   74.76
  -8  -1 -10   89.32   80.97
  -8   1 -10   63.48   45.61
   8  -1  11    3.71   15.20
   8   1  11    5.69   12.52
   8   1  11    1.03    8.75
   8  -1  11    1.95   10.15
  -8  -1 -11   -1.34   22.62
  -8   1 -11    8.71   17.11
   8  -1  12   26.68   45.19
   8   1  12   32.87   34.86
   8   1  12   22.69   36.64
   8  -1  12   43.03   41.43
  -8  -1 -12   47.58   46.72
  -8   1 -12   15.27   21.15
  -8   2  13    9.68   21.64
  -8  -2  13   14.92   16.51
  -8  -2  13   20.54   33.79
  -8   2  12   21.74   27.98
  -8  -2  12   11.02   16.33
  -8  -2  12    9.18   16.17
  -8   2  12    9.61   10.98
  -8   2  11   49.03   17.90
  -8  -2  11   80.13   20.79
  -8   2  11   65.76   53.62
  -8  -2  11   59.24   62.79
   8   2 -10   79.90   19.17
  -8   2  10   77.82   69.52
  -8  -2  10   85.01   54.84
  -8   2  10   78.53   13.09
   8   2  -9   -3.37   12.56
  -8   2   9   -0.29   16.14
  -8  -2   9   11.09   17.60
  -8   2   9    5.22   10.09
   8  -2  -8   32.08   28.74
   8   2  -8   29.77   27.92
  -8   2   8   24.89   19.88
  -8  -2   8   42.60   31.12
   8  -2  -7   40.51   35.36
   8   2  -7   60.03   41.61
  -8  -2   7   42.03   26.22
  -8   2   7   59.50   14.70
   8  -2  -6   50.99   53.62
   8   2  -6   46.99   31.40
  -8  -2   6   53.32   54.19
  -8   2   6   32.68   46.52
   8  -2  -5   16.96   13.00
   8   2  -5    7.69   14.82
  -8  -2   5   12.15   16.50
  -8   2   5    6.99   16.02
   8  -2  -4   39.76   38.61
   8   2  -4   20.48   23.32
  -8  -2   4   21.15   30.54
  -8   2   4   17.85   12.15
   8  -2  -3  370.63   38.15
   8   2  -3  337.45   35.11
  -8  -2   3  404.33   79.32
  -8   2   3  340.83   40.06
  -8  -2   3  437.93   35.45
  -8   2   3  354.38   31.26
   8  -2  -2   42.19   21.80
   8   2  -2   45.34   38.02
  -8  -2   2   33.73   32.89
  -8   2   2   43.87   43.60
  -8  -2   2   36.33   26.29
  -8   2   2   39.67    8.96
   8  -2  -1  153.45   18.70
   8   2  -1  137.75   19.41
  -8  -2   1  158.24   21.84
  -8   2   1  141.89   22.15
  -8  -2   1  156.24   30.80
  -8   2   1  167.87   19.85
   8  -2   0  427.27   39.05
   8   2   0  381.00   38.06
  -8  -2   0  407.35   41.15
  -8   2   0  432.06   45.89
  -8  -2   0  452.91   40.04
  -8   2   0  381.21   38.09
   8  -2   1  127.96   44.45
   8   2   1  175.30   32.19
  -8  -2  -1  186.81   31.11
  -8   2  -1  177.66   50.31
  -8  -2  -1  158.16   18.50
  -8   2  -1  174.14   22.69
   8  -2   2  335.97   35.02
   8   2   2  331.84   33.47
  -8  -2  -2  356.03   38.41
  -8   2  -2  368.23   41.16
  -8  -2  -2  380.19   45.42
  -8   2  -2  336.98   34.24
   8  -2   3  263.35   39.92
   8   2   3  289.43   28.67
   8  -2   3  302.04   33.76
  -8  -2  -3  284.16   30.89
  -8  -2  -3  334.94   61.47
  -8   2  -3  305.60   32.12
   8  -2   4  298.60   31.58
   8   2   4  270.58   26.84
   8  -2   4  288.21   37.71
  -8  -2  -4  295.02   32.59
  -8  -2  -4  308.50   31.19
  -8   2  -4  278.56   34.34
   8  -2   5   29.98   29.34
   8   2   5   20.01   18.79
   8  -2   5   24.10   22.70
  -8  -2  -5   27.41   26.27
  -8   2  -5   30.41   15.37
   8  -2   6    1.18    9.44
   8   2   6    7.75    7.48
   8  -2   6    7.29   11.08
  -8  -2  -6   11.35   17.99
  -8  -2  -6   -0.70   13.89
  -8   2  -6    3.93    8.28
   8  -2   7  204.06   23.42
   8   2   7  164.50   51.65
   8  -2   7  204.68   51.00
  -8  -2  -7  235.52   31.91
  -8  -2  -7  213.25   51.20
  -8   2  -7  189.55   33.00
   8  -2   8   13.88   11.49
   8   2   8   11.61   23.30
   8  -2   8   12.05   16.84
  -8  -2  -8   21.10   27.05
  -8  -2  -8    9.99   19.61
  -8   2  -8   25.56   20.23
   8  -2   9    9.29   14.96
   8   2   9    7.30   11.55
   8   2   9    6.01   16.24
   8  -2   9   15.35   28.77
  -8  -2  -9    6.17   19.25
  -8   2  -9   16.23   18.74
   8  -2  10  132.78   17.68
   8   2  10  146.83   48.58
   8   2  10  128.89   57.51
   8  -2  10  121.25   24.68
  -8  -2 -10  107.50   90.18
  -8   2 -10  181.31   35.82
   8  -2  11   84.60   16.82
   8   2  11   52.13   62.08
   8   2  11   44.47   60.69
   8  -2  11   51.01   54.76
  -8  -2 -11   55.06   76.63
  -8   2 -11   68.71   91.13
   8  -2  12   15.08   12.96
   8   2  12   11.95   13.99
   8   2  12   14.46   22.91
   8  -2  12   16.65   24.80
  -8  -2 -12   17.22   29.70
  -8   2 -12   -0.90   19.34
  -8   3  13   57.62   45.10
  -8  -3  13   42.38   43.96
  -8  -3  13   44.77   64.57
  -8   3  12   36.11   32.52
  -8  -3  12   36.47   36.56
  -8  -3  12   30.64   37.57
   8   3 -11   28.95   26.98
  -8   3  11   45.16   32.89
  -8  -3  11   26.85   29.13
   8   3 -10    8.57   11.18
  -8   3  10    4.17   19.25
  -8  -3  10   10.67   10.40
  -8   3  10   14.03   16.97
   8   3  -9  145.79   19.67
  -8   3   9  146.38   20.79
  -8  -3   9  189.78   38.52
  -8   3   9  156.96   26.26
   8   3  -8  102.68   16.69
  -8   3   8   83.43   72.85
  -8  -3   8  122.74   30.74
  -8   3   8  108.04   15.90
   8   3  -7    8.38   13.32
  -8  -3   7   12.80   14.99
  -8   3   7   11.35    8.73
   8  -3  -6  117.04   18.77
   8   3  -6  108.67   18.51
  -8  -3   6   98.64   19.68
  -8   3   6  115.58   19.07
   8  -3  -5   39.64   33.90
   8   3  -5   18.95   26.53
  -8  -3   5   43.48   18.23
  -8   3   5   26.08   19.20
   8  -3  -4   96.78   67.56
   8   3  -4   94.88   53.29
  -8  -3   4   82.88   23.25
  -8   3   4   75.38   14.66
   8  -3  -3  110.41   25.03
   8   3  -3  108.90   18.77
  -8  -3   3   94.86   17.22
  -8   3   3   97.92   15.95
  -8  -3   3   95.69   12.33
  -8   3   3   99.33   11.14
   8  -3  -2   91.42   50.87
   8   3  -2  114.59   37.75
  -8  -3   2   85.21   16.85
  -8   3   2   87.32   15.55
  -8  -3   2   84.91    7.90
  -8   3   2   93.11   18.01
   8  -3  -1  288.02   30.38
   8   3  -1  206.10   24.73
  -8  -3   1  261.16   29.48
  -8   3   1  221.84   30.35
  -8  -3   1  291.27   26.65
  -8   3   1  192.27   21.69
   8  -3   0   22.18   19.13
   8   3   0   18.20   21.47
  -8  -3   0   28.83   21.69
  -8   3   0   24.97   36.33
  -8  -3   0   26.99   18.84
  -8   3   0   26.16   19.03
   8  -3   1  140.20   16.10
   8   3   1  175.09   18.60
  -8  -3  -1  154.47   20.14
  -8   3  -1  177.34   42.00
  -8  -3  -1  158.41   32.25
  -8   3  -1  156.46   21.19
   8  -3   2  198.21   22.12
   8   3   2  168.58   19.00
   8  -3   2  190.56   24.64
  -8  -3  -2  218.53   29.08
  -8  -3  -2  227.75   21.09
  -8   3  -2  152.59   16.96
   8  -3   3   26.10   30.34
   8   3   3   65.77   38.98
   8  -3   3   36.35   26.55
  -8  -3  -3   28.64   38.80
  -8  -3  -3   51.09   46.66
  -8   3  -3   35.49   40.46
   8  -3   4    0.64   10.14
   8   3   4    0.46   10.92
   8  -3   4    0.81    7.74
  -8  -3  -4   -1.90   15.78
  -8  -3  -4    0.44   10.54
  -8   3  -4    7.84   22.96
   8  -3   5   47.19   42.63
   8   3   5   63.24   58.31
   8  -3   5   54.73   49.96
  -8  -3  -5   58.17   66.85
  -8  -3  -5   54.93   31.52
  -8   3  -5   86.10   21.09
   8  -3   6  110.20   24.97
   8   3   6  104.94   81.40
   8  -3   6  113.30   28.30
  -8  -3  -6  108.76   24.79
  -8  -3  -6  136.19   36.00
  -8   3  -6   98.58   76.85
   8  -3   7   10.19   10.89
   8   3   7   -0.82    7.97
   8  -3   7    2.18   10.11
  -8  -3  -7   21.87   32.60
  -8  -3  -7   -2.31   15.49
  -8   3  -7   11.00   20.07
   8  -3   8   10.06   12.95
   8   3   8   21.94   22.91
   8  -3   8   12.17   25.52
  -8  -3  -8   12.93   16.06
  -8  -3  -8   18.85   17.74
  -8   3  -8   16.20   26.98
   8  -3   9   46.61   31.67
   8   3   9   41.19   46.75
   8  -3   9   56.36   62.34
  -8  -3  -9   52.09   39.46
  -8  -3  -9   65.48   34.01
  -8   3  -9   27.75   20.05
   8  -3  10    8.91   20.98
   8   3  10   16.16   28.94
   8  -3  10   16.11   13.05
  -8  -3 -10   20.07   22.85
  -8  -3 -10    8.13   13.42
  -8   3 -10   21.76   22.91
   8   3  11    6.85    9.44
   8  -3  11    3.76   13.35
  -8  -3 -11    1.73    9.37
  -8  -3 -11   12.70   25.14
  -8   3 -11   11.22   19.93
  -8   4  12   29.48   26.49
  -8  -4  12   25.02   35.01
  -8  -4  12   17.63   23.86
   8   4 -11  131.53   47.16
  -8   4  11  135.95   27.77
  -8  -4  11  149.84   21.88
   8   4 -10  137.51   21.53
  -8   4  10  131.67   22.20
  -8  -4  10  103.30   22.43
   8   4  -9   16.23   18.91
  -8   4   9   15.75   16.67
  -8  -4   9    5.45   20.51
  -8   4   9    5.28   10.44
   8   4  -8   47.17   37.72
  -8   4   8   51.60   41.14
  -8  -4   8   44.28   50.24
  -8   4   8   43.86   12.44
   8   4  -7  155.42   19.96
  -8   4   7  146.05   20.65
  -8  -4   7  122.60   17.63
  -8   4   7  154.12   27.26
   8   4  -6  130.41   23.94
  -8   4   6  115.72   21.11
  -8  -4   6  106.37   21.02
  -8   4   6  124.22   17.64
   8  -4  -5    7.17   13.06
   8   4  -5    8.60   15.39
  -8  -4   5    4.16   14.40
  -8   4   5    6.13    5.25
   8  -4  -4   74.76   16.54
   8   4  -4   52.99   40.85
  -8  -4   4   82.77   18.76
  -8   4   4   38.41   46.13
  -8  -4   4   82.43    9.29
   8  -4  -3  110.60   16.39
   8   4  -3  140.71   39.21
  -8  -4   3  106.40   20.79
  -8   4   3  115.61   17.58
  -8  -4   3   99.57   12.34
  -8   4   3  112.06   18.24
   8  -4  -2   27.84   31.17
   8   4  -2   35.78   28.79
  -8  -4   2   34.93   33.01
  -8   4   2   42.35   36.77
  -8  -4   2   28.91    8.45
  -8   4   2   27.47   27.26
   8  -4  -1   46.31   23.84
   8   4  -1   60.53   43.35
  -8  -4   1   54.84   47.45
  -8   4   1   51.87   52.65
  -8  -4   1   59.28    8.95
  -8   4   1   53.46   34.79
   8  -4   0  214.20   23.72
   8   4   0  254.43   30.28
  -8  -4   0  217.93   26.88
  -8   4   0  215.72   24.42
  -8  -4   0  213.44   26.86
  -8   4   0  228.42   54.84
   8  -4   1  116.95   34.01
   8   4   1  126.74   38.72
   8  -4   1  103.55   41.67
  -8  -4  -1  109.10   19.90
  -8  -4  -1  117.77   22.72
  -8   4  -1  106.11   38.13
   8  -4   2   49.08   10.03
   8   4   2   57.19   48.27
   8  -4   2   58.88   55.95
  -8  -4  -2   61.99   55.46
  -8  -4  -2   61.76   14.55
  -8   4  -2   66.91   24.45
   8  -4   3  126.57   25.43
   8   4   3  128.80   43.35
   8  -4   3  139.31   26.10
  -8  -4  -3  173.69   27.70
  -8  -4  -3  135.40   48.78
  -8   4  -3  139.27   40.27
   8  -4   4   42.02   12.49
   8   4   4   30.28   41.10
   8  -4   4   33.08   39.67
  -8  -4  -4   40.04   18.80
  -8  -4  -4   38.54   28.72
  -8   4  -4   41.65   23.83
   8  -4   5   13.63   10.57
   8   4   5   15.71   23.29
   8  -4   5    7.18   11.02
  -8  -4  -5   16.03   19.20
  -8  -4  -5   11.42   13.07
  -8   4  -5    6.99    8.00
   8  -4   6   11.04   11.20
   8   4   6   12.18   25.78
   8  -4   6   26.05   27.71
  -8  -4  -6   19.86   18.19
  -8  -4  -6   12.31   11.90
  -8   4  -6   15.04   28.26
   8  -4   7  127.36   35.87
   8   4   7  153.98   22.91
   8  -4   7  152.44   26.96
  -8  -4  -7  145.68   20.13
  -8  -4  -7  156.58   21.58
  -8   4  -7  158.86   44.90
   8  -4   8   35.36   37.74
   8   4   8   46.06   38.52
   8  -4   8   40.42   53.00
  -8  -4  -8   70.95   17.68
  -8  -4  -8   64.52   63.08
  -8   4  -8   55.09   26.27
   8   4   9    7.00    9.19
   8  -4   9   -0.38   19.34
  -8  -4  -9   -4.38   16.27
  -8  -4  -9    5.53    5.78
  -8   4  -9    1.58   14.14
   8   4  10  118.53   24.80
   8  -4  10  105.94   26.81
  -8  -4 -10  134.96   24.36
  -8  -4 -10   78.73   89.83
  -8   4 -10  144.29   48.45
   8   4  11   47.22   61.54
   8  -4  11   64.52  104.62
  -8  -4 -11   49.93   91.67
  -8  -4 -11   95.15   21.65
  -8   4 -11   46.36   52.55
  -8   5  12   41.10   19.83
  -8  -5  12   17.75   44.14
  -8  -5  12   21.08   43.32
   8   5 -11   11.99   17.59
  -8   5  11   14.14   14.49
  -8  -5  11   -4.50   17.03
   8   5 -10   31.65   34.99
  -8   5  10   38.45   35.70
  -8  -5  10   40.69   38.69
   8   5  -9   43.69   30.22
  -8   5   9   42.82   36.16
  -8  -5   9   40.10   36.23
   8   5  -8   62.91   46.37
  -8   5   8   35.12   36.63
  -8  -5   8   44.64   52.78
   8   5  -7   14.23   20.55
  -8   5   7   14.78   11.22
  -8  -5   7   16.05   23.06
  -8   5   7   10.51    8.61
   8   5  -6   60.10   47.22
  -8   5   6   47.20   40.16
  -8  -5   6   36.70   38.05
  -8   5   6   61.39   11.65
   8   5  -5  116.58   22.04
  -8   5   5  113.83   15.40
  -8  -5   5   51.53   74.74
  -8   5   5  103.16   14.73
   8  -5  -4   33.60   37.23
   8   5  -4   22.54   35.72
  -8  -5   4   44.03   30.33
  -8   5   4   26.03   28.58
  -8  -5   4   46.69   17.71
   8  -5  -3   27.55   24.89
   8   5  -3   11.54   10.29
  -8  -5   3   26.50   15.32
  -8   5   3   25.04   13.19
  -8  -5   3   24.56   19.01
   8  -5  -2  139.77   17.78
   8   5  -2  142.47   18.51
  -8  -5   2  136.31   59.52
  -8   5   2  156.90   20.30
  -8  -5   2  133.25   14.82
  -8   5   2  136.83   19.27
   8  -5  -1   83.32   11.59
   8   5  -1   59.73   59.25
  -8  -5   1   58.29   54.69
  -8   5   1   56.35   59.62
  -8  -5   1   84.28   29.57
  -8   5   1   75.94   13.20
   8  -5   0    8.01   15.36
   8   5   0   11.42   15.18
  -8  -5   0   24.73   14.61
  -8   5   0    9.12   15.09
  -8  -5   0   14.35   12.70
  -8   5   0   13.83   17.87
   8  -5   1  222.69   21.38
   8   5   1  155.11   22.69
   8  -5   1  201.68   28.65
  -8  -5  -1  222.45   31.90
  -8  -5  -1  200.26   21.58
  -8   5  -1  186.54   26.11
   8  -5   2  108.10   11.97
   8   5   2   85.81   18.50
   8  -5   2  124.42   19.01
  -8  -5  -2  112.15   27.93
  -8  -5  -2  120.81   15.30
  -8   5  -2   55.54   63.50
   8  -5   3   40.89   37.13
   8   5   3   44.15   41.45
   8  -5   3   48.11   58.67
  -8  -5  -3   44.91   19.05
  -8  -5  -3   40.51   39.82
  -8   5  -3   51.18   35.06
   8  -5   4   36.73    9.39
   8   5   4   32.88   36.70
   8  -5   4   26.91   28.47
  -8  -5  -4   26.77   28.05
  -8  -5  -4   29.43   20.04
  -8   5  -4   38.27   32.67
   8  -5   5   32.39   28.56
   8   5   5   27.89   25.42
   8  -5   5   35.40   29.33
  -8  -5  -5   33.72   36.79
  -8  -5  -5   35.16   29.78
  -8   5  -5   19.10   16.87
   8   5   6   46.19   51.40
   8  -5   6   41.04   48.11
  -8  -5  -6   64.91   19.66
  -8  -5  -6   50.32   55.21
  -8   5  -6   49.05   30.58
   8   5   7   22.84   26.67
   8  -5   7   14.29   20.48
  -8  -5  -7   27.01   18.88
  -8  -5  -7   20.04   23.59
  -8   5  -7   22.36   23.90
   8   5   8  100.88   22.55
   8  -5   8  114.28   58.13
  -8  -5  -8  134.49   28.77
  -8  -5  -8  118.96   20.24
  -8   5  -8   86.45   87.69
   8   5   9   40.14   39.77
   8  -5   9   36.87   52.37
  -8  -5  -9   42.19   19.52
  -8  -5  -9   24.98   26.96
  -8   5  -9   24.52   42.85
   8   5  10   29.71   30.52
   8  -5  10    7.72   23.72
  -8  -5 -10   34.27   24.68
  -8  -5 -10   26.31   30.86
  -8   5 -10   36.81   23.19
   8   6 -11   15.23   26.26
  -8   6  11   12.16   29.08
  -8  -6  11   22.91   25.18
   8   6 -10   65.72   15.62
  -8   6  10   45.25   46.57
  -8  -6  10   56.72   60.88
   8   6  -9   13.81   12.13
  -8   6   9    9.04   14.11
  -8  -6   9   10.47   17.31
   8   6  -8   17.60   23.53
  -8   6   8    6.74   10.85
  -8  -6   8   18.91   26.02
   8   6  -7  177.98   45.51
  -8   6   7  181.05   28.66
  -8  -6   7  151.79   23.14
   8   6  -6   -4.76   13.97
  -8   6   6    2.28    7.92
  -8  -6   6    5.86   15.97
   8   6  -5   -2.20   13.12
  -8   6   5   -2.32   11.18
  -8  -6   5    3.71    8.85
  -8   6   5    6.53    9.88
   8   6  -4  150.77   40.29
  -8   6   4  138.00   16.41
  -8  -6   4  159.92   20.30
  -8   6   4  137.01   15.01
  -8  -6   4  180.15   18.76
   8   6  -3  253.83   25.37
  -8   6   3  210.34   21.10
  -8  -6   3  262.81   27.43
  -8   6   3  235.55   69.56
  -8  -6   3  289.24   23.00
  -8   6   3  230.99   22.92
   8  -6  -2   18.75   16.81
   8   6  -2   37.36   52.37
  -8  -6   2   40.72   38.13
  -8   6   2   43.18   49.74
  -8  -6   2   23.74   23.95
  -8   6   2   54.55   18.04
   8  -6  -1    7.29    9.69
   8   6  -1   20.60   23.31
  -8  -6   1   17.40   21.93
  -8   6   1   17.85   22.81
  -8   6   1   21.95   14.22
   8  -6   0  328.21   24.76
   8   6   0  307.81   27.08
  -8  -6   0  249.59   34.55
  -8  -6   0  326.80   27.26
  -8   6   0  321.73   36.84
   8  -6   1    3.74    9.48
   8   6   1    3.58   16.20
   8  -6   1    4.60    9.39
  -8  -6  -1    9.90   16.92
  -8  -6  -1    5.10    6.05
  -8   6  -1   -1.12   12.99
   8  -6   2   13.45   16.81
   8   6   2   20.74   19.70
   8  -6   2   13.68   16.93
  -8  -6  -2   27.35   16.75
  -8  -6  -2   17.21   18.03
  -8   6  -2   12.20   16.52
   8   6   3  188.51   22.75
   8  -6   3  217.36   26.97
  -8  -6  -3  166.62   19.56
  -8  -6  -3  212.25   57.62
  -8   6  -3  206.33   55.71
   8   6   4   12.49   22.52
   8  -6   4   37.70   42.02
  -8  -6  -4   36.83   29.84
  -8  -6  -4   41.72   43.74
  -8   6  -4   14.19   18.38
   8   6   5   27.12   32.35
   8  -6   5   21.94   27.35
  -8  -6  -5   32.36   14.19
  -8  -6  -5   39.89   24.28
  -8   6  -5   25.66   26.13
   8   6   6  136.93   21.75
   8  -6   6  129.88   22.31
  -8  -6  -6  130.60   21.56
  -8  -6  -6  165.40   23.97
  -8   6  -6  108.11   90.75
   8   6   7   25.06   20.74
   8  -6   7   15.68   16.77
  -8  -6  -7   24.54   26.06
  -8  -6  -7   37.08   50.10
  -8   6  -7    8.65   19.85
   8   6   8   40.81   56.79
   8  -6   8   22.80   38.19
  -8  -6  -8   37.81   34.81
  -8  -6  -8   40.89   42.14
  -8   6  -8   46.61   24.56
   8   6   9   31.30   49.44
   8  -6   9   20.54   24.83
  -8  -6  -9   24.05   32.88
  -8  -6  -9   39.18   42.08
  -8   6  -9   22.88   35.04
   8   7 -10   14.55   17.95
  -8  -7  10    6.92   13.89
   8   7  -9    2.88    7.88
  -8   7   9    7.33   10.09
  -8  -7   9   13.21   18.10
   8   7  -8   39.59   43.26
  -8   7   8   42.35   45.05
  -8  -7   8   81.59   20.40
   8   7  -7   24.67   25.74
  -8   7   7   16.40   28.00
  -8  -7   7   25.26   17.82
   8   7  -6   -5.56   14.03
  -8   7   6    6.60   12.02
  -8  -7   6   10.72   14.53
   8   7  -5   85.70   18.58
  -8   7   5   85.73   16.91
  -8  -7   5   67.26   62.51
   8   7  -4   26.02   14.06
  -8   7   4   11.74   15.34
  -8  -7   4    5.77   13.70
  -8  -7   4   12.62   14.99
   8   7  -3    7.62   12.74
  -8   7   3   -2.31    9.57
  -8  -7   3    2.56    9.91
  -8   7   3    9.57   11.60
  -8  -7   3    5.62    6.63
  -8   7   3    6.19    8.52
   8   7  -2   25.06   36.06
  -8   7   2   31.10    9.11
  -8  -7   2   22.32   17.23
  -8   7   2   21.10   22.51
  -8  -7   2   14.75   19.71
  -8   7   2   23.07   27.66
   8   7  -1   33.17   23.23
  -8   7   1   39.77   14.18
  -8  -7   1   29.27   37.06
  -8   7   1   24.61   34.98
  -8  -7   1   36.08   39.58
  -8   7   1   48.82   17.02
   8   7   0   21.57   27.79
   8  -7   0   28.52   35.96
  -8  -7   0   35.26   23.92
  -8  -7   0   20.56   32.11
  -8   7   0   26.57   32.88
   8   7   1    5.82   14.31
   8  -7   1    6.29   12.81
  -8  -7  -1    3.38   10.00
  -8  -7  -1    9.16    9.69
  -8   7  -1    7.46   13.18
   8   7   2  100.06   19.42
   8  -7   2  100.47   18.14
  -8  -7  -2   85.26   15.45
  -8  -7  -2   99.24   16.62
  -8   7  -2   87.94   22.34
   8   7   3   45.55   44.45
   8  -7   3   47.89   47.74
  -8  -7  -3   37.53   37.08
  -8  -7  -3   43.40   45.00
  -8   7  -3   35.71   45.29
   8   7   4   26.00   29.60
   8  -7   4   24.66   35.42
  -8  -7  -4   40.74   19.70
  -8  -7  -4   31.05   26.07
  -8   7  -4   23.23   20.23
   8   7   5   56.25   67.82
   8  -7   5   32.38   71.02
  -8  -7  -5   67.57   21.80
  -8  -7  -5   96.86   20.03
  -8   7  -5   78.84   27.17
   8   7   6   58.16   56.34
   8  -7   6   34.15   52.26
  -8  -7  -6   37.37   64.08
  -8  -7  -6   40.27   62.90
  -8   7  -6   32.60   34.97
   8   7   7    4.55   10.55
   8  -7   7    7.04   12.09
  -8  -7  -7    7.77   12.47
  -8  -7  -7    3.13   11.68
  -8   7  -7   18.34   23.17
   8   7   8    8.19   12.24
   8  -7   8   15.48   24.35
  -8  -7  -8   24.31   20.80
  -8   7  -8    8.35   17.51
   8   8  -8   14.57   14.14
  -8   8   8   13.63   28.61
  -8  -8   8   22.13   19.71
   8   8  -7   94.24   53.18
  -8   8   7   91.70   16.25
  -8  -8   7   70.93   79.22
   8   8  -6  141.78   22.49
  -8   8   6  132.00   16.37
  -8  -8   6  106.28   84.81
   8   8  -5   26.02   41.19
  -8  -8   5   22.89   28.26
   8   8  -4   33.58   39.12
  -8   8   4   46.98   27.52
  -8  -8   4   39.56   56.76
  -8  -8   4   67.98   15.12
   8   8  -3   32.39   44.42
  -8  -8   3   31.10   23.15
  -8  -8   3   29.28   34.17
   8   8  -2   -1.76   14.97
  -8  -8   2    3.75    6.19
  -8  -8   2    1.08    5.60
  -8   8   2   10.30   19.41
   8   8  -1  113.58   21.89
  -8  -8   1   97.68   16.85
  -8   8   1   87.42   44.50
  -8  -8   1  119.62   17.78
  -8   8   1  100.41   19.45
   8   8   0   40.62   54.25
   8  -8   0   35.53   37.98
  -8  -8   0   32.58   37.11
  -8  -8   0   47.80   45.81
  -8   8   0   29.01   36.08
   8   8   1   -3.42   16.55
   8  -8   1    4.31   14.96
  -8  -8  -1    7.96   10.84
  -8  -8  -1    5.40   17.11
  -8   8  -1    1.77   14.13
   8   8   2   56.92   64.73
   8  -8   2   75.47   57.10
  -8  -8  -2   75.02   22.44
  -8  -8  -2   62.02   54.98
  -8   8  -2   65.76   18.75
   8   8   3  139.24   21.59
   8  -8   3   94.34   87.63
  -8  -8  -3  122.32   23.23
  -8  -8  -3  120.56   23.12
  -8   8  -3  121.89   35.96
   8   8   4   27.23   31.47
   8  -8   4   24.09   25.70
  -8  -8  -4   17.98   20.67
  -8  -8  -4   27.62   22.61
  -8   8  -4   21.77   19.27
   8   8   5   15.50   17.19
   8  -8   5   19.19   21.91
  -8  -8  -5   16.68   16.12
  -8  -8  -5   20.93   24.43
  -8   8  -5   18.02   22.82
   8   8   6   13.06   21.68
   8  -8   6   14.05   27.70
  -8  -8  -6   18.99   20.12
  -8  -8  -6   14.64   28.74
  -8   8  -6    8.60   17.15
   8   9  -6   15.82   24.44
  -8  -9   6   15.64   25.72
   8   9  -5   30.93   13.44
  -8  -9   5   13.89   19.28
   8   9  -4   60.44   32.39
  -8  -9   4   52.10   69.30
  -8  -9   4   63.65   13.18
   8   9  -3   23.68   12.50
  -8  -9   3   37.89   40.42
  -8  -9   3   30.56   14.42
   8   9  -2   20.63   26.50
  -8  -9   2   23.93   22.46
  -8  -9   2   22.17   25.96
  -8   9   2    9.13   24.08
   8   9  -1   22.03   21.10
  -8  -9   1   37.72   15.31
  -8  -9   1   25.21   19.36
  -8   9   1   22.15   12.34
   8   9   0    3.49   10.49
  -8  -9   0    5.17   10.07
  -8  -9   0    3.41    7.81
  -8   9   0    6.68   19.90
   8   9   1   16.67   23.39
   8  -9   1   13.08   28.88
  -8  -9  -1   22.56   24.37
  -8  -9  -1   24.26   29.01
  -8   9  -1    7.76   15.46
   8   9   2   23.75   36.42
   8  -9   2   30.06   35.22
  -8  -9  -2   41.11   43.86
  -8  -9  -2   36.45   36.21
  -8   9  -2   28.50   21.57
   8   9   3   21.58   29.05
   8  -9   3   12.66   13.15
  -8  -9  -3    7.26   12.74
  -8  -9  -3   12.03   16.49
  -8   9  -3   23.05   17.32
   8   9   4   25.84   37.85
   8  -9   4   24.47   23.67
  -8  -9  -4   14.84   18.88
  -8  -9  -4   18.78   25.62
  -8   9  -4   47.83   29.16
  -9   0  12  138.02   92.95
  -9   0  12  154.80   17.96
  -9   0  11   -2.52   15.90
  -9   0  11    1.15    6.86
  -9   0  10    4.55    9.85
   9   0  -9   22.21   34.44
  -9   0   9   27.54   29.17
   9   0  -8    4.77   12.79
  -9   0   8    2.64    9.79
   9   0  -7   14.19   17.58
  -9   0   7   12.93   14.10
   9   0  -6  193.79   33.82
  -9   0   6  192.88   27.30
   9   0  -5   72.23   51.79
  -9   0   5   67.63   16.16
   9   0  -4  115.17   23.80
  -9   0   4  108.11   19.18
   9   0  -3   49.05   29.81
  -9   0   3   68.97   21.96
   9   0  -2  422.75   39.38
  -9   0   2  405.95   39.43
   9   0  -1   56.60   15.20
  -9   0   1   47.84   46.82
  -9   0   1   57.01    8.29
   9   0   0    4.86   12.52
  -9   0   0    6.66   18.38
  -9   0   0    1.20    3.20
   9   0   1  128.20   19.96
  -9   0  -1  115.77   23.80
  -9   0  -1  162.22   19.00
   9   0   2  270.82   32.62
  -9   0  -2  228.57   30.18
  -9   0  -2  277.29   42.83
   9   0   3    2.31    9.23
  -9   0  -3    3.93   15.14
  -9   0  -3   -0.62    6.65
   9   0   4   26.16   31.13
  -9   0  -4   17.34   22.87
  -9   0  -4   27.17   21.84
   9   0   5  132.86   22.06
  -9   0  -5  103.74   25.95
  -9   0  -5  119.93   18.87
   9   0   6   13.66   23.48
  -9   0  -6   11.48   23.30
  -9   0  -6   14.79   12.07
   9   0   7   -2.91   12.71
   9   0   7   -7.17   16.26
  -9   0  -7    9.34   19.96
   9   0   8   99.55   16.73
   9   0   8   77.14   88.30
  -9   0  -8  120.49   23.25
   9   0   9   84.35   17.94
   9   0   9   60.74   80.97
  -9   0  -9   46.18   74.80
   9   0  10   73.28   75.71
   9   0  10   63.34   68.03
  -9   0 -10   78.58   86.87
  -9  -1  12    4.60   13.56
  -9   1  12    3.30   11.62
  -9  -1  12    2.87    6.92
  -9   1  12    3.99    6.09
  -9  -1  11   55.41   19.53
  -9   1  11   33.94   35.38
  -9   1  11   25.67   43.19
  -9  -1  11   47.60   66.55
   9   1 -10   15.00   29.93
  -9   1  10   22.54   23.08
  -9  -1  10   37.65   45.54
  -9   1  10   22.29   40.35
   9  -1  -9   33.77   35.50
  -9   1   9   23.08   23.45
  -9  -1   9   24.10   21.28
   9  -1  -8   70.10   86.27
   9   1  -8   73.47   43.84
  -9   1   8   90.13   24.68
  -9  -1   8   78.60   19.64
   9  -1  -7   14.02   19.47
   9   1  -7   27.28   22.12
  -9   1   7   17.01   10.90
  -9  -1   7   29.72   25.55
   9   1  -6   54.63   64.01
   9  -1  -6   49.58   39.67
  -9   1   6   63.85   44.13
  -9  -1   6   46.56   35.59
   9  -1  -5   78.80   15.79
   9   1  -5   62.47   35.79
  -9  -1   5   53.51   52.30
  -9   1   5   63.59   14.81
   9  -1  -4  142.81   17.55
   9   1  -4   75.46   56.95
  -9   1   4   82.63   63.98
  -9  -1   4  165.10   26.35
   9   1  -3  349.72   38.05
   9  -1  -3  301.18   30.04
  -9  -1   3  305.69   59.65
  -9   1   3  367.08   35.73
   9  -1  -2   36.16   27.01
   9   1  -2   31.35   30.39
  -9   1   2   22.33   19.16
  -9  -1   2   44.43   20.08
   9  -1  -1   19.01   25.43
   9   1  -1   30.42   16.87
  -9  -1   1   30.82   27.38
  -9   1   1   18.07   19.70
  -9  -1   1   23.55   25.59
  -9   1   1   21.94   15.98
   9  -1   0  227.71   58.85
   9   1   0  201.62   23.35
  -9  -1   0  197.24   27.84
  -9   1   0  254.92   33.24
  -9  -1   0  206.02   29.74
  -9   1   0  235.34   31.17
   9  -1   1    5.72    6.14
   9   1   1   19.83   15.52
  -9   1  -1   16.98   18.70
  -9  -1  -1   23.99   35.87
  -9  -1  -1    6.13    9.13
  -9   1  -1   12.24   16.92
   9   1   2   51.43   49.67
   9  -1   2   34.19   50.60
  -9  -1  -2   44.34   23.02
  -9   1  -2   42.59   30.19
  -9  -1  -2   54.83   29.90
  -9   1  -2   47.08   19.40
   9  -1   3   62.75   29.20
   9   1   3  131.59   35.10
  -9  -1  -3   42.43   23.59
  -9   1  -3  107.85   22.31
  -9  -1  -3   76.36   14.18
  -9   1  -3  121.06   23.37
   9  -1   4   48.56   43.20
   9   1   4   49.59   47.62
  -9   1  -4   41.92   20.67
  -9  -1  -4   45.69   25.76
  -9  -1  -4   46.98   12.44
  -9   1  -4   44.19   42.27
   9   1   5   11.69   15.62
   9  -1   5    7.61    7.83
   9  -1   5    9.14    7.29
  -9  -1  -5    9.58   16.39
  -9  -1  -5   12.71   21.93
  -9   1  -5   15.84   16.27
   9  -1   6   16.15   12.27
   9   1   6    7.79   15.75
   9  -1   6   16.04   23.11
  -9  -1  -6   17.95   20.63
  -9  -1  -6    9.64   11.85
  -9   1  -6   16.11   22.05
   9  -1   7   75.15   14.72
   9   1   7  115.38   64.00
   9  -1   7   63.07   67.27
  -9  -1  -7   82.63   79.79
  -9  -1  -7   88.97   73.18
  -9   1  -7   80.74   75.22
   9  -1   8   35.29   39.36
   9   1   8   35.59   34.96
   9  -1   8   26.29   31.49
  -9  -1  -8   30.71   29.09
  -9  -1  -8   30.39   44.54
  -9   1  -8   20.29   27.83
   9   1   9    2.47    8.71
   9  -1   9    6.72   16.06
   9  -1   9   10.01   12.06
   9   1   9   10.75   12.37
  -9  -1  -9   12.21   18.03
  -9   1  -9   12.25   19.24
   9   1  10   63.79   76.60
   9  -1  10   42.18   58.59
   9  -1  10   48.99   61.48
   9   1  10   42.26   62.73
  -9  -1 -10   73.96   70.73
  -9   1 -10   58.67   54.64
  -9   2  12   23.14   36.53
  -9  -2  12   21.62   47.06
  -9  -2  12   21.50   23.08
  -9   2  11   51.38   59.13
  -9   2  11   66.64   20.31
  -9  -2  11   35.17   47.12
   9   2 -10   58.65   69.01
  -9   2  10   59.54   50.58
  -9  -2  10   43.18   60.87
  -9   2  10   76.28   13.52
   9   2  -9  127.78   23.93
  -9   2   9  102.11   35.15
  -9   2   9   98.71   14.52
  -9  -2   9   87.47   20.02
   9  -2  -8  205.34   23.39
   9   2  -8  200.40   24.01
  -9  -2   8  183.32   54.30
  -9   2   8  201.62   54.59
   9  -2  -7    2.04    6.58
   9   2  -7    1.34   12.37
  -9  -2   7    4.73    8.17
  -9   2   7    1.14   10.18
   9  -2  -6   49.99   49.41
   9   2  -6   45.38   38.37
  -9  -2   6   86.87   31.73
  -9   2   6   35.54   47.09
   9  -2  -5  118.66   41.84
   9   2  -5   56.92   45.73
  -9  -2   5  108.50   26.43
  -9   2   5   72.83   14.58
   9  -2  -4  101.40   18.89
   9   2  -4   99.40   23.97
  -9  -2   4   82.65   66.82
  -9   2   4   72.67   14.45
   9  -2  -3  115.73   18.13
   9   2  -3  129.75   39.85
  -9  -2   3  148.92   26.31
  -9   2   3  103.23   16.91
   9  -2  -2   -2.69   13.74
   9   2  -2    5.02   16.51
  -9  -2   2    8.36   15.46
  -9   2   2    6.24   15.97
   9  -2  -1  238.16   45.39
   9   2  -1  272.47   35.18
  -9  -2   1  244.09   30.08
  -9   2   1  279.05   35.13
  -9  -2   1  267.46   22.86
  -9   2   1  239.13   26.65
   9  -2   0   47.68   16.94
   9   2   0   37.41   48.41
  -9  -2   0   47.28   38.51
  -9   2   0   42.00   28.15
  -9  -2   0   39.99   11.81
  -9   2   0   42.71   10.86
   9  -2   1   -3.03   13.03
   9   2   1    6.23    7.67
  -9  -2  -1    4.18   12.35
  -9   2  -1    7.68    7.33
  -9  -2  -1   -0.19    8.30
  -9   2  -1    4.16    9.77
   9  -2   2  106.55   16.74
   9   2   2  127.33   50.84
  -9  -2  -2  120.19   25.30
  -9   2  -2  121.54   21.63
  -9  -2  -2  119.38   21.39
  -9   2  -2  111.48   15.74
   9  -2   3   99.94   49.18
   9   2   3  103.41   18.49
  -9  -2  -3  112.94   30.90
  -9   2  -3   92.49   85.01
  -9  -2  -3  113.65   15.79
  -9   2  -3  114.80   30.30
   9  -2   4  129.38   18.40
   9   2   4   97.08   19.75
   9  -2   4  124.27   31.11
  -9  -2  -4  145.54   23.90
  -9  -2  -4  154.89   20.01
  -9   2  -4  131.82   40.49
   9  -2   5  239.42   20.64
   9   2   5  274.83   28.24
   9  -2   5  236.89   31.94
  -9  -2  -5  328.04   38.20
  -9  -2  -5  293.77   72.47
  -9   2  -5  233.14   24.30
   9  -2   6   87.75   15.01
   9   2   6   79.99   75.26
   9  -2   6   56.98   86.30
  -9  -2  -6   74.11   75.18
  -9  -2  -6   98.91   30.48
  -9   2  -6  106.50   26.86
   9  -2   7    8.58    9.56
   9   2   7   13.23   17.38
   9  -2   7   10.43    9.18
  -9  -2  -7    3.48   11.60
  -9  -2  -7    7.14   14.28
  -9   2  -7   23.49   23.79
   9  -2   8   30.03   42.01
   9   2   8   25.53   30.67
   9  -2   8   37.35   32.32
  -9  -2  -8   53.29   20.20
  -9  -2  -8   45.68   40.58
  -9   2  -8   31.56   45.79
   9  -2   9   33.49   49.04
   9   2   9   28.86   44.56
   9  -2   9   31.15   28.64
  -9  -2  -9   43.77   57.18
  -9  -2  -9   35.70   55.29
  -9   2  -9   53.04   43.24
   9   2  10    5.29   10.89
   9  -2  10    6.28   13.43
   9  -2  10   -1.73   15.96
  -9  -2 -10   22.50   19.59
  -9  -2 -10    4.63   10.86
  -9   2 -10    7.55   19.07
   9   3 -11   50.51   55.34
  -9   3  11   38.43   33.45
  -9  -3  11   21.47   24.13
   9   3 -10   25.48   35.93
  -9   3  10   18.06   20.10
  -9   3  10   21.86   44.83
   9   3  -9   38.47   35.42
  -9   3   9   29.88   43.81
  -9  -3   9   31.68   29.48
  -9   3   9   34.47   37.72
   9   3  -8    7.13   19.27
  -9   3   8    5.96   18.06
  -9  -3   8   -1.34   19.58
  -9   3   8    2.83    7.00
   9  -3  -7  245.56   22.94
   9   3  -7  296.65   27.32
  -9  -3   7  289.30   26.16
  -9   3   7  309.85   26.17
   9  -3  -6   14.20   16.38
   9   3  -6   13.38   22.04
  -9  -3   6    5.03   16.35
  -9   3   6   28.30   14.24
   9  -3  -5    1.15    7.78
   9   3  -5   -1.06   10.44
  -9  -3   5    0.84   14.48
  -9   3   5    1.82    7.91
   9  -3  -4  119.29   21.45
   9   3  -4  127.72   19.26
  -9  -3   4   91.35   70.69
  -9   3   4  124.47   18.04
   9  -3  -3  129.45   41.08
   9   3  -3  132.59   22.86
  -9  -3   3  118.76   82.88
  -9   3   3  115.47   16.41
   9  -3  -2   10.15   10.61
   9   3  -2    5.66   15.97
  -9  -3   2    7.73   18.60
  -9   3   2   10.60   13.84
  -9  -3   2    6.24    6.74
   9  -3  -1   12.54   18.46
   9   3  -1   13.47   17.81
  -9  -3   1   18.12   25.72
  -9   3   1    9.75   13.52
  -9  -3   1   12.89   18.08
  -9   3   1   12.14    8.56
   9  -3   0  100.44   29.81
   9   3   0  128.42   22.98
  -9  -3   0  126.71   29.73
  -9   3   0  115.50   21.00
  -9  -3   0  118.34   11.46
  -9   3   0  117.41   16.23
   9  -3   1   14.22   19.33
   9   3   1    0.02   17.91
  -9  -3  -1    8.88   16.84
  -9   3  -1   13.32   21.72
  -9  -3  -1   16.50   18.81
  -9   3  -1    5.25    8.05
   9  -3   2   27.80   29.24
   9   3   2   24.73   31.10
  -9  -3  -2   30.14   22.40
  -9   3  -2   21.27   28.95
  -9  -3  -2   33.13   35.62
  -9   3  -2   21.81   36.90
   9  -3   3  201.00   22.76
   9   3   3  197.66   27.81
   9  -3   3  216.00   30.99
  -9  -3  -3  252.34   33.08
  -9  -3  -3  241.09   25.61
  -9   3  -3  176.88   25.45
   9  -3   4   40.99   42.50
   9   3   4   21.56   42.05
   9  -3   4   34.03   36.17
  -9  -3  -4   60.82   19.65
  -9  -3  -4   41.57   53.64
  -9   3  -4   34.67   33.73
   9  -3   5    2.51    9.55
   9   3   5    9.86   14.16
   9  -3   5    4.16    8.87
  -9  -3  -5    2.76   21.10
  -9  -3  -5    3.17    6.70
  -9   3  -5   -2.81   15.38
   9  -3   6   20.72   23.86
   9   3   6   26.76   29.18
   9  -3   6   22.99   29.01
  -9  -3  -6   17.40   15.62
  -9   3  -6   31.00   19.53
   9  -3   7  126.06   16.15
   9   3   7   98.29   94.11
   9  -3   7  115.13   22.22
  -9  -3  -7  110.53   23.71
  -9  -3  -7  137.15   27.32
  -9   3  -7   86.87   72.29
   9  -3   8    3.50   12.28
   9   3   8   10.73   12.04
   9  -3   8   -3.23   20.65
  -9  -3  -8   -1.73   20.21
  -9  -3  -8    5.47   13.47
  -9   3  -8    6.03    9.49
   9  -3   9    1.00   10.11
   9   3   9   11.78   16.49
   9  -3   9    6.64   15.35
  -9  -3  -9    9.17   18.39
  -9  -3  -9    4.06   11.59
  -9   3  -9    9.29   19.38
   9   3  10   46.63   76.46
   9  -3  10   65.89   54.91
  -9  -3 -10   46.59   72.97
  -9  -3 -10   62.18   75.46
  -9   3 -10   67.80   60.10
   9   4 -11    1.26    7.94
  -9   4  11    2.81   10.34
  -9  -4  11   11.52   10.67
   9   4 -10   10.97   16.03
  -9   4  10    9.09   15.89
  -9  -4  10   10.26   13.53
   9   4  -9   37.56   28.49
  -9   4   9   29.40   36.42
  -9  -4   9   39.46   44.88
   9   4  -8   52.56   49.18
  -9   4   8   45.86   57.95
  -9  -4   8   34.75   35.22
  -9   4   8   67.05   30.08
   9   4  -7   28.65   37.06
  -9   4   7   36.35   29.71
  -9   4   7   40.66   42.32
   9  -4  -6   81.70   18.15
   9   4  -6   78.79   23.25
  -9  -4   6   95.25   18.54
  -9   4   6   65.24   59.37
   9  -4  -5   46.04   51.89
   9   4  -5   28.04   29.53
  -9  -4   5   43.83   44.44
  -9   4   5   25.34   24.94
   9  -4  -4   81.95   16.74
   9   4  -4   53.92   47.24
  -9  -4   4   66.90   53.65
  -9   4   4   44.74   38.75
   9  -4  -3    7.38   10.39
   9   4  -3    3.58   10.58
  -9  -4   3   18.07   21.02
  -9   4   3   14.68   12.47
   9  -4  -2  151.67   21.19
   9   4  -2  159.84   23.48
  -9  -4   2  140.54   24.37
  -9   4   2  167.77   25.30
  -9  -4   2  147.62   13.78
   9  -4  -1   22.65   19.28
   9   4  -1    5.30   11.08
  -9  -4   1   19.85   16.59
  -9   4   1    7.47   12.32
  -9  -4   1   18.61   19.39
  -9   4   1    5.74    7.64
   9  -4   0   24.11   20.81
   9   4   0   19.59   19.10
  -9  -4   0   29.20   24.35
  -9   4   0   22.75   20.06
  -9  -4   0   26.99   22.68
  -9   4   0   22.06   27.53
   9  -4   1  232.50   22.86
   9   4   1  195.36   22.20
  -9  -4  -1  239.78   32.36
  -9   4  -1  227.21   70.82
  -9  -4  -1  216.43   33.91
  -9   4  -1  211.68   23.10
   9  -4   2  175.53   19.75
   9   4   2  180.80   23.28
  -9  -4  -2  164.64   23.87
  -9  -4  -2  190.60   21.03
  -9   4  -2  154.45   25.62
   9  -4   3  102.83   29.13
   9   4   3   93.42   72.88
   9  -4   3   88.24   44.80
  -9  -4  -3   80.58   20.68
  -9  -4  -3   96.22   13.76
  -9   4  -3  114.43   30.40
   9  -4   4    4.28    3.79
   9   4   4   11.79   18.28
   9  -4   4    2.54   11.93
  -9  -4  -4    6.83   29.93
  -9  -4  -4    3.50    8.97
  -9   4  -4    9.92   15.08
   9  -4   5   60.67   11.95
   9   4   5   37.81   35.46
   9  -4   5   51.01   63.52
  -9  -4  -5   44.07   22.69
  -9  -4  -5   63.49   57.43
  -9   4  -5   45.33   19.46
   9  -4   6   46.37   16.00
   9   4   6   34.86   32.41
   9  -4   6   58.82   63.36
  -9  -4  -6   36.91   18.71
  -9  -4  -6   36.26   44.26
  -9   4  -6   23.87   32.53
   9  -4   7   13.00   27.11
   9   4   7   15.11   21.54
   9  -4   7   18.40   26.09
  -9  -4  -7   19.17   18.32
  -9  -4  -7   14.47   28.98
  -9   4  -7   32.83   25.87
   9   4   8   35.71   33.56
   9  -4   8   17.17   22.29
  -9  -4  -8   31.58   18.65
  -9  -4  -8   25.59   31.65
  -9   4  -8   27.42   32.00
   9   4   9    6.19   16.96
   9  -4   9   -0.47   18.40
  -9  -4  -9   -1.08   10.39
  -9  -4  -9    2.01   13.34
  -9   4  -9   12.67   21.64
   9   5 -10   43.94   51.84
  -9   5  10   40.04   46.88
  -9  -5  10   31.98   37.18
   9   5  -9   17.04   21.00
  -9   5   9   14.54   16.58
  -9  -5   9   19.43   23.32
   9   5  -8   13.97   13.91
  -9   5   8   14.01   22.95
  -9  -5   8   17.52   28.28
   9   5  -7   75.83   63.15
  -9   5   7   71.36   68.68
  -9  -5   7  103.07   38.37
   9   5  -6   26.25   32.94
  -9   5   6   21.24   17.94
  -9  -5   6   34.92   35.58
  -9   5   6   15.45   19.89
   9   5  -5   12.41   16.59
  -9   5   5    4.89   14.20
  -9  -5   5    5.39   16.00
  -9   5   5    4.84    8.50
   9  -5  -4   68.51   15.30
   9   5  -4   56.42   35.82
  -9  -5   4   68.15   73.46
  -9   5   4   48.95   60.68
   9  -5  -3   67.95   14.43
   9   5  -3   39.10   47.59
  -9  -5   3   47.11   17.63
  -9   5   3   43.42   13.94
   9  -5  -2   12.12   20.89
   9   5  -2   12.57   16.67
  -9  -5   2   20.08   16.18
  -9   5   2   15.89   12.56
  -9  -5   2   12.32   20.18
   9  -5  -1   27.70   22.68
   9   5  -1   19.08   19.13
  -9  -5   1   33.28   30.60
  -9   5   1   32.98   31.05
  -9  -5   1   19.02   18.11
  -9   5   1   28.75   35.78
   9  -5   0   47.97   37.00
   9   5   0   52.68   35.02
  -9  -5   0   71.23   18.14
  -9   5   0   80.03   33.37
  -9  -5   0   41.33   38.10
  -9   5   0   49.95   13.07
   9  -5   1  119.37   13.34
   9   5   1  113.81   72.82
  -9  -5  -1  128.47   21.18
  -9   5  -1  117.34   19.86
  -9  -5  -1  136.19   20.01
  -9   5  -1  103.72   38.05
   9  -5   2    9.33    9.38
   9   5   2    7.67   16.64
   9  -5   2   10.24   15.03
  -9  -5  -2   13.38   14.50
  -9  -5  -2   13.78   15.46
  -9   5  -2   17.98   14.34
   9  -5   3   21.64   14.15
   9   5   3   16.86   27.67
   9  -5   3   16.95   28.02
  -9  -5  -3   22.68   17.99
  -9  -5  -3   22.34   13.60
  -9   5  -3    7.38   13.40
   9  -5   4   95.86   16.60
   9   5   4   64.23   51.68
   9  -5   4   75.34   68.12
  -9  -5  -4   99.23   50.82
  -9  -5  -4   81.20   20.41
  -9   5  -4   72.93   50.84
   9   5   5   14.25   14.72
   9  -5   5    3.83   16.88
  -9  -5  -5    9.80   19.18
  -9  -5  -5   -2.95   15.70
  -9   5  -5    9.90   21.62
   9   5   6    3.37   16.21
   9  -5   6    2.18   12.34
  -9  -5  -6    8.03   12.20
  -9  -5  -6    6.67    5.77
  -9   5  -6    9.14   11.49
   9   5   7   18.47   17.92
   9  -5   7   24.56   36.03
  -9  -5  -7   43.60   19.02
  -9  -5  -7   46.15   38.71
  -9   5  -7   18.53   13.61
   9   5   8   14.52   16.56
   9  -5   8    8.27   19.18
  -9  -5  -8   19.57   20.69
  -9  -5  -8    2.69   12.51
  -9   5  -8   19.73   20.25
   9   6  -9   23.33   26.74
  -9   6   9   22.51   15.63
  -9  -6   9   25.21   38.61
   9   6  -8  143.64   23.23
  -9   6   8  173.17   29.84
  -9  -6   8  144.28   55.32
   9   6  -7   12.63   20.19
  -9   6   7    5.96   10.90
  -9  -6   7    8.17   23.80
   9   6  -6   33.98   35.06
  -9   6   6   25.90   36.56
  -9  -6   6   33.34   15.80
   9   6  -5   94.87   18.82
  -9   6   5   91.84   17.22
  -9  -6   5   50.98   53.90
   9   6  -4    2.40   13.97
  -9   6   4    7.37   11.93
  -9  -6   4   12.08   13.69
  -9   6   4    5.99    6.75
   9   6  -3   22.95   23.83
  -9   6   3   21.82   15.32
  -9  -6   3   23.87   18.67
  -9   6   3   34.91   15.52
   9  -6  -2   98.27   13.45
   9   6  -2  101.74   20.52
  -9  -6   2   77.37   23.82
  -9   6   2   82.78   15.57
  -9  -6   2  108.46   14.72
   9  -6  -1   31.71   32.96
   9   6  -1   27.40   33.19
  -9  -6   1   35.68   19.44
  -9   6   1   28.18   28.01
  -9  -6   1   40.11   42.46
  -9   6   1   35.54   14.62
   9  -6   0   43.79   41.65
   9   6   0   44.36   29.14
  -9  -6   0   52.75   32.21
  -9   6   0   66.43   24.16
  -9  -6   0   43.97   44.51
  -9   6   0   45.49   28.59
   9  -6   1   22.48   24.80
   9   6   1   23.21   30.58
  -9  -6  -1   15.95   20.58
  -9   6  -1   20.91   35.46
  -9  -6  -1   23.12   24.55
  -9   6  -1   23.45   29.46
   9   6   2   61.26   75.37
   9  -6   2   67.75   74.38
  -9  -6  -2   68.69   76.73
  -9  -6  -2  101.21   25.33
  -9   6  -2   72.84   19.66
   9   6   3   33.29   44.26
   9  -6   3   22.72   30.43
  -9  -6  -3   39.97   49.30
  -9  -6  -3   31.69   35.51
  -9   6  -3   48.34   38.82
   9   6   4   35.29   36.93
   9  -6   4   18.27   25.77
  -9  -6  -4   26.52   28.61
  -9   6  -4   28.58   25.42
   9   6   5   36.63   37.95
   9  -6   5   41.32   32.34
  -9  -6  -5   45.43   17.24
  -9  -6  -5   37.01   35.60
  -9   6  -5   16.47   32.05
   9   6   6  106.74   50.15
   9  -6   6   62.88   74.29
  -9  -6  -6   88.60   27.80
  -9  -6  -6  116.42   20.32
  -9   6  -6  101.76   29.67
   9   6   7   12.05   13.86
   9  -6   7   16.89   28.54
  -9  -6  -7   17.51   25.01
  -9  -6  -7   16.28   22.29
  -9   6  -7   11.35   12.90
   9   7  -7   17.39   16.58
  -9   7   7   40.44   18.68
  -9  -7   7   12.44   12.06
   9   7  -6    4.04    9.88
  -9   7   6    2.81   18.23
  -9  -7   6    2.10   12.35
   9   7  -5    8.82   13.27
  -9   7   5    9.26   17.14
  -9  -7   5   -3.92   19.04
   9   7  -4   14.85   11.80
  -9   7   4   12.16   10.80
  -9  -7   4    7.00   20.05
   9   7  -3   28.27   27.72
  -9   7   3   17.52   26.12
  -9  -7   3   29.85   38.36
   9   7  -2    3.99   15.90
  -9   7   2    0.56    4.07
  -9  -7   2    1.77    7.82
  -9   7   2    2.07    7.27
  -9  -7   2    2.94    7.37
   9   7  -1   46.22   69.86
  -9  -7   1   71.34   24.22
  -9   7   1   66.41   14.13
  -9  -7   1   73.66   17.10
   9   7   0   31.55   34.35
  -9  -7   0   50.26   21.58
  -9   7   0   25.37   22.46
  -9  -7   0   44.92   13.66
  -9   7   0   17.30   24.59
   9   7   1   10.51   15.74
  -9  -7  -1    3.25   13.54
  -9  -7  -1   -0.70   11.74
  -9   7  -1    0.70    8.97
   9   7   2    3.64    8.57
   9  -7   2    1.15   10.95
  -9  -7  -2    8.47   14.37
  -9  -7  -2    5.59    9.38
  -9   7  -2   11.78   21.79
   9   7   3   19.40   32.76
   9  -7   3   12.44   18.25
  -9  -7  -3    9.37   18.48
  -9  -7  -3   11.49   10.22
  -9   7  -3   25.07   29.92
   9   7   4   10.62   20.23
   9  -7   4   -0.61   15.57
  -9  -7  -4   11.56   22.18
  -9  -7  -4    3.02   11.96
  -9   7  -4    9.58   12.00
   9   7   5    8.96   12.25
   9  -7   5   13.04   22.44
  -9  -7  -5   16.80   23.60
  -9  -7  -5    5.67   10.97
  -9   7  -5   22.99   23.42
   9   7   6   11.82   17.82
   9  -7   6   10.19   18.01
  -9  -7  -6    6.27   15.53
  -9  -7  -6   18.34   16.10
  -9   7  -6   13.89   17.69
   9   8  -5  102.60   18.07
  -9  -8   5   71.11   81.50
   9   8  -4   26.63   49.87
  -9  -8   4   36.46   49.74
   9   8  -3   17.87   26.76
  -9  -8   3   21.82   28.46
   9   8  -2   57.12   15.44
  -9  -8   2   25.32   24.93
   9   8  -1   41.95   42.00
  -9  -8   1   54.68   56.02
  -9  -8   1   65.69   12.93
   9   8   0    9.23   10.51
  -9  -8   0   -0.96   13.78
  -9   8   0    3.77    7.41
  -9  -8   0    4.59    7.68
  -9   8   0    8.70   12.31
   9   8   1   46.81   42.56
   9  -8   1   33.57   51.64
  -9  -8  -1   26.68   47.89
  -9  -8  -1   22.19   38.93
  -9   8  -1   33.00   35.03
   9   8   2   50.73   73.21
   9  -8   2   62.49   84.22
  -9  -8  -2   32.81   63.49
  -9  -8  -2   77.05   15.18
  -9   8  -2   22.53   47.49
   9   8   3    9.72   12.46
   9  -8   3   -0.86   14.11
  -9  -8  -3   11.18   15.68
  -9  -8  -3   10.56    7.12
  -9   8  -3   16.87   23.60
  10   0 -10   95.29   24.57
 -10   0  10  104.21   18.71
  10   0  -9   87.26   58.12
 -10   0   9   68.96   54.60
  10   0  -8   -0.61   15.36
 -10   0   8    2.41    9.35
  10   0  -7   85.75   37.84
 -10   0   7   77.54   19.26
  10   0  -6    7.59   16.59
 -10   0   6    3.70   11.87
  10   0  -5   14.96   21.99
 -10   0   5   16.15   25.95
  10   0  -4   62.60   51.76
 -10   0   4   90.42   22.23
  10   0  -3   35.27   30.25
 -10   0   3   43.32   30.35
  10   0  -2   34.82   28.74
 -10   0   2   34.86   25.18
  10   0  -1   24.97   23.48
 -10   0   1   20.88   27.32
  10   0   0   54.44   50.21
 -10   0   0   82.46   20.91
  10   0   1  126.80   20.50
 -10   0  -1  105.38   22.03
 -10   0  -1  124.96   13.26
  10   0   2    9.27   21.26
 -10   0  -2   27.62   17.72
 -10   0  -2   11.81    7.89
  10   0   3   26.69   40.65
 -10   0  -3   23.60   20.57
 -10   0  -3   23.70   28.49
  10   0   4  231.23   25.35
 -10   0  -4  226.84   30.42
 -10   0  -4  228.89   22.16
  10   0   5    0.12   12.55
 -10   0  -5    3.23    9.23
 -10   0  -5    0.75    9.95
  10   0   6    3.89    9.84
 -10   0  -6   17.35   19.62
 -10   0  -6    6.50   14.68
  10   0   7   37.60   46.16
 -10   0  -7   38.65   50.71
 -10   0  -7   23.28   32.64
  10   0   8   -0.35   17.02
 -10   0  -8    4.09    6.93
 -10   0  -8    0.47    8.25
 -10   0  -9   21.36   22.83
  10   1 -10    9.68   12.13
 -10   1  10    7.67   20.50
 -10  -1  10   -6.91   13.26
 -10   1  10    3.40   12.30
  10  -1  -9   20.51   29.72
  10   1  -9   22.81   22.08
 -10   1   9   20.53   29.89
 -10  -1   9   19.28   27.37
  10   1  -8   20.61   44.14
  10  -1  -8   13.66   15.29
 -10  -1   8   14.66   23.47
 -10   1   8   47.51   21.89
  10  -1  -7    5.49   10.34
  10   1  -7    2.66    8.94
 -10   1   7   -0.65   13.99
 -10  -1   7   -0.90   17.54
  10   1  -6   87.23   74.52
  10  -1  -6   95.15   74.07
 -10   1   6   98.20   17.96
 -10  -1   6   89.67   19.37
  10  -1  -5   36.65   25.68
  10   1  -5   28.62   32.20
 -10  -1   5   34.98   17.71
 -10   1   5   48.98   23.04
  10  -1  -4   15.49   22.50
  10   1  -4   24.94   23.07
 -10   1   4   24.48   23.28
 -10  -1   4   11.55   18.77
  10   1  -3   79.23   20.45
  10  -1  -3   72.81   68.90
 -10  -1   3   70.22   62.49
 -10   1   3   77.86   20.97
  10  -1  -2   11.40   17.66
  10   1  -2    9.03   15.83
 -10   1   2    7.72    9.34
 -10  -1   2   15.33   12.83
  10  -1  -1   53.41   57.66
  10   1  -1   37.29   42.54
 -10   1   1   28.68   30.95
 -10  -1   1   59.53   18.90
  10  -1   0   27.36   24.77
  10   1   0   11.48   18.65
 -10  -1   0   30.81   17.99
 -10   1   0   13.20   20.90
  10  -1   1   35.23   46.38
  10   1   1   46.84   33.41
 -10   1  -1   38.60   23.08
 -10  -1  -1   31.05   20.12
 -10  -1  -1   37.00   28.58
 -10   1  -1   28.54   39.69
  10  -1   2   37.14   41.98
  10   1   2   29.89   25.93
 -10  -1  -2   47.28   21.28
 -10  -1  -2   67.90   19.98
 -10   1  -2   27.15   33.11
  10   1   3   28.02   27.44
  10  -1   3   23.77   21.36
 -10  -1  -3   29.26   22.37
 -10   1  -3   25.83   25.62
 -10  -1  -3   28.63   23.62
 -10   1  -3   33.26   38.46
  10  -1   4   32.35   32.41
  10   1   4   32.31   40.05
 -10  -1  -4   26.82   33.17
 -10   1  -4   36.73   27.87
 -10  -1  -4   41.96   39.69
 -10   1  -4   45.98   14.47
  10  -1   5  128.19   18.56
  10   1   5  146.72   20.68
 -10   1  -5  148.68   28.56
 -10  -1  -5  169.01   27.80
 -10  -1  -5  156.91   19.14
 -10   1  -5  141.34   47.39
  10   1   6   29.23   31.34
  10  -1   6   10.73   15.46
 -10   1  -6   14.42   29.68
 -10  -1  -6    7.86   13.28
 -10  -1  -6   10.92   11.90
 -10   1  -6   12.07   16.49
  10   1   7    8.24   10.19
  10  -1   7    2.87   10.37
 -10  -1  -7    7.99   18.37
 -10  -1  -7   -2.61   14.84
 -10   1  -7   11.22   17.42
  10  -1   8    8.39   19.82
  10   1   8   18.85   23.32
  10  -1   8   22.36   26.74
 -10  -1  -8   35.63   26.78
 -10  -1  -8   14.38   19.59
 -10   1  -8   28.59   17.46
  10   2 -10   17.17   23.94
 -10   2  10   20.15   21.36
 -10  -2  10   27.11   32.48
 -10   2  10   12.48   14.70
  10   2  -9    5.11   10.23
 -10   2   9    7.45   16.27
 -10   2   9    3.86   11.13
 -10  -2   9    9.09   14.30
  10  -2  -8   24.83   25.49
  10   2  -8   34.72   33.28
 -10  -2   8   29.87   21.72
 -10   2   8   26.57   31.28
  10  -2  -7   16.77   19.16
  10   2  -7   43.60   35.32
 -10  -2   7   11.00   14.60
 -10   2   7   35.16   13.68
  10  -2  -6   89.22   54.87
  10   2  -6   69.99   45.11
 -10  -2   6   92.17   24.37
 -10   2   6  101.21   28.15
  10  -2  -5    7.07    9.98
  10   2  -5   17.62   20.43
 -10  -2   5    4.17   18.40
 -10   2   5   22.88   15.26
  10  -2  -4   15.72   25.73
  10   2  -4   20.20   21.30
 -10  -2   4   10.19   25.36
 -10   2   4   15.24   17.92
  10  -2  -3  212.17   27.40
  10   2  -3  187.93   25.20
 -10  -2   3  226.02   23.38
 -10   2   3  183.41   23.10
  10  -2  -2    3.49   16.55
  10   2  -2    1.24    9.85
 -10  -2   2    5.47   11.67
 -10   2   2    8.36   13.19
  10  -2  -1   25.22   30.14
  10   2  -1   29.47   19.87
 -10  -2   1   51.69   28.46
 -10   2   1   35.18   37.86
  10  -2   0  299.32   28.43
  10   2   0  281.25   31.30
 -10  -2   0  274.43   32.21
 -10   2   0  246.32   29.90
  10  -2   1   13.23   11.82
  10   2   1   16.04   15.76
 -10  -2  -1    5.34   12.10
 -10   2  -1   18.18   18.64
 -10  -2  -1    3.93    8.53
 -10   2  -1   12.04   20.77
  10  -2   2   34.45   30.99
  10   2   2   38.44   34.90
 -10  -2  -2   36.13   29.58
 -10   2  -2   69.86   59.79
 -10  -2  -2   41.89   35.93
 -10   2  -2   50.88   47.01
  10  -2   3    5.71    6.44
  10   2   3    5.47   13.29
 -10  -2  -3    1.84    9.84
 -10   2  -3    5.08   15.59
 -10  -2  -3    3.89    8.98
 -10   2  -3    3.55    9.51
  10  -2   4   11.05   17.67
  10   2   4   12.07   23.30
 -10  -2  -4   33.86   29.54
 -10   2  -4    5.57   29.11
 -10  -2  -4   19.42   11.60
 -10   2  -4   28.42   14.19
  10  -2   5   27.07   31.93
  10   2   5   18.94   31.45
 -10  -2  -5   11.18   23.20
 -10   2  -5   19.81   33.20
 -10  -2  -5   18.61   25.41
 -10   2  -5   23.61   15.16
  10  -2   6    9.46   13.84
  10   2   6   15.77   31.24
  10  -2   6   10.13   12.34
 -10  -2  -6    3.71   18.09
 -10  -2  -6    7.87    8.68
 -10   2  -6    9.87   16.15
  10  -2   7   40.70   57.80
  10   2   7   71.29   62.49
  10  -2   7   42.14   57.30
 -10  -2  -7   73.21   98.41
 -10  -2  -7   74.52   18.81
 -10   2  -7   64.53   57.43
  10  -2   8   39.38   63.86
  10   2   8   56.99   49.38
  10  -2   8   63.32  106.11
 -10  -2  -8   51.75   73.81
 -10  -2  -8   58.49   53.91
 -10   2  -8   48.31   66.97
  10   3 -10    4.41   14.30
 -10   3  10   12.49   23.00
 -10  -3  10    2.88   13.43
  10   3  -9  111.72   24.24
 -10   3   9   56.45   74.64
 -10  -3   9   81.02   82.33
 -10   3   9   89.34   35.40
  10   3  -8   29.07   52.30
 -10   3   8   25.25   15.77
 -10  -3   8   40.86   31.78
 -10   3   8   24.38   34.66
  10  -3  -7   11.16   11.95
  10   3  -7   -3.02   18.62
 -10  -3   7   13.46   18.75
 -10   3   7    7.60   11.77
  10  -3  -6   42.03   29.48
  10   3  -6   45.64   36.20
 -10  -3   6   35.11   29.61
 -10   3   6   42.87   15.54
  10  -3  -5  178.00   23.31
  10   3  -5  194.30   23.59
 -10  -3   5  177.40   27.65
 -10   3   5  200.77   30.28
  10  -3  -4   21.92   17.86
  10   3  -4   26.02   18.49
 -10  -3   4   15.05   13.93
 -10   3   4   16.38   15.71
  10  -3  -3    6.64   14.03
  10   3  -3    3.33   12.43
 -10  -3   3    2.11   10.24
 -10   3   3    6.96   13.39
  10  -3  -2  105.27   32.54
  10   3  -2  120.23   20.20
 -10  -3   2   87.90   20.25
 -10   3   2  109.57   21.31
  10  -3  -1   45.34   38.79
  10   3  -1   35.36   37.84
 -10  -3   1   34.92   42.91
 -10   3   1   29.96   19.90
  10  -3   0    2.53    6.09
  10   3   0   -0.14   17.38
 -10  -3   0   -4.16   20.45
 -10   3   0    1.69   11.98
  10  -3   1   50.89   36.40
  10   3   1   65.83   44.89
 -10  -3  -1   49.88   40.17
 -10   3  -1   47.74   50.68
 -10  -3  -1   60.22   23.13
 -10   3  -1   43.71   42.79
  10  -3   2   62.06   16.00
  10   3   2   66.94   34.52
 -10  -3  -2   65.82   79.81
 -10   3  -2   58.21   54.56
 -10  -3  -2   57.73   11.63
 -10   3  -2   45.12   54.37
  10  -3   3  130.41   17.39
  10   3   3  142.50   44.85
 -10  -3  -3  109.96   24.48
 -10   3  -3  161.42   34.32
 -10  -3  -3  129.24   17.93
 -10   3  -3  105.24   55.79
  10  -3   4   26.54   12.80
  10   3   4   22.65   27.14
 -10  -3  -4   15.66   24.42
 -10   3  -4   27.77   35.55
 -10  -3  -4   19.68   31.12
 -10   3  -4   31.70   26.79
  10  -3   5   98.75   56.40
  10   3   5  106.37  100.68
  10  -3   5  132.75   31.41
 -10  -3  -5  107.24   26.49
 -10  -3  -5  114.85   17.90
 -10   3  -5  108.92   24.60
  10  -3   6    7.10   20.10
  10   3   6   14.49   22.00
  10  -3   6    7.49   12.65
 -10  -3  -6   16.75   20.30
 -10  -3  -6    2.54    6.59
 -10   3  -6   11.85   12.74
  10  -3   7    3.95    9.41
  10   3   7   12.36   19.60
  10  -3   7    9.73   12.51
 -10  -3  -7   13.88   19.01
 -10  -3  -7   20.24   21.50
 -10   3  -7   21.53   16.88
  10  -3   8   28.83   38.87
  10   3   8   55.17   69.04
  10  -3   8   41.63   55.15
 -10  -3  -8   44.34   59.37
 -10  -3  -8   44.57   56.05
 -10   3  -8   62.63   21.33
  10   4  -9    7.22   13.96
 -10   4   9   11.02   21.53
 -10  -4   9    5.84   17.94
  10   4  -8    8.02    6.98
 -10   4   8    8.41   14.94
 -10  -4   8    5.90   17.19
 -10   4   8    2.88    6.45
  10   4  -7   27.67   25.04
 -10   4   7   24.95   15.89
 -10  -4   7   31.84   49.48
 -10   4   7   22.70   32.50
  10  -4  -6    6.52   12.02
  10   4  -6    9.99   20.11
 -10  -4   6    5.75   18.13
 -10   4   6   10.88   11.84
  10  -4  -5    6.46    8.26
  10   4  -5    2.76   10.56
 -10  -4   5    9.01    8.91
 -10   4   5    2.03    9.52
  10  -4  -4   16.41   32.48
  10   4  -4   21.87   31.42
 -10  -4   4   12.09   23.63
 -10   4   4   37.60   18.78
  10  -4  -3   75.45   50.27
  10   4  -3   54.39   53.90
 -10  -4   3   52.82   36.39
 -10   4   3   34.89   52.62
  10  -4  -2   31.21   26.08
  10   4  -2   63.05   28.00
 -10  -4   2   40.80   40.51
 -10   4   2   27.53   25.06
  10  -4  -1   15.93   27.66
  10   4  -1   39.86   35.72
 -10  -4   1   16.43   21.51
 -10   4   1   50.38   30.69
  10  -4   0   44.31   37.04
  10   4   0   55.58   54.71
 -10  -4   0   57.28   55.68
 -10   4   0   69.10   19.82
  10  -4   1    0.44    9.09
  10   4   1    3.89   14.52
 -10  -4  -1    5.47   12.10
 -10   4  -1    9.15   13.31
 -10  -4  -1    3.99    5.98
 -10   4  -1   -0.03   10.17
  10  -4   2    5.21    8.44
  10   4   2    3.53   14.56
 -10  -4  -2   16.87   21.79
 -10   4  -2    3.84   18.20
 -10  -4  -2    3.29    3.71
 -10   4  -2    0.70   13.25
  10  -4   3   99.29   18.91
  10   4   3   66.74   63.89
 -10  -4  -3   82.60   24.76
 -10   4  -3   63.09   44.98
 -10  -4  -3   87.44   14.15
 -10   4  -3   41.87   55.64
  10  -4   4   23.45   16.93
  10   4   4    7.30   11.15
  10  -4   4   14.08   10.99
 -10  -4  -4   14.49   21.70
 -10  -4  -4   20.32   32.04
 -10   4  -4   13.95   20.57
  10  -4   5   25.30   27.13
  10   4   5   23.48   35.94
  10  -4   5   16.18   30.50
 -10  -4  -5   33.05   39.85
 -10  -4  -5   28.57   45.51
 -10   4  -5   30.85   38.93
  10   4   6   17.32   20.49
  10  -4   6   37.25   45.44
 -10  -4  -6   68.44   26.64
 -10  -4  -6   37.82   45.23
 -10   4  -6   36.90   17.26
  10   4   7   57.22   65.63
  10  -4   7  131.52   28.19
 -10  -4  -7  116.35   24.56
 -10  -4  -7  118.05   21.00
 -10   4  -7   69.94   87.61
  10   5  -8   36.87   33.69
 -10   5   8   27.55   28.02
 -10  -5   8   24.04   24.97
  10   5  -7   16.57   15.14
 -10   5   7   17.71   18.99
 -10  -5   7   15.74   16.20
  10   5  -6   13.10   19.53
 -10   5   6    2.85   11.89
 -10  -5   6   13.44   27.41
 -10   5   6   25.02   12.76
  10   5  -5    8.37   19.16
 -10   5   5   13.82   14.23
 -10  -5   5   12.83   14.59
 -10   5   5    5.78    8.43
  10  -5  -4   12.39   16.82
  10   5  -4   11.66   12.62
 -10  -5   4   15.28   18.41
 -10   5   4    8.08   12.27
  10  -5  -3   29.52   38.65
  10   5  -3   59.72   21.67
 -10  -5   3   32.08   16.05
 -10   5   3   30.34   24.91
  10  -5  -2   25.80   16.84
  10   5  -2   17.69   24.39
 -10  -5   2   25.42   17.10
  10  -5  -1   38.62   33.94
  10   5  -1   21.53   31.11
 -10  -5   1   14.75   24.85
 -10   5   1   25.31   17.14
  10  -5   0   22.77   26.30
  10   5   0   31.97   43.89
 -10  -5   0   28.47   29.53
 -10   5   0   31.78   28.27
 -10  -5   0   20.58   23.28
  10  -5   1   43.45   43.24
  10   5   1   31.63   26.42
 -10  -5  -1   54.65   22.03
 -10   5  -1   32.14   55.86
 -10  -5  -1   64.54   12.01
 -10   5  -1   28.30   50.74
  10  -5   2  104.10   42.11
  10   5   2   63.04   75.26
 -10  -5  -2   88.89   50.73
 -10   5  -2   54.27   64.18
 -10  -5  -2   90.08   35.00
 -10   5  -2   48.71   60.65
  10  -5   3    1.01   11.31
  10   5   3    2.29   16.25
 -10  -5  -3   -0.66   18.27
 -10  -5  -3   -1.36   12.70
 -10   5  -3   11.55   18.56
  10   5   4    2.16   17.71
  10  -5   4    4.84    8.91
 -10  -5  -4   -1.06   17.47
 -10  -5  -4    6.52   13.57
 -10   5  -4    4.59   17.03
  10   5   5   22.09   31.26
  10  -5   5   36.27   49.47
 -10  -5  -5   46.12   20.16
 -10  -5  -5   34.13   50.52
 -10   5  -5   39.88   32.70
  10   5   6   22.99   46.90
  10  -5   6   13.31   22.00
 -10  -5  -6   28.54   41.52
 -10   5  -6   22.12   31.23
  10   6  -6  154.94   23.12
 -10   6   6  130.22   43.92
 -10  -6   6  161.23   41.49
  10   6  -5   -0.48    7.66
 -10   6   5    6.93   11.48
 -10  -6   5   10.33   16.90
  10   6  -4    8.14   14.23
 -10   6   4   12.44   22.19
 -10  -6   4    5.61   10.14
 -10   6   4   11.68   10.94
  10   6  -3   64.90   17.13
 -10  -6   3   76.10   28.23
 -10   6   3   49.14   12.97
  10  -6  -2    7.14   15.13
  10   6  -2   -1.15   14.01
 -10  -6   2    4.73   19.32
 -10   6   2    8.81   13.95
  10  -6  -1   63.17   63.20
  10   6  -1   51.15   58.27
 -10  -6   1   74.34   24.82
 -10   6   1   95.29   19.43
  10  -6   0   63.30   13.71
  10   6   0   56.73   75.23
 -10  -6   0   37.62   54.36
 -10   6   0   54.89   61.12
  10   6   1   21.06   36.38
 -10  -6  -1   14.82   16.05
 -10   6  -1    7.13   16.10
 -10  -6  -1   33.37   30.95
  10   6   2   10.80   13.35
 -10  -6  -2   12.43   16.61
 -10   6  -2    4.50   15.14
 -10  -6  -2    5.84   14.27
 -10   6  -2   -2.25   12.74
  10   6   3   13.67   25.67
  10  -6   3    5.52   14.46
 -10  -6  -3   11.79   17.89
 -10  -6  -3    5.70   10.76
 -10   6  -3   12.06   19.44
  10   6   4  111.09   22.68
  10  -6   4  101.43   22.23
 -10  -6  -4   79.27  116.86
 -10  -6  -4  127.42   21.43
 -10   6  -4   88.97   28.60
  10   7  -4    3.42    9.02
 -10   7   4    1.61   12.69
 -10  -7   4    7.42   12.21
  10   7  -3    6.66   13.94
 -10  -7   3   11.67   15.33
  10   7  -2   27.95   45.15
 -10  -7   2   15.69   24.11
 -10   7   2   49.50   15.42
  10   7  -1   20.68   40.97
 -10  -7   1   20.16   30.83
 -10   7   1   16.41   35.32
  10   7   0   29.95   37.76
 -10  -7   0   15.88   43.01
 -10   7   0   29.96   42.85
  10   7   1   46.52   72.11
 -10  -7  -1   72.04   23.63
 -10   7  -1   83.07   39.35
 -10  -7  -1   83.03   18.51
  10   7   2   20.75   24.79
 -10  -7  -2   40.58   25.66
 -10   7  -2   12.19   16.48
  11   0  -8    6.03   12.95
 -11   0   8    9.18   12.52
  11   0  -7   22.50   23.87
 -11   0   7   15.29   13.69
  11   0  -6   11.22    9.29
 -11   0   6    4.19   15.01
  11   0  -5    2.90   14.46
 -11   0   5    9.38   12.22
  11   0  -4   59.30   60.25
 -11   0   4   56.43   47.41
  11   0  -3   11.41   15.05
 -11   0   3   15.95   25.21
  11   0  -2   50.03   51.48
 -11   0   2   80.00   25.88
  11   0  -1  176.67   25.37
 -11   0   1  179.24   36.92
  11   0   0    7.54    9.38
 -11   0   0    5.21   13.86
  11   0   1   22.53   27.19
 -11   0  -1   58.36   30.43
  11   0   2    8.53    8.82
 -11   0  -2   18.12   22.87
  11   0   3   -4.23   14.49
 -11   0  -3    0.25   23.94
 -11   0  -3    4.20    9.27
  11   0   4    5.34   12.58
 -11   0  -4   -1.84   25.42
 -11   0  -4    5.33    9.46
  11   0   5   22.95   30.87
 -11   0  -5   35.19   23.22
 -11   0  -5   38.65   14.23
  11   0   6   23.54   35.69
 -11   0  -6   26.01   29.82
 -11   0  -6   21.90   26.86
  11   1  -8    4.62   25.04
  11  -1  -8   11.51   14.86
 -11  -1   8   11.55   16.47
 -11   1   8    8.27   14.60
  11  -1  -7   47.77   70.13
  11   1  -7   38.57   61.77
 -11   1   7   40.68   32.42
 -11  -1   7   36.06   33.53
  11   1  -6   38.10   46.15
  11  -1  -6   43.46   60.00
 -11   1   6   49.54   25.89
 -11  -1   6   45.18   52.60
  11  -1  -5   12.95   23.26
  11   1  -5   19.17   19.64
 -11   1   5    3.35   14.85
  11  -1  -4   24.04   30.65
  11   1  -4   33.53   46.43
 -11   1   4   30.79   30.32
 -11  -1   4   30.68   20.74
  11   1  -3   67.47   62.77
  11  -1  -3   52.26   63.95
 -11  -1   3   94.13   34.61
 -11   1   3   60.90   72.42
  11   1  -2   28.63   29.93
  11  -1  -2   11.30   21.59
 -11  -1   2   21.73   28.98
 -11   1   2   11.81   17.79
  11  -1  -1   24.89   27.98
  11   1  -1   29.21   24.15
 -11   1   1   18.88   20.58
 -11  -1   1   11.98   20.69
  11   1   0   32.97   38.85
  11  -1   0   22.00   23.11
 -11  -1   0   31.71   27.40
 -11   1   0   35.20   24.05
  11  -1   1   -0.09    6.59
  11   1   1   -0.92   19.47
 -11  -1  -1   -1.45   21.16
 -11   1  -1   -6.00   24.88
  11  -1   2   -1.94   15.88
  11   1   2    6.48   18.87
 -11   1  -2   -2.10   24.33
 -11  -1  -2    6.01   21.85
  11  -1   3   43.01   50.88
  11   1   3   26.48   39.50
 -11   1  -3   26.79   38.42
 -11  -1  -3   37.47   22.66
 -11  -1  -3   37.73   52.30
 -11   1  -3   21.04   36.21
  11   1   4   30.82   30.30
  11  -1   4   21.15   32.51
 -11  -1  -4   47.65   21.56
 -11   1  -4   14.18   24.93
 -11  -1  -4   36.49   31.84
 -11   1  -4   13.69   24.41
  11   1   5    8.24   14.07
  11  -1   5    4.29   14.69
 -11  -1  -5   15.32   20.78
 -11   1  -5    9.17   18.67
 -11  -1  -5    7.73   12.71
 -11   1  -5    8.58   11.02
  11  -1   6   11.42   25.55
  11   1   6   14.72   17.66
 -11  -1  -6    8.15   21.61
 -11   1  -6   22.52   40.52
 -11  -1  -6   18.59   19.08
 -11   1  -6   27.39   35.72
  11  -2  -8   20.39   43.33
  11   2  -8   15.43   18.41
 -11  -2   8   20.03   33.79
 -11   2   8   10.96   23.98
  11  -2  -7    8.86   14.83
  11   2  -7    4.67   11.77
 -11  -2   7    2.18    8.86
 -11   2   7   -7.22   11.70
  11  -2  -6   25.22   40.25
  11   2  -6   12.38   14.79
 -11  -2   6   32.00   23.08
 -11   2   6    6.02   11.31
  11  -2  -5   21.70   30.15
  11   2  -5   23.51   21.51
 -11  -2   5   23.15   27.67
 -11   2   5   16.28   16.28
  11  -2  -4    4.79    9.55
  11   2  -4   14.72   11.48
 -11  -2   4    7.14   17.71
 -11   2   4   12.78    9.94
  11  -2  -3    6.59    6.74
  11   2  -3    6.41   16.34
 -11  -2   3   -3.87   19.31
 -11   2   3    6.78   15.91
  11  -2  -2   36.72   32.57
  11   2  -2   53.77   18.20
 -11  -2   2   39.91   22.28
 -11   2   2   46.13   43.51
  11  -2  -1   19.73   30.40
  11   2  -1   13.64   16.63
 -11  -2   1   42.39   35.13
 -11   2   1   17.56   23.62
  11  -2   0   10.66   13.62
  11   2   0    2.56    9.31
 -11  -2   0   -2.69   22.19
 -11   2   0    0.40    9.58
  11  -2   1    4.82   11.76
  11   2   1    7.90   18.97
 -11  -2  -1   12.66   20.42
 -11   2  -1   20.46   19.16
  11  -2   2  158.08   23.00
  11   2   2  127.86   79.70
 -11  -2  -2  113.53   25.50
 -11   2  -2   76.09   86.63
  11  -2   3   21.61   31.39
  11   2   3   44.31   22.65
 -11  -2  -3   42.52   31.94
 -11  -2  -3   17.82   30.18
 -11   2  -3   16.94   24.54
  11  -2   4   11.75   29.88
  11   2   4    7.64   17.74
 -11  -2  -4   28.60   22.56
 -11   2  -4   13.98   22.11
 -11  -2  -4   15.01   18.20
 -11   2  -4   12.38   16.36
  11  -2   5   70.53   18.66
  11   2   5   42.58   62.50
 -11  -2  -5   82.62   33.65
 -11   2  -5   55.93   22.54
 -11  -2  -5   50.25   46.70
 -11   2  -5   32.93   42.43
  11  -3  -7    6.20   13.92
  11   3  -7   50.93   16.96
 -11  -3   7   23.46   15.38
 -11   3   7   18.19   31.78
  11  -3  -6   23.46   27.48
  11   3  -6   28.04   21.85
 -11  -3   6   38.29   25.04
 -11   3   6   17.50   18.80
  11  -3  -5    9.82   22.15
  11   3  -5   19.07   24.40
 -11  -3   5   43.19   23.57
 -11   3   5   23.28   19.02
  11  -3  -4   16.79   21.67
  11   3  -4   20.15   33.79
 -11  -3   4   31.22   18.73
 -11   3   4   21.50   25.76
  11  -3  -3   52.62   63.81
  11   3  -3   30.42   41.97
 -11  -3   3   47.98   54.95
 -11   3   3   17.92   18.08
  11  -3  -2   24.77   20.18
  11   3  -2   17.15   28.00
 -11  -3   2   31.99   22.32
 -11   3   2   16.70   20.94
  11  -3  -1   20.07   18.19
  11   3  -1   11.04   14.62
 -11  -3   1    8.04   21.17
 -11   3   1   33.06   18.16
  11  -3   0   49.63   66.10
  11   3   0   33.51   43.56
 -11  -3   0   53.77   83.95
 -11   3   0   45.54   22.91
  11  -3   1   20.45   27.75
  11   3   1   19.89   26.19
 -11   3  -1   18.24   25.29
  11  -3   2   16.51   24.13
  11   3   2   23.80   30.61
 -11  -3  -2   45.68   21.54
 -11   3  -2   24.13   43.47
  11  -3   3   17.07   21.16
  11   3   3   26.63   25.64
 -11  -3  -3   15.98   29.30
 -11   3  -3   28.17   31.92
 -11  -3  -3   15.30   19.52
  11  -3   4   32.76   44.53
  11   3   4   41.25   43.40
 -11  -3  -4   17.80   58.01
 -11   3  -4   50.73   23.55
 -11  -3  -4   37.47   44.22
 -11   3  -4   56.44   19.97
  11  -3   5    0.80    5.29
  11   3   5    5.72   19.58
 -11  -3  -5    2.60   25.16
 -11   3  -5    2.13   15.80
 -11  -3  -5    7.90    9.69
 -11   3  -5   11.86   18.36
  11  -4  -6    5.88   16.08
  11   4  -6    9.79   22.86
 -11  -4   6   11.29   20.14
 -11   4   6   11.65   11.85
  11  -4  -5   29.92   31.98
  11   4  -5   24.66   25.10
 -11  -4   5   17.47   30.35
 -11   4   5   26.39   33.22
  11  -4  -4    1.48    9.93
  11   4  -4    4.11   11.11
 -11  -4   4    1.24   14.10
 -11   4   4   -2.08   14.23
  11  -4  -3    5.64   13.44
  11   4  -3    5.61   17.23
 -11  -4   3   19.00   28.08
 -11   4   3    4.85    8.00
  11  -4  -2   61.80   71.20
  11   4  -2   53.92   19.17
 -11  -4   2   54.52   79.64
 -11   4   2   36.43   41.51
  11  -4  -1   10.62   22.73
  11   4  -1   13.95   20.57
 -11  -4   1    7.96   17.22
 -11   4   1   39.44   27.03
  11  -4   0   18.08   32.24
  11   4   0   13.37   26.97
 -11  -4   0   33.34   20.24
 -11   4   0   21.12   16.43
  11  -4   1   10.52   27.27
  11   4   1   16.14   25.11
 -11  -4  -1    6.50   11.67
 -11   4  -1   34.31   18.07
  11  -4   2   16.45   31.00
  11   4   2   55.07   20.61
 -11  -4  -2   29.43   46.49
 -11   4  -2   44.58   65.21
  11  -4   3    3.43    7.66
  11   4   3    5.16   19.49
 -11  -4  -3   -4.79   23.82
 -11   4  -3   -0.85    9.03
 -11  -4  -3    4.08    6.46
  11  -4   4    3.05    8.48
  11   4   4    2.67   11.06
 -11  -4  -4    7.59   20.89
 -11   4  -4    6.04   16.14
 -11  -4  -4    4.96    7.42
 -11   4  -4    3.74    9.61
  11  -5  -4   13.20   33.50
  11   5  -4   13.84   17.23
 -11  -5   4   15.14   34.80
 -11   5   4    2.91   12.29
  11  -5  -3   77.08   54.01
  11   5  -3   49.67   56.80
 -11  -5   3   58.47   46.30
 -11   5   3   52.05   65.03
  11  -5  -2    1.16    9.07
  11   5  -2  -10.11   15.96
 -11  -5   2   16.07   16.83
 -11   5   2    6.20   14.42
  11  -5  -1    6.60   11.15
  11   5  -1    8.19   12.33
 -11  -5   1    3.37   18.20
 -11   5   1   18.97   21.55
  11  -5   0   50.97   49.66
  11   5   0   26.94   44.40
 -11  -5   0   49.36   38.06
 -11   5   0   28.18   33.79
  11  -5   1    8.49   11.86
  11   5   1   24.96   32.76
 -11  -5  -1   15.36   22.41
 -11   5  -1   12.50   24.05
  11   5   2    8.45   17.16
 -11  -5  -2   11.18   20.75
 -11   5  -2   12.36   16.26
  12   0  -4    5.88   18.31
 -12   0   4   19.54   17.62
  12   0  -3   12.67   17.27
 -12   0   3    7.54   16.08
  12   0  -2   -1.01    8.87
 -12   0   2    6.70   15.09
  12   0  -1    2.56   17.19
 -12   0   1   11.32   21.66
  12   0   0   43.63   26.11
 -12   0   0   29.72   36.43
  12   0   1   74.67   18.35
 -12   0  -1   38.43   63.75
  12  -1  -3   -4.92   16.52
  12   1  -3  -11.79   16.65
 -12   1   3    1.57    8.93
 -12  -1   3   -3.78   18.50
  12   1  -2   96.65   22.03
  12  -1  -2  124.78   21.48
 -12  -1   2  122.58   23.94
 -12   1   2  117.65   29.89
  12  -1  -1    7.10   16.70
  12   1  -1   12.43   18.85
 -12   1   1    7.63   16.50
 -12  -1   1   15.06   20.20
  12  -1   0   13.59   16.95
  12   1   0    7.37   12.85
 -12   1   0   11.56   18.83
 -12  -1   0   11.99   14.98
  12   1   1   14.51   20.04
  12  -1   1   10.22   16.81
 -12  -1  -1   20.87   41.07
 -12   1  -1   33.78   23.24
  12  -2  -2   15.41   22.44
  12   2  -2   18.56   26.85
 -12  -2   2   25.88   25.47
 -12   2   2   22.96   42.02
  12  -2  -1   23.53   17.89
  12   2  -1   27.54   26.18
 -12  -2   1   18.84   18.75
 -12   2   1   10.37   35.36
   0   0   0    0.00    0.00
;
_shelx_hkl_checksum              43768
loop_
_space_group_symop_operation_xyz
'x, y, z'
'-x, y+1/2, -z'
loop_
_atom_site_label
_atom_site_type_symbol
_atom_site_fract_x
_atom_site_fract_y
_atom_site_fract_z
_atom_site_U_iso_or_equiv
_atom_site_adp_type
_atom_site_occupancy
_atom_site_site_symmetry_order
_atom_site_calc_flag
_atom_site_refinement_flags_posn
_atom_site_refinement_flags_adp
Br1 Br 0.25074(4) 0.64836(5) -0.14442(3) 0.02814(11) Uani 1 1 d . .
O1 O 0.3128(3) 0.2423(2) 0.5007(2) 0.0227(7) Uani 1 1 d . .
O2 O 0.1604(3) 0.3934(2) 0.42133(19) 0.0163(6) Uani 1 1 d . .
O3 O 0.3211(3) 0.2825(3) 0.2426(2) 0.0215(7) Uani 1 1 d . .
N1 N 0.3848(3) 0.5013(3) 0.2676(2) 0.0146(7) Uani 1 1 d . .
N2 N 0.3310(3) 0.5959(3) 0.4778(2) 0.0171(8) Uani 1 1 d . .
N3 N 0.3651(3) 0.6412(5) 0.5631(2) 0.0214(7) Uani 1 1 d . .
C1 C 0.3718(4) 0.6420(5) 0.2394(2) 0.0149(7) Uani 1 1 d . .
C2 C 0.2447(5) 0.7061(4) 0.2633(3) 0.0200(10) Uani 1 1 d . .
H2 H 0.1746 0.6567 0.2970 0.024 Uiso 1 1 calc R U
C3 C 0.2184(5) 0.8386(4) 0.2394(3) 0.0265(11) Uani 1 1 d . .
H3 H 0.1303 0.8804 0.2553 0.032 Uiso 1 1 calc R U
C4 C 0.3209(6) 0.9101(5) 0.1924(4) 0.0296(13) Uani 1 1 d . .
H4 H 0.3043 1.0024 0.1761 0.036 Uiso 1 1 calc R U
C5 C 0.4495(5) 0.8481(4) 0.1684(3) 0.0262(10) Uani 1 1 d . .
H5 H 0.5196 0.9001 0.1367 0.031 Uiso 1 1 calc R U
C6 C 0.4793(4) 0.7106(4) 0.1894(3) 0.0173(9) Uani 1 1 d . .
C7 C 0.6251(4) 0.6559(6) 0.1563(3) 0.0212(8) Uani 1 1 d . .
C8 C 0.6444(4) 0.5003(4) 0.1576(3) 0.0260(11) Uani 1 1 d . .
H8A H 0.6489 0.4679 0.2271 0.039 Uiso 1 1 calc R U
H8B H 0.7344 0.4767 0.1270 0.039 Uiso 1 1 calc R U
H8C H 0.5622 0.4581 0.1196 0.039 Uiso 1 1 calc R U
C9 C 0.6441(5) 0.6973(4) 0.0456(3) 0.0346(12) Uani 1 1 d . .
H9A H 0.5651 0.6587 0.0021 0.052 Uiso 1 1 calc R U
H9B H 0.7371 0.6633 0.0250 0.052 Uiso 1 1 calc R U
H9C H 0.6421 0.7959 0.0399 0.052 Uiso 1 1 calc R U
C10 C 0.7471(5) 0.7169(4) 0.2247(3) 0.0362(12) Uani 1 1 d . .
H10A H 0.7431 0.8156 0.2200 0.054 Uiso 1 1 calc R U
H10B H 0.8407 0.6850 0.2038 0.054 Uiso 1 1 calc R U
H10C H 0.7356 0.6893 0.2941 0.054 Uiso 1 1 calc R U
C11 C 0.4762(4) 0.4677(4) 0.3582(3) 0.0162(9) Uani 1 1 d . .
H11A H 0.5557 0.5347 0.3650 0.019 Uiso 1 1 calc R U
H11B H 0.5211 0.3786 0.3475 0.019 Uiso 1 1 calc R U
C12 C 0.4037(4) 0.4625(4) 0.4587(3) 0.0136(9) Uani 1 1 d . .
C13 C 0.5188(4) 0.4483(4) 0.5461(3) 0.0172(9) Uani 1 1 d . .
H13A H 0.6163 0.4726 0.5255 0.021 Uiso 1 1 calc R U
H13B H 0.5213 0.3554 0.5735 0.021 Uiso 1 1 calc R U
C14 C 0.4657(4) 0.5497(4) 0.6224(3) 0.0230(10) Uani 1 1 d . .
H14A H 0.4147 0.5027 0.6751 0.028 Uiso 1 1 calc R U
H14B H 0.5481 0.6011 0.6546 0.028 Uiso 1 1 calc R U
C15 C 0.2876(4) 0.3513(4) 0.4621(3) 0.0162(9) Uani 1 1 d . .
C16 C 0.0294(4) 0.3072(4) 0.4265(3) 0.0187(9) Uani 1 1 d . .
C17 C -0.0880(4) 0.3918(4) 0.3707(3) 0.0263(10) Uani 1 1 d . .
H17A H -0.0957 0.4792 0.4043 0.039 Uiso 1 1 calc R U
H17B H -0.1810 0.3444 0.3706 0.039 Uiso 1 1 calc R U
H17C H -0.0626 0.4062 0.3015 0.039 Uiso 1 1 calc R U
C18 C 0.0471(4) 0.1719(4) 0.3743(3) 0.0265(11) Uani 1 1 d . .
H18A H 0.0827 0.1870 0.3078 0.040 Uiso 1 1 calc R U
H18B H -0.0466 0.1256 0.3673 0.040 Uiso 1 1 calc R U
H18C H 0.1168 0.1161 0.4143 0.040 Uiso 1 1 calc R U
C19 C -0.0058(5) 0.2915(4) 0.5360(3) 0.0251(10) Uani 1 1 d . .
H19A H 0.0650 0.2310 0.5705 0.038 Uiso 1 1 calc R U
H19B H -0.1032 0.2535 0.5390 0.038 Uiso 1 1 calc R U
H19C H -0.0018 0.3800 0.5688 0.038 Uiso 1 1 calc R U
C20 C 0.3133(5) 0.4005(5) 0.2151(3) 0.0179(11) Uani 1 1 d . .
C21 C 0.2195(4) 0.4365(4) 0.1212(3) 0.0171(9) Uani 1 1 d . .
C22 C 0.0877(4) 0.3708(4) 0.1053(3) 0.0225(10) Uani 1 1 d . .
H22 H 0.0570 0.3103 0.1548 0.027 Uiso 1 1 calc R U
C23 C -0.0007(6) 0.3919(6) 0.0180(3) 0.0299(12) Uani 1 1 d . .
H23 H -0.0915 0.3473 0.0087 0.036 Uiso 1 1 calc R U
C24 C 0.0459(5) 0.4802(4) -0.0564(3) 0.0267(11) Uani 1 1 d . .
H24 H -0.0131 0.4975 -0.1159 0.032 Uiso 1 1 calc R U
C25 C 0.1790(4) 0.5401(4) -0.0399(3) 0.0187(9) Uani 1 1 d . .
C26 C 0.2662(4) 0.5219(4) 0.0459(3) 0.0180(9) Uani 1 1 d . .
H26 H 0.3571 0.5665 0.0545 0.022 Uiso 1 1 calc R U
loop_
_atom_site_aniso_label
_atom_site_aniso_U_11
_atom_site_aniso_U_22
_atom_site_aniso_U_33
_atom_site_aniso_U_23
_atom_site_aniso_U_13
_atom_site_aniso_U_12
Br1 0.0380(2) 0.0276(2) 0.01879(18) 0.0057(3) 0.00159(16) 0.0025(3)
O1 0.0215(17) 0.0152(16) 0.0311(17) 0.0096(14) -0.0003(14) 0.0010(13)
O2 0.0128(15) 0.0161(15) 0.0197(15) 0.0036(12) -0.0015(12) -0.0024(11)
O3 0.0270(17) 0.0141(16) 0.0231(16) 0.0020(13) -0.0008(14) -0.0020(12)
N1 0.0184(19) 0.0139(18) 0.0112(16) 0.0026(14) -0.0017(15) 0.0012(14)
N2 0.0165(19) 0.0167(18) 0.0181(18) 0.0008(14) 0.0011(16) 0.0033(13)
N3 0.0230(17) 0.0208(17) 0.0205(15) -0.002(2) 0.0025(13) 0.004(2)
C1 0.023(2) 0.0100(17) 0.0107(15) -0.002(3) -0.0036(14) 0.000(3)
C2 0.024(2) 0.022(2) 0.014(2) 0.0003(17) -0.0026(19) 0.0059(18)
C3 0.032(3) 0.029(3) 0.018(2) -0.004(2) -0.006(2) 0.012(2)
C4 0.042(3) 0.017(3) 0.028(3) -0.003(2) -0.011(3) 0.009(2)
C5 0.032(3) 0.025(2) 0.021(2) 0.006(2) -0.006(2) -0.006(2)
C6 0.022(2) 0.015(2) 0.013(2) 0.0002(16) -0.0033(18) -0.0021(17)
C7 0.021(2) 0.023(2) 0.0205(18) 0.001(3) 0.0020(16) -0.007(3)
C8 0.025(3) 0.030(3) 0.024(2) 0.005(2) 0.009(2) 0.009(2)
C9 0.038(3) 0.035(3) 0.032(3) 0.009(2) 0.013(2) -0.007(2)
C10 0.027(3) 0.045(3) 0.036(3) -0.002(2) -0.002(2) -0.006(2)
C11 0.014(2) 0.018(2) 0.017(2) 0.0028(17) 0.0005(18) 0.0018(17)
C12 0.014(2) 0.013(2) 0.014(2) 0.0025(16) -0.0017(17) 0.0010(16)
C13 0.017(2) 0.019(2) 0.015(2) 0.0018(17) -0.0044(18) -0.0003(17)
C14 0.031(3) 0.022(2) 0.015(2) -0.0004(19) -0.004(2) 0.003(2)
C15 0.014(2) 0.024(2) 0.012(2) -0.0036(18) 0.0034(17) -0.0006(18)
C16 0.016(2) 0.020(2) 0.020(2) 0.0047(18) -0.0045(18) -0.0058(18)
C17 0.019(2) 0.028(3) 0.031(3) 0.005(2) -0.004(2) -0.0021(19)
C18 0.030(2) 0.023(3) 0.027(2) -0.001(2) -0.0002(19) -0.008(2)
C19 0.025(3) 0.028(2) 0.023(2) 0.002(2) 0.003(2) -0.005(2)
C20 0.017(3) 0.022(3) 0.015(2) 0.001(2) 0.0019(19) 0.000(2)
C21 0.020(2) 0.016(2) 0.015(2) -0.0042(17) -0.0016(18) 0.0014(17)
C22 0.025(3) 0.025(2) 0.018(2) -0.0005(19) 0.0036(19) 0.000(2)
C23 0.022(2) 0.038(3) 0.030(3) -0.003(3) 0.000(2) -0.0087(19)
C24 0.027(3) 0.036(3) 0.017(2) -0.001(2) -0.005(2) 0.002(2)
C25 0.025(2) 0.020(2) 0.011(2) -0.0003(17) 0.0038(18) 0.0031(19)
C26 0.022(2) 0.015(2) 0.017(2) -0.0024(18) -0.0009(18) -0.0009(17)
loop_
_atom_type_symbol
_atom_type_description
_atom_type_scat_dispersion_real
_atom_type_scat_dispersion_imag
_atom_type_scat_source
C C 0.0033 0.0016 'International Tables Vol C Tables 4.2.6.8 and 6.1.1.4'
H H 0.0000 0.0000 'International Tables Vol C Tables 4.2.6.8 and 6.1.1.4'
N N 0.0061 0.0033 'International Tables Vol C Tables 4.2.6.8 and 6.1.1.4'
O O 0.0106 0.0060 'International Tables Vol C Tables 4.2.6.8 and 6.1.1.4'
Br Br -0.2901 2.4595 'International Tables Vol C Tables 4.2.6.8 and 6.1.1.4'
loop_
_geom_angle_atom_site_label_1
_geom_angle_atom_site_label_2
_geom_angle_atom_site_label_3
_geom_angle
C15 O2 C16 120.1(3)
C20 N1 C1 122.8(3)
C20 N1 C11 119.4(3)
C1 N1 C11 117.8(3)
N3 N2 C12 112.4(3)
N2 N3 C14 112.3(4)
C2 C1 C6 121.5(4)
C2 C1 N1 115.9(3)
C6 C1 N1 122.6(3)
C3 C2 C1 121.6(4)
C3 C2 H2 119.2
C1 C2 H2 119.2
C4 C3 C2 119.0(4)
C4 C3 H3 120.5
C2 C3 H3 120.5
C3 C4 C5 120.3(5)
C3 C4 H4 119.8
C5 C4 H4 119.8
C4 C5 C6 122.4(4)
C4 C5 H5 118.8
C6 C5 H5 118.8
C1 C6 C5 115.1(4)
C1 C6 C7 128.6(4)
C5 C6 C7 116.3(4)
C10 C7 C6 108.3(4)
C10 C7 C8 107.8(4)
C6 C7 C8 116.6(3)
C10 C7 C9 109.8(3)
C6 C7 C9 109.6(3)
C8 C7 C9 104.6(3)
C7 C8 H8A 109.5
C7 C8 H8B 109.5
H8A C8 H8B 109.5
C7 C8 H8C 109.5
H8A C8 H8C 109.5
H8B C8 H8C 109.5
C7 C9 H9A 109.5
C7 C9 H9B 109.5
H9A C9 H9B 109.5
C7 C9 H9C 109.5
H9A C9 H9C 109.5
H9B C9 H9C 109.5
C7 C10 H10A 109.5
C7 C10 H10B 109.5
H10A C10 H10B 109.5
C7 C10 H10C 109.5
H10A C10 H10C 109.5
H10B C10 H10C 109.5
N1 C11 C12 117.8(3)
N1 C11 H11A 107.9
C12 C11 H11A 107.9
N1 C11 H11B 107.9
C12 C11 H11B 107.9
H11A C11 H11B 107.2
N2 C12 C13 104.2(3)
N2 C12 C15 107.5(3)
C13 C12 C15 111.2(3)
N2 C12 C11 110.0(3)
C13 C12 C11 110.2(3)
C15 C12 C11 113.3(3)
C12 C13 C14 102.1(3)
C12 C13 H13A 111.3
C14 C13 H13A 111.3
C12 C13 H13B 111.3
C14 C13 H13B 111.3
H13A C13 H13B 109.2
N3 C14 C13 105.1(3)
N3 C14 H14A 110.7
C13 C14 H14A 110.7
N3 C14 H14B 110.7
C13 C14 H14B 110.7
H14A C14 H14B 108.8
O1 C15 O2 126.3(4)
O1 C15 C12 122.3(3)
O2 C15 C12 111.3(3)
O2 C16 C18 111.8(3)
O2 C16 C17 102.5(3)
C18 C16 C17 110.8(3)
O2 C16 C19 109.2(3)
C18 C16 C19 112.6(3)
C17 C16 C19 109.5(3)
C16 C17 H17A 109.5
C16 C17 H17B 109.5
H17A C17 H17B 109.5
C16 C17 H17C 109.5
H17A C17 H17C 109.5
H17B C17 H17C 109.5
C16 C18 H18A 109.5
C16 C18 H18B 109.5
H18A C18 H18B 109.5
C16 C18 H18C 109.5
H18A C18 H18C 109.5
H18B C18 H18C 109.5
C16 C19 H19A 109.5
C16 C19 H19B 109.5
H19A C19 H19B 109.5
C16 C19 H19C 109.5
H19A C19 H19C 109.5
H19B C19 H19C 109.5
O3 C20 N1 121.7(4)
O3 C20 C21 119.4(4)
N1 C20 C21 118.9(4)
C22 C21 C26 118.9(4)
C22 C21 C20 117.7(4)
C26 C21 C20 123.2(4)
C21 C22 C23 121.2(4)
C21 C22 H22 119.4
C23 C22 H22 119.4
C22 C23 C24 119.5(5)
C22 C23 H23 120.3
C24 C23 H23 120.3
C25 C24 C23 117.9(4)
C25 C24 H24 121.1
C23 C24 H24 121.1
C26 C25 C24 123.4(4)
C26 C25 Br1 118.1(3)
C24 C25 Br1 118.5(3)
C25 C26 C21 119.2(4)
C25 C26 H26 120.4
C21 C26 H26 120.4
loop_
_geom_bond_atom_site_label_1
_geom_bond_atom_site_label_2
_geom_bond_distance
Br1 C25 1.915(4)
O1 C15 1.212(4)
O2 C15 1.331(4)
O2 C16 1.488(4)
O3 C20 1.227(5)
N1 C20 1.366(5)
N1 C1 1.447(5)
N1 C11 1.468(4)
N2 N3 1.245(4)
N2 C12 1.512(4)
N3 C14 1.490(5)
C1 C2 1.392(5)
C1 C6 1.409(5)
C2 C3 1.370(5)
C2 H2 0.9500
C3 C4 1.370(6)
C3 H3 0.9500
C4 C5 1.396(6)
C4 H4 0.9500
C5 C6 1.414(5)
C5 H5 0.9500
C6 C7 1.545(5)
C7 C10 1.528(5)
C7 C8 1.552(6)
C7 C9 1.557(5)
C8 H8A 0.9800
C8 H8B 0.9800
C8 H8C 0.9800
C9 H9A 0.9800
C9 H9B 0.9800
C9 H9C 0.9800
C10 H10A 0.9800
C10 H10B 0.9800
C10 H10C 0.9800
C11 C12 1.542(5)
C11 H11A 0.9900
C11 H11B 0.9900
C12 C13 1.534(5)
C12 C15 1.541(5)
C13 C14 1.535(5)
C13 H13A 0.9900
C13 H13B 0.9900
C14 H14A 0.9900
C14 H14B 0.9900
C16 C18 1.525(5)
C16 C17 1.526(5)
C16 C19 1.529(5)
C17 H17A 0.9800
C17 H17B 0.9800
C17 H17C 0.9800
C18 H18A 0.9800
C18 H18B 0.9800
C18 H18C 0.9800
C19 H19A 0.9800
C19 H19B 0.9800
C19 H19C 0.9800
C20 C21 1.519(6)
C21 C22 1.386(5)
C21 C26 1.404(5)
C22 C23 1.395(6)
C22 H22 0.9500
C23 C24 1.413(6)
C23 H23 0.9500
C24 C25 1.371(5)
C24 H24 0.9500
C25 C26 1.370(5)
C26 H26 0.9500
loop_
_geom_torsion_atom_site_label_1
_geom_torsion_atom_site_label_2
_geom_torsion_atom_site_label_3
_geom_torsion_atom_site_label_4
_geom_torsion
C12 N2 N3 C14 -1.0(5)
C20 N1 C1 C2 76.8(4)
C11 N1 C1 C2 -101.5(4)
C20 N1 C1 C6 -102.3(4)
C11 N1 C1 C6 79.4(4)
C6 C1 C2 C3 0.0(6)
N1 C1 C2 C3 -179.1(3)
C1 C2 C3 C4 -1.1(6)
C2 C3 C4 C5 0.7(7)
C3 C4 C5 C6 1.0(7)
C2 C1 C6 C5 1.5(5)
N1 C1 C6 C5 -179.5(3)
C2 C1 C6 C7 -179.4(4)
N1 C1 C6 C7 -0.4(6)
C4 C5 C6 C1 -2.0(6)
C4 C5 C6 C7 178.8(4)
C1 C6 C7 C10 -107.9(5)
C5 C6 C7 C10 71.2(5)
C1 C6 C7 C8 13.9(6)
C5 C6 C7 C8 -167.1(3)
C1 C6 C7 C9 132.4(4)
C5 C6 C7 C9 -48.6(5)
C20 N1 C11 C12 -87.8(4)
C1 N1 C11 C12 90.6(4)
N3 N2 C12 C13 -11.7(4)
N3 N2 C12 C15 106.4(4)
N3 N2 C12 C11 -129.8(3)
N1 C11 C12 N2 -56.8(4)
N1 C11 C12 C13 -171.1(3)
N1 C11 C12 C15 63.6(4)
N2 C12 C13 C14 18.1(4)
C15 C12 C13 C14 -97.4(4)
C11 C12 C13 C14 136.1(3)
N2 N3 C14 C13 13.3(5)
C12 C13 C14 N3 -18.9(4)
C16 O2 C15 O1 4.3(6)
C16 O2 C15 C12 -173.5(3)
N2 C12 C15 O1 -140.4(3)
C13 C12 C15 O1 -26.9(5)
C11 C12 C15 O1 97.9(4)
N2 C12 C15 O2 37.5(4)
C13 C12 C15 O2 151.0(3)
C11 C12 C15 O2 -84.2(4)
C15 O2 C16 C18 -60.7(4)
C15 O2 C16 C17 -179.4(3)
C15 O2 C16 C19 64.6(4)
C1 N1 C20 O3 -177.0(4)
C11 N1 C20 O3 1.4(6)
C1 N1 C20 C21 1.9(6)
C11 N1 C20 C21 -179.7(3)
O3 C20 C21 C22 39.5(6)
N1 C20 C21 C22 -139.4(4)
O3 C20 C21 C26 -133.9(4)
N1 C20 C21 C26 47.1(6)
C26 C21 C22 C23 -2.3(6)
C20 C21 C22 C23 -176.0(4)
C21 C22 C23 C24 1.0(7)
C22 C23 C24 C25 1.2(7)
C23 C24 C25 C26 -2.1(6)
C23 C24 C25 Br1 175.0(3)
C24 C25 C26 C21 0.9(6)
Br1 C25 C26 C21 -176.3(3)
C22 C21 C26 C25 1.4(6)
C20 C21 C26 C25 174.8(4)
loop_
_cod_related_entry_id
_cod_related_entry_database
_cod_related_entry_code
1 PubChem 168335588
