#------------------------------------------------------------------------------
#$Date: 2017-02-04 04:07:42 +0200 (Sat, 04 Feb 2017) $
#$Revision: 191335 $
#$URL: file:///home/coder/svn-repositories/cod/cif/4/34/49/4344957.cif $
#------------------------------------------------------------------------------
#
# This file is available in the Crystallography Open Database (COD),
# http://www.crystallography.net/
#
# All data on this site have been placed in the public domain by the
# contributors.
#
data_4344957
loop_
_publ_author_name
'Sweet, Lucas E.'
'Corbey, Jordan F.'
'Gendron, Fr\'ed\'eric'
'Autschbach, Jochen'
'McNamara, Bruce K.'
'Ziegelgruber, Kate L.'
'Arrigo, Leah M.'
'Peper, Shane M.'
'Schwantes, Jon M.'
_publ_section_title
;
 Structure and Bonding Investigation of Plutonium Peroxocarbonate
 Complexes Using Cerium Surrogates and Electronic Structure Modeling.
;
_journal_issue                   2
_journal_name_full               'Inorganic chemistry'
_journal_page_first              791
_journal_page_last               801
_journal_paper_doi               10.1021/acs.inorgchem.6b02235
_journal_volume                  56
_journal_year                    2017
_chemical_formula_sum            'C6 H24 K8 O34 Pu2'
_chemical_formula_weight         1437.05
_space_group_crystal_system      triclinic
_space_group_IT_number           2
_space_group_name_Hall           '-P 1'
_space_group_name_H-M_alt        'P -1'
_symmetry_space_group_name_Hall  '-P 1'
_symmetry_space_group_name_H-M   'P -1'
_atom_sites_solution_hydrogens   difmap
_audit_creation_method           SHELXL-2014/7
_cell_angle_alpha                66.787(3)
_cell_angle_beta                 68.391(3)
_cell_angle_gamma                74.259(3)
_cell_formula_units_Z            1
_cell_length_a                   8.8616(16)
_cell_length_b                   10.3300(19)
_cell_length_c                   10.939(2)
_cell_measurement_reflns_used    4975
_cell_measurement_temperature    296(2)
_cell_measurement_theta_max      33.12
_cell_measurement_theta_min      3.50
_cell_volume                     846.2(3)
_computing_cell_refinement       'Bruker SAINT'
_computing_data_collection       'Bruker APEX2'
_computing_data_reduction        'Bruker SAINT'
_computing_molecular_graphics    'Bruker SHELXTL'
_computing_publication_material  'Bruker SHELXTL'
_computing_structure_refinement  'SHELXL-2014/7 (Sheldrick, 2014)'
_computing_structure_solution    'SHELXS-97 (Sheldrick 2008)'
_diffrn_ambient_temperature      296(2)
_diffrn_measured_fraction_theta_full 0.996
_diffrn_measured_fraction_theta_max 0.979
_diffrn_measurement_device_type  'Bruker APEX-II CCD'
_diffrn_measurement_method       '\f and \w scans'
_diffrn_radiation_type           MoK\a
_diffrn_radiation_wavelength     0.71073
_diffrn_reflns_av_unetI/netI     0.0940
_diffrn_reflns_Laue_measured_fraction_full 0.996
_diffrn_reflns_Laue_measured_fraction_max 0.979
_diffrn_reflns_limit_h_max       13
_diffrn_reflns_limit_h_min       -11
_diffrn_reflns_limit_k_max       15
_diffrn_reflns_limit_k_min       -13
_diffrn_reflns_limit_l_max       16
_diffrn_reflns_limit_l_min       0
_diffrn_reflns_number            5524
_diffrn_reflns_point_group_measured_fraction_full 0.996
_diffrn_reflns_point_group_measured_fraction_max 0.979
_diffrn_reflns_theta_full        25.242
_diffrn_reflns_theta_max         31.502
_diffrn_reflns_theta_min         2.759
_exptl_absorpt_coefficient_mu    4.962
_exptl_absorpt_correction_T_max  0.746542
_exptl_absorpt_correction_T_min  0.535226
_exptl_absorpt_correction_type   multi-scan
_exptl_crystal_colour            green
_exptl_crystal_density_diffrn    2.820
_exptl_crystal_density_meas      ?
_exptl_crystal_density_method    not_measured
_exptl_crystal_description       plate
_exptl_crystal_F_000             672
_exptl_crystal_size_max          0.100
_exptl_crystal_size_mid          0.075
_exptl_crystal_size_min          0.010
_refine_diff_density_max         2.255
_refine_diff_density_min         -2.644
_refine_diff_density_rms         0.266
_refine_ls_extinction_method     none
_refine_ls_goodness_of_fit_ref   0.883
_refine_ls_hydrogen_treatment    refall
_refine_ls_matrix_type           full
_refine_ls_number_parameters     259
_refine_ls_number_reflns         5524
_refine_ls_number_restraints     8
_refine_ls_restrained_S_all      0.882
_refine_ls_R_factor_all          0.0420
_refine_ls_R_factor_gt           0.0300
_refine_ls_shift/su_max          0.001
_refine_ls_shift/su_mean         0.000
_refine_ls_structure_factor_coef Fsqd
_refine_ls_weighting_details
'w=1/[\s^2^(Fo^2^)+(0.0180P)^2^] where P=(Fo^2^+2Fc^2^)/3'
_refine_ls_weighting_scheme      calc
_refine_ls_wR_factor_gt          0.0607
_refine_ls_wR_factor_ref         0.0621
_reflns_Friedel_coverage         0.000
_reflns_number_gt                4349
_reflns_number_total             5524
_reflns_threshold_expression     'I > 2\s(I)'
_cod_data_source_file            ic6b02235_si_002.cif
_cod_data_source_block           pukfinal
_cod_depositor_comments
;
The following automatic conversions were performed:

'_exptl_crystal_density_meas' value 'not_measured' was changed to '?'
- the value is perceived as not measured.

Automatic conversion script
Id: cif_fix_values 4268 2015-11-12 08:31:59Z antanas 

 Adding full bibliography for 4344957.cif.
;
_cod_original_cell_volume        846.3(3)
_cod_database_code               4344957
_shelx_shelxl_version_number     2014/7
_shelx_space_group_comment
; 
The symmetry employed for this shelxl refinement is uniquely defined 
by the following loop, which should always be used as a source of 
symmetry information in preference to the above space-group names. 
They are only intended as comments. 
;
_shelx_estimated_absorpt_t_min   0.637
_shelx_estimated_absorpt_t_max   0.952
_shelx_res_file
; 
  
    pukfinal.res created by SHELXL-2014/7 
  
  
TITL pukfinal in P-1 
CELL 0.71073   8.86160  10.33000  10.93920  66.7869  68.3912  74.2586 
ZERR    1.00   0.00160   0.00190   0.00200   0.0029   0.0026   0.0031 
LATT  1 
SFAC C H O K PU 
UNIT 6 24 34 8 2 
TEMP 23.000 
SIZE 0.01 0.075 0.10 
L.S. 12 
acta 
  
shel 100 0.68 
dfix ow1 h1 0.9 
dfix ow1 h1a 0.9 
dfix ow2 h2 0.9 
dfix ow2 h2a 0.9 
dfix ow5 h5 0.9 
dfix ow5 h5a 0.9 
dfix ow6 h6 0.9 
dfix ow6 h6a 0.9 
omit 2 0 6 
omit 0 -1 2 
omit -1 2 0 
omit 2 1 6 
WGHT    0.018000 
BASF   0.28646 
FVAR       0.41335 
PU1   5    0.655065    0.360681    0.466515    11.00000    0.00525    0.00347 = 
         0.00691   -0.00189   -0.00260    0.00005 
K1    4    0.783156   -0.064448    0.565187    11.00000    0.01031    0.00786 = 
         0.01445   -0.00382   -0.00443    0.00057 
K2    4    1.296914    0.478150    0.208392    11.00000    0.01536    0.01215 = 
         0.01579   -0.00337   -0.00615   -0.00228 
K3    4    0.350427    0.102421    0.726210    11.00000    0.01167    0.01056 = 
         0.01388   -0.00400   -0.00151   -0.00190 
K4    4    0.783911    0.631866    0.065287    11.00000    0.02399    0.01733 = 
         0.01275   -0.00596   -0.00492   -0.00338 
O1    3    0.684571    0.153803    0.670951    11.00000    0.01574    0.00629 = 
         0.01131   -0.00099   -0.00724   -0.00117 
O2    3    0.790489    0.342558    0.627425    11.00000    0.01252    0.00577 = 
         0.01186    0.00146   -0.00620   -0.00447 
O3    3    0.592945    0.354568    0.274246    11.00000    0.01722    0.00470 = 
         0.00773    0.00088   -0.00523   -0.00175 
O4    3    0.563052    0.162495    0.460109    11.00000    0.01321    0.00460 = 
         0.00753    0.00023   -0.00570   -0.00095 
O5    3    0.899989    0.440466    0.293526    11.00000    0.01377    0.00698 = 
         0.01940   -0.00535   -0.00613    0.00132 
O6    3    0.631828    0.591817    0.459648    11.00000    0.01298    0.01168 = 
         0.01684   -0.00574   -0.00313    0.00048 
O7    3    0.572795    0.599578    0.345804    11.00000    0.01516    0.01649 = 
         0.01008   -0.00139   -0.00609    0.00100 
O8    3    0.500560    0.171703    0.275001    11.00000    0.01030    0.01421 = 
         0.01752   -0.00920   -0.00615   -0.00222 
O9    3    0.802998    0.156164    0.819565    11.00000    0.01899    0.01182 = 
         0.00966    0.00024   -0.00964    0.00029 
O10   3    1.124712    0.294585    0.212938    11.00000    0.00963    0.01413 = 
         0.01213   -0.00335   -0.00427    0.00076 
O11   3    0.904384    0.209680    0.382589    11.00000    0.01050    0.00745 = 
         0.01128   -0.00160   -0.00372   -0.00032 
C1    1    0.550537    0.224417    0.336367    11.00000    0.00438    0.00985 = 
         0.01285   -0.00677   -0.00224    0.00215 
C2    1    0.758502    0.214591    0.710186    11.00000    0.00731    0.01027 = 
         0.00914   -0.00400    0.00024   -0.00173 
C3    1    0.984965    0.313712    0.292728    11.00000    0.01687    0.00773 = 
         0.01004   -0.00037   -0.01032   -0.00018 
OW1   3    0.858074   -0.319271    0.511447    11.00000    0.01556    0.01913 = 
         0.02556   -0.01230   -0.00597   -0.00067 
H1    2    0.795967   -0.356387    0.490113    11.00000    0.00800 
H1A   2    0.965577   -0.322417    0.460501    11.00000    0.01815 
OW2   3    0.334139    0.078922    0.987316    11.00000    0.02472    0.01640 = 
         0.02639   -0.00153   -0.01208   -0.00384 
H2    2    0.289579    0.003107    1.053626    11.00000    0.03395 
H2A   2    0.408630    0.097463    1.014998    11.00000    0.05810 
OW3   3    0.054198    0.272146    0.813433    11.00000    0.02044    0.01747 = 
         0.02657   -0.01059   -0.01058    0.00154 
OW4   3    0.834950    0.376894    0.026773    11.00000    0.02914    0.01822 = 
         0.01709   -0.00270   -0.00159   -0.00779 
OW5   3    1.520974    0.283933   -0.001296    11.00000    0.02302    0.03259 = 
         0.01567   -0.00614   -0.01016    0.00807 
H5    2    1.616158    0.251183   -0.055350    11.00000    0.15865 
H5A   2    1.506629    0.239542    0.089668    11.00000    0.05925 
OW6   3    0.106325   -0.029699    0.747464    11.00000    0.01649    0.01969 = 
         0.04371   -0.02219   -0.00638    0.00196 
H6    2    0.089810   -0.102251    0.731528    11.00000    0.03073 
H6A   2    0.003226    0.014703    0.773914    11.00000    0.01180 
HKLF 5 
  
REM  pukfinal in P-1 
REM R1 =  0.0300 for    4349 Fo > 4sig(Fo)  and  0.0420 for all    5524 data 
REM    259 parameters refined using      8 restraints 
  
END 
  
WGHT      0.0180      0.0000 
  
REM Highest difference peak  2.255,  deepest hole -2.644,  1-sigma level  0.266 
Q1    1   0.5580  0.3757  0.5349  11.00000  0.05    2.13 
Q2    1   0.7798  0.3211  0.4018  11.00000  0.05    2.11 
Q3    1   0.5710  0.3210  0.5504  11.00000  0.05    2.06 
Q4    1   0.6312  0.3272  0.5674  11.00000  0.05    2.02 
Q5    1   0.7258  0.4134  0.3695  11.00000  0.05    1.76 
Q6    1   0.5232  0.4437  0.4401  11.00000  0.05    1.65 
Q7    1   0.5656  0.5197  0.3265  11.00000  0.05    1.37 
Q8    1   0.7786  0.3450  0.5182  11.00000  0.05    1.33 
Q9    1   0.0028  0.2030  0.9041  11.00000  0.05    1.24 
Q10   1   0.7637  0.4178  0.2936  11.00000  0.05    1.23 
Q11   1   0.5817  0.3224  0.4851  11.00000  0.05    1.19 
Q12   1   0.6634  0.3465  0.3235  11.00000  0.05    1.13 
Q13   1   0.6082  0.4399  0.2882  11.00000  0.05    1.11 
Q14   1   0.7452  0.2166  0.6130  11.00000  0.05    1.10 
Q15   1   0.4457  0.6177  0.4028  11.00000  0.05    1.06 
Q16   1   0.8239  0.1726  0.3675  11.00000  0.05    1.05 
Q17   1   0.5260  0.3847  0.4205  11.00000  0.05    1.04 
Q18   1   0.9025  0.3010 -0.0067  11.00000  0.05    1.04 
Q19   1   0.8642  0.3507  0.3481  11.00000  0.05    1.01 
Q20   1   0.5901  0.3937  0.2206  11.00000  0.05    0.95 
;
_shelx_res_checksum              1912
_shelx_hkl_file
; 
   2   0   0 2217.12 34.6852  -2 
   2   0   0 2217.12 34.6852   1 
   3   0   0 1905.68 37.6047  -2 
   3   0   0 1905.68 37.6047   1 
   4   0   0 1646.73 52.6237  -2 
   4   0   0 1646.73 52.6237   1 
   5   0   0 52.6937 23.3090  -2 
   5   0   0 52.6937 23.3090   1 
   6   0   0 1676.63 53.6052  -2 
   6   0   0 1676.63 53.6052   1 
   7   0   0 2239.09 67.5222  -2 
   7   0   0 2239.09 67.5222   1 
   8   0   0 -6.4966 35.6586  -2 
   8   0   0 -6.4966 35.6586   1 
   9   0   0 1149.55 75.5930   1 
  10   0   0 325.838 35.4419   1 
  11   0   0 12.2668 16.5291   1 
  12   0   0 49.2565 23.8912   1 
 -12   1   0 355.403 44.4900   1 
 -11   1   0 137.411 28.7789   1 
 -10   1   0 45.3928 19.6464   1 
  -9   1   0 227.283 29.8158   1 
  -8   1   0 460.293 34.2704   1 
  -7   1   0 82.4300 34.5785  -2 
  -7   1   0 82.4300 34.5785   1 
  -6   1   0 628.081 38.1663  -2 
  -6   1   0 628.081 38.1663   1 
  -5   1   0 997.453 38.7803  -2 
  -5   1   0 997.453 38.7803   1 
  -4   1   0 12.9750 15.1842  -2 
  -4   1   0 12.9750 15.1842   1 
  -3   1   0 2376.00 36.0571  -2 
  -3   1   0 2376.00 36.0571   1 
  -2   1   0 3858.44 48.8059  -2 
  -2   1   0 3858.44 48.8059   1 
  -1   1   0 449.390 19.2726  -2 
  -1   1   0 449.390 19.2726   1 
   1   1   0 3289.14 63.4453  -2 
   1   1   0 3289.14 63.4453   1 
   2   1   0 879.313 17.0541  -2 
   2   1   0 879.313 17.0541   1 
   3   1   0 274.146 17.2692  -2 
   3   1   0 274.146 17.2692   1 
   4   1   0 1821.21 42.1734  -2 
   4   1   0 1821.21 42.1734   1 
   5   1   0 395.115 26.2689  -2 
   5   1   0 395.115 26.2689   1 
   6   1   0 230.665 33.9668  -2 
   6   1   0 230.665 33.9668   1 
   7   1   0 625.133 51.5324  -2 
   7   1   0 625.133 51.5324   1 
   8   1   0 562.174 45.8128  -2 
   8   1   0 562.174 45.8128   1 
   9   1   0 2.47586 12.3020   1 
  10   1   0 186.777 44.0305   1 
  11   1   0 341.838 38.8304   1 
  12   1   0 49.3593 25.1969   1 
 -12   2   0 85.9086 28.4571   1 
 -11   2   1 720.305 91.5367  -2 
 -11   2   0 720.305 91.5367   1 
 -10   2   0 214.466 34.4596   1 
  -9   2   0 314.642 33.7990   1 
  -8   2   0 1191.59 50.6658   1 
  -7   2   0 620.833 57.1272  -2 
  -7   2   0 620.833 57.1272   1 
  -6   2   0 370.038 43.6687  -2 
  -6   2   0 370.038 43.6687   1 
  -5   2   0 2800.36 48.8606  -2 
  -5   2   0 2800.36 48.8606   1 
  -4   2   0 1575.55 34.3254  -2 
  -4   2   0 1575.55 34.3254   1 
  -3   2   0 388.510 22.9933  -2 
  -3   2   0 388.510 22.9933   1 
  -2   2   0 8273.15 83.6792  -2 
  -2   2   0 8273.15 83.6792   1 
  -1   2   0 2854.21 37.8109  -2 
  -1   2   0 2854.21 37.8109   1 
   0   2   0 404.253 13.6573  -2 
   0   2   0 404.253 13.6573   1 
   1   2   0 2051.77 27.8621  -2 
   1   2   0 2051.77 27.8621   1 
   2   2   0 1671.18 33.2764  -2 
   2   2   0 1671.18 33.2764   1 
   3   2   0 10.2934 8.74260  -2 
   3   2   0 10.2934 8.74260   1 
   4   2   0 1515.51 38.8818  -2 
   4   2   0 1515.51 38.8818   1 
   5   2   0 3144.80 61.6771  -2 
   5   2   0 3144.80 61.6771   1 
   6   2   0 1360.68 48.4866  -2 
   6   2   0 1360.68 48.4866   1 
   7   2   0 298.809 32.8310  -2 
   7   2   0 298.809 32.8310   1 
   8   2   0 965.612 36.6102   1 
   9   2   0 845.320 108.895  -2 
   9   2   0 845.320 108.895   1 
  10   2   0 1.73215 13.3319   1 
  12   2   0 466.836 63.3756   1 
 -11   3   1 179.437 51.6508  -2 
 -11   3   0 179.437 51.6508   1 
 -10   3   1 485.108 80.0583  -2 
 -10   3   0 485.108 80.0583   1 
  -9   3   0 219.110 32.0009   1 
  -8   3   0 90.6843 20.8370   1 
  -7   3   0 1421.12 81.5416  -2 
  -7   3   0 1421.12 81.5416   1 
  -6   3   0 860.371 43.5056  -2 
  -6   3   0 860.371 43.5056   1 
  -5   3   0 1262.90 46.3494  -2 
  -5   3   0 1262.90 46.3494   1 
  -4   3   0 3063.80 65.1974  -2 
  -4   3   0 3063.80 65.1974   1 
  -3   3   0 87.8266 13.7617  -2 
  -3   3   0 87.8266 13.7617   1 
  -2   3   0 538.912 25.7710  -2 
  -2   3   0 538.912 25.7710   1 
  -1   3   0 18.2156 9.66213  -2 
  -1   3   0 18.2156 9.66213   1 
   0   3   0 3905.05 44.9860  -2 
   0   3   0 3905.05 44.9860   1 
   1   3   0 165.269 12.3737  -2 
   1   3   0 165.269 12.3737   1 
   2   3   0 219.948 14.7469  -2 
   2   3   0 219.948 14.7469   1 
   3   3   0 2005.04 42.9340  -2 
   3   3   0 2005.04 42.9340   1 
   4   3   0 192.793 18.4457  -2 
   4   3   0 192.793 18.4457   1 
   5   3   0 119.786 19.7603  -2 
   5   3   0 119.786 19.7603   1 
   6   3   0 720.178 37.3481  -2 
   6   3   0 720.178 37.3481   1 
   7   3   0 799.732 80.3745  -2 
   7   3   0 799.732 80.3745   1 
   8   3   0 7.47108 56.1561  -2 
   8   3   0 7.47108 56.1561   1 
   9   3   0 822.648 42.7567   1 
  10   3   0 457.278 44.7659   1 
  11   3   0 98.3320 35.1116   1 
 -11   4   1 -14.432 49.2433  -2 
 -11   4   0 -14.432 49.2433   1 
 -10   4   1 731.414 64.6469  -2 
 -10   4   0 731.414 64.6469   1 
  -9   4   0 735.558 50.0128   1 
  -8   4   0 -4.9385 17.4890   1 
  -7   4   0 1051.95 76.9294  -2 
  -7   4   0 1051.95 76.9294   1 
  -6   4   0 1519.31 58.1019  -2 
  -6   4   0 1519.31 58.1019   1 
  -5   4   0 6.09570 21.6511  -2 
  -5   4   0 6.09570 21.6511   1 
  -4   4   0 531.337 26.5855  -2 
  -4   4   0 531.337 26.5855   1 
  -3   4   0 2177.21 44.3451  -2 
  -3   4   0 2177.21 44.3451   1 
  -2   4   0 3981.40 54.3269  -2 
  -2   4   0 3981.40 54.3269   1 
  -1   4   0 2848.71 41.6498  -2 
  -1   4   0 2848.71 41.6498   1 
   0   4   0 6186.61 64.2911  -2 
   0   4   0 6186.61 64.2911   1 
   1   4   0 1206.80 32.8848  -2 
   1   4   0 1206.80 32.8848   1 
   2   4   0 0.75337 10.9884  -2 
   2   4   0 0.75337 10.9884   1 
   3   4   0 1404.83 39.7618  -2 
   3   4   0 1404.83 39.7618   1 
   4   4   0 2812.03 58.5078  -2 
   4   4   0 2812.03 58.5078   1 
   5   4   0 936.188 71.5722  -2 
   5   4   0 936.188 71.5722   1 
   6   4   0 1745.73 100.933  -2 
   6   4   0 1745.73 100.933   1 
   7   4   0 2797.72 136.726  -2 
   7   4   0 2797.72 136.726   1 
   8   4   0 -9.9682 59.9381  -2 
   8   4   0 -9.9682 59.9381   1 
   9   4   0 416.207 38.9898   1 
  10   4   0 484.131 55.0946   1 
  11   4   0 64.6103 26.5589   1 
 -11   5   0 148.709 34.8986   1 
 -10   5   1 114.482 51.3466  -2 
 -10   5   0 114.482 51.3466   1 
  -9   5   1 234.414 74.3729  -2 
  -9   5   0 234.414 74.3729   1 
  -8   5   0 475.305 58.6745   1 
  -7   5   0 202.667 51.3225  -2 
  -7   5   0 202.667 51.3225   1 
  -6   5   0 362.153 38.5657  -2 
  -6   5   0 362.153 38.5657   1 
  -5   5   0 1079.82 51.8358  -2 
  -5   5   0 1079.82 51.8358   1 
  -4   5   0 328.678 25.8636  -2 
  -4   5   0 328.678 25.8636   1 
  -3   5   0 0.49962 14.8848  -2 
  -3   5   0 0.49962 14.8848   1 
  -2   5   0 2782.55 49.3292  -2 
  -2   5   0 2782.55 49.3292   1 
  -1   5   0 2195.27 35.0521  -2 
  -1   5   0 2195.27 35.0521   1 
   0   5   0 99.4798 14.4288  -2 
   0   5   0 99.4798 14.4288   1 
   1   5   0 4893.40 62.8740  -2 
   1   5   0 4893.40 62.8740   1 
   2   5   0 3687.05 56.0516  -2 
   2   5   0 3687.05 56.0516   1 
   3   5   0 7.86080 13.0921  -2 
   3   5   0 7.86080 13.0921   1 
   4   5   0 1290.70 44.3578  -2 
   4   5   0 1290.70 44.3578   1 
   5   5   0 2026.30 106.712  -2 
   5   5   0 2026.30 106.712   1 
   6   5   0 403.762 34.6395  -2 
   6   5   0 403.762 34.6395   1 
   7   5   0 1349.31 104.651  -2 
   7   5   0 1349.31 104.651   1 
   8   5   0 902.635 103.004  -2 
   8   5   0 902.635 103.004   1 
   9   5   0 18.1100 74.1953  -2 
   9   5   0 18.1100 74.1953   1 
  10   5   0 232.398 37.8277   1 
  11   5   0 457.307 93.8257   1 
 -10   6   1 249.038 58.1398  -2 
 -10   6   0 249.038 58.1398   1 
  -9   6   1 50.4918 70.6680  -2 
  -9   6   0 50.4918 70.6680   1 
  -8   6   0 189.738 49.0289   1 
  -7   6   0 212.580 45.7331   1 
  -6   6   0 223.980 48.2286  -2 
  -6   6   0 223.980 48.2286   1 
  -5   6   0 1117.65 55.6087  -2 
  -5   6   0 1117.65 55.6087   1 
  -4   6   0 2054.59 54.4400  -2 
  -4   6   0 2054.59 54.4400   1 
  -3   6   0 5.71319 17.1441  -2 
  -3   6   0 5.71319 17.1441   1 
  -2   6   0 870.740 31.8407  -2 
  -2   6   0 870.740 31.8407   1 
  -1   6   0 2470.73 40.5955  -2 
  -1   6   0 2470.73 40.5955   1 
   0   6   0 757.418 29.7642  -2 
   0   6   0 757.418 29.7642   1 
   1   6   0 759.914 29.6971  -2 
   1   6   0 759.914 29.6971   1 
   2   6   0 2512.64 51.3281  -2 
   2   6   0 2512.64 51.3281   1 
   3   6   0 1312.86 40.2716  -2 
   3   6   0 1312.86 40.2716   1 
   4   6   0 955.126 36.7584  -2 
   4   6   0 955.126 36.7584   1 
   5   6   0 2585.67 69.4157  -2 
   5   6   0 2585.67 69.4157   1 
   6   6   0 392.691 44.5345  -2 
   6   6   0 392.691 44.5345   1 
   7   6   0 145.025 60.6164  -2 
   7   6   0 145.025 60.6164   1 
   8   6   0 597.430 93.7509  -2 
   8   6   0 597.430 93.7509   1 
   9   6   0 794.517 113.440  -2 
   9   6   0 794.517 113.440   1 
  10   6   0 8.85272 34.7284   1 
  12   6   0 428.028 98.8728   1 
  -9   7   1 703.126 97.9483  -2 
  -9   7   0 703.126 97.9483   1 
  -8   7   1 22.9851 62.0220  -2 
  -8   7   0 22.9851 62.0220   1 
  -7   7   0 889.283 76.1368   1 
  -6   7   0 723.278 64.5678   1 
  -5   7   0 40.4901 29.9570  -2 
  -5   7   0 40.4901 29.9570   1 
  -4   7   0 556.515 34.7798  -2 
  -4   7   0 556.515 34.7798   1 
  -3   7   0 1986.71 53.0667  -2 
  -3   7   0 1986.71 53.0667   1 
  -2   7   0 1246.77 40.2610  -2 
  -2   7   0 1246.77 40.2610   1 
  -1   7   0 569.293 23.6596  -2 
  -1   7   0 569.293 23.6596   1 
   0   7   0 3393.20 63.8313  -2 
   0   7   0 3393.20 63.8313   1 
   1   7   0 744.144 32.6032  -2 
   1   7   0 744.144 32.6032   1 
   2   7   0 1272.09 41.5191  -2 
   2   7   0 1272.09 41.5191   1 
   3   7   0 903.269 37.6026  -2 
   3   7   0 903.269 37.6026   1 
   4   7   0 279.102 27.3460  -2 
   4   7   0 279.102 27.3460   1 
   5   7   0 8.75195 21.0463  -2 
   5   7   0 8.75195 21.0463   1 
   6   7   0 391.030 37.3212  -2 
   6   7   0 391.030 37.3212   1 
   7   7   0 973.651 55.4673  -2 
   7   7   0 973.651 55.4673   1 
   8   7   0 30.9047 75.6130  -2 
   8   7   0 30.9047 75.6130   1 
   9   7   0 981.158 127.309  -2 
   9   7   0 981.158 127.309   1 
  10   7   0 590.933 120.197  -2 
  10   7   0 590.933 120.197   1 
  11   7   0 0.85702 37.3611   1 
  -9   8   1 541.755 97.5542  -2 
  -9   8   0 541.755 97.5542   1 
  -8   8   1 325.985 78.9976  -2 
  -8   8   0 325.985 78.9976   1 
  -7   8   0 155.893 43.1958   1 
  -6   8   0 1116.85 88.3106  -2 
  -6   8   0 1116.85 88.3106   1 
  -5   8   0 374.238 35.9467  -2 
  -5   8   0 374.238 35.9467   1 
  -4   8   0 131.492 27.2562  -2 
  -4   8   0 131.492 27.2562   1 
  -3   8   0 2135.23 58.5704  -2 
  -3   8   0 2135.23 58.5704   1 
  -2   8   0 948.392 39.1259  -2 
  -2   8   0 948.392 39.1259   1 
  -1   8   0 114.711 17.1639  -2 
  -1   8   0 114.711 17.1639   1 
   0   8   0 866.046 38.7135  -2 
   0   8   0 866.046 38.7135   1 
   1   8   0 1216.20 43.2311  -2 
   1   8   0 1216.20 43.2311   1 
   2   8   0 -5.8600 18.2447  -2 
   2   8   0 -5.8600 18.2447   1 
   3   8   0 480.140 33.0092  -2 
   3   8   0 480.140 33.0092   1 
   4   8   0 993.768 44.1216  -2 
   4   8   0 993.768 44.1216   1 
   5   8   0 208.663 29.9552  -2 
   5   8   0 208.663 29.9552   1 
   6   8   0 130.053 28.7373  -2 
   6   8   0 130.053 28.7373   1 
   7   8   0 459.673 58.8534  -2 
   7   8   0 459.673 58.8534   1 
   8   8   0 141.130 89.1218  -2 
   8   8   0 141.130 89.1218   1 
   9   8   0 -15.981 90.1359  -2 
   9   8   0 -15.981 90.1359   1 
  10   8   0 713.751 137.193  -2 
  10   8   0 713.751 137.193   1 
  11   8   0 324.849 93.0844   1 
  -6   9   0 196.256 60.2951  -2 
  -6   9   0 196.256 60.2951   1 
  -5   9   0 1181.19 62.8923  -2 
  -5   9   0 1181.19 62.8923   1 
  -4   9   0 733.446 43.8135  -2 
  -4   9   0 733.446 43.8135   1 
  -3   9   0 42.4430 24.4096  -2 
  -3   9   0 42.4430 24.4096   1 
  -2   9   0 1577.16 70.8951  -2 
  -2   9   0 1577.16 70.8951   1 
  -1   9   0 1062.88 57.0791  -2 
  -1   9   0 1062.88 57.0791   1 
   0   9   0 47.9973 22.4830  -2 
   0   9   0 47.9973 22.4830   1 
   1   9   0 1309.96 48.3253  -2 
   1   9   0 1309.96 48.3253   1 
   2   9   0 1246.92 48.6401  -2 
   2   9   0 1246.92 48.6401   1 
   3   9   0 624.241 39.3364  -2 
   3   9   0 624.241 39.3364   1 
   4   9   0 93.5379 26.9854  -2 
   4   9   0 93.5379 26.9854   1 
   5   9   0 2047.62 64.7293  -2 
   5   9   0 2047.62 64.7293   1 
   6   9   0 331.139 37.4071  -2 
   6   9   0 331.139 37.4071   1 
   7   9   0 225.106 56.8845  -2 
   7   9   0 225.106 56.8845   1 
   8   9   0 654.435 75.3471  -2 
   8   9   0 654.435 75.3471   1 
   9   9   0 329.916 57.5032   1 
  10   9   0 28.7521 114.833  -2 
  10   9   0 28.7521 114.833   1 
  11   9   0 276.054 96.9960   1 
  -7  10   0 773.612 93.3860  -2 
  -7  10   0 773.612 93.3860   1 
  -6  10   0 130.675 60.8216  -2 
  -6  10   0 130.675 60.8216   1 
  -5  10   0 726.729 55.5403  -2 
  -5  10   0 726.729 55.5403   1 
  -4  10   0 443.156 56.9905  -2 
  -4  10   0 443.156 56.9905   1 
  -3  10   0 21.2697 38.2454  -2 
  -3  10   0 21.2697 38.2454   1 
  -2  10   0 81.4618 37.6197  -2 
  -2  10   0 81.4618 37.6197   1 
  -1  10   0 276.531 41.8222  -2 
  -1  10   0 276.531 41.8222   1 
   0  10   0 732.097 50.6373  -2 
   0  10   0 732.097 50.6373   1 
   1  10   0 59.4160 25.4322  -2 
   1  10   0 59.4160 25.4322   1 
   2  10   0 1473.26 55.8412  -2 
   2  10   0 1473.26 55.8412   1 
   3  10   0 893.737 48.6210  -2 
   3  10   0 893.737 48.6210   1 
   4  10   0 23.1137 27.9944  -2 
   4  10   0 23.1137 27.9944   1 
   5  10   0 661.761 46.5719  -2 
   5  10   0 661.761 46.5719   1 
   6  10   0 497.973 67.8839  -2 
   6  10   0 497.973 67.8839   1 
   7  10   0 144.480 58.8209  -2 
   7  10   0 144.480 58.8209   1 
   8  10   0 212.604 67.1356  -2 
   8  10   0 212.604 67.1356   1 
   9  10   0 800.054 116.776  -2 
   9  10   0 800.054 116.776   1 
  10  10   0 68.5999 37.0444   1 
  -6  11   0 510.519 79.5324  -2 
  -6  11   0 510.519 79.5324   1 
  -5  11   0 242.019 70.3974  -2 
  -5  11   0 242.019 70.3974   1 
  -4  11   0 158.942 62.8094  -2 
  -4  11   0 158.942 62.8094   1 
  -3  11   0 1056.59 73.8595  -2 
  -3  11   0 1056.59 73.8595   1 
  -2  11   0 746.587 62.6963  -2 
  -2  11   0 746.587 62.6963   1 
  -1  11   0 73.2994 37.1867  -2 
  -1  11   0 73.2994 37.1867   1 
   0  11   0 1224.70 66.2060  -2 
   0  11   0 1224.70 66.2060   1 
   1  11   0 930.283 59.3016  -2 
   1  11   0 930.283 59.3016   1 
   2  11   0 0.70143 27.2843  -2 
   2  11   0 0.70143 27.2843   1 
   3  11   0 779.190 50.0356  -2 
   3  11   0 779.190 50.0356   1 
   4  11   0 1035.66 56.3379  -2 
   4  11   0 1035.66 56.3379   1 
   5  11   0 28.3092 55.1440  -2 
   5  11   0 28.3092 55.1440   1 
   6  11   0 885.269 86.1940  -2 
   6  11   0 885.269 86.1940   1 
   7  11   0 1318.63 102.569  -2 
   7  11   0 1318.63 102.569   1 
   8  11   0 -36.833 64.5841  -2 
   8  11   0 -36.833 64.5841   1 
   9  11   0 338.481 76.8609  -2 
   9  11   0 338.481 76.8609   1 
  -5  12   0 588.531 87.5837  -2 
  -5  12   0 588.531 87.5837   1 
  -4  12   0 42.8457 62.2272  -2 
  -4  12   0 42.8457 62.2272   1 
  -3  12   0 118.420 50.5828  -2 
  -3  12   0 118.420 50.5828   1 
  -2  12   0 729.419 66.9661  -2 
  -2  12   0 729.419 66.9661   1 
  -1  12   0 513.435 56.1342  -2 
  -1  12   0 513.435 56.1342   1 
   0  12   0 188.503 43.4073  -2 
   0  12   0 188.503 43.4073   1 
   1  12   0 810.301 62.9911  -2 
   1  12   0 810.301 62.9911   1 
   2  12   0 215.685 37.7123  -2 
   2  12   0 215.685 37.7123   1 
   3  12   0 36.9719 35.3622  -2 
   3  12   0 36.9719 35.3622   1 
   4  12   0 572.713 74.9649  -2 
   4  12   0 572.713 74.9649   1 
   5  12   0 340.671 71.8456  -2 
   5  12   0 340.671 71.8456   1 
   6  12   0 -5.2639 64.4125  -2 
   6  12   0 -5.2639 64.4125   1 
   7  12   0 299.714 79.1726  -2 
   7  12   0 299.714 79.1726   1 
   8  12   0 400.268 88.4309  -2 
   8  12   0 400.268 88.4309   1 
  -3  13   0 29.6297 62.7671  -2 
  -3  13   0 29.6297 62.7671   1 
  -2  13   0 897.187 73.7646  -2 
  -2  13   0 897.187 73.7646   1 
  -1  13   0 833.877 69.0241  -2 
  -1  13   0 833.877 69.0241   1 
   0  13   0 46.4853 42.8480  -2 
   0  13   0 46.4853 42.8480   1 
   1  13   0 311.512 52.8836  -2 
   1  13   0 311.512 52.8836   1 
   2  13   0 1022.69 128.282  -2 
   2  13   0 1022.69 128.282   1 
   3  13   0 578.530 76.7970  -2 
   3  13   0 578.530 76.7970   1 
   4  13   0 231.994 67.1645  -2 
   4  13   0 231.994 67.1645   1 
   5  13   0 1040.57 96.4013  -2 
   5  13   0 1040.57 96.4013   1 
   6  13   0 79.6293 71.3169  -2 
   6  13   0 79.6293 71.3169   1 
  -1  14   0 406.688 60.7561  -2 
  -1  14   0 406.688 60.7561   1 
   0  14   0 762.212 72.0277  -2 
   0  14   0 762.212 72.0277   1 
   2  14   0 456.556 109.514  -2 
   2  14   0 456.556 109.514   1 
   3  14   0 394.960 111.903  -2 
   3  14   0 394.960 111.903   1 
   4  14   0 36.3104 97.4713  -2 
   4  14   0 36.3104 97.4713   1 
   5  14   0 -6.0255 92.7403  -2 
   5  14   0 -6.0255 92.7403   1 
  -1 -14   1 22.2818 58.9880  -2 
  -1 -14   1 22.2818 58.9880   1 
   0 -14   1 534.929 83.2298  -2 
   0 -14   1 534.929 83.2298   1 
  -6 -13   1 297.511 118.764  -2 
  -6 -13   1 297.511 118.764   1 
  -5 -13   1 1063.92 102.005  -2 
  -5 -13   1 1063.92 102.005   1 
  -4 -13   1 587.694 83.0248  -2 
  -4 -13   1 587.694 83.0248   1 
  -3 -13   1 146.527 95.8355  -2 
  -3 -13   1 146.527 95.8355   1 
  -2 -13   1 838.721 72.8988  -2 
  -2 -13   1 838.721 72.8988   1 
  -1 -13   1 629.164 65.1221  -2 
  -1 -13   1 629.164 65.1221   1 
   0 -13   1 9.01522 46.7026  -2 
   0 -13   1 9.01522 46.7026   1 
   1 -13   1 778.350 72.2747  -2 
   1 -13   1 778.350 72.2747   1 
   2 -13   1 348.848 60.2343  -2 
   2 -13   1 348.848 60.2343   1 
   3 -13   1 69.3126 53.3019  -2 
   3 -13   1 69.3126 53.3019   1 
  -7 -12   1 295.877 81.8721  -2 
  -7 -12   1 295.877 81.8721   1 
  -6 -12   1 -2.1056 67.3376  -2 
  -6 -12   1 -2.1056 67.3376   1 
  -5 -12   1 109.336 66.8106  -2 
  -5 -12   1 109.336 66.8106   1 
  -4 -12   1 683.804 81.4773  -2 
  -4 -12   1 683.804 81.4773   1 
  -3 -12   1 168.522 42.4335  -2 
  -3 -12   1 168.522 42.4335   1 
  -2 -12   1 350.315 54.6656  -2 
  -2 -12   1 350.315 54.6656   1 
  -1 -12   1 913.078 68.4560  -2 
  -1 -12   1 913.078 68.4560   1 
   0 -12   1 23.3673 41.4701  -2 
   0 -12   1 23.3673 41.4701   1 
   1 -12   1 168.208 48.0587  -2 
   1 -12   1 168.208 48.0587   1 
   2 -12   1 268.988 55.5171  -2 
   2 -12   1 268.988 55.5171   1 
   3 -12   1 303.500 59.5281  -2 
   3 -12   1 303.500 59.5281   1 
   4 -12   1 75.9311 53.9355  -2 
   4 -12   1 75.9311 53.9355   1 
   5 -12   1 422.035 67.8554   1 
  -8 -11   1 12.9815 87.9178  -2 
  -8 -11   1 12.9815 87.9178   1 
  -7 -11   1 803.997 94.5363  -2 
  -7 -11   1 803.997 94.5363   1 
  -6 -11   1 958.301 92.8136  -2 
  -6 -11   1 958.301 92.8136   1 
  -5 -11   1 -11.158 36.1026  -2 
  -5 -11   1 -11.158 36.1026   1 
  -4 -11   1 530.894 49.2872  -2 
  -4 -11   1 530.894 49.2872   1 
  -3 -11   1 596.876 49.3716  -2 
  -3 -11   1 596.876 49.3716   1 
  -2 -11   1 -5.2602 31.4878  -2 
  -2 -11   1 -5.2602 31.4878   1 
  -1 -11   1 170.967 42.1786  -2 
  -1 -11   1 170.967 42.1786   1 
   0 -11   1 444.267 51.0211  -2 
   0 -11   1 444.267 51.0211   1 
   1 -11   1 951.652 66.4075  -2 
   1 -11   1 951.652 66.4075   1 
   2 -11   1 76.0276 43.9342  -2 
   2 -11   1 76.0276 43.9342   1 
   3 -11   1 1273.28 81.3671  -2 
   3 -11   1 1273.28 81.3671   1 
   4 -11   1 575.252 66.7683  -2 
   4 -11   1 575.252 66.7683   1 
   5 -11   1 32.1831 54.9927  -2 
   5 -11   1 32.1831 54.9927   1 
   6 -11   1 218.446 69.5916  -2 
   6 -11   1 218.446 69.5916   1 
  -9 -10   1 733.549 142.674  -2 
  -9 -10   1 733.549 142.674   1 
  -8 -10   1 170.957 68.3994  -2 
  -8 -10   1 170.957 68.3994   1 
  -7 -10   1 56.5690 63.5705  -2 
  -7 -10   1 56.5690 63.5705   1 
  -6 -10   1 296.269 44.7674  -2 
  -6 -10   1 296.269 44.7674   1 
  -5 -10   1 423.528 44.0841  -2 
  -5 -10   1 423.528 44.0841   1 
  -4 -10   1 -2.2014 31.5770  -2 
  -4 -10   1 -2.2014 31.5770   1 
  -3 -10   1 581.613 44.8609  -2 
  -3 -10   1 581.613 44.8609   1 
  -2 -10   1 677.513 44.9790  -2 
  -2 -10   1 677.513 44.9790   1 
  -1 -10   1 155.548 32.1096  -2 
  -1 -10   1 155.548 32.1096   1 
   0 -10   1 364.197 43.5427  -2 
   0 -10   1 364.197 43.5427   1 
   1 -10   1 601.125 52.4082  -2 
   1 -10   1 601.125 52.4082   1 
   2 -10   1 359.494 49.4591  -2 
   2 -10   1 359.494 49.4591   1 
   3 -10   1 94.9487 43.4261  -2 
   3 -10   1 94.9487 43.4261   1 
   4 -10   1 1049.04 91.4092  -2 
   4 -10   1 1049.04 91.4092   1 
   5 -10   1 407.128 60.1623  -2 
   5 -10   1 407.128 60.1623   1 
   6 -10   1 86.2360 36.5824   1 
   7 -10   1 439.401 78.5344  -2 
   7 -10   1 439.401 78.5344   1 
 -10  -9   1 134.632 67.1533   1 
  -9  -9   1 81.6343 36.4193   1 
  -8  -9   1 1126.25 144.584  -2 
  -8  -9   1 1126.25 144.584   1 
  -7  -9   1 201.317 40.4529  -2 
  -7  -9   1 201.317 40.4529   1 
  -6  -9   1 171.002 36.2358  -2 
  -6  -9   1 171.002 36.2358   1 
  -5  -9   1 1035.39 54.1677  -2 
  -5  -9   1 1035.39 54.1677   1 
  -4  -9   1 837.787 48.2337  -2 
  -4  -9   1 837.787 48.2337   1 
  -3  -9   1 140.183 30.3111  -2 
  -3  -9   1 140.183 30.3111   1 
  -2  -9   1 996.351 66.1358  -2 
  -2  -9   1 996.351 66.1358   1 
  -1  -9   1 3762.26 81.7765  -2 
  -1  -9   1 3762.26 81.7765   1 
   0  -9   1 53.1288 24.7221  -2 
   0  -9   1 53.1288 24.7221   1 
   1  -9   1 900.809 56.2407  -2 
   1  -9   1 900.809 56.2407   1 
   2  -9   1 1688.83 75.1831  -2 
   2  -9   1 1688.83 75.1831   1 
   3  -9   1 366.966 48.6969  -2 
   3  -9   1 366.966 48.6969   1 
   4  -9   1 249.203 33.3631  -2 
   4  -9   1 249.203 33.3631   1 
   5  -9   1 1191.17 55.8531  -2 
   5  -9   1 1191.17 55.8531   1 
   6  -9   1 267.568 62.0070  -2 
   6  -9   1 267.568 62.0070   1 
   7  -9   1 138.810 41.9844   1 
  -8   9   0 1139.64 105.433  -2 
   8  -9   1 1139.64 105.433   1 
 -10  -8   1 216.775 73.7358   1 
  -9  -8   1 20.6148 27.1289   1 
  -8  -8   1 12.8251 89.7728  -2 
  -8  -8   1 12.8251 89.7728   1 
  -7  -8   1 258.222 45.2494  -2 
  -7  -8   1 258.222 45.2494   1 
  -6  -8   1 460.677 40.9079  -2 
  -6  -8   1 460.677 40.9079   1 
  -5  -8   1 12.4350 27.1113  -2 
  -5  -8   1 12.4350 27.1113   1 
  -4  -8   1 1834.75 60.8646  -2 
  -4  -8   1 1834.75 60.8646   1 
  -3  -8   1 1756.77 57.0156  -2 
  -3  -8   1 1756.77 57.0156   1 
  -2  -8   1 198.095 27.1104  -2 
  -2  -8   1 198.095 27.1104   1 
  -1  -8   1 1815.36 54.8259  -2 
  -1  -8   1 1815.36 54.8259   1 
   0  -8   1 533.097 34.1685  -2 
   0  -8   1 533.097 34.1685   1 
   1  -8   1 58.7262 27.9402  -2 
   1  -8   1 58.7262 27.9402   1 
   2  -8   1 411.352 28.9774  -2 
   2  -8   1 411.352 28.9774   1 
   3  -8   1 2138.95 59.2225  -2 
   3  -8   1 2138.95 59.2225   1 
   4  -8   1 66.5916 25.9712  -2 
   4  -8   1 66.5916 25.9712   1 
   5  -8   1 772.180 67.4645  -2 
   5  -8   1 772.180 67.4645   1 
   6  -8   1 657.987 73.3753  -2 
   6  -8   1 657.987 73.3753   1 
   7  -8   1 -0.7951 20.6972   1 
  -8   8   0 356.509 77.9360  -2 
   8  -8   1 356.509 77.9360   1 
  -9   8   0 325.753 82.3289  -2 
   9  -8   1 325.753 82.3289   1 
 -11  -7   1 -16.279 43.7567   1 
 -10  -7   1 131.442 60.4862   1 
  -9  -7   1 706.143 57.8028   1 
  -8  -7   1 76.4589 39.4531  -2 
  -8  -7   1 76.4589 39.4531   1 
  -7  -7   1 495.730 38.0376   1 
  -6  -7   1 1255.43 60.8580  -2 
  -6  -7   1 1255.43 60.8580   1 
  -5  -7   1 738.260 41.5989  -2 
  -5  -7   1 738.260 41.5989   1 
  -4  -7   1 524.497 35.6341  -2 
  -4  -7   1 524.497 35.6341   1 
  -3  -7   1 1813.55 54.1410  -2 
  -3  -7   1 1813.55 54.1410   1 
  -2  -7   1 512.862 31.4340  -2 
  -2  -7   1 512.862 31.4340   1 
  -1  -7   1 122.223 21.4695  -2 
  -1  -7   1 122.223 21.4695   1 
   0  -7   1 3849.21 70.7570  -2 
   0  -7   1 3849.21 70.7570   1 
   1  -7   1 1073.68 29.8696  -2 
   1  -7   1 1073.68 29.8696   1 
   2  -7   1 22.4358 17.1961  -2 
   2  -7   1 22.4358 17.1961   1 
   3  -7   1 1193.83 43.2168  -2 
   3  -7   1 1193.83 43.2168   1 
   4  -7   1 823.411 53.6498  -2 
   4  -7   1 823.411 53.6498   1 
   5  -7   1 31.7897 31.1245  -2 
   5  -7   1 31.7897 31.1245   1 
   6  -7   1 470.347 50.2487  -2 
   6  -7   1 470.347 50.2487   1 
   7  -7   1 846.162 72.9139   1 
  -8   7   0 192.120 66.9551  -2 
   8  -7   1 192.120 66.9551   1 
  -9   7   0 495.921 90.8087  -2 
   9  -7   1 495.921 90.8087   1 
 -11  -6   1 366.363 94.1124   1 
 -10  -6   1 3.57298 25.0626   1 
  -9  -6   1 430.414 46.7659   1 
  -8  -6   1 1089.31 120.982  -2 
  -8  -6   1 1089.31 120.982   1 
  -7  -6   1 129.840 23.7264   1 
  -6  -6   1 815.036 49.3935  -2 
  -6  -6   1 815.036 49.3935   1 
  -5  -6   1 1262.56 54.8792  -2 
  -5  -6   1 1262.56 54.8792   1 
  -4  -6   1 114.118 23.2749  -2 
  -4  -6   1 114.118 23.2749   1 
  -3  -6   1 476.898 29.8932  -2 
  -3  -6   1 476.898 29.8932   1 
  -2  -6   1 1235.11 40.3066  -2 
  -2  -6   1 1235.11 40.3066   1 
  -1  -6   1 330.893 23.8488  -2 
  -1  -6   1 330.893 23.8488   1 
   0  -6   1 148.292 19.6094  -2 
   0  -6   1 148.292 19.6094   1 
   1  -6   1 829.826 24.6249  -2 
   1  -6   1 829.826 24.6249   1 
   2  -6   1 751.884 30.4749  -2 
   2  -6   1 751.884 30.4749   1 
   3  -6   1 18.1295 17.4708  -2 
   3  -6   1 18.1295 17.4708   1 
   4  -6   1 542.689 41.8324  -2 
   4  -6   1 542.689 41.8324   1 
   5  -6   1 420.503 41.6283  -2 
   5  -6   1 420.503 41.6283   1 
   6  -6   1 33.5164 33.0906  -2 
   6  -6   1 33.5164 33.0906   1 
   7  -6   1 28.1463 23.4216   1 
   8  -6   1 588.448 66.4139   1 
  -9   6   0 175.870 69.1779  -2 
   9  -6   1 175.870 69.1779   1 
 -10   6   0 188.002 56.1022  -2 
  10  -6   1 188.002 56.1022   1 
 -12  -5   1 -2.9423 53.4917   1 
 -11  -5   1 576.690 58.2042   1 
 -10  -5   1 728.290 57.9354   1 
  -9  -5   1 228.657 37.2611   1 
  -8  -5   1 2183.74 148.175  -2 
  -8  -5   1 2183.74 148.175   1 
  -7  -5   1 770.627 50.3868  -2 
  -7  -5   1 770.627 50.3868   1 
  -6  -5   1 356.830 67.6449  -2 
  -6  -5   1 356.830 67.6449   1 
  -5  -5   1 530.003 37.8536  -2 
  -5  -5   1 530.003 37.8536   1 
  -4  -5   1 1304.14 49.0235  -2 
  -4  -5   1 1304.14 49.0235   1 
  -3  -5   1 1254.59 38.9140  -2 
  -3  -5   1 1254.59 38.9140   1 
  -2  -5   1 4783.22 69.0274  -2 
  -2  -5   1 4783.22 69.0274   1 
  -1  -5   1 5060.91 68.8833  -2 
  -1  -5   1 5060.91 68.8833   1 
   0  -5   1 169.080 17.9147  -2 
   0  -5   1 169.080 17.9147   1 
   1  -5   1 39.3160 10.4927  -2 
   1  -5   1 39.3160 10.4927   1 
   2  -5   1 761.541 27.9293  -2 
   2  -5   1 761.541 27.9293   1 
   3  -5   1 963.334 42.9298  -2 
   3  -5   1 963.334 42.9298   1 
   4  -5   1 -2.2277 22.2996  -2 
   4  -5   1 -2.2277 22.2996   1 
   5  -5   1 1587.03 49.2467  -2 
   5  -5   1 1587.03 49.2467   1 
   6  -5   1 2481.23 79.7756  -2 
   6  -5   1 2481.23 79.7756   1 
   7  -5   1 40.0856 41.1421  -2 
   7  -5   1 40.0856 41.1421   1 
   8  -5   1 752.734 69.3212   1 
  -9   5   0 457.824 80.3457  -2 
   9  -5   1 457.824 80.3457   1 
 -10   5   0 54.5901 49.5759  -2 
  10  -5   1 54.5901 49.5759   1 
 -11  -4   1 24.6187 23.5731   1 
 -10  -4   1 589.474 122.300  -2 
 -10  -4   1 589.474 122.300   1 
  -9  -4   1 335.683 48.2448   1 
  -8  -4   1 28.6620 15.7503   1 
  -7  -4   1 869.888 94.9685  -2 
  -7  -4   1 869.888 94.9685   1 
  -6  -4   1 817.295 83.0483  -2 
  -6  -4   1 817.295 83.0483   1 
  -5  -4   1 48.3971 40.9740  -2 
  -5  -4   1 48.3971 40.9740   1 
  -4  -4   1 1752.46 52.2386  -2 
  -4  -4   1 1752.46 52.2386   1 
  -3  -4   1 2400.60 98.3435  -2 
  -3  -4   1 2400.60 98.3435   1 
  -2  -4   1 280.566 19.5328  -2 
  -2  -4   1 280.566 19.5328   1 
  -1  -4   1 370.341 20.3619  -2 
  -1  -4   1 370.341 20.3619   1 
   0  -4   1 2881.52 46.6288  -2 
   0  -4   1 2881.52 46.6288   1 
   1  -4   1 2587.74 34.5584  -2 
   1  -4   1 2587.74 34.5584   1 
   2  -4   1 92.4776 13.6533  -2 
   2  -4   1 92.4776 13.6533   1 
   3  -4   1 3230.94 67.9590  -2 
   3  -4   1 3230.94 67.9590   1 
   4  -4   1 793.184 40.2778  -2 
   4  -4   1 793.184 40.2778   1 
   5  -4   1 101.851 27.6907  -2 
   5  -4   1 101.851 27.6907   1 
   6  -4   1 1441.33 59.6181  -2 
   6  -4   1 1441.33 59.6181   1 
   7  -4   1 391.919 42.2284  -2 
   7  -4   1 391.919 42.2284   1 
   8  -4   1 -0.5153 18.5146   1 
   9  -4   1 494.241 60.9065   1 
 -10   4   0 919.424 69.1497  -2 
  10  -4   1 919.424 69.1497   1 
 -11   4   0 -17.370 48.9921  -2 
  11  -4   1 -17.370 48.9921   1 
 -12  -3   1 256.746 55.9921   1 
 -11  -3   1 14.7233 25.2346   1 
 -10  -3   1 254.097 40.6750   1 
  -9  -3   1 776.210 116.816  -2 
  -9  -3   1 776.210 116.816   1 
  -8  -3   1 65.2540 25.3156   1 
  -7  -3   1 46.8717 54.4227  -2 
  -7  -3   1 46.8717 54.4227   1 
  -6  -3   1 1932.14 111.209  -2 
  -6  -3   1 1932.14 111.209   1 
  -5  -3   1 607.301 24.9883  -2 
  -5  -3   1 607.301 24.9883   1 
  -4  -3   1 19.4745 16.4974  -2 
  -4  -3   1 19.4745 16.4974   1 
  -3  -3   1 1817.07 46.5696  -2 
  -3  -3   1 1817.07 46.5696   1 
  -2  -3   1 4141.58 62.5715  -2 
  -2  -3   1 4141.58 62.5715   1 
  -1  -3   1 65.9625 12.6046  -2 
  -1  -3   1 65.9625 12.6046   1 
   0  -3   1 1714.45 32.6026  -2 
   0  -3   1 1714.45 32.6026   1 
   1  -3   1 5069.45 50.4410  -2 
   1  -3   1 5069.45 50.4410   1 
   2  -3   1 733.492 28.8711  -2 
   2  -3   1 733.492 28.8711   1 
   3  -3   1 2427.22 55.1806  -2 
   3  -3   1 2427.22 55.1806   1 
   4  -3   1 4937.90 106.200  -2 
   4  -3   1 4937.90 106.200   1 
   5  -3   1 757.686 40.4877  -2 
   5  -3   1 757.686 40.4877   1 
   6  -3   1 1214.54 52.5799  -2 
   6  -3   1 1214.54 52.5799   1 
   7  -3   1 1864.47 66.4550  -2 
   7  -3   1 1864.47 66.4550   1 
   8  -3   1 237.385 29.2754   1 
   9  -3   1 147.878 28.2363   1 
 -10   3   0 832.220 64.0607  -2 
  10  -3   1 832.220 64.0607   1 
 -11   3   0 280.450 55.1830  -2 
  11  -3   1 280.450 55.1830   1 
  12  -3   1 2.20890 21.4647   1 
 -11  -2   1 207.999 49.6057   1 
 -10  -2   1 151.835 30.9789   1 
  -9  -2   1 68.4833 80.0029  -2 
  -9  -2   1 68.4833 80.0029   1 
  -8  -2   1 1850.94 134.496  -2 
  -8  -2   1 1850.94 134.496   1 
  -7  -2   1 665.246 29.1665   1 
  -6  -2   1 463.674 39.5138  -2 
  -6  -2   1 463.674 39.5138   1 
  -5  -2   1 862.878 34.4280  -2 
  -5  -2   1 862.878 34.4280   1 
  -4  -2   1 1772.02 41.1452  -2 
  -4  -2   1 1772.02 41.1452   1 
  -3  -2   1 1192.82 24.3724  -2 
  -3  -2   1 1192.82 24.3724   1 
  -2  -2   1 1547.90 35.8035  -2 
  -2  -2   1 1547.90 35.8035   1 
  -1  -2   1 3447.08 41.4770  -2 
  -1  -2   1 3447.08 41.4770   1 
   0  -2   1 219.997 13.3015  -2 
   0  -2   1 219.997 13.3015   1 
   1  -2   1 2803.03 33.4151  -2 
   1  -2   1 2803.03 33.4151   1 
   2  -2   1 3713.67 55.3736  -2 
   2  -2   1 3713.67 55.3736   1 
   3  -2   1 21.7685 14.0845  -2 
   3  -2   1 21.7685 14.0845   1 
   4  -2   1 546.921 29.6574  -2 
   4  -2   1 546.921 29.6574   1 
   5  -2   1 682.678 35.5993  -2 
   5  -2   1 682.678 35.5993   1 
   6  -2   1 1451.88 52.6329  -2 
   6  -2   1 1451.88 52.6329   1 
   7  -2   1 299.915 46.6951  -2 
   7  -2   1 299.915 46.6951   1 
   8  -2   1 817.444 43.7741   1 
   9  -2   1 124.697 24.5402   1 
 -10   2   0 203.141 65.0756  -2 
  10  -2   1 203.141 65.0756   1 
 -11   2   0 357.058 54.2665  -2 
  11  -2   1 357.058 54.2665   1 
 -12   2   0 151.055 51.4235  -2 
  12  -2   1 151.055 51.4235   1 
 -12  -1   1 4.29333 25.0473   1 
 -10  -1   1 440.172 39.4680   1 
  -9  -1   1 13.4394 14.7860   1 
  -8  -1   1 1083.78 57.1165  -2 
  -8  -1   1 1083.78 57.1165   1 
  -7  -1   1 726.123 44.8701  -2 
  -7  -1   1 726.123 44.8701   1 
  -6  -1   1 695.999 46.9773  -2 
  -6  -1   1 695.999 46.9773   1 
  -5  -1   1 103.031 24.3854  -2 
  -5  -1   1 103.031 24.3854   1 
  -4  -1   1 7578.72 92.5031  -2 
  -4  -1   1 7578.72 92.5031   1 
  -3  -1   1 1358.39 36.6690  -2 
  -3  -1   1 1358.39 36.6690   1 
  -2  -1   1 4343.73 55.7251  -2 
  -2  -1   1 4343.73 55.7251   1 
  -1  -1   1 5467.44 55.8147  -2 
  -1  -1   1 5467.44 55.8147   1 
   0  -1   1 1146.51 18.4275  -2 
   0  -1   1 1146.51 18.4275   1 
   1  -1   1 127.013 11.3160  -2 
   1  -1   1 127.013 11.3160   1 
   2  -1   1 831.623 25.3192  -2 
   2  -1   1 831.623 25.3192   1 
   3  -1   1 2626.98 47.6082  -2 
   3  -1   1 2626.98 47.6082   1 
   4  -1   1 5.51294 15.0046  -2 
   4  -1   1 5.51294 15.0046   1 
   5  -1   1 2545.87 57.7777  -2 
   5  -1   1 2545.87 57.7777   1 
   6  -1   1 1104.64 60.1617  -2 
   6  -1   1 1104.64 60.1617   1 
   7  -1   1 11.8753 34.2683  -2 
   7  -1   1 11.8753 34.2683   1 
   8  -1   1 177.279 20.9330   1 
   9  -1   1 419.601 35.7875   1 
  10  -1   1 163.073 30.1086   1 
 -11   1   0 87.7114 44.0768  -2 
  11  -1   1 87.7114 44.0768   1 
 -12   1   0 859.187 68.5863  -2 
  12  -1   1 859.187 68.5863   1 
 -12   0   1 391.201 48.5273   1 
 -11   0   1 21.3299 19.0426   1 
 -10   0   1 501.392 61.8991   1 
  -9   0   1 1113.58 52.7642   1 
  -8   0   1 134.658 36.2295  -2 
  -8   0   1 134.658 36.2295   1 
  -7   0   1 1063.64 53.0133  -2 
  -7   0   1 1063.64 53.0133   1 
  -6   0   1 1673.52 55.7039  -2 
  -6   0   1 1673.52 55.7039   1 
  -5   0   1 139.867 23.2499  -2 
  -5   0   1 139.867 23.2499   1 
  -4   0   1 1369.60 74.6781  -2 
  -4   0   1 1369.60 74.6781   1 
  -3   0   1 9659.73 93.3367  -2 
  -3   0   1 9659.73 93.3367   1 
  -2   0   1 1088.60 35.3906  -2 
  -2   0   1 1088.60 35.3906   1 
  -1   0   1 913.779 21.7694  -2 
  -1   0   1 913.779 21.7694   1 
   1   0   1 2630.16 33.2189  -2 
   1   0   1 2630.16 33.2189   1 
   2   0   1 6.52774 10.7049  -2 
   2   0   1 6.52774 10.7049   1 
   3   0   1 62.1247 13.1389  -2 
   3   0   1 62.1247 13.1389   1 
   4   0   1 3130.58 44.6771  -2 
   4   0   1 3130.58 44.6771   1 
   5   0   1 85.5938 18.4018  -2 
   5   0   1 85.5938 18.4018   1 
   6   0   1 398.892 40.0752  -2 
   6   0   1 398.892 40.0752   1 
   7   0   1 1181.31 51.3163  -2 
   7   0   1 1181.31 51.3163   1 
   8   0   1 341.658 49.6272  -2 
   8   0   1 341.658 49.6272   1 
   9   0   1 343.855 31.5781   1 
  10   0   1 634.503 43.3933   1 
  11   0   1 301.390 37.3073   1 
  12   0   0 11.1248 63.3612  -2 
  12   0   1 11.1248 63.3612   1 
 -12   1   1 386.263 47.6195   1 
 -11   1   1 136.589 29.4793   1 
 -10   1   1 21.6380 18.4704   1 
  -9   1   1 227.367 30.6030   1 
  -8   1   1 846.081 63.1646   1 
  -7   1   1 28.7635 29.6685  -2 
  -7   1   1 28.7635 29.6685   1 
  -6   1   1 2212.04 63.6341  -2 
  -6   1   1 2212.04 63.6341   1 
  -5   1   1 495.611 32.3163  -2 
  -5   1   1 495.611 32.3163   1 
  -4   1   1 108.764 19.4794  -2 
  -4   1   1 108.764 19.4794   1 
  -3   1   1 3737.50 58.8500  -2 
  -3   1   1 3737.50 58.8500   1 
  -2   1   1 3409.61 49.1957  -2 
  -2   1   1 3409.61 49.1957   1 
  -1   1   1 601.321 14.2006  -2 
  -1   1   1 601.321 14.2006   1 
   1   1   1 5789.63 89.6622  -2 
   1   1   1 5789.63 89.6622   1 
   2   1   1 682.626 20.6386  -2 
   2   1   1 682.626 20.6386   1 
   3   1   1 2007.75 38.2699  -2 
   3   1   1 2007.75 38.2699   1 
   4   1   1 1988.02 47.5660  -2 
   4   1   1 1988.02 47.5660   1 
   5   1   1 623.492 29.9127  -2 
   5   1   1 623.492 29.9127   1 
   6   1   1 9.58815 19.0765  -2 
   6   1   1 9.58815 19.0765   1 
   7   1   1 1284.10 66.6042  -2 
   7   1   1 1284.10 66.6042   1 
   8   1   1 918.339 35.3822   1 
   9   1   1 8.25144 18.2818   1 
  10   1   1 972.461 50.6571   1 
  11   1   1 632.172 45.8888   1 
  12   1   1 6.76145 17.4500   1 
 -11   2   1 488.450 48.3808   1 
 -10   2   1 540.409 45.5135   1 
  -9   2   1 63.7159 20.1283   1 
  -8   2   1 1421.41 57.2543   1 
  -7   2   1 103.994 38.7387  -2 
  -7   2   1 103.994 38.7387   1 
  -6   2   1 64.6648 26.6670  -2 
  -6   2   1 64.6648 26.6670   1 
  -5   2   1 788.548 38.9713  -2 
  -5   2   1 788.548 38.9713   1 
  -4   2   1 2659.10 56.6735  -2 
  -4   2   1 2659.10 56.6735   1 
  -3   2   1 2816.08 41.2416  -2 
  -3   2   1 2816.08 41.2416   1 
  -2   2   1 76.5487 13.8240  -2 
  -2   2   1 76.5487 13.8240   1 
  -1   2   1 4626.27 36.4249  -2 
  -1   2   1 4626.27 36.4249   1 
   0   2   1 1464.82 17.9931  -2 
   0   2   1 1464.82 17.9931   1 
   1   2   1 1787.72 28.2725  -2 
   1   2   1 1787.72 28.2725   1 
   2   2   1 2128.85 22.9634  -2 
   2   2   1 2128.85 22.9634   1 
   3   2   1 1971.32 33.0656  -2 
   3   2   1 1971.32 33.0656   1 
   4   2   1 325.634 21.3854  -2 
   4   2   1 325.634 21.3854   1 
   5   2   1 3755.39 66.8117  -2 
   5   2   1 3755.39 66.8117   1 
   6   2   1 3836.03 74.5250  -2 
   6   2   1 3836.03 74.5250   1 
   7   2   1 50.6028 25.9778  -2 
   7   2   1 50.6028 25.9778   1 
   8   2   1 2655.98 123.754  -2 
   8   2   1 2655.98 123.754   1 
   9   2   1 653.597 33.3855   1 
  10   2   1 2.84115 17.6870   1 
  11   2   1 108.345 24.5238   1 
  12   2   1 523.466 61.8688   1 
 -11   3   1 107.964 29.2892   1 
 -10   3   1 243.120 37.2244   1 
  -9   3   1 21.8923 16.2605   1 
  -8   3   1 171.600 27.5948   1 
  -7   3   1 829.824 65.6975  -2 
  -7   3   1 829.824 65.6975   1 
  -6   3   1 728.899 57.7555  -2 
  -6   3   1 728.899 57.7555   1 
  -5   3   1 132.148 25.0379  -2 
  -5   3   1 132.148 25.0379   1 
  -4   3   1 1279.93 40.7670  -2 
  -4   3   1 1279.93 40.7670   1 
  -3   3   1 1325.00 29.7807  -2 
  -3   3   1 1325.00 29.7807   1 
  -2   3   1 277.761 14.8368  -2 
  -2   3   1 277.761 14.8368   1 
  -1   3   1 8.89824 8.07196  -2 
  -1   3   1 8.89824 8.07196   1 
   0   3   1 2021.15 24.7254  -2 
   0   3   1 2021.15 24.7254   1 
   1   3   1 367.608 11.0274  -2 
   1   3   1 367.608 11.0274   1 
   2   3   1 1954.06 23.9655  -2 
   2   3   1 1954.06 23.9655   1 
   3   3   1 3510.16 43.9254  -2 
   3   3   1 3510.16 43.9254   1 
   4   3   1 310.708 26.5452  -2 
   4   3   1 310.708 26.5452   1 
   5   3   1 743.684 39.3276  -2 
   5   3   1 743.684 39.3276   1 
   6   3   1 1120.87 43.5721  -2 
   6   3   1 1120.87 43.5721   1 
   7   3   1 566.883 38.9629  -2 
   7   3   1 566.883 38.9629   1 
   8   3   1 276.920 36.7310  -2 
   8   3   1 276.920 36.7310   1 
   9   3   1 996.007 57.6045  -2 
   9   3   1 996.007 57.6045   1 
  10   3   1 247.954 30.1614   1 
 -11   4   1 1.45564 28.2125   1 
 -10   4   1 248.525 39.4007   1 
  -9   4   1 445.382 42.1962   1 
  -8   4   1 159.363 54.0405  -2 
  -8   4   1 159.363 54.0405   1 
  -7   4   1 227.597 47.7293  -2 
  -7   4   1 227.597 47.7293   1 
  -6   4   1 2079.40 92.1236  -2 
  -6   4   1 2079.40 92.1236   1 
  -5   4   1 2735.20 67.4715  -2 
  -5   4   1 2735.20 67.4715   1 
  -4   4   1 53.4189 20.2171  -2 
  -4   4   1 53.4189 20.2171   1 
  -3   4   1 3476.69 53.7447  -2 
  -3   4   1 3476.69 53.7447   1 
  -2   4   1 3139.99 46.9011  -2 
  -2   4   1 3139.99 46.9011   1 
  -1   4   1 240.007 13.0222  -2 
  -1   4   1 240.007 13.0222   1 
   0   4   1 3146.75 34.8718  -2 
   0   4   1 3146.75 34.8718   1 
   1   4   1 6861.65 50.4571  -2 
   1   4   1 6861.65 50.4571   1 
   2   4   1 3622.08 34.8728  -2 
   2   4   1 3622.08 34.8728   1 
   3   4   1 3043.23 44.8824  -2 
   3   4   1 3043.23 44.8824   1 
   4   4   1 3292.96 56.4349  -2 
   4   4   1 3292.96 56.4349   1 
   5   4   1 154.755 38.7976  -2 
   5   4   1 154.755 38.7976   1 
   6   4   1 572.717 62.5262  -2 
   6   4   1 572.717 62.5262   1 
   7   4   1 1529.74 98.3015  -2 
   7   4   1 1529.74 98.3015   1 
   8   4   1 158.658 61.3895  -2 
   8   4   1 158.658 61.3895   1 
   9   4   1 -2.3262 64.0324  -2 
   9   4   1 -2.3262 64.0324   1 
  10   4   1 636.312 47.0789   1 
 -10   5   2 233.000 81.9059  -2 
 -10   5   1 233.000 81.9059   1 
  -9   5   1 124.468 28.5901   1 
  -8   5   1 1563.42 101.751  -2 
  -8   5   1 1563.42 101.751   1 
  -7   5   1 109.852 47.7223  -2 
  -7   5   1 109.852 47.7223   1 
  -6   5   1 277.206 48.5077  -2 
  -6   5   1 277.206 48.5077   1 
  -5   5   1 1569.80 58.4707  -2 
  -5   5   1 1569.80 58.4707   1 
  -4   5   1 39.4419 17.6913  -2 
  -4   5   1 39.4419 17.6913   1 
  -3   5   1 175.073 19.5690  -2 
  -3   5   1 175.073 19.5690   1 
  -2   5   1 2289.99 44.4311  -2 
  -2   5   1 2289.99 44.4311   1 
  -1   5   1 2845.70 39.9770  -2 
  -1   5   1 2845.70 39.9770   1 
   0   5   1 979.599 22.9992  -2 
   0   5   1 979.599 22.9992   1 
   1   5   1 5430.14 48.8511  -2 
   1   5   1 5430.14 48.8511   1 
   2   5   1 1038.98 29.2307  -2 
   2   5   1 1038.98 29.2307   1 
   3   5   1 131.980 15.4047  -2 
   3   5   1 131.980 15.4047   1 
   4   5   1 506.545 17.8645  -2 
   4   5   1 506.545 17.8645   1 
   5   5   1 138.698 40.9112  -2 
   5   5   1 138.698 40.9112   1 
   5   5   0 619.794 20.1890  -2 
   5   5   1 619.794 20.1890  -2 
   5   5   1 619.794 20.1890   1 
   6   5   1 212.007 50.0525  -2 
   6   5   1 212.007 50.0525   1 
   7   5   1 356.048 64.1289  -2 
   7   5   1 356.048 64.1289   1 
   8   5   1 1218.35 103.673  -2 
   8   5   1 1218.35 103.673   1 
   9   5   1 -31.305 66.9502  -2 
   9   5   1 -31.305 66.9502   1 
  10   5   1 147.700 27.1481   1 
 -10   6   2 676.465 106.560  -2 
 -10   6   1 676.465 106.560   1 
  -9   6   1 -1.5065 27.4278   1 
  -8   6   1 496.031 64.8024   1 
  -7   6   1 1307.11 89.4931  -2 
  -7   6   1 1307.11 89.4931   1 
  -6   6   1 319.824 53.0963  -2 
  -6   6   1 319.824 53.0963   1 
  -5   6   1 573.024 41.3862  -2 
  -5   6   1 573.024 41.3862   1 
  -4   6   1 3239.04 66.0733  -2 
  -4   6   1 3239.04 66.0733   1 
  -3   6   1 561.034 30.2484  -2 
  -3   6   1 561.034 30.2484   1 
  -2   6   1 1543.41 40.1401  -2 
  -2   6   1 1543.41 40.1401   1 
  -1   6   1 4640.40 55.1444  -2 
  -1   6   1 4640.40 55.1444   1 
   0   6   1 1161.34 27.4048  -2 
   0   6   1 1161.34 27.4048   1 
   1   6   1 473.706 23.2322  -2 
   1   6   1 473.706 23.2322   1 
   2   6   1 1329.44 35.7113  -2 
   2   6   1 1329.44 35.7113   1 
   3   6   1 1785.50 42.7178  -2 
   3   6   1 1785.50 42.7178   1 
   4   6   1 13.1194 14.7973  -2 
   4   6   1 13.1194 14.7973   1 
   5   6   1 1756.53 46.1888  -2 
   5   6   1 1756.53 46.1888   1 
   6   6   1 1783.63 109.538  -2 
   6   6   1 1783.63 109.538   1 
   7   6   1 34.8674 51.9734  -2 
   7   6   1 34.8674 51.9734   1 
   8   6   1 1121.56 104.247  -2 
   8   6   1 1121.56 104.247   1 
   9   6   1 949.191 111.879  -2 
   9   6   1 949.191 111.879   1 
  10   6   1 291.938 47.8836   1 
  11   6   1 96.7437 49.3618   1 
  -8   7   2 -34.057 64.7624  -2 
  -8   7   1 -34.057 64.7624   1 
  -7   7   1 649.200 78.2963  -2 
  -7   7   1 649.200 78.2963   1 
  -6   7   1 366.807 51.9621   1 
  -5   7   1 68.1670 30.0409  -2 
  -5   7   1 68.1670 30.0409   1 
  -4   7   1 427.561 32.2607  -2 
  -4   7   1 427.561 32.2607   1 
  -3   7   1 1373.64 45.4088  -2 
  -3   7   1 1373.64 45.4088   1 
  -2   7   1 664.718 31.2136  -2 
  -2   7   1 664.718 31.2136   1 
  -1   7   1 267.978 18.3101  -2 
  -1   7   1 267.978 18.3101   1 
   0   7   1 501.979 26.8520  -2 
   0   7   1 501.979 26.8520   1 
   1   7   1 404.721 24.2744  -2 
   1   7   1 404.721 24.2744   1 
   2   7   1 13.4807 13.2465  -2 
   2   7   1 13.4807 13.2465   1 
   3   7   1 247.460 22.2244  -2 
   3   7   1 247.460 22.2244   1 
   4   7   1 480.094 28.9783  -2 
   4   7   1 480.094 28.9783   1 
   5   7   1 126.387 22.4780  -2 
   5   7   1 126.387 22.4780   1 
   6   7   1 748.044 42.8694  -2 
   6   7   1 748.044 42.8694   1 
   7   7   1 1290.31 109.955  -2 
   7   7   1 1290.31 109.955   1 
   8   7   1 -8.6743 63.1837  -2 
   8   7   1 -8.6743 63.1837   1 
   9   7   1 494.712 97.8511  -2 
   9   7   1 494.712 97.8511   1 
  10   7   1 434.275 57.5568   1 
  11   7   1 72.8159 50.6773   1 
  -7   8   1 65.3835 58.1406  -2 
  -7   8   1 65.3835 58.1406   1 
  -6   8   1 1514.64 101.166  -2 
  -6   8   1 1514.64 101.166   1 
  -5   8   1 1206.83 86.7024  -2 
  -5   8   1 1206.83 86.7024   1 
  -4   8   1 152.024 28.7070  -2 
  -4   8   1 152.024 28.7070   1 
  -3   8   1 1068.52 43.8492  -2 
  -3   8   1 1068.52 43.8492   1 
  -2   8   1 934.143 38.5234  -2 
  -2   8   1 934.143 38.5234   1 
  -1   8   1 371.613 22.5485  -2 
  -1   8   1 371.613 22.5485   1 
   0   8   1 34.9614 17.9158  -2 
   0   8   1 34.9614 17.9158   1 
   1   8   1 3535.78 67.6274  -2 
   1   8   1 3535.78 67.6274   1 
   2   8   1 1162.67 41.1392  -2 
   2   8   1 1162.67 41.1392   1 
   3   8   1 689.761 34.1033  -2 
   3   8   1 689.761 34.1033   1 
   4   8   1 1569.41 49.9287  -2 
   4   8   1 1569.41 49.9287   1 
   5   8   1 427.401 31.9402  -2 
   5   8   1 427.401 31.9402   1 
   6   8   1 18.0678 21.8988  -2 
   6   8   1 18.0678 21.8988   1 
   7   8   1 1086.69 73.4455  -2 
   7   8   1 1086.69 73.4455   1 
   8   8   1 2198.67 153.274  -2 
   8   8   1 2198.67 153.274   1 
   9   8   1 -8.0805 82.4954  -2 
   9   8   1 -8.0805 82.4954   1 
  10   8   1 1299.83 148.841  -2 
  10   8   1 1299.83 148.841   1 
  11   8   1 847.320 142.293  -2 
  11   8   1 847.320 142.293   1 
  -6   9   1 90.7920 58.7798  -2 
  -6   9   1 90.7920 58.7798   1 
  -5   9   1 160.069 59.7036  -2 
  -5   9   1 160.069 59.7036   1 
  -4   9   1 599.273 46.7410  -2 
  -4   9   1 599.273 46.7410   1 
  -3   9   1 183.560 29.1349  -2 
  -3   9   1 183.560 29.1349   1 
  -2   9   1 749.113 38.1892  -2 
  -2   9   1 749.113 38.1892   1 
  -1   9   1 1628.90 42.5016  -2 
  -1   9   1 1628.90 42.5016   1 
   0   9   1 215.600 26.1814  -2 
   0   9   1 215.600 26.1814   1 
   1   9   1 517.341 32.0765  -2 
   1   9   1 517.341 32.0765   1 
   2   9   1 1316.02 47.0006  -2 
   2   9   1 1316.02 47.0006   1 
   3   9   1 276.706 27.7958  -2 
   3   9   1 276.706 27.7958   1 
   4   9   1 -2.4593 20.9775  -2 
   4   9   1 -2.4593 20.9775   1 
   5   9   1 1149.98 48.3452  -2 
   5   9   1 1149.98 48.3452   1 
   6   9   1 893.090 69.4628  -2 
   6   9   1 893.090 69.4628   1 
   7   9   1 152.483 52.1374  -2 
   7   9   1 152.483 52.1374   1 
   8   9   1 779.949 76.1780  -2 
   8   9   1 779.949 76.1780   1 
   9   9   1 317.530 106.871  -2 
   9   9   1 317.530 106.871   1 
  10   9   1 -58.154 100.391  -2 
  10   9   1 -58.154 100.391   1 
  11   9   1 288.823 131.126  -2 
  11   9   1 288.823 131.126   1 
  -5  10   1 116.487 60.2306  -2 
  -5  10   1 116.487 60.2306   1 
  -4  10   1 777.113 53.1183  -2 
  -4  10   1 777.113 53.1183   1 
  -3  10   1 669.786 42.2931  -2 
  -3  10   1 669.786 42.2931   1 
  -2  10   1 7.32619 32.4052  -2 
  -2  10   1 7.32619 32.4052   1 
  -1  10   1 1861.18 74.0347  -2 
  -1  10   1 1861.18 74.0347   1 
   0  10   1 1299.30 52.0601  -2 
   0  10   1 1299.30 52.0601   1 
   1  10   1 15.5479 20.7062  -2 
   1  10   1 15.5479 20.7062   1 
   2  10   1 1946.72 60.1834  -2 
   2  10   1 1946.72 60.1834   1 
   3  10   1 1161.34 49.9338  -2 
   3  10   1 1161.34 49.9338   1 
   4  10   1 -13.743 36.6745  -2 
   4  10   1 -13.743 36.6745   1 
   5  10   1 828.793 69.7389  -2 
   5  10   1 828.793 69.7389   1 
   6  10   1 1653.30 94.9954  -2 
   6  10   1 1653.30 94.9954   1 
   7  10   1 61.7396 53.9428  -2 
   7  10   1 61.7396 53.9428   1 
   8  10   1 291.909 67.6323  -2 
   8  10   1 291.909 67.6323   1 
   9  10   1 544.100 104.003  -2 
   9  10   1 544.100 104.003   1 
  10  10   1 151.599 85.8656  -2 
  10  10   1 151.599 85.8656   1 
  -6  11   1 760.655 90.5292  -2 
  -6  11   1 760.655 90.5292   1 
  -5  11   1 887.040 91.7729  -2 
  -5  11   1 887.040 91.7729   1 
  -4  11   1 107.629 60.8140  -2 
  -4  11   1 107.629 60.8140   1 
  -3  11   1 1462.20 80.8220  -2 
  -3  11   1 1462.20 80.8220   1 
  -2  11   1 789.215 60.4419  -2 
  -2  11   1 789.215 60.4419   1 
  -1  11   1 -5.7619 32.7956  -2 
  -1  11   1 -5.7619 32.7956   1 
   0  11   1 467.282 44.9433  -2 
   0  11   1 467.282 44.9433   1 
   1  11   1 725.335 43.0091  -2 
   1  11   1 725.335 43.0091   1 
   2  11   1 60.3838 25.9366  -2 
   2  11   1 60.3838 25.9366   1 
   3  11   1 636.272 43.4736  -2 
   3  11   1 636.272 43.4736   1 
   4  11   1 1130.98 80.2342  -2 
   4  11   1 1130.98 80.2342   1 
   5  11   1 1.35536 47.8665  -2 
   5  11   1 1.35536 47.8665   1 
   6  11   1 376.166 66.4212  -2 
   6  11   1 376.166 66.4212   1 
   7  11   1 426.867 73.2205  -2 
   7  11   1 426.867 73.2205   1 
   8  11   1 62.0189 65.1579  -2 
   8  11   1 62.0189 65.1579   1 
   9  11   1 -17.710 67.2839  -2 
   9  11   1 -17.710 67.2839   1 
  10  11   1 199.928 97.1569  -2 
  10  11   1 199.928 97.1569   1 
  -5  12   1 817.737 94.8690  -2 
  -5  12   1 817.737 94.8690   1 
  -4  12   1 104.360 64.5791  -2 
  -4  12   1 104.360 64.5791   1 
  -3  12   1 420.229 70.3717  -2 
  -3  12   1 420.229 70.3717   1 
  -2  12   1 543.123 59.0800  -2 
  -2  12   1 543.123 59.0800   1 
  -1  12   1 670.309 58.0485  -2 
  -1  12   1 670.309 58.0485   1 
   0  12   1 106.444 36.9403  -2 
   0  12   1 106.444 36.9403   1 
   1  12   1 1291.33 68.6258  -2 
   1  12   1 1291.33 68.6258   1 
   2  12   1 150.325 33.2327  -2 
   2  12   1 150.325 33.2327   1 
   3  12   1 270.782 77.7439  -2 
   3  12   1 270.782 77.7439   1 
   4  12   1 285.444 61.5100  -2 
   4  12   1 285.444 61.5100   1 
   5  12   1 334.811 68.1427  -2 
   5  12   1 334.811 68.1427   1 
   6  12   1 83.4119 64.3002  -2 
   6  12   1 83.4119 64.3002   1 
   7  12   1 406.770 81.3419  -2 
   7  12   1 406.770 81.3419   1 
   8  12   1 951.920 99.6188  -2 
   8  12   1 951.920 99.6188   1 
   9  12   1 33.6139 95.9865  -2 
   9  12   1 33.6139 95.9865   1 
  -4  13   1 982.677 99.6260  -2 
  -4  13   1 982.677 99.6260   1 
  -3  13   1 88.7589 60.9791  -2 
  -3  13   1 88.7589 60.9791   1 
  -2  13   1 219.941 52.5947  -2 
  -2  13   1 219.941 52.5947   1 
  -1  13   1 545.255 58.1598  -2 
  -1  13   1 545.255 58.1598   1 
   0  13   1 288.855 47.3478  -2 
   0  13   1 288.855 47.3478   1 
   1  13   1 56.6055 38.5795  -2 
   1  13   1 56.6055 38.5795   1 
   2  13   1 619.821 104.450  -2 
   2  13   1 619.821 104.450   1 
   3  13   1 542.880 71.2428  -2 
   3  13   1 542.880 71.2428   1 
   4  13   1 100.171 58.0846  -2 
   4  13   1 100.171 58.0846   1 
   5  13   1 388.799 74.7228  -2 
   5  13   1 388.799 74.7228   1 
   6  13   1 571.150 86.2045  -2 
   6  13   1 571.150 86.2045   1 
   7  13   1 79.7938 73.5602  -2 
   7  13   1 79.7938 73.5602   1 
  -2  14   1 42.7879 59.4049  -2 
  -2  14   1 42.7879 59.4049   1 
  -1  14   1 393.269 57.8546  -2 
  -1  14   1 393.269 57.8546   1 
   0  14   1 493.380 100.717  -2 
   0  14   1 493.380 100.717   1 
   1  14   1 -10.047 70.1237  -2 
   1  14   1 -10.047 70.1237   1 
   2  14   1 105.422 82.2693  -2 
   2  14   1 105.422 82.2693   1 
   3  14   1 349.108 100.628  -2 
   3  14   1 349.108 100.628   1 
   4  14   1 352.785 73.6509  -2 
   4  14   1 352.785 73.6509   1 
   5  14   1 29.1811 64.8407  -2 
   5  14   1 29.1811 64.8407   1 
   6  14   1 568.701 124.956  -2 
   6  14   1 568.701 124.956   1 
  -4 -13   2 460.467 126.013  -2 
  -4 -13   2 460.467 126.013   1 
  -3 -13   2 53.2895 53.2683  -2 
  -3 -13   2 53.2895 53.2683   1 
  -2 -13   2 180.601 56.3278  -2 
  -2 -13   2 180.601 56.3278   1 
  -1 -13   2 183.691 55.3219  -2 
  -1 -13   2 183.691 55.3219   1 
   0 -13   2 159.891 56.4200  -2 
   0 -13   2 159.891 56.4200   1 
   1 -13   2 148.861 57.0045  -2 
   1 -13   2 148.861 57.0045   1 
   2 -13   2 646.310 73.4994  -2 
   2 -13   2 646.310 73.4994   1 
  -6 -12   2 -25.848 71.3477  -2 
  -6 -12   2 -25.848 71.3477   1 
  -5 -12   2 157.769 74.5741  -2 
  -5 -12   2 157.769 74.5741   1 
  -4 -12   2 455.357 55.8986  -2 
  -4 -12   2 455.357 55.8986   1 
  -3 -12   2 400.917 62.3083  -2 
  -3 -12   2 400.917 62.3083   1 
  -2 -12   2 96.9513 50.5429  -2 
  -2 -12   2 96.9513 50.5429   1 
  -1 -12   2 877.186 71.1714  -2 
  -1 -12   2 877.186 71.1714   1 
   0 -12   2 430.832 60.9403  -2 
   0 -12   2 430.832 60.9403   1 
   1 -12   2 -7.0708 46.6883  -2 
   1 -12   2 -7.0708 46.6883   1 
   2 -12   2 596.713 68.2959  -2 
   2 -12   2 596.713 68.2959   1 
   3 -12   2 542.018 68.0758  -2 
   3 -12   2 542.018 68.0758   1 
   4 -12   2 45.3523 55.1789  -2 
   4 -12   2 45.3523 55.1789   1 
  -8 -11   2 49.4984 91.8802  -2 
  -8 -11   2 49.4984 91.8802   1 
  -7 -11   2 157.321 73.2545  -2 
  -7 -11   2 157.321 73.2545   1 
  -6 -11   2 436.960 81.8895  -2 
  -6 -11   2 436.960 81.8895   1 
  -5 -11   2 187.478 45.4336  -2 
  -5 -11   2 187.478 45.4336   1 
  -4 -11   2 -0.8451 38.7632  -2 
  -4 -11   2 -0.8451 38.7632   1 
  -3 -11   2 540.256 52.0603  -2 
  -3 -11   2 540.256 52.0603   1 
  -2 -11   2 654.567 63.5679  -2 
  -2 -11   2 654.567 63.5679   1 
  -1 -11   2 18.2598 40.4273  -2 
  -1 -11   2 18.2598 40.4273   1 
   0 -11   2 1098.79 73.2293  -2 
   0 -11   2 1098.79 73.2293   1 
   1 -11   2 937.380 69.9796  -2 
   1 -11   2 937.380 69.9796   1 
   2 -11   2 35.2192 44.1282  -2 
   2 -11   2 35.2192 44.1282   1 
   3 -11   2 638.557 68.1744  -2 
   3 -11   2 638.557 68.1744   1 
   4 -11   2 509.996 67.6114  -2 
   4 -11   2 509.996 67.6114   1 
   5 -11   2 105.134 53.0842  -2 
   5 -11   2 105.134 53.0842   1 
  -9 -10   2 347.471 113.336   1 
  -8 -10   2 62.5842 106.539  -2 
  -8 -10   2 62.5842 106.539   1 
  -7 -10   2 30.2873 65.5525  -2 
  -7 -10   2 30.2873 65.5525   1 
  -6 -10   2 163.081 44.6742  -2 
  -6 -10   2 163.081 44.6742   1 
  -5 -10   2 1050.24 62.2712  -2 
  -5 -10   2 1050.24 62.2712   1 
  -4 -10   2 113.152 37.6414  -2 
  -4 -10   2 113.152 37.6414   1 
  -3 -10   2 1075.48 58.3863  -2 
  -3 -10   2 1075.48 58.3863   1 
  -2 -10   2 973.526 55.1077  -2 
  -2 -10   2 973.526 55.1077   1 
  -1 -10   2 53.9048 38.0478  -2 
  -1 -10   2 53.9048 38.0478   1 
   0 -10   2 258.686 43.9368  -2 
   0 -10   2 258.686 43.9368   1 
   1 -10   2 736.028 59.4743  -2 
   1 -10   2 736.028 59.4743   1 
   2 -10   2 432.831 54.3003  -2 
   2 -10   2 432.831 54.3003   1 
   3 -10   2 50.8173 44.8191  -2 
   3 -10   2 50.8173 44.8191   1 
   4 -10   2 1263.55 81.8972  -2 
   4 -10   2 1263.55 81.8972   1 
   5 -10   2 309.804 54.0618  -2 
   5 -10   2 309.804 54.0618   1 
   6 -10   2 229.687 63.8023  -2 
   6 -10   2 229.687 63.8023   1 
   7 -10   2 258.092 58.9477   1 
  -9  -9   2 6.68436 45.7237   1 
  -8  -9   2 544.834 48.5538   1 
  -7  -9   2 1053.76 63.7926  -2 
  -7  -9   2 1053.76 63.7926   1 
  -6  -9   2 -3.9040 34.9022  -2 
  -6  -9   2 -3.9040 34.9022   1 
  -5  -9   2 1323.42 63.2921  -2 
  -5  -9   2 1323.42 63.2921   1 
  -4  -9   2 1522.97 63.7177  -2 
  -4  -9   2 1522.97 63.7177   1 
  -3  -9   2 72.8778 31.7706  -2 
  -3  -9   2 72.8778 31.7706   1 
  -2  -9   2 491.678 41.0593  -2 
  -2  -9   2 491.678 41.0593   1 
  -1  -9   2 2037.48 88.9755  -2 
  -1  -9   2 2037.48 88.9755   1 
   0  -9   2 497.877 47.2939  -2 
   0  -9   2 497.877 47.2939   1 
   1  -9   2 378.859 45.1303  -2 
   1  -9   2 378.859 45.1303   1 
   2  -9   2 1238.90 70.8081  -2 
   2  -9   2 1238.90 70.8081   1 
   3  -9   2 178.459 43.5880  -2 
   3  -9   2 178.459 43.5880   1 
   4  -9   2 198.849 46.4282  -2 
   4  -9   2 198.849 46.4282   1 
   5  -9   2 311.807 100.265  -2 
   5  -9   2 311.807 100.265   1 
   6  -9   2 404.387 56.9643  -2 
   6  -9   2 404.387 56.9643   1 
   7  -9   2 -5.2230 21.5505   1 
   8  -9   1 751.475 94.2774  -2 
   8  -9   2 751.475 94.2774   1 
  -9  -8   2 164.201 46.6171   1 
  -8  -8   2 182.396 60.7950  -2 
  -8  -8   2 182.396 60.7950   1 
  -7  -8   2 767.835 64.3981  -2 
  -7  -8   2 767.835 64.3981   1 
  -6  -8   2 388.372 42.3370  -2 
  -6  -8   2 388.372 42.3370   1 
  -5  -8   2 162.147 34.7856  -2 
  -5  -8   2 162.147 34.7856   1 
  -4  -8   2 1875.00 64.8230  -2 
  -4  -8   2 1875.00 64.8230   1 
  -3  -8   2 638.136 42.3064  -2 
  -3  -8   2 638.136 42.3064   1 
  -2  -8   2 51.0205 25.8655  -2 
  -2  -8   2 51.0205 25.8655   1 
  -1  -8   2 850.389 43.9887  -2 
  -1  -8   2 850.389 43.9887   1 
   0  -8   2 1008.07 61.0324  -2 
   0  -8   2 1008.07 61.0324   1 
   1  -8   2 16.7169 27.8286  -2 
   1  -8   2 16.7169 27.8286   1 
   2  -8   2 301.425 40.4346  -2 
   2  -8   2 301.425 40.4346   1 
   3  -8   2 796.557 56.3139  -2 
   3  -8   2 796.557 56.3139   1 
   4  -8   2 48.7901 31.3676  -2 
   4  -8   2 48.7901 31.3676   1 
   5  -8   2 565.279 52.3939  -2 
   5  -8   2 565.279 52.3939   1 
   6  -8   2 707.664 62.7941  -2 
   6  -8   2 707.664 62.7941   1 
   7  -8   2 242.480 64.7822  -2 
   7  -8   2 242.480 64.7822   1 
   8  -8   1 138.149 61.8079  -2 
   8  -8   2 138.149 61.8079   1 
   9  -8   1 473.247 82.1229  -2 
   9  -8   2 473.247 82.1229   1 
 -10  -7   2 236.647 45.9696   1 
  -9  -7   2 1053.78 87.7268   1 
  -8  -7   2 77.3714 23.1284   1 
  -7  -7   2 330.266 49.4232  -2 
  -7  -7   2 330.266 49.4232   1 
  -6  -7   3 812.479 66.7093  -2 
  -6  -7   2 812.479 66.7093  -2 
  -6  -7   2 812.479 66.7093   1 
  -5  -7   2 650.118 50.4526  -2 
  -5  -7   2 650.118 50.4526   1 
  -4  -7   2 -9.9858 24.3169  -2 
  -4  -7   2 -9.9858 24.3169   1 
  -3  -7   2 1729.89 65.1137  -2 
  -3  -7   2 1729.89 65.1137   1 
  -2  -7   2 1388.43 49.4816  -2 
  -2  -7   2 1388.43 49.4816   1 
  -1  -7   2 19.5573 30.1891  -2 
  -1  -7   2 19.5573 30.1891   1 
   0  -7   2 1840.93 53.3293  -2 
   0  -7   2 1840.93 53.3293   1 
   1  -7   2 557.371 33.9843  -2 
   1  -7   2 557.371 33.9843   1 
   2  -7   2 72.7059 18.1973  -2 
   2  -7   2 72.7059 18.1973   1 
   3  -7   2 32.0024 19.7127  -2 
   3  -7   2 32.0024 19.7127   1 
   4  -7   2 2481.23 79.2868  -2 
   4  -7   2 2481.23 79.2868   1 
   5  -7   2 876.971 57.1209  -2 
   5  -7   2 876.971 57.1209   1 
   6  -7   2 473.308 51.4874  -2 
   6  -7   2 473.308 51.4874   1 
   7  -7   2 1614.88 102.243  -2 
   7  -7   2 1614.88 102.243   1 
   8  -7   2 189.172 47.7855   1 
   9  -7   1 132.976 71.1096  -2 
   9  -7   2 132.976 71.1096   1 
 -11  -6   2 198.636 53.3180   1 
 -10  -6   2 57.6020 29.4694   1 
  -9  -6   2 141.982 40.7347   1 
  -8  -6   2 297.339 42.5205   1 
  -7  -6   2 297.658 52.4914  -2 
  -7  -6   2 297.658 52.4914   1 
  -6  -6   2 183.499 37.0501  -2 
  -6  -6   2 183.499 37.0501   1 
  -5  -6   2 1152.54 57.6761  -2 
  -5  -6   2 1152.54 57.6761   1 
  -4  -6   2 172.928 32.2039  -2 
  -4  -6   2 172.928 32.2039   1 
  -3  -6   2 184.301 25.9598  -2 
  -3  -6   2 184.301 25.9598   1 
  -2  -6   2 324.777 27.3482  -2 
  -2  -6   2 324.777 27.3482   1 
  -1  -6   2 434.129 29.0194  -2 
  -1  -6   2 434.129 29.0194   1 
   0  -6   2 165.532 21.9709  -2 
   0  -6   2 165.532 21.9709   1 
   1  -6   2 398.880 27.7423  -2 
   1  -6   2 398.880 27.7423   1 
   2  -6   2 1657.67 42.0157  -2 
   2  -6   2 1657.67 42.0157   1 
   3  -6   2 -2.7272 21.0341  -2 
   3  -6   2 -2.7272 21.0341   1 
   4  -6   2 1494.43 61.8560  -2 
   4  -6   2 1494.43 61.8560   1 
   5  -6   2 1421.64 63.9607  -2 
   5  -6   2 1421.64 63.9607   1 
   6  -6   2 122.298 38.1470  -2 
   6  -6   2 122.298 38.1470   1 
   7  -6   2 280.641 46.1929  -2 
   7  -6   2 280.641 46.1929   1 
   8  -6   2 372.800 55.7076   1 
   9  -6   1 197.586 70.4125  -2 
   9  -6   2 197.586 70.4125   1 
  10  -6   1 331.151 57.2410  -2 
  10  -6   2 331.151 57.2410   1 
 -11  -5   2 496.399 57.8356   1 
 -10  -5   2 487.900 53.3308   1 
  -9  -5   2 9.99636 24.4933   1 
  -8  -5   2 605.292 50.9812   1 
  -7  -5   2 683.718 63.3608  -2 
  -7  -5   2 683.718 63.3608   1 
  -6  -5   2 308.637 39.7982  -2 
  -6  -5   2 308.637 39.7982   1 
  -5  -5   2 830.678 48.6643  -2 
  -5  -5   2 830.678 48.6643   1 
  -4  -5   2 2344.69 69.6862  -2 
  -4  -5   2 2344.69 69.6862   1 
  -3  -5   2 1502.54 45.4080  -2 
  -3  -5   2 1502.54 45.4080   1 
  -2  -5   2 144.028 20.3146  -2 
  -2  -5   2 144.028 20.3146   1 
  -1  -5   2 2446.27 52.0919  -2 
  -1  -5   2 2446.27 52.0919   1 
   0  -5   2 1535.52 41.0279  -2 
   0  -5   2 1535.52 41.0279   1 
   1  -5   2 21.2359 9.95932  -2 
   1  -5   2 21.2359 9.95932   1 
   2  -5   2 2186.19 44.7315  -2 
   2  -5   2 2186.19 44.7315   1 
   3  -5   2 2191.63 60.8729  -2 
   3  -5   2 2191.63 60.8729   1 
   4  -5   2 25.6035 24.6675  -2 
   4  -5   2 25.6035 24.6675   1 
   5  -5   2 1332.60 59.5734  -2 
   5  -5   2 1332.60 59.5734   1 
   6  -5   2 1742.45 71.7315  -2 
   6  -5   2 1742.45 71.7315   1 
   7  -5   2 15.8192 33.3238  -2 
   7  -5   2 15.8192 33.3238   1 
   8  -5   2 473.213 57.2388   1 
   9  -5   1 635.164 83.6642  -2 
   9  -5   2 635.164 83.6642   1 
  10  -5   1 86.5300 48.2451  -2 
  10  -5   2 86.5300 48.2451   1 
  11  -5   1 139.718 79.9097  -2 
  11  -5   2 139.718 79.9097   1 
 -11  -4   2 4.76620 23.5387   1 
 -10  -4   2 217.778 41.2425   1 
  -9  -4   2 617.285 120.609  -2 
  -9  -4   2 617.285 120.609   1 
  -8  -4   2 -3.5918 18.2855   1 
  -7  -4   2 429.198 37.0743   1 
  -6  -4   2 1205.28 101.638  -2 
  -6  -4   2 1205.28 101.638   1 
  -5  -4   2 0.03151 24.8581  -2 
  -5  -4   2 0.03151 24.8581   1 
  -4  -4   2 579.706 37.8573  -2 
  -4  -4   2 579.706 37.8573   1 
  -3  -4   2 2489.12 61.6982  -2 
  -3  -4   2 2489.12 61.6982   1 
  -2  -4   2 1863.85 43.9985  -2 
  -2  -4   2 1863.85 43.9985   1 
  -1  -4   2 385.020 22.2710  -2 
  -1  -4   2 385.020 22.2710   1 
   0  -4   2 4395.34 60.7400  -2 
   0  -4   2 4395.34 60.7400   1 
   1  -4   2 281.488 15.5324  -2 
   1  -4   2 281.488 15.5324   1 
   2  -4   2 797.325 26.4964  -2 
   2  -4   2 797.325 26.4964   1 
   3  -4   2 1930.84 53.6640  -2 
   3  -4   2 1930.84 53.6640   1 
   4  -4   2 321.081 30.3471  -2 
   4  -4   2 321.081 30.3471   1 
   5  -4   2 24.1725 26.1924  -2 
   5  -4   2 24.1725 26.1924   1 
   6  -4   2 782.586 48.7782  -2 
   6  -4   2 782.586 48.7782   1 
   7  -4   2 769.551 53.1604  -2 
   7  -4   2 769.551 53.1604   1 
   8  -4   2 34.3346 48.5194  -2 
   8  -4   2 34.3346 48.5194   1 
   9  -4   2 508.863 62.1369   1 
  10  -4   1 762.754 64.0643  -2 
  10  -4   2 762.754 64.0643   1 
  11  -4   1 -17.167 46.3210  -2 
  11  -4   2 -17.167 46.3210   1 
 -11  -3   2 323.026 50.0123   1 
 -10  -3   2 98.4934 29.8811   1 
  -9  -3   2 1163.07 130.497  -2 
  -9  -3   2 1163.07 130.497   1 
  -8  -3   2 324.198 96.8680  -2 
  -8  -3   2 324.198 96.8680   1 
  -7  -3   2 5.39902 12.9425   1 
  -6  -3   2 1103.35 66.2852  -2 
  -6  -3   2 1103.35 66.2852   1 
  -5  -3   2 3784.82 67.2246  -2 
  -5  -3   2 3784.82 67.2246   1 
  -4  -3   2 288.482 28.5838  -2 
  -4  -3   2 288.482 28.5838   1 
  -3  -3   2 2383.69 58.5412  -2 
  -3  -3   2 2383.69 58.5412   1 
  -2  -3   2 6111.50 82.9286  -2 
  -2  -3   2 6111.50 82.9286   1 
  -1  -3   2 465.321 21.6206  -2 
  -1  -3   2 465.321 21.6206   1 
   0  -3   2 3725.13 67.5200  -2 
   0  -3   2 3725.13 67.5200   1 
   1  -3   2 1503.65 28.0397  -2 
   1  -3   2 1503.65 28.0397   1 
   2  -3   2 1743.52 42.8447  -2 
   2  -3   2 1743.52 42.8447   1 
   3  -3   2 514.310 29.6159  -2 
   3  -3   2 514.310 29.6159   1 
   4  -3   2 3512.41 90.7219  -2 
   4  -3   2 3512.41 90.7219   1 
   4  -3   1 3154.70 93.1038  -2 
   4  -3   2 3154.70 93.1038   1 
   5  -3   2 976.059 46.4871  -2 
   5  -3   2 976.059 46.4871   1 
   6  -3   2 877.361 48.7142  -2 
   6  -3   2 877.361 48.7142   1 
   7  -3   2 1510.24 63.7464  -2 
   7  -3   2 1510.24 63.7464   1 
   8  -3   2 166.551 38.1753  -2 
   8  -3   2 166.551 38.1753   1 
   9  -3   2 141.104 38.2476   1 
  10  -3   1 651.198 58.6955  -2 
  10  -3   2 651.198 58.6955   1 
  11  -3   1 1067.74 73.8514  -2 
  11  -3   2 1067.74 73.8514   1 
  12  -3   1 10.4261 74.3431  -2 
  12  -3   2 10.4261 74.3431   1 
 -11  -2   2 234.253 53.8084   1 
 -10  -2   2 350.598 46.6211   1 
  -9  -2   2 25.0101 19.6911   1 
  -8  -2   2 1574.73 128.897  -2 
  -8  -2   2 1574.73 128.897   1 
  -7  -2   2 1341.28 118.233  -2 
  -7  -2   2 1341.28 118.233   1 
  -6  -2   2 -7.6262 19.5060  -2 
  -6  -2   2 -7.6262 19.5060   1 
  -5  -2   2 1598.38 67.6964  -2 
  -5  -2   2 1598.38 67.6964   1 
  -4  -2   2 812.816 65.3313  -2 
  -4  -2   2 812.816 65.3313   1 
  -3  -2   2 284.533 23.2829  -2 
  -3  -2   2 284.533 23.2829   1 
  -2  -2   2 418.635 30.1147  -2 
  -2  -2   2 418.635 30.1147   1 
  -1  -2   2 1988.08 70.6892  -2 
  -1  -2   2 1988.08 70.6892   1 
   0  -2   2 5.56370 15.1750  -2 
   0  -2   2 5.56370 15.1750   1 
   1  -2   2 1725.18 67.4662  -2 
   1  -2   2 1725.18 67.4662   1 
   2  -2   2 1381.96 35.5436  -2 
   2  -2   2 1381.96 35.5436   1 
   3  -2   2 612.604 28.7407  -2 
   3  -2   2 612.604 28.7407   1 
   4  -2   2 420.184 28.8732  -2 
   4  -2   2 420.184 28.8732   1 
   5  -2   2 996.261 42.8716  -2 
   5  -2   2 996.261 42.8716   1 
   6  -2   2 597.004 40.6796  -2 
   6  -2   2 597.004 40.6796   1 
   7  -2   2 18.5169 27.5943  -2 
   7  -2   2 18.5169 27.5943   1 
   8  -2   2 912.319 80.4316  -2 
   8  -2   2 912.319 80.4316   1 
   9  -2   1 405.560 63.8805  -2 
   9  -2   2 405.560 63.8805   1 
  10  -2   1 22.8419 39.4859  -2 
  10  -2   2 22.8419 39.4859   1 
  11  -2   1 450.505 56.9594  -2 
  11  -2   2 450.505 56.9594   1 
  12  -2   1 321.681 57.4788  -2 
  12  -2   2 321.681 57.4788   1 
 -11  -1   2 463.627 63.8831   1 
 -10  -1   2 501.614 61.8423   1 
  -9  -1   2 80.7168 19.1595   1 
  -8  -1   2 534.887 95.0976  -2 
  -8  -1   2 534.887 95.0976   1 
  -7  -1   2 2952.36 79.4642  -2 
  -7  -1   2 2952.36 79.4642   1 
  -6  -1   2 984.352 45.9059  -2 
  -6  -1   2 984.352 45.9059   1 
  -5  -1   2 624.553 34.2457  -2 
  -5  -1   2 624.553 34.2457   1 
  -4  -1   2 1812.39 41.1448   1 
  -3  -1   2 210.677 26.4074  -2 
  -3  -1   2 210.677 26.4074   1 
  -2  -1   2 106.937 20.0669  -2 
  -2  -1   2 106.937 20.0669   1 
  -1  -1   2 486.590 27.5379  -2 
  -1  -1   2 486.590 27.5379   1 
   0  -1   2 3849.24 77.2265  -2 
   0  -1   2 3849.24 77.2265   1 
   1  -1   2 297.770 33.8999  -2 
   1  -1   2 297.770 33.8999   1 
   2  -1   2 810.064 26.6949  -2 
   2  -1   2 810.064 26.6949   1 
   3  -1   2 2662.14 51.0758  -2 
   3  -1   2 2662.14 51.0758   1 
   4  -1   2 457.518 27.1896  -2 
   4  -1   2 457.518 27.1896   1 
   5  -1   2 686.071 35.0229  -2 
   5  -1   2 686.071 35.0229   1 
   6  -1   2 2043.21 60.5027  -2 
   6  -1   2 2043.21 60.5027   1 
   7  -1   2 1020.04 50.3057  -2 
   7  -1   2 1020.04 50.3057   1 
   8  -1   2 82.4806 48.0183  -2 
   8  -1   2 82.4806 48.0183   1 
   9  -1   2 1214.15 53.7114   1 
  10  -1   1 806.578 83.8208  -2 
  10  -1   2 806.578 83.8208   1 
  11  -1   1 18.6012 42.0977  -2 
  11  -1   2 18.6012 42.0977   1 
  12  -1   1 942.512 68.7087  -2 
  12  -1   2 942.512 68.7087   1 
 -11   0   2 51.8754 25.7290   1 
 -10   0   2 492.172 43.7178   1 
  -9   0   2 688.060 40.3632   1 
  -8   0   2 27.4785 71.9841  -2 
  -8   0   2 27.4785 71.9841   1 
  -7   0   2 740.022 48.5208  -2 
  -7   0   2 740.022 48.5208   1 
  -6   0   2 611.296 40.4950  -2 
  -6   0   2 611.296 40.4950   1 
  -5   0   2 149.073 51.0640  -2 
  -5   0   2 149.073 51.0640   1 
  -4   0   2 19.4171 39.2921  -2 
  -4   0   2 19.4171 39.2921   1 
  -3   0   2 3217.98 59.7216  -2 
  -3   0   2 3217.98 59.7216   1 
  -2   0   2 4178.31 59.7486  -2 
  -2   0   2 4178.31 59.7486   1 
  -1   0   2 335.244 19.0872  -2 
  -1   0   2 335.244 19.0872   1 
   0   0   2 1401.98 31.4834  -2 
   0   0   2 1401.98 31.4834   1 
   1   0   2 2725.84 63.3185  -2 
   1   0   2 2725.84 63.3185   1 
   2   0   2 56.8737 12.9760  -2 
   2   0   2 56.8737 12.9760   1 
   3   0   2 193.319 18.0283  -2 
   3   0   2 193.319 18.0283   1 
   4   0   2 2656.61 53.2356  -2 
   4   0   2 2656.61 53.2356   1 
   5   0   2 1572.31 46.3893  -2 
   5   0   2 1572.31 46.3893   1 
   6   0   2 2186.67 59.6051  -2 
   6   0   2 2186.67 59.6051   1 
   7   0   2 2123.71 85.2522  -2 
   7   0   2 2123.71 85.2522   1 
   8   0   2 61.5308 13.6099   1 
   9   0   2 259.277 28.9891   1 
  10   0   2 554.239 41.3263   1 
  11   0   1 315.910 47.7395  -2 
  11   0   2 315.910 47.7395   1 
  12   0   1 -34.149 40.7858  -2 
  12   0   2 -34.149 40.7858   1 
 -11   1   2 251.080 40.0058   1 
 -10   1   2 46.1950 21.2332   1 
  -9   1   2 296.473 48.0345   1 
  -8   1   2 276.100 27.0545   1 
  -7   1   2 46.4883 29.2379  -2 
  -7   1   2 46.4883 29.2379   1 
  -6   1   2 806.056 45.8650  -2 
  -6   1   2 806.056 45.8650   1 
  -5   1   2 1974.11 58.0055  -2 
  -5   1   2 1974.11 58.0055   1 
  -4   1   2 398.623 52.1771  -2 
  -4   1   2 398.623 52.1771   1 
  -3   1   2 1612.16 74.3149  -2 
  -3   1   2 1612.16 74.3149   1 
  -2   1   2 5398.25 67.5709  -2 
  -2   1   2 5398.25 67.5709   1 
  -1   1   2 666.692 23.2050  -2 
  -1   1   2 666.692 23.2050   1 
   0   1   2 23.5704 8.95513  -2 
   0   1   2 23.5704 8.95513   1 
   1   1   2 4108.53 45.1061  -2 
   1   1   2 4108.53 45.1061   1 
   2   1   2 3807.58 49.4444  -2 
   2   1   2 3807.58 49.4444   1 
   3   1   2 131.416 16.0628  -2 
   3   1   2 131.416 16.0628   1 
   4   1   2 6323.49 79.2706  -2 
   4   1   2 6323.49 79.2706   1 
   5   1   2 2156.57 52.1780  -2 
   5   1   2 2156.57 52.1780   1 
   6   1   2 452.434 24.9003  -2 
   6   1   2 452.434 24.9003   1 
   7   1   2 1471.04 54.3405  -2 
   7   1   2 1471.04 54.3405   1 
   8   1   2 2010.17 88.5693  -2 
   8   1   2 2010.17 88.5693   1 
   9   1   2 157.946 21.1348   1 
  10   1   2 430.092 35.9141   1 
  11   1   1 1098.78 92.4075  -2 
  11   1   2 1098.78 92.4075   1 
  12   1   1 78.2138 62.3851  -2 
  12   1   2 78.2138 62.3851   1 
  13   1   2 71.8035 38.6989   1 
 -11   2   2 376.490 45.2648   1 
 -10   2   2 241.050 36.6320   1 
  -9   2   2 13.0402 15.6828   1 
  -8   2   2 317.736 46.7622   1 
  -7   2   2 959.185 67.4519  -2 
  -7   2   2 959.185 67.4519   1 
  -6   2   2 352.211 36.9418  -2 
  -6   2   2 352.211 36.9418   1 
  -5   2   2 145.492 26.8908  -2 
  -5   2   2 145.492 26.8908   1 
  -4   2   2 3871.47 115.097  -2 
  -4   2   2 3871.47 115.097   1 
  -3   2   2 2089.38 49.3948  -2 
  -3   2   2 2089.38 49.3948   1 
  -2   2   2 628.004 21.0326  -2 
  -2   2   2 628.004 21.0326   1 
  -1   2   2 3826.69 39.9822  -2 
  -1   2   2 3826.69 39.9822   1 
   0   2   2 744.699 15.8817  -2 
   0   2   2 744.699 15.8817   1 
   1   2   2 661.636 17.5047  -2 
   1   2   2 661.636 17.5047   1 
   2   2   2 2899.66 36.8514  -2 
   2   2   2 2899.66 36.8514   1 
   3   2   2 1780.60 38.6197  -2 
   3   2   2 1780.60 38.6197   1 
   4   2   2 180.288 18.7653  -2 
   4   2   2 180.288 18.7653   1 
   5   2   2 3469.81 70.8291  -2 
   5   2   2 3469.81 70.8291   1 
   6   2   2 949.230 43.5147  -2 
   6   2   2 949.230 43.5147   1 
   7   2   2 143.916 36.7634  -2 
   7   2   2 143.916 36.7634   1 
   8   2   2 504.006 52.8260  -2 
   8   2   2 504.006 52.8260   1 
   9   2   2 402.932 36.3985   1 
  10   2   2 63.2096 16.7250   1 
  11   2   2 89.9660 22.6511   1 
  12   2   2 267.423 53.1369   1 
 -11   3   2 18.4084 21.8423   1 
 -10   3   2 222.110 37.5290   1 
  -9   3   2 423.083 41.2593   1 
  -8   3   2 24.6378 15.1628   1 
  -7   3   2 2229.99 99.7183  -2 
  -7   3   2 2229.99 99.7183   1 
  -6   3   2 1499.27 59.1017  -2 
  -6   3   2 1499.27 59.1017   1 
  -5   3   2 1.41262 23.4061  -2 
  -5   3   2 1.41262 23.4061   1 
  -4   3   2 312.815 28.4581  -2 
  -4   3   2 312.815 28.4581   1 
  -3   3   2 1656.64 45.8281  -2 
  -3   3   2 1656.64 45.8281   1 
  -2   3   2 2318.92 37.5858  -2 
  -2   3   2 2318.92 37.5858   1 
  -1   3   2 2189.61 27.6112  -2 
  -1   3   2 2189.61 27.6112   1 
   0   3   2 7399.66 49.4838  -2 
   0   3   2 7399.66 49.4838   1 
   1   3   2 282.928 13.3041  -2 
   1   3   2 282.928 13.3041   1 
   2   3   2 5903.29 55.3156  -2 
   2   3   2 5903.29 55.3156   1 
   3   3   2 520.406 19.8648  -2 
   3   3   2 520.406 19.8648   1 
   4   3   2 314.581 19.4484  -2 
   4   3   2 314.581 19.4484   1 
   5   3   2 159.227 23.8458  -2 
   5   3   2 159.227 23.8458   1 
   6   3   2 2425.59 69.7517  -2 
   6   3   2 2425.59 69.7517   1 
   7   3   2 1709.96 56.9841  -2 
   7   3   2 1709.96 56.9841   1 
   8   3   2 -3.1662 26.2565  -2 
   8   3   2 -3.1662 26.2565   1 
   9   3   2 1004.55 91.5856  -2 
   9   3   2 1004.55 91.5856   1 
  10   3   2 456.463 40.5777   1 
  11   3   2 17.8861 22.7687   1 
 -11   4   2 153.519 35.1418   1 
 -10   4   2 148.054 31.5292   1 
  -9   4   2 861.486 55.3529   1 
  -8   4   2 368.965 37.0958   1 
  -7   4   2 39.5115 39.0963  -2 
  -7   4   2 39.5115 39.0963   1 
  -6   4   2 1199.32 75.2053  -2 
  -6   4   2 1199.32 75.2053   1 
  -5   4   2 1971.93 61.5399  -2 
  -5   4   2 1971.93 61.5399   1 
  -4   4   2 12.7065 15.1316  -2 
  -4   4   2 12.7065 15.1316   1 
  -3   4   2 2104.65 41.7399  -2 
  -3   4   2 2104.65 41.7399   1 
  -2   4   2 3479.68 48.5173  -2 
  -2   4   2 3479.68 48.5173   1 
  -1   4   2 97.1550 10.7034  -2 
  -1   4   2 97.1550 10.7034   1 
   0   4   2 2788.44 33.6044  -2 
   0   4   2 2788.44 33.6044   1 
   1   4   2 259.397 13.6304  -2 
   1   4   2 259.397 13.6304   1 
   2   4   2 880.922 23.6428  -2 
   2   4   2 880.922 23.6428   1 
   3   4   2 58.1512 9.10961  -2 
   3   4   2 58.1512 9.10961   1 
   4   4   2 3725.41 53.1422  -2 
   4   4   2 3725.41 53.1422   1 
   5   4   2 721.698 29.1702  -2 
   5   4   2 721.698 29.1702   1 
   6   4   2 32.5451 18.4761  -2 
   6   4   2 32.5451 18.4761   1 
   7   4   2 841.691 50.9629  -2 
   7   4   2 841.691 50.9629   1 
   8   4   2 673.596 74.6415  -2 
   8   4   2 673.596 74.6415   1 
   9   4   2 20.5218 12.5379   1 
  10   4   2 215.334 25.1129   1 
 -10   5   2 47.2372 23.9063   1 
  -9   5   2 179.441 33.4117   1 
  -8   5   2 1505.11 98.3111  -2 
  -8   5   2 1505.11 98.3111   1 
  -7   5   2 123.479 49.2817  -2 
  -7   5   2 123.479 49.2817   1 
  -6   5   2 326.121 36.2137  -2 
  -6   5   2 326.121 36.2137   1 
  -5   5   2 1150.33 49.0479  -2 
  -5   5   2 1150.33 49.0479   1 
  -4   5   2 295.361 23.7382  -2 
  -4   5   2 295.361 23.7382   1 
  -3   5   2 1225.16 42.2007  -2 
  -3   5   2 1225.16 42.2007   1 
  -2   5   2 2194.38 42.1814  -2 
  -2   5   2 2194.38 42.1814   1 
  -1   5   2 2315.58 36.2540  -2 
  -1   5   2 2315.58 36.2540   1 
   0   5   2 122.588 10.9849  -2 
   0   5   2 122.588 10.9849   1 
   1   5   2 1000.16 21.4415  -2 
   1   5   2 1000.16 21.4415   1 
   2   5   2 1146.09 22.4908  -2 
   2   5   2 1146.09 22.4908   1 
   3   5   2 197.780 12.0799  -2 
   3   5   2 197.780 12.0799   1 
   4   5   2 1044.60 23.7958  -2 
   4   5   2 1044.60 23.7958   1 
   5   5   2 1718.11 87.7367  -2 
   5   5   2 1718.11 87.7367   1 
   6   5   2 320.175 52.2623  -2 
   6   5   2 320.175 52.2623   1 
   7   5   2 266.321 32.5439  -2 
   7   5   2 266.321 32.5439   1 
   8   5   2 1864.10 116.403  -2 
   8   5   2 1864.10 116.403   1 
   9   5   2 360.461 74.6181  -2 
   9   5   2 360.461 74.6181   1 
  10   5   2 92.2386 43.4631   1 
  11   5   2 820.719 105.623   1 
 -10   6   2 374.426 68.7694   1 
  -9   6   2 119.560 30.2573   1 
  -8   6   2 159.087 59.8131  -2 
  -8   6   2 159.087 59.8131   1 
  -7   6   2 1190.64 88.0217  -2 
  -7   6   2 1190.64 88.0217   1 
  -6   6   2 330.228 38.8118  -2 
  -6   6   2 330.228 38.8118   1 
  -5   6   2 541.175 40.3459  -2 
  -5   6   2 541.175 40.3459   1 
  -4   6   2 2068.66 62.2767  -2 
  -4   6   2 2068.66 62.2767   1 
  -3   6   2 412.100 26.3722  -2 
  -3   6   2 412.100 26.3722   1 
  -2   6   2 32.0363 12.3271  -2 
  -2   6   2 32.0363 12.3271   1 
  -1   6   2 529.214 20.9147  -2 
  -1   6   2 529.214 20.9147   1 
   0   6   2 2034.17 34.9575  -2 
   0   6   2 2034.17 34.9575   1 
   1   6   2 302.301 14.2369  -2 
   1   6   2 302.301 14.2369   1 
   2   6   2 1745.12 29.4418  -2 
   2   6   2 1745.12 29.4418   1 
   3   6   2 2579.53 36.3417  -2 
   3   6   2 2579.53 36.3417   1 
   4   6   2 293.782 15.8444  -2 
   4   6   2 293.782 15.8444   1 
   5   6   2 1411.16 38.4264  -2 
   5   6   2 1411.16 38.4264   1 
   6   6   2 991.600 57.1534  -2 
   6   6   2 991.600 57.1534   1 
   7   6   2 301.509 41.6813  -2 
   7   6   2 301.509 41.6813   1 
   8   6   2 205.889 65.4791  -2 
   8   6   2 205.889 65.4791   1 
   9   6   2 1261.82 71.7714   1 
  10   6   2 839.506 111.276  -2 
  10   6   2 839.506 111.276   1 
  11   6   2 100.448 33.6149   1 
  -9   7   2 374.296 68.8211   1 
  -8   7   2 -10.039 25.7006   1 
  -7   7   2 565.406 52.9285  -2 
  -7   7   2 565.406 52.9285   1 
  -6   7   2 315.607 42.1346  -2 
  -6   7   2 315.607 42.1346   1 
  -5   7   2 108.573 32.9122  -2 
  -5   7   2 108.573 32.9122   1 
  -4   7   2 26.2140 25.8326  -2 
  -4   7   2 26.2140 25.8326   1 
  -3   7   2 1409.45 45.6626  -2 
  -3   7   2 1409.45 45.6626   1 
  -2   7   2 2625.47 63.2346  -2 
  -2   7   2 2625.47 63.2346   1 
  -1   7   2 167.715 16.4992  -2 
  -1   7   2 167.715 16.4992   1 
   0   7   2 2587.20 43.2699  -2 
   0   7   2 2587.20 43.2699   1 
   1   7   2 6.34135 8.47719  -2 
   1   7   2 6.34135 8.47719   1 
   2   7   2 42.1023 9.20683  -2 
   2   7   2 42.1023 9.20683   1 
   3   7   2 893.312 23.5967  -2 
   3   7   2 893.312 23.5967   1 
   4   7   2 2277.86 50.5481  -2 
   4   7   2 2277.86 50.5481   1 
   5   7   2 6.04909 16.6279  -2 
   5   7   2 6.04909 16.6279   1 
   6   7   2 2369.96 88.0039  -2 
   6   7   2 2369.96 88.0039   1 
   7   7   2 1997.73 85.2314  -2 
   7   7   2 1997.73 85.2314   1 
   8   7   2 34.8665 39.2073  -2 
   8   7   2 34.8665 39.2073   1 
   9   7   2 949.900 108.918  -2 
   9   7   2 949.900 108.918   1 
  10   7   2 341.114 93.7775  -2 
  10   7   2 341.114 93.7775   1 
  11   7   2 28.6995 26.9407   1 
  12   7   2 34.0442 43.1645   1 
  -7   8   2 37.8651 58.8545  -2 
  -7   8   2 37.8651 58.8545   1 
  -6   8   2 660.552 77.4007  -2 
  -6   8   2 660.552 77.4007   1 
  -5   8   2 1754.17 71.2352  -2 
  -5   8   2 1754.17 71.2352   1 
  -4   8   2 708.756 47.0325  -2 
  -4   8   2 708.756 47.0325   1 
  -3   8   2 146.832 25.2499  -2 
  -3   8   2 146.832 25.2499   1 
  -2   8   2 2507.03 50.4549  -2 
  -2   8   2 2507.03 50.4549   1 
  -1   8   2 1186.57 34.6334  -2 
  -1   8   2 1186.57 34.6334   1 
   0   8   2 175.920 16.9245  -2 
   0   8   2 175.920 16.9245   1 
   1   8   2 1805.50 47.8983  -2 
   1   8   2 1805.50 47.8983   1 
   2   8   2 1776.99 46.4084  -2 
   2   8   2 1776.99 46.4084   1 
   3   8   2 131.148 19.3435  -2 
   3   8   2 131.148 19.3435   1 
   4   8   2 1766.88 49.4925  -2 
   4   8   2 1766.88 49.4925   1 
   5   8   2 1835.88 51.3278  -2 
   5   8   2 1835.88 51.3278   1 
   6   8   2 1.22976 35.3471  -2 
   6   8   2 1.22976 35.3471   1 
   7   8   2 1208.72 75.0613  -2 
   7   8   2 1208.72 75.0613   1 
   8   8   2 893.759 97.5304  -2 
   8   8   2 893.759 97.5304   1 
   9   8   2 102.433 51.1409  -2 
   9   8   2 102.433 51.1409   1 
  10   8   2 167.663 95.1273  -2 
  10   8   2 167.663 95.1273   1 
  11   8   2 648.980 128.391  -2 
  11   8   2 648.980 128.391   1 
  12   8   2 70.1592 50.0419   1 
  -8   9   3 327.164 91.5786  -2 
  -8   9   2 327.164 91.5786   1 
  -7   9   2 391.686 80.3305  -2 
  -7   9   2 391.686 80.3305   1 
  -6   9   2 32.6084 58.2340  -2 
  -6   9   2 32.6084 58.2340   1 
  -5   9   2 518.875 72.3282  -2 
  -5   9   2 518.875 72.3282   1 
  -4   9   2 1242.91 60.4412  -2 
  -4   9   2 1242.91 60.4412   1 
  -3   9   2 63.5676 26.0078  -2 
  -3   9   2 63.5676 26.0078   1 
  -2   9   2 1208.89 45.1184  -2 
  -2   9   2 1208.89 45.1184   1 
  -1   9   2 1088.23 35.7498  -2 
  -1   9   2 1088.23 35.7498   1 
   0   9   2 29.9972 14.3753  -2 
   0   9   2 29.9972 14.3753   1 
   1   9   2 356.458 27.6454  -2 
   1   9   2 356.458 27.6454   1 
   2   9   2 1428.65 45.5851  -2 
   2   9   2 1428.65 45.5851   1 
   3   9   2 229.517 23.7374  -2 
   3   9   2 229.517 23.7374   1 
   4   9   2 197.531 25.2726  -2 
   4   9   2 197.531 25.2726   1 
   5   9   2 1453.06 76.2881  -2 
   5   9   2 1453.06 76.2881   1 
   6   9   2 362.864 52.0539  -2 
   6   9   2 362.864 52.0539   1 
   7   9   2 162.078 49.4806  -2 
   7   9   2 162.078 49.4806   1 
   8   9   2 254.609 58.7072  -2 
   8   9   2 254.609 58.7072   1 
   9   9   2 267.053 60.8045  -2 
   9   9   2 267.053 60.8045   1 
  10   9   2 75.4994 99.2583  -2 
  10   9   2 75.4994 99.2583   1 
  11   9   2 503.647 129.634  -2 
  11   9   2 503.647 129.634   1 
  -5  10   2 164.964 63.5781  -2 
  -5  10   2 164.964 63.5781   1 
  -4  10   2 772.426 54.2594  -2 
  -4  10   2 772.426 54.2594   1 
  -3  10   2 578.979 46.6412  -2 
  -3  10   2 578.979 46.6412   1 
  -2  10   2 182.730 28.6333  -2 
  -2  10   2 182.730 28.6333   1 
  -1  10   2 1366.25 47.6308  -2 
  -1  10   2 1366.25 47.6308   1 
   0  10   2 2008.27 59.5436  -2 
   0  10   2 2008.27 59.5436   1 
   1  10   2 8.84422 18.5373  -2 
   1  10   2 8.84422 18.5373   1 
   2  10   2 965.033 41.8887  -2 
   2  10   2 965.033 41.8887   1 
   3  10   2 1435.65 50.4160  -2 
   3  10   2 1435.65 50.4160   1 
   4  10   2 32.4253 35.1405  -2 
   4  10   2 32.4253 35.1405   1 
   5  10   2 5.82002 38.2123  -2 
   5  10   2 5.82002 38.2123   1 
   6  10   2 614.136 65.0658  -2 
   6  10   2 614.136 65.0658   1 
   7  10   2 1217.24 86.4837  -2 
   7  10   2 1217.24 86.4837   1 
   8  10   2 -4.7581 52.7687  -2 
   8  10   2 -4.7581 52.7687   1 
   9  10   2 1096.37 91.9576  -2 
   9  10   2 1096.37 91.9576   1 
  10  10   2 689.344 134.529  -2 
  10  10   2 689.344 134.529   1 
  11  10   2 10.3874 37.7243   1 
  -5  11   2 403.297 76.6343  -2 
  -5  11   2 403.297 76.6343   1 
  -4  11   2 5.25624 20.8018   1 
  -3  11   2 810.559 80.3898  -2 
  -3  11   2 810.559 80.3898   1 
  -2  11   2 566.802 53.5884  -2 
  -2  11   2 566.802 53.5884   1 
  -1  11   2 77.2820 34.0912  -2 
  -1  11   2 77.2820 34.0912   1 
   0  11   2 355.372 42.1998  -2 
   0  11   2 355.372 42.1998   1 
   1  11   2 169.265 27.0543  -2 
   1  11   2 169.265 27.0543   1 
   2  11   2 54.7664 22.5085  -2 
   2  11   2 54.7664 22.5085   1 
   3  11   2 301.124 45.2812  -2 
   3  11   2 301.124 45.2812   1 
   4  11   2 645.026 62.2690  -2 
   4  11   2 645.026 62.2690   1 
   5  11   2 206.349 51.6760  -2 
   5  11   2 206.349 51.6760   1 
   6  11   2 264.891 60.0286  -2 
   6  11   2 264.891 60.0286   1 
   7  11   2 543.213 75.1758  -2 
   7  11   2 543.213 75.1758   1 
   8  11   2 162.911 67.1386  -2 
   8  11   2 162.911 67.1386   1 
   9  11   2 21.6731 64.1065  -2 
   9  11   2 21.6731 64.1065   1 
  10  11   2 368.611 79.4687  -2 
  10  11   2 368.611 79.4687   1 
  -5  12   2 628.589 89.0796  -2 
  -5  12   2 628.589 89.0796   1 
  -4  12   2 595.173 82.0588  -2 
  -4  12   2 595.173 82.0588   1 
  -3  12   2 26.7246 53.5463  -2 
  -3  12   2 26.7246 53.5463   1 
  -2  12   2 982.453 84.2534  -2 
  -2  12   2 982.453 84.2534   1 
  -1  12   2 625.698 56.2258  -2 
  -1  12   2 625.698 56.2258   1 
   0  12   2 -2.2493 28.9921  -2 
   0  12   2 -2.2493 28.9921   1 
   1  12   2 776.858 45.2137  -2 
   1  12   2 776.858 45.2137   1 
   2  12   2 655.997 62.4279  -2 
   2  12   2 655.997 62.4279   1 
   3  12   2 115.890 45.6852  -2 
   3  12   2 115.890 45.6852   1 
   4  12   2 406.008 61.4746  -2 
   4  12   2 406.008 61.4746   1 
   5  12   2 1821.84 103.759  -2 
   5  12   2 1821.84 103.759   1 
   6  12   2 128.231 57.9334  -2 
   6  12   2 128.231 57.9334   1 
   7  12   2 745.310 85.4916  -2 
   7  12   2 745.310 85.4916   1 
   8  12   2 1245.04 104.910  -2 
   8  12   2 1245.04 104.910   1 
   9  12   2 291.857 80.0171  -2 
   9  12   2 291.857 80.0171   1 
  -4  13   2 454.855 81.6087  -2 
  -4  13   2 454.855 81.6087   1 
  -3  13   2 109.639 60.0135  -2 
  -3  13   2 109.639 60.0135   1 
  -2  13   2 65.8766 57.1636  -2 
  -2  13   2 65.8766 57.1636   1 
  -1  13   2 253.488 47.0302  -2 
  -1  13   2 253.488 47.0302   1 
   0  13   2 662.756 55.7540  -2 
   0  13   2 662.756 55.7540   1 
   1  13   2 40.3388 61.0697  -2 
   1  13   2 40.3388 61.0697   1 
   2  13   2 580.445 65.5958  -2 
   2  13   2 580.445 65.5958   1 
   3  13   2 988.966 79.6583  -2 
   3  13   2 988.966 79.6583   1 
   4  13   2 -32.036 50.1473  -2 
   4  13   2 -32.036 50.1473   1 
   5  13   2 539.142 76.2063  -2 
   5  13   2 539.142 76.2063   1 
   6  13   2 443.463 77.3824  -2 
   6  13   2 443.463 77.3824   1 
   7  13   2 48.8013 67.7487  -2 
   7  13   2 48.8013 67.7487   1 
   8  13   2 163.492 76.0055  -2 
   8  13   2 163.492 76.0055   1 
  -2  14   2 194.173 65.9460  -2 
  -2  14   2 194.173 65.9460   1 
   0  14   2 1067.02 119.370  -2 
   0  14   2 1067.02 119.370   1 
   1  14   2 289.535 81.8675  -2 
   1  14   2 289.535 81.8675   1 
   2  14   2 166.446 80.5046  -2 
   2  14   2 166.446 80.5046   1 
   3  14   2 604.702 74.2294  -2 
   3  14   2 604.702 74.2294   1 
   4  14   2 522.563 75.1810  -2 
   4  14   2 522.563 75.1810   1 
   5  14   2 11.1845 59.8151  -2 
   5  14   2 11.1845 59.8151   1 
   6  14   2 1170.89 105.102  -2 
   6  14   2 1170.89 105.102   1 
   1  15   2 519.578 100.828  -2 
   1  15   2 519.578 100.828   1 
   2  15   2 62.7278 76.5092  -2 
   2  15   2 62.7278 76.5092   1 
   3  15   2 113.927 86.8004  -2 
   3  15   2 113.927 86.8004   1 
  -3 -13   3 14.2556 63.8959  -2 
  -3 -13   3 14.2556 63.8959   1 
  -2 -13   3 155.873 74.5336  -2 
  -2 -13   3 155.873 74.5336   1 
  -1 -13   3 326.181 81.2186  -2 
  -1 -13   3 326.181 81.2186   1 
   0 -13   3 19.4432 63.3409  -2 
   0 -13   3 19.4432 63.3409   1 
  -5 -12   3 36.8897 100.298  -2 
  -5 -12   3 36.8897 100.298   1 
  -4 -12   3 1022.24 70.5907  -2 
  -4 -12   3 1022.24 70.5907   1 
  -3 -12   3 1160.47 83.8392  -2 
  -3 -12   3 1160.47 83.8392   1 
  -2 -12   3 101.407 68.7851  -2 
  -2 -12   3 101.407 68.7851   1 
  -1 -12   3 721.115 89.2804  -2 
  -1 -12   3 721.115 89.2804   1 
   0 -12   3 398.273 63.2937  -2 
   0 -12   3 398.273 63.2937   1 
   1 -12   3 23.2605 53.7469  -2 
   1 -12   3 23.2605 53.7469   1 
   2 -12   3 526.411 69.0327  -2 
   2 -12   3 526.411 69.0327   1 
   3 -12   3 1368.61 90.1723  -2 
   3 -12   3 1368.61 90.1723   1 
   4 -12   3 73.6242 118.740  -2 
   4 -12   3 73.6242 118.740   1 
  -7 -11   3 72.6293 94.6473  -2 
  -7 -11   3 72.6293 94.6473   1 
  -6 -11   3 597.742 61.9904  -2 
  -6 -11   3 597.742 61.9904   1 
  -5 -11   3 94.1880 48.3426  -2 
  -5 -11   3 94.1880 48.3426   1 
  -4 -11   3 61.7287 44.0370  -2 
  -4 -11   3 61.7287 44.0370   1 
  -3 -11   3 441.432 52.5089  -2 
  -3 -11   3 441.432 52.5089   1 
  -2 -11   3 258.962 56.2161  -2 
  -2 -11   3 258.962 56.2161   1 
  -1 -11   3 -17.222 55.6389  -2 
  -1 -11   3 -17.222 55.6389   1 
   0 -11   3 668.045 67.5754  -2 
   0 -11   3 668.045 67.5754   1 
   1 -11   3 462.962 61.2024  -2 
   1 -11   3 462.962 61.2024   1 
   2 -11   3 8.26984 46.4568  -2 
   2 -11   3 8.26984 46.4568   1 
   3 -11   3 647.891 69.3084  -2 
   3 -11   3 647.891 69.3084   1 
   4 -11   3 141.467 53.5933  -2 
   4 -11   3 141.467 53.5933   1 
   5 -11   3 35.9704 52.9858  -2 
   5 -11   3 35.9704 52.9858   1 
  -8 -10   3 554.404 82.5868   1 
  -7 -10   3 35.9579 50.4308  -2 
  -7 -10   3 35.9579 50.4308   1 
  -6 -10   3 378.122 53.0259  -2 
  -6 -10   3 378.122 53.0259   1 
  -5 -10   3 1021.82 66.0518  -2 
  -5 -10   3 1021.82 66.0518   1 
  -4 -10   3 207.076 44.3843  -2 
  -4 -10   3 207.076 44.3843   1 
  -3 -10   3 332.023 46.6246  -2 
  -3 -10   3 332.023 46.6246   1 
  -2 -10   3 1313.55 65.2201  -2 
  -2 -10   3 1313.55 65.2201   1 
  -1 -10   3 161.949 45.8592  -2 
  -1 -10   3 161.949 45.8592   1 
   0 -10   3 148.517 46.7644  -2 
   0 -10   3 148.517 46.7644   1 
   1 -10   3 942.848 69.1827  -2 
   1 -10   3 942.848 69.1827   1 
   2 -10   3 728.781 64.8559  -2 
   2 -10   3 728.781 64.8559   1 
   3 -10   3 8.23881 44.7935  -2 
   3 -10   3 8.23881 44.7935   1 
   4 -10   3 455.845 64.7696  -2 
   4 -10   3 455.845 64.7696   1 
   5 -10   3 723.050 70.9016  -2 
   5 -10   3 723.050 70.9016   1 
   6 -10   3 0.11199 98.7982  -2 
   6 -10   3 0.11199 98.7982   1 
   7 -10   3 261.725 56.6648   1 
  -8  -9   3 435.589 69.9254   1 
  -7  -9   3 299.599 70.3002  -2 
  -7  -9   3 299.599 70.3002   1 
  -6  -9   3 -15.483 36.7107  -2 
  -6  -9   3 -15.483 36.7107   1 
  -5  -9   3 200.119 42.4012  -2 
  -5  -9   3 200.119 42.4012   1 
  -4  -9   3 656.548 51.6944  -2 
  -4  -9   3 656.548 51.6944   1 
  -3  -9   3 322.981 42.6964  -2 
  -3  -9   3 322.981 42.6964   1 
  -2  -9   3 188.230 37.1066  -2 
  -2  -9   3 188.230 37.1066   1 
  -1  -9   3 624.627 45.9578  -2 
  -1  -9   3 624.627 45.9578   1 
   0  -9   3 243.136 44.3569  -2 
   0  -9   3 243.136 44.3569   1 
   1  -9   3 52.1373 37.6529  -2 
   1  -9   3 52.1373 37.6529   1 
   2  -9   3 174.378 43.2080  -2 
   2  -9   3 174.378 43.2080   1 
   3  -9   3 458.544 55.2183  -2 
   3  -9   3 458.544 55.2183   1 
   4  -9   3 41.9154 87.8840  -2 
   4  -9   3 41.9154 87.8840   1 
   5  -9   3 386.663 113.131  -2 
   5  -9   3 386.663 113.131   1 
   6  -9   3 798.956 134.580  -2 
   6  -9   3 798.956 134.580   1 
   7  -9   3 40.0626 31.4553   1 
   8  -9   3 291.543 61.6229   1 
  -9  -8   3 70.0991 33.0087   1 
  -8  -8   3 62.0593 36.2034   1 
  -7  -8   3 760.471 83.9157  -2 
  -7  -8   3 760.471 83.9157   1 
  -6  -8   3 848.594 64.4122  -2 
  -6  -8   3 848.594 64.4122   1 
  -5  -8   3 8.92359 37.8884  -2 
  -5  -8   3 8.92359 37.8884   1 
  -4  -8   3 1749.71 66.6061  -2 
  -4  -8   3 1749.71 66.6061   1 
  -3  -8   3 798.208 49.0074  -2 
  -3  -8   3 798.208 49.0074   1 
  -2  -8   3 10.7942 28.1416  -2 
  -2  -8   3 10.7942 28.1416   1 
  -1  -8   3 112.340 41.9577  -2 
  -1  -8   3 112.340 41.9577   1 
   0  -8   3 1211.75 68.7619  -2 
   0  -8   3 1211.75 68.7619   1 
   1  -8   3 747.678 53.4160  -2 
   1  -8   3 747.678 53.4160   1 
   2  -8   3 303.542 43.6102  -2 
   2  -8   3 303.542 43.6102   1 
   3  -8   3 2714.96 167.318  -2 
   3  -8   3 2714.96 167.318   1 
   4  -8   3 273.435 92.3189  -2 
   4  -8   3 273.435 92.3189   1 
   5  -8   3 802.621 121.154  -2 
   5  -8   3 802.621 121.154   1 
   6  -8   3 771.598 63.0478  -2 
   6  -8   3 771.598 63.0478   1 
   7  -8   3 669.783 66.0963  -2 
   7  -8   3 669.783 66.0963   1 
   8  -8   2 25.4061 55.0320  -2 
   8  -8   3 25.4061 55.0320   1 
   9  -8   2 814.187 95.2674  -2 
   9  -8   3 814.187 95.2674   1 
 -10  -7   3 13.6719 26.5598   1 
  -9  -7   3 347.494 53.4449   1 
  -8  -7   3 287.237 61.0422   1 
  -7  -7   3 0.33555 15.9427   1 
  -6  -7   3 379.408 93.1781  -2 
  -6  -7   3 379.408 93.1781   1 
  -5  -7   3 655.042 54.9455  -2 
  -5  -7   3 655.042 54.9455   1 
  -4  -7   3 259.636 34.7517  -2 
  -4  -7   3 259.636 34.7517   1 
  -3  -7   3 542.209 39.4764  -2 
  -3  -7   3 542.209 39.4764   1 
  -2  -7   3 1174.47 49.6069  -2 
  -2  -7   3 1174.47 49.6069   1 
  -1  -7   3 226.813 41.5631  -2 
  -1  -7   3 226.813 41.5631   1 
   0  -7   3 213.173 28.2007  -2 
   0  -7   3 213.173 28.2007   1 
   1  -7   3 2062.27 73.7590  -2 
   1  -7   3 2062.27 73.7590   1 
   2  -7   3 160.658 63.1757  -2 
   2  -7   3 160.658 63.1757   1 
   3  -7   3 305.892 32.7981  -2 
   3  -7   3 305.892 32.7981   1 
   4  -7   3 1552.04 63.7506  -2 
   4  -7   3 1552.04 63.7506   1 
   5  -7   3 523.066 47.0422  -2 
   5  -7   3 523.066 47.0422   1 
   6  -7   3 186.175 43.0368  -2 
   6  -7   3 186.175 43.0368   1 
   7  -7   3 801.843 65.7067  -2 
   7  -7   3 801.843 65.7067   1 
   8  -7   3 258.300 51.4719   1 
   9  -7   2 76.4252 61.6807  -2 
   9  -7   3 76.4252 61.6807   1 
 -10  -6   3 34.1164 27.3992   1 
  -9  -6   3 83.8703 30.6182   1 
  -8  -6   3 789.867 76.9990   1 
  -7  -6   3 384.566 61.2590  -2 
  -7  -6   3 384.566 61.2590   1 
  -6  -6   3 69.1118 19.6668   1 
  -5  -6   3 873.859 57.5461  -2 
  -5  -6   3 873.859 57.5461   1 
  -4  -6   3 777.250 51.2964  -2 
  -4  -6   3 777.250 51.2964   1 
  -3  -6   3 6.15362 23.7097  -2 
  -3  -6   3 6.15362 23.7097   1 
  -2  -6   3 1282.44 47.5077  -2 
  -2  -6   3 1282.44 47.5077   1 
  -1  -6   3 1315.43 46.2527  -2 
  -1  -6   3 1315.43 46.2527   1 
   0  -6   3 8.21582 19.4560  -2 
   0  -6   3 8.21582 19.4560   1 
   1  -6   3 2793.47 80.1022  -2 
   1  -6   3 2793.47 80.1022   1 
   2  -6   3 1590.81 63.4377  -2 
   2  -6   3 1590.81 63.4377   1 
   3  -6   3 30.2779 18.5080  -2 
   3  -6   3 30.2779 18.5080   1 
   4  -6   3 1208.96 48.8431  -2 
   4  -6   3 1208.96 48.8431   1 
   5  -6   3 1294.42 62.1819  -2 
   5  -6   3 1294.42 62.1819   1 
   6  -6   3 134.345 37.9773  -2 
   6  -6   3 134.345 37.9773   1 
   7  -6   3 319.143 49.2868  -2 
   7  -6   3 319.143 49.2868   1 
   8  -6   3 888.168 117.256  -2 
   8  -6   3 888.168 117.256   1 
   9  -6   2 151.485 62.7580  -2 
   9  -6   3 151.485 62.7580   1 
  10  -6   2 227.760 74.4162  -2 
  10  -6   3 227.760 74.4162   1 
 -11  -5   3 286.993 53.7807   1 
 -10  -5   3 524.403 58.8940   1 
  -9  -5   3 87.7743 30.2232   1 
  -8  -5   3 171.887 103.219  -2 
  -8  -5   3 171.887 103.219   1 
  -7  -5   3 533.254 62.0478   1 
  -6  -5   3 1285.28 81.9835  -2 
  -6  -5   3 1285.28 81.9835   1 
  -5  -5   3 -1.1056 29.0773  -2 
  -5  -5   3 -1.1056 29.0773   1 
  -4  -5   3 2913.32 83.4211  -2 
  -4  -5   3 2913.32 83.4211   1 
  -3  -5   3 1957.91 65.8289  -2 
  -3  -5   3 1957.91 65.8289   1 
  -2  -5   3 183.864 24.2106  -2 
  -2  -5   3 183.864 24.2106   1 
  -1  -5   3 1804.12 48.4503  -2 
  -1  -5   3 1804.12 48.4503   1 
   0  -5   3 416.366 36.2108  -2 
   0  -5   3 416.366 36.2108   1 
   1  -5   3 138.576 27.1084  -2 
   1  -5   3 138.576 27.1084   1 
   2  -5   3 393.327 27.2288  -2 
   2  -5   3 393.327 27.2288   1 
   3  -5   3 2821.10 66.7792  -2 
   3  -5   3 2821.10 66.7792   1 
   4  -5   3 330.057 34.8858  -2 
   4  -5   3 330.057 34.8858   1 
   5  -5   3 766.842 58.6276  -2 
   5  -5   3 766.842 58.6276   1 
   6  -5   3 992.894 58.3042  -2 
   6  -5   3 992.894 58.3042   1 
   7  -5   3 87.3070 38.3127  -2 
   7  -5   3 87.3070 38.3127   1 
   8  -5   3 71.7002 72.9817  -2 
   8  -5   3 71.7002 72.9817   1 
   9  -5   3 247.994 50.5084   1 
  10  -5   2 384.688 55.9005  -2 
  10  -5   3 384.688 55.9005   1 
  11  -5   2 31.4953 48.2480  -2 
  11  -5   3 31.4953 48.2480   1 
 -11  -4   3 -8.1670 25.5641   1 
 -10  -4   3 250.977 47.0768   1 
  -9  -4   3 475.154 51.8856   1 
  -8  -4   3 46.8812 92.7261  -2 
  -8  -4   3 46.8812 92.7261   1 
  -7  -4   3 699.802 63.8539   1 
  -6  -4   3 1596.28 84.7318  -2 
  -6  -4   3 1596.28 84.7318   1 
  -5  -4   3 16.5469 34.8848  -2 
  -5  -4   3 16.5469 34.8848   1 
  -4  -4   3 1478.54 58.9953  -2 
  -4  -4   3 1478.54 58.9953   1 
  -3  -4   5 2027.62 95.7744  -2 
  -3  -4   3 2027.62 95.7744  -2 
  -3  -4   3 2027.62 95.7744   1 
  -3  -4   3 1259.45 63.5120  -2 
  -3  -4   3 1259.45 63.5120   1 
  -2  -4   3 46.7303 21.4792  -2 
  -2  -4   3 46.7303 21.4792   1 
  -1  -4   3 651.090 39.6314  -2 
  -1  -4   3 651.090 39.6314   1 
   0  -4   3 1546.05 53.7556  -2 
   0  -4   3 1546.05 53.7556   1 
   1  -4   3 1570.51 52.2006  -2 
   1  -4   3 1570.51 52.2006   1 
   2  -4   3 600.584 64.9682  -2 
   2  -4   3 600.584 64.9682   1 
   3  -4   3 1157.21 43.3018  -2 
   3  -4   3 1157.21 43.3018   1 
   4  -4   3 87.3490 24.8678  -2 
   4  -4   3 87.3490 24.8678   1 
   5  -4   3 26.1948 27.3442  -2 
   5  -4   3 26.1948 27.3442   1 
   6  -4   3 516.040 44.1222  -2 
   6  -4   3 516.040 44.1222   1 
   7  -4   3 1875.44 75.8802  -2 
   7  -4   3 1875.44 75.8802   1 
   8  -4   3 178.742 42.8207  -2 
   8  -4   3 178.742 42.8207   1 
   9  -4   3 263.755 49.1217   1 
  10  -4   2 992.374 68.8651  -2 
  10  -4   3 992.374 68.8651   1 
  11  -4   2 96.7491 49.1735  -2 
  11  -4   3 96.7491 49.1735   1 
 -11  -3   3 465.059 58.2736   1 
 -10  -3   3 -2.1311 21.0982   1 
  -9  -3   3 660.726 56.5273   1 
  -8  -3   3 1005.32 123.094  -2 
  -8  -3   3 1005.32 123.094   1 
  -7  -3   3 17.4919 83.4514  -2 
  -7  -3   3 17.4919 83.4514   1 
  -6  -3   3 583.404 55.4311  -2 
  -6  -3   3 583.404 55.4311   1 
  -5  -3   3 2487.68 95.2308  -2 
  -5  -3   3 2487.68 95.2308   1 
  -4  -3   3 16.7845 29.0355  -2 
  -4  -3   3 16.7845 29.0355   1 
  -3  -3   3 1164.91 46.5289  -2 
  -3  -3   3 1164.91 46.5289   1 
  -2  -3   3 1889.43 89.8777  -2 
  -2  -3   3 1889.43 89.8777   1 
  -1  -3   3 757.007 52.2312  -2 
  -1  -3   3 757.007 52.2312   1 
   0  -3   3 263.605 19.3854  -2 
   0  -3   3 263.605 19.3854   1 
   1  -3   3 1448.88 45.2439  -2 
   1  -3   3 1448.88 45.2439   1 
   2  -3   3 2157.51 48.2069  -2 
   2  -3   3 2157.51 48.2069   1 
   3  -3   3 35.4620 17.7133  -2 
   3  -3   3 35.4620 17.7133   1 
   4  -3   3 2428.05 112.517  -2 
   4  -3   3 2428.05 112.517   1 
   5  -3   3 722.062 42.4544  -2 
   5  -3   3 722.062 42.4544   1 
   6  -3   3 154.141 31.3861  -2 
   6  -3   3 154.141 31.3861   1 
   7  -3   3 941.020 55.6424  -2 
   7  -3   3 941.020 55.6424   1 
   8  -3   3 1877.37 77.7086  -2 
   8  -3   3 1877.37 77.7086   1 
   9  -3   3 315.716 75.4201  -2 
   9  -3   3 315.716 75.4201   1 
  10  -3   2 364.495 50.2482  -2 
  10  -3   3 364.495 50.2482   1 
  11  -3   2 1196.60 75.1457  -2 
  11  -3   3 1196.60 75.1457   1 
  12  -3   2 74.4025 73.1663  -2 
  12  -3   3 74.4025 73.1663   1 
 -11  -2   3 386.851 66.5376   1 
 -10  -2   3 326.823 48.5053   1 
  -9  -2   3 137.588 30.8569   1 
  -8  -2   3 1081.10 62.3239   1 
  -7  -2   3 68.3169 75.8980  -2 
  -7  -2   3 68.3169 75.8980   1 
  -6  -2   3 0.02170 71.8926  -2 
  -6  -2   3 0.02170 71.8926   1 
  -5  -2   3 119.943 71.6506  -2 
  -5  -2   3 119.943 71.6506   1 
  -4  -2   3 525.175 45.5302  -2 
  -4  -2   3 525.175 45.5302   1 
  -3  -2   3 149.062 28.9180  -2 
  -3  -2   3 149.062 28.9180   1 
  -2  -2   3 1094.87 50.1554  -2 
  -2  -2   3 1094.87 50.1554   1 
  -1  -2   3 1995.35 45.2489   1 
   0  -2   3 85.9239 25.8459  -2 
   0  -2   3 85.9239 25.8459   1 
   1  -2   3 192.439 24.7879  -2 
   1  -2   3 192.439 24.7879   1 
   2  -2   3 805.930 61.2067  -2 
   2  -2   3 805.930 61.2067   1 
   3  -2   3 700.218 31.7202  -2 
   3  -2   3 700.218 31.7202   1 
   4  -2   3 539.451 32.4481  -2 
   4  -2   3 539.451 32.4481   1 
   5  -2   3 2820.09 70.2034  -2 
   5  -2   3 2820.09 70.2034   1 
   6  -2   3 1723.53 61.7679  -2 
   6  -2   3 1723.53 61.7679   1 
   7  -2   3 8.54294 28.9752  -2 
   7  -2   3 8.54294 28.9752   1 
   8  -2   3 1840.46 73.7453  -2 
   8  -2   3 1840.46 73.7453   1 
   9  -2   3 178.751 41.1217   1 
  10  -2   2 -8.2935 37.0223  -2 
  10  -2   3 -8.2935 37.0223   1 
  11  -2   2 510.787 57.0743  -2 
  11  -2   3 510.787 57.0743   1 
  12  -2   2 551.064 62.0807  -2 
  12  -2   3 551.064 62.0807   1 
 -11  -1   3 293.952 59.4295   1 
 -10  -1   3 664.604 59.0956   1 
  -9  -1   3 267.069 41.6635   1 
  -8  -1   3 2.16762 11.8362   1 
  -7  -1   3 1026.07 107.459  -2 
  -7  -1   3 1026.07 107.459   1 
  -6  -1   3 1548.85 111.061  -2 
  -6  -1   3 1548.85 111.061   1 
  -5  -1   3 183.950 62.4045  -2 
  -5  -1   3 183.950 62.4045   1 
  -4  -1   3 1946.00 57.9591  -2 
  -4  -1   3 1946.00 57.9591   1 
  -3  -1   3 3912.15 73.9765  -2 
  -3  -1   3 3912.15 73.9765   1 
  -2  -1   3 35.1130 17.9343  -2 
  -2  -1   3 35.1130 17.9343   1 
  -1  -1   3 60.6963 40.7608  -2 
  -1  -1   3 60.6963 40.7608   1 
   0  -1   3 2682.12 53.1034  -2 
   0  -1   3 2682.12 53.1034   1 
   1  -1   3 5192.99 73.3026  -2 
   1  -1   3 5192.99 73.3026   1 
   2  -1   3 3006.73 95.3959  -2 
   2  -1   3 3006.73 95.3959   1 
   3  -1   3 8284.14 93.6844  -2 
   3  -1   3 8284.14 93.6844   1 
   4  -1   3 2035.57 52.3114  -2 
   4  -1   3 2035.57 52.3114   1 
   5  -1   3 1350.76 48.3702  -2 
   5  -1   3 1350.76 48.3702   1 
   6  -1   3 2582.46 69.6909  -2 
   6  -1   3 2582.46 69.6909   1 
   7  -1   3 908.031 49.9444  -2 
   7  -1   3 908.031 49.9444   1 
   8  -1   3 -12.943 46.9118  -2 
   8  -1   3 -12.943 46.9118   1 
   9  -1   3 486.492 37.1748   1 
  10  -1   2 899.588 79.8909  -2 
  10  -1   3 899.588 79.8909   1 
  11  -1   2 5.89465 39.1122  -2 
  11  -1   3 5.89465 39.1122   1 
  12  -1   2 761.323 64.8709  -2 
  12  -1   3 761.323 64.8709   1 
 -10   0   3 144.209 42.2543   1 
  -9   0   3 266.816 31.0173   1 
  -8   0   3 114.308 81.1117  -2 
  -8   0   3 114.308 81.1117   1 
  -7   0   3 48.8944 71.4556  -2 
  -7   0   3 48.8944 71.4556   1 
  -6   0   3 734.246 91.0645  -2 
  -6   0   3 734.246 91.0645   1 
  -5   0   3 726.822 79.9344  -2 
  -5   0   3 726.822 79.9344   1 
  -4   0   3 99.0311 49.4636  -2 
  -4   0   3 99.0311 49.4636   1 
  -3   0   3 1517.82 47.1380  -2 
  -3   0   3 1517.82 47.1380   1 
  -2   0   3 2686.06 55.1330  -2 
  -2   0   3 2686.06 55.1330   1 
  -1   0   3 414.509 23.6706  -2 
  -1   0   3 414.509 23.6706   1 
   0   0   3 796.755 31.0194  -2 
   0   0   3 796.755 31.0194   1 
   1   0   3 1651.19 38.2183  -2 
   1   0   3 1651.19 38.2183   1 
   2   0   3 35.3383 13.3787  -2 
   2   0   3 35.3383 13.3787   1 
   3   0   3 2280.03 46.9835  -2 
   3   0   3 2280.03 46.9835   1 
   4   0   3 2783.83 58.1344  -2 
   4   0   3 2783.83 58.1344   1 
   5   0   3 366.656 28.5009  -2 
   5   0   3 366.656 28.5009   1 
   6   0   3 1004.00 44.8455  -2 
   6   0   3 1004.00 44.8455   1 
   7   0   3 1323.88 55.4180  -2 
   7   0   3 1323.88 55.4180   1 
   8   0   3 197.525 54.7898  -2 
   8   0   3 197.525 54.7898   1 
   9   0   3 33.5290 15.2867   1 
  10   0   2 526.398 65.3250  -2 
  10   0   3 526.398 65.3250   1 
  11   0   2 324.825 47.8135  -2 
  11   0   3 324.825 47.8135   1 
  12   0   2 -24.886 54.7234  -2 
  12   0   3 -24.886 54.7234   1 
  13   0   3 206.791 56.8375   1 
 -11   1   3 373.763 51.5301   1 
 -10   1   3 114.149 38.6611   1 
  -9   1   3 112.804 25.4075   1 
  -8   1   3 937.244 43.6742   1 
  -7   1   3 302.931 27.1431   1 
  -6   1   3 1277.93 101.051  -2 
  -6   1   3 1277.93 101.051   1 
  -5   1   3 3382.28 135.176  -2 
  -5   1   3 3382.28 135.176   1 
  -4   1   3 703.470 67.4758  -2 
  -4   1   3 703.470 67.4758   1 
  -3   1   3 115.775 41.3148  -2 
  -3   1   3 115.775 41.3148   1 
  -2   1   3 5010.23 72.3616  -2 
  -2   1   3 5010.23 72.3616   1 
  -1   1   3 2576.00 46.6275  -2 
  -1   1   3 2576.00 46.6275   1 
   0   1   3 143.735 14.8372  -2 
   0   1   3 143.735 14.8372   1 
   1   1   3 6219.84 70.9322  -2 
   1   1   3 6219.84 70.9322   1 
   2   1   3 4889.56 59.5446  -2 
   2   1   3 4889.56 59.5446   1 
   3   1   3 1389.30 37.4571  -2 
   3   1   3 1389.30 37.4571   1 
   4   1   3 1457.52 41.2362  -2 
   4   1   3 1457.52 41.2362   1 
   5   1   3 1570.45 47.5195  -2 
   5   1   3 1570.45 47.5195   1 
   6   1   3 365.691 30.2275  -2 
   6   1   3 365.691 30.2275   1 
   7   1   3 417.443 35.5228  -2 
   7   1   3 417.443 35.5228   1 
   8   1   3 2548.35 75.4032  -2 
   8   1   3 2548.35 75.4032   1 
   9   1   3 383.713 63.9644  -2 
   9   1   3 383.713 63.9644   1 
  10   1   3 84.3371 20.5456   1 
  11   1   2 734.395 80.2785  -2 
  11   1   3 734.395 80.2785   1 
  12   1   2 426.096 73.8704  -2 
  12   1   3 426.096 73.8704   1 
  13   1   2 12.7595 58.3412  -2 
  13   1   3 12.7595 58.3412   1 
 -11   2   3 232.605 41.9150   1 
 -10   2   3 475.778 46.3587   1 
  -9   2   3 5.51853 22.8809   1 
  -8   2   3 168.663 28.4324   1 
  -7   2   3 724.796 87.2051  -2 
  -7   2   3 724.796 87.2051   1 
  -6   2   3 431.492 72.8786  -2 
  -6   2   3 431.492 72.8786   1 
  -5   2   3 56.4320 52.5710  -2 
  -5   2   3 56.4320 52.5710   1 
  -4   2   3 3762.02 126.879  -2 
  -4   2   3 3762.02 126.879   1 
  -3   2   3 1234.94 42.2553  -2 
  -3   2   3 1234.94 42.2553   1 
  -2   2   3 3615.36 48.5802  -2 
  -2   2   3 3615.36 48.5802   1 
  -1   2   3 138.462 12.8180  -2 
  -1   2   3 138.462 12.8180   1 
   0   2   3 182.504 12.1058  -2 
   0   2   3 182.504 12.1058   1 
   1   2   3 1.39750 10.2186  -2 
   1   2   3 1.39750 10.2186   1 
   2   2   3 2294.80 35.1265  -2 
   2   2   3 2294.80 35.1265   1 
   3   2   3 744.720 28.2334  -2 
   3   2   3 744.720 28.2334   1 
   4   2   3 96.0579 29.0960  -2 
   4   2   3 96.0579 29.0960   1 
   5   2   3 1845.69 79.5354  -2 
   5   2   3 1845.69 79.5354   1 
   6   2   3 1869.70 54.7312  -2 
   6   2   3 1869.70 54.7312   1 
   7   2   3 23.9606 23.9673  -2 
   7   2   3 23.9606 23.9673   1 
   8   2   3 112.973 31.0362  -2 
   8   2   3 112.973 31.0362   1 
   9   2   3 287.443 51.2252  -2 
   9   2   3 287.443 51.2252   1 
  10   2   3 374.642 28.9022   1 
  11   2   2 160.684 60.1195  -2 
  11   2   3 160.684 60.1195   1 
  12   2   2 741.997 82.1208  -2 
  12   2   3 741.997 82.1208   1 
 -11   3   3 0.47623 19.8543   1 
 -10   3   3 719.695 54.3634   1 
  -9   3   3 595.165 47.5026   1 
  -8   3   3 4.91011 14.0636   1 
  -7   3   3 931.323 69.9969   1 
  -6   3   3 2263.45 116.823  -2 
  -6   3   3 2263.45 116.823   1 
  -5   3   3 417.063 38.0670  -2 
  -5   3   3 417.063 38.0670   1 
  -4   3   3 1348.58 50.5735  -2 
  -4   3   3 1348.58 50.5735   1 
  -3   3   3 1536.41 37.3656  -2 
  -3   3   3 1536.41 37.3656   1 
  -2   3   3 279.333 17.7665  -2 
  -2   3   3 279.333 17.7665   1 
  -1   3   3 1278.03 27.2963  -2 
  -1   3   3 1278.03 27.2963   1 
   0   3   3 2116.21 43.2167  -2 
   0   3   3 2116.21 43.2167   1 
   1   3   3 437.792 18.0720  -2 
   1   3   3 437.792 18.0720   1 
   2   3   3 555.326 19.9652  -2 
   2   3   3 555.326 19.9652   1 
   3   3   3 5585.58 61.8614  -2 
   3   3   3 5585.58 61.8614   1 
   4   3   3 2872.62 57.2573  -2 
   4   3   3 2872.62 57.2573   1 
   5   3   3 51.6056 19.5107  -2 
   5   3   3 51.6056 19.5107   1 
   6   3   3 1875.64 90.4343  -2 
   6   3   3 1875.64 90.4343   1 
   7   3   3 1626.25 62.0245  -2 
   7   3   3 1626.25 62.0245   1 
   8   3   3 260.441 28.9958  -2 
   8   3   3 260.441 28.9958   1 
   9   3   3 705.722 48.6986  -2 
   9   3   3 705.722 48.6986   1 
  10   3   3 1051.44 43.6471   1 
  11   3   3 42.5404 26.8337   1 
 -10   4   3 54.6477 24.1965   1 
  -9   4   3 345.259 41.0375   1 
  -8   4   3 391.631 38.8907   1 
  -7   4   3 5.97298 41.2638  -2 
  -7   4   3 5.97298 41.2638   1 
  -6   4   3 433.383 33.8132   1 
  -5   4   3 1155.87 53.8457  -2 
  -5   4   3 1155.87 53.8457   1 
  -4   4   3 89.6559 19.5984  -2 
  -4   4   3 89.6559 19.5984   1 
  -3   4   3 308.546 22.0531  -2 
  -3   4   3 308.546 22.0531   1 
  -2   4   3 960.045 28.8773  -2 
  -2   4   3 960.045 28.8773   1 
  -1   4   3 708.373 22.4329  -2 
  -1   4   3 708.373 22.4329   1 
   0   4   3 16.3297 7.39435  -2 
   0   4   3 16.3297 7.39435   1 
   1   4   3 2184.05 37.4228  -2 
   1   4   3 2184.05 37.4228   1 
   2   4   3 2952.84 44.4606  -2 
   2   4   3 2952.84 44.4606   1 
   3   4   3 87.1895 13.7952  -2 
   3   4   3 87.1895 13.7952   1 
   4   4   3 3999.96 58.2784  -2 
   4   4   3 3999.96 58.2784   1 
   5   4   3 1561.12 40.9456  -2 
   5   4   3 1561.12 40.9456   1 
   6   4   3 31.8351 18.0659  -2 
   6   4   3 31.8351 18.0659   1 
   7   4   3 733.172 36.6641  -2 
   7   4   3 733.172 36.6641   1 
   8   4   3 1659.77 70.9637  -2 
   8   4   3 1659.77 70.9637   1 
   9   4   3 -0.2510 34.0318  -2 
   9   4   3 -0.2510 34.0318   1 
  10   4   3 510.952 56.4080   1 
  11   4   3 790.158 88.4973   1 
 -10   5   3 123.681 31.2668   1 
  -9   5   3 139.104 31.3384   1 
  -8   5   3 849.695 53.7178   1 
  -7   5   3 76.8011 48.2512  -2 
  -7   5   3 76.8011 48.2512   1 
  -6   5   3 399.284 56.3351  -2 
  -6   5   3 399.284 56.3351   1 
  -5   5   3 127.808 27.9533  -2 
  -5   5   3 127.808 27.9533   1 
  -4   5   3 1463.84 43.5752  -2 
  -4   5   3 1463.84 43.5752   1 
  -3   5   3 16.0973 16.6097  -2 
  -3   5   3 16.0973 16.6097   1 
  -2   5   3 1758.06 39.3215  -2 
  -2   5   3 1758.06 39.3215   1 
  -1   5   3 3476.16 43.3940  -2 
  -1   5   3 3476.16 43.3940   1 
   0   5   3 306.390 14.6996  -2 
   0   5   3 306.390 14.6996   1 
   1   5   3 4258.95 55.8785  -2 
   1   5   3 4258.95 55.8785   1 
   2   5   3 2479.59 42.8556  -2 
   2   5   3 2479.59 42.8556   1 
   3   5   3 718.497 29.6568  -2 
   3   5   3 718.497 29.6568   1 
   4   5   3 14.0233 13.6946  -2 
   4   5   3 14.0233 13.6946   1 
   5   5   3 3597.88 60.9840  -2 
   5   5   3 3597.88 60.9840   1 
   6   5   3 1727.92 47.0220  -2 
   6   5   3 1727.92 47.0220   1 
   7   5   3 1004.25 41.7580  -2 
   7   5   3 1004.25 41.7580   1 
   8   5   3 3073.40 70.9394  -2 
   8   5   3 3073.40 70.9394   1 
   9   5   3 515.659 52.1430  -2 
   9   5   3 515.659 52.1430   1 
  10   5   3 7.33765 13.4925   1 
  11   5   3 351.598 69.7309   1 
 -10   6   3 290.500 52.4219   1 
  -9   6   3 128.538 30.8920   1 
  -8   6   3 15.9675 54.0865  -2 
  -8   6   3 15.9675 54.0865   1 
  -7   6   3 385.529 65.3154  -2 
  -7   6   3 385.529 65.3154   1 
  -6   6   3 792.510 50.9199  -2 
  -6   6   3 792.510 50.9199   1 
  -5   6   3 20.3408 25.8701  -2 
  -5   6   3 20.3408 25.8701   1 
  -4   6   3 1851.19 60.3392  -2 
  -4   6   3 1851.19 60.3392   1 
  -3   6   3 672.935 31.2884  -2 
  -3   6   3 672.935 31.2884   1 
  -2   6   3 8.12316 15.0526  -2 
  -2   6   3 8.12316 15.0526   1 
  -1   6   3 745.573 24.2062  -2 
  -1   6   3 745.573 24.2062   1 
   0   6   3 2753.65 40.2936  -2 
   0   6   3 2753.65 40.2936   1 
   1   6   3 299.393 14.2046  -2 
   1   6   3 299.393 14.2046   1 
   2   6   3 1254.26 33.0695  -2 
   2   6   3 1254.26 33.0695   1 
   3   6   3 2943.80 50.9010  -2 
   3   6   3 2943.80 50.9010   1 
   4   6   3 229.611 20.3915  -2 
   4   6   3 229.611 20.3915   1 
   5   6   3 1307.27 45.4842  -2 
   5   6   3 1307.27 45.4842   1 
   6   6   3 965.753 44.0626  -2 
   6   6   3 965.753 44.0626   1 
   7   6   3 87.7489 27.7437  -2 
   7   6   3 87.7489 27.7437   1 
   8   6   3 22.9382 49.8359  -2 
   8   6   3 22.9382 49.8359   1 
   9   6   3 986.672 101.211  -2 
   9   6   3 986.672 101.211   1 
  10   6   3 539.591 90.4556  -2 
  10   6   3 539.591 90.4556   1 
  11   6   3 -4.1237 20.8596   1 
  -9   7   3 330.501 47.1862   1 
  -8   7   3 58.2167 43.3274  -2 
  -8   7   3 58.2167 43.3274   1 
  -7   7   3 190.133 44.3389  -2 
  -7   7   3 190.133 44.3389   1 
  -6   7   3 1430.62 66.6382  -2 
  -6   7   3 1430.62 66.6382   1 
  -5   7   3 964.985 54.1926  -2 
  -5   7   3 964.985 54.1926   1 
  -4   7   3 114.711 29.9420  -2 
  -4   7   3 114.711 29.9420   1 
  -3   7   3 2346.24 55.1688  -2 
  -3   7   3 2346.24 55.1688   1 
  -2   7   3 503.636 24.7237  -2 
  -2   7   3 503.636 24.7237   1 
  -1   7   3 393.861 21.1398  -2 
  -1   7   3 393.861 21.1398   1 
   0   7   3 1993.41 37.9113  -2 
   0   7   3 1993.41 37.9113   1 
   1   7   3 1199.91 28.4664  -2 
   1   7   3 1199.91 28.4664   1 
   2   7   3 7.69712 7.00089  -2 
   2   7   3 7.69712 7.00089   1 
   3   7   3 2322.93 48.0500  -2 
   3   7   3 2322.93 48.0500   1 
   4   7   3 2030.23 46.5622  -2 
   4   7   3 2030.23 46.5622   1 
   5   7   3 160.739 15.8375  -2 
   5   7   3 160.739 15.8375   1 
   6   7   3 1375.03 44.8921  -2 
   6   7   3 1375.03 44.8921   1 
   7   7   3 1173.20 68.1160  -2 
   7   7   3 1173.20 68.1160   1 
   8   7   3 363.749 50.0938  -2 
   8   7   3 363.749 50.0938   1 
   9   7   3 81.0419 44.8629  -2 
   9   7   3 81.0419 44.8629   1 
  10   7   3 300.164 84.5278  -2 
  10   7   3 300.164 84.5278   1 
  11   7   3 337.162 53.1724   1 
  -8   8   3 1452.47 120.601  -2 
  -8   8   3 1452.47 120.601   1 
  -7   8   3 297.360 49.9227  -2 
  -7   8   3 297.360 49.9227   1 
  -6   8   3 650.554 55.4883  -2 
  -6   8   3 650.554 55.4883   1 
  -5   8   3 1399.42 65.5250  -2 
  -5   8   3 1399.42 65.5250   1 
  -4   8   3 792.558 50.1463  -2 
  -4   8   3 792.558 50.1463   1 
  -3   8   3 169.646 30.7600  -2 
  -3   8   3 169.646 30.7600   1 
  -2   8   3 1028.85 34.5980  -2 
  -2   8   3 1028.85 34.5980   1 
  -1   8   3 1337.41 36.5940  -2 
  -1   8   3 1337.41 36.5940   1 
   0   8   3 9.12302 12.8002  -2 
   0   8   3 9.12302 12.8002   1 
   1   8   3 2222.60 40.5934  -2 
   1   8   3 2222.60 40.5934   1 
   2   8   3 957.666 33.8836  -2 
   2   8   3 957.666 33.8836   1 
   3   8   3 304.957 20.9559  -2 
   3   8   3 304.957 20.9559   1 
   4   8   3 561.431 28.2175  -2 
   4   8   3 561.431 28.2175   1 
   5   8   3 1301.83 68.1522  -2 
   5   8   3 1301.83 68.1522   1 
   6   8   3 545.064 51.5311  -2 
   6   8   3 545.064 51.5311   1 
   7   8   3 345.514 49.6476  -2 
   7   8   3 345.514 49.6476   1 
   8   8   3 1070.98 73.4931  -2 
   8   8   3 1070.98 73.4931   1 
   9   8   3 458.353 61.1654  -2 
   9   8   3 458.353 61.1654   1 
  10   8   3 114.530 83.1220  -2 
  10   8   3 114.530 83.1220   1 
  11   8   3 340.101 77.0112   1 
  12   8   3 77.0588 54.3898   1 
  -8   9   3 463.094 74.2879   1 
  -7   9   3 226.031 73.4973  -2 
  -7   9   3 226.031 73.4973   1 
  -6   9   3 87.6021 42.1001  -2 
  -6   9   3 87.6021 42.1001   1 
  -5   9   3 533.105 52.5261  -2 
  -5   9   3 533.105 52.5261   1 
  -4   9   3 1010.10 57.9109  -2 
  -4   9   3 1010.10 57.9109   1 
  -3   9   3 63.5954 30.5411  -2 
  -3   9   3 63.5954 30.5411   1 
  -2   9   3 893.263 39.6294  -2 
  -2   9   3 893.263 39.6294   1 
  -1   9   3 1846.46 44.9997  -2 
  -1   9   3 1846.46 44.9997   1 
   0   9   3 6.53961 13.4178  -2 
   0   9   3 6.53961 13.4178   1 
   1   9   3 179.127 16.3135  -2 
   1   9   3 179.127 16.3135   1 
   2   9   3 491.159 27.6938  -2 
   2   9   3 491.159 27.6938   1 
   3   9   3 1276.66 42.6984  -2 
   3   9   3 1276.66 42.6984   1 
   4   9   3 -7.6999 27.3388  -2 
   4   9   3 -7.6999 27.3388   1 
   5   9   3 2011.31 86.2940  -2 
   5   9   3 2011.31 86.2940   1 
   6   9   3 1980.20 89.5618  -2 
   6   9   3 1980.20 89.5618   1 
   7   9   3 5.45918 41.4236  -2 
   7   9   3 5.45918 41.4236   1 
   8   9   3 571.157 66.9910  -2 
   8   9   3 571.157 66.9910   1 
   9   9   3 640.558 72.0252  -2 
   9   9   3 640.558 72.0252   1 
  10   9   3 176.127 61.8918  -2 
  10   9   3 176.127 61.8918   1 
  11   9   3 257.156 113.491  -2 
  11   9   3 257.156 113.491   1 
  12   9   3 881.934 116.787   1 
  -7  10   3 371.643 83.7246  -2 
  -7  10   3 371.643 83.7246   1 
  -6  10   3 499.262 82.2444  -2 
  -6  10   3 499.262 82.2444   1 
  -5  10   3 -2.9241 38.0281  -2 
  -5  10   3 -2.9241 38.0281   1 
  -4  10   3 289.013 43.8898  -2 
  -4  10   3 289.013 43.8898   1 
  -3  10   3 714.965 50.7879  -2 
  -3  10   3 714.965 50.7879   1 
  -2  10   3 218.829 34.0643  -2 
  -2  10   3 218.829 34.0643   1 
  -1  10   3 440.120 27.8116  -2 
  -1  10   3 440.120 27.8116   1 
   0  10   3 1335.62 40.0682  -2 
   0  10   3 1335.62 40.0682   1 
   1  10   3 214.690 24.1419  -2 
   1  10   3 214.690 24.1419   1 
   2  10   3 2.24472 14.4710  -2 
   2  10   3 2.24472 14.4710   1 
   3  10   3 1334.45 68.6263  -2 
   3  10   3 1334.45 68.6263   1 
   4  10   3 1270.62 72.3840  -2 
   4  10   3 1270.62 72.3840   1 
   5  10   3 39.5560 36.5491  -2 
   5  10   3 39.5560 36.5491   1 
   6  10   3 841.126 69.4629  -2 
   6  10   3 841.126 69.4629   1 
   7  10   3 1506.15 90.5605  -2 
   7  10   3 1506.15 90.5605   1 
   8  10   3 2.86015 52.1663  -2 
   8  10   3 2.86015 52.1663   1 
   9  10   3 695.004 81.5459  -2 
   9  10   3 695.004 81.5459   1 
  10  10   3 651.845 83.1694  -2 
  10  10   3 651.845 83.1694   1 
  11  10   3 126.362 68.3566  -2 
  11  10   3 126.362 68.3566   1 
  -5  11   3 435.657 80.9338  -2 
  -5  11   3 435.657 80.9338   1 
  -4  11   3 35.2050 37.7495  -2 
  -4  11   3 35.2050 37.7495   1 
  -3  11   3 601.602 50.5673  -2 
  -3  11   3 601.602 50.5673   1 
  -2  11   3 187.574 36.1650  -2 
  -2  11   3 187.574 36.1650   1 
  -1  11   3 69.9930 32.1920  -2 
  -1  11   3 69.9930 32.1920   1 
   0  11   3 196.325 29.0501  -2 
   0  11   3 196.325 29.0501   1 
   1  11   3 1313.47 49.8831  -2 
   1  11   3 1313.47 49.8831   1 
   2  11   3 331.704 42.8721  -2 
   2  11   3 331.704 42.8721   1 
   3  11   3 799.224 59.9131  -2 
   3  11   3 799.224 59.9131   1 
   4  11   3 1052.36 71.2808  -2 
   4  11   3 1052.36 71.2808   1 
   5  11   3 179.414 47.8683  -2 
   5  11   3 179.414 47.8683   1 
   6  11   3 201.775 54.1402  -2 
   6  11   3 201.775 54.1402   1 
   7  11   3 982.923 84.0576  -2 
   7  11   3 982.923 84.0576   1 
   8  11   3 401.100 72.9757  -2 
   8  11   3 401.100 72.9757   1 
   9  11   3 24.3991 63.5058  -2 
   9  11   3 24.3991 63.5058   1 
  10  11   3 662.876 116.711  -2 
  10  11   3 662.876 116.711   1 
  11  11   3 340.891 106.231  -2 
  11  11   3 340.891 106.231   1 
  -5  12   3 559.072 85.8610  -2 
  -5  12   3 559.072 85.8610   1 
  -4  12   3 780.108 86.6486  -2 
  -4  12   3 780.108 86.6486   1 
  -3  12   3 210.738 62.5254  -2 
  -3  12   3 210.738 62.5254   1 
  -2  12   3 807.460 79.0757  -2 
  -2  12   3 807.460 79.0757   1 
  -1  12   3 1705.96 75.9498  -2 
  -1  12   3 1705.96 75.9498   1 
   0  12   3 26.9538 31.7631  -2 
   0  12   3 26.9538 31.7631   1 
   1  12   3 994.447 67.8920  -2 
   1  12   3 994.447 67.8920   1 
   2  12   3 736.920 60.0935  -2 
   2  12   3 736.920 60.0935   1 
   3  12   3 95.9214 37.7678  -2 
   3  12   3 95.9214 37.7678   1 
   4  12   3 177.586 48.0356  -2 
   4  12   3 177.586 48.0356   1 
   5  12   3 1334.33 87.1094  -2 
   5  12   3 1334.33 87.1094   1 
   6  12   3 471.193 69.9473  -2 
   6  12   3 471.193 69.9473   1 
   7  12   3 327.295 70.4809  -2 
   7  12   3 327.295 70.4809   1 
   8  12   3 1041.74 97.4439  -2 
   8  12   3 1041.74 97.4439   1 
   9  12   3 253.485 79.3634  -2 
   9  12   3 253.485 79.3634   1 
  10  12   3 -17.941 90.3094  -2 
  10  12   3 -17.941 90.3094   1 
  -4  13   3 601.154 83.6008  -2 
  -4  13   3 601.154 83.6008   1 
  -3  13   3 552.578 79.1967  -2 
  -3  13   3 552.578 79.1967   1 
  -2  13   3 84.6954 55.6388  -2 
  -2  13   3 84.6954 55.6388   1 
  -1  13   3 720.198 76.1387  -2 
  -1  13   3 720.198 76.1387   1 
   0  13   3 675.990 92.0990  -2 
   0  13   3 675.990 92.0990   1 
   1  13   3 -13.803 51.6770  -2 
   1  13   3 -13.803 51.6770   1 
   2  13   3 588.900 59.9813  -2 
   2  13   3 588.900 59.9813   1 
   3  13   3 710.697 65.7826  -2 
   3  13   3 710.697 65.7826   1 
   4  13   3 -6.5679 38.7297  -2 
   4  13   3 -6.5679 38.7297   1 
   5  13   3 742.969 78.6177  -2 
   5  13   3 742.969 78.6177   1 
   6  13   3 668.691 80.6891  -2 
   6  13   3 668.691 80.6891   1 
   7  13   3 79.0344 64.3142  -2 
   7  13   3 79.0344 64.3142   1 
   8  13   3 126.321 72.6283  -2 
   8  13   3 126.321 72.6283   1 
   0  14   3 444.024 87.8170  -2 
   0  14   3 444.024 87.8170   1 
   1  14   3 425.305 84.9082  -2 
   1  14   3 425.305 84.9082   1 
   2  14   3 13.3117 58.5043  -2 
   2  14   3 13.3117 58.5043   1 
   3  14   3 516.842 63.1922  -2 
   3  14   3 516.842 63.1922   1 
   4  14   3 854.135 78.0164  -2 
   4  14   3 854.135 78.0164   1 
   5  14   3 65.1501 59.1979  -2 
   5  14   3 65.1501 59.1979   1 
   6  14   3 713.074 87.4471  -2 
   6  14   3 713.074 87.4471   1 
   7  14   3 414.702 83.7229  -2 
   7  14   3 414.702 83.7229   1 
   1  15   3 522.306 97.7559  -2 
   1  15   3 522.306 97.7559   1 
   2  15   3 56.4690 68.6772  -2 
   2  15   3 56.4690 68.6772   1 
   3  15   3 124.660 76.3818  -2 
   3  15   3 124.660 76.3818   1 
   4  15   3 179.717 56.4274  -2 
   4  15   3 179.717 56.4274   1 
   5  15   3 324.802 73.5149  -2 
   5  15   3 324.802 73.5149   1 
  -4 -12   4 434.589 82.9681  -2 
  -4 -12   4 434.589 82.9681   1 
  -3 -12   4 334.146 80.0852  -2 
  -3 -12   4 334.146 80.0852   1 
  -2 -12   4 28.6407 54.2296  -2 
  -2 -12   4 28.6407 54.2296   1 
  -1 -12   4 359.610 64.7472  -2 
  -1 -12   4 359.610 64.7472   1 
   0 -12   4 283.779 71.8415  -2 
   0 -12   4 283.779 71.8415   1 
   1 -12   4 -8.5997 58.6096  -2 
   1 -12   4 -8.5997 58.6096   1 
   2 -12   4 195.418 124.883  -2 
   2 -12   4 195.418 124.883   1 
  -6 -11   4 395.446 113.526  -2 
  -6 -11   4 395.446 113.526   1 
  -5 -11   4 81.4237 55.3488  -2 
  -5 -11   4 81.4237 55.3488   1 
  -4 -11   4 64.7231 51.9358  -2 
  -4 -11   4 64.7231 51.9358   1 
  -3 -11   4 438.127 77.6038  -2 
  -3 -11   4 438.127 77.6038   1 
  -2 -11   4 301.144 59.9765  -2 
  -2 -11   4 301.144 59.9765   1 
  -1 -11   4 57.2013 51.9264  -2 
  -1 -11   4 57.2013 51.9264   1 
   0 -11   4 475.243 63.2080  -2 
   0 -11   4 475.243 63.2080   1 
   1 -11   4 490.648 76.9852  -2 
   1 -11   4 490.648 76.9852   1 
   2 -11   4 30.1019 47.1020  -2 
   2 -11   4 30.1019 47.1020   1 
   3 -11   4 237.768 56.3477  -2 
   3 -11   4 237.768 56.3477   1 
   4 -11   4 410.444 64.3999  -2 
   4 -11   4 410.444 64.3999   1 
   5 -11   4 98.3585 116.809  -2 
   5 -11   4 98.3585 116.809   1 
  -7 -10   4 160.445 50.1681   1 
  -6 -10   4 15.8018 50.4659  -2 
  -6 -10   4 15.8018 50.4659   1 
  -5 -10   4 931.486 76.8199  -2 
  -5 -10   4 931.486 76.8199   1 
  -4 -10   4 175.279 51.8583  -2 
  -4 -10   4 175.279 51.8583   1 
  -3 -10   4 76.0792 41.5767  -2 
  -3 -10   4 76.0792 41.5767   1 
  -2 -10   4 334.972 71.0207  -2 
  -2 -10   4 334.972 71.0207   1 
  -1 -10   4 493.147 61.7849  -2 
  -1 -10   4 493.147 61.7849   1 
   0 -10   4 196.386 51.0800  -2 
   0 -10   4 196.386 51.0800   1 
   1 -10   4 424.512 62.0095  -2 
   1 -10   4 424.512 62.0095   1 
   2 -10   4 1656.59 108.503  -2 
   2 -10   4 1656.59 108.503   1 
   3 -10   4 209.312 50.6494  -2 
   3 -10   4 209.312 50.6494   1 
   4 -10   4 607.999 134.377  -2 
   4 -10   4 607.999 134.377   1 
   5 -10   4 636.659 68.3259  -2 
   5 -10   4 636.659 68.3259   1 
   6 -10   4 77.6113 110.138  -2 
   6 -10   4 77.6113 110.138   1 
  -8  -9   4 221.705 45.3955   1 
  -7  -9   4 240.498 61.1639   1 
  -6  -9   4 30.8669 58.3148  -2 
  -6  -9   4 30.8669 58.3148   1 
  -5  -9   4 163.001 60.6360  -2 
  -5  -9   4 163.001 60.6360   1 
  -4  -9   4 207.276 48.3431  -2 
  -4  -9   4 207.276 48.3431   1 
  -3  -9   4 420.451 47.3388  -2 
  -3  -9   4 420.451 47.3388   1 
  -2  -9   4 0.94127 35.2614  -2 
  -2  -9   4 0.94127 35.2614   1 
  -1  -9   4 1407.01 77.6162  -2 
  -1  -9   4 1407.01 77.6162   1 
   0  -9   4 645.448 59.1003  -2 
   0  -9   4 645.448 59.1003   1 
   1  -9   4 98.6977 42.7607  -2 
   1  -9   4 98.6977 42.7607   1 
   2  -9   4 541.388 58.0294  -2 
   2  -9   4 541.388 58.0294   1 
   3  -9   4 421.255 108.835  -2 
   3  -9   4 421.255 108.835   1 
   4  -9   4 17.2718 95.1621  -2 
   4  -9   4 17.2718 95.1621   1 
   5  -9   4 910.481 144.051  -2 
   5  -9   4 910.481 144.051   1 
   6  -9   4 1005.80 147.459  -2 
   6  -9   4 1005.80 147.459   1 
   7  -9   4 47.5291 105.433  -2 
   7  -9   4 47.5291 105.433   1 
  -9  -8   4 150.094 44.9276   1 
  -8  -8   4 54.3993 64.2541  -2 
  -8  -8   4 54.3993 64.2541   1 
  -7  -8   4 479.345 71.4957   1 
  -6  -8   4 757.325 82.5430  -2 
  -6  -8   4 757.325 82.5430   1 
  -5  -8   4 48.5536 41.8725  -2 
  -5  -8   4 48.5536 41.8725   1 
  -4  -8   4 225.469 45.4041  -2 
  -4  -8   4 225.469 45.4041   1 
  -3  -8   4 1649.16 66.6947  -2 
  -3  -8   4 1649.16 66.6947   1 
  -2  -8   4 628.062 47.4848  -2 
  -2  -8   4 628.062 47.4848   1 
  -1  -8   4 80.5792 32.8216  -2 
  -1  -8   4 80.5792 32.8216   1 
   0  -8   4 1732.82 77.6764  -2 
   0  -8   4 1732.82 77.6764   1 
   1  -8   4 745.627 57.1913  -2 
   1  -8   4 745.627 57.1913   1 
   2  -8   4 497.883 94.8334  -2 
   2  -8   4 497.883 94.8334   1 
   3  -8   4 1242.99 131.723  -2 
   3  -8   4 1242.99 131.723   1 
   4  -8   4 822.710 125.127  -2 
   4  -8   4 822.710 125.127   1 
   5  -8   4 2.41346 84.7391  -2 
   5  -8   4 2.41346 84.7391   1 
   6  -8   4 784.387 131.360  -2 
   6  -8   4 784.387 131.360   1 
   7  -8   4 1110.83 148.805  -2 
   7  -8   4 1110.83 148.805   1 
   8  -8   4 85.2966 63.2537  -2 
   8  -8   4 85.2966 63.2537   1 
   9  -8   4 121.399 53.8954   1 
  -9  -7   4 211.584 47.9924   1 
  -8  -7   4 210.095 43.6528   1 
  -7  -7   4 23.9705 54.3317  -2 
  -7  -7   4 23.9705 54.3317   1 
  -6  -7   4 232.089 60.1251  -2 
  -6  -7   4 232.089 60.1251   1 
  -5  -7   4 1039.92 85.6294  -2 
  -5  -7   4 1039.92 85.6294   1 
  -4  -7   4 12.6562 31.1467  -2 
  -4  -7   4 12.6562 31.1467   1 
  -3  -7   4 1102.83 53.3734  -2 
  -3  -7   4 1102.83 53.3734   1 
  -2  -7   4 984.041 49.9123  -2 
  -2  -7   4 984.041 49.9123   1 
  -1  -7   4 6.49105 27.0558  -2 
  -1  -7   4 6.49105 27.0558   1 
   0  -7   4 411.984 36.7412  -2 
   0  -7   4 411.984 36.7412   1 
   1  -7   4 787.018 93.6996  -2 
   1  -7   4 787.018 93.6996   1 
   2  -7   4 25.1285 61.9328  -2 
   2  -7   4 25.1285 61.9328   1 
   3  -7   4 336.108 84.6587  -2 
   3  -7   4 336.108 84.6587   1 
   4  -7   4 1292.66 132.903  -2 
   4  -7   4 1292.66 132.903   1 
   5  -7   4 522.815 48.5376  -2 
   5  -7   4 522.815 48.5376   1 
   6  -7   4 162.566 49.5186  -2 
   6  -7   4 162.566 49.5186   1 
   7  -7   4 241.469 50.5721  -2 
   7  -7   4 241.469 50.5721   1 
   8  -7   4 103.463 51.6060  -2 
   8  -7   4 103.463 51.6060   1 
   9  -7   3 58.9049 60.6837  -2 
   9  -7   4 58.9049 60.6837   1 
 -10  -6   4 244.741 50.8400   1 
  -9  -6   4 8.50024 24.9186   1 
  -8  -6   4 727.126 65.2702   1 
  -7  -6   4 1237.73 95.2012  -2 
  -7  -6   4 1237.73 95.2012   1 
  -6  -6   4 67.2667 48.9832  -2 
  -6  -6   4 67.2667 48.9832   1 
  -5  -6   4 1833.84 99.4314  -2 
  -5  -6   4 1833.84 99.4314   1 
  -4  -6   4 524.230 50.0835  -2 
  -4  -6   4 524.230 50.0835   1 
  -3  -6   4 -8.3882 25.4536  -2 
  -3  -6   4 -8.3882 25.4536   1 
  -2  -6   4 609.764 39.6717  -2 
  -2  -6   4 609.764 39.6717   1 
  -1  -6   4 1490.94 53.0239  -2 
  -1  -6   4 1490.94 53.0239   1 
   0  -6   4 248.615 40.1089  -2 
   0  -6   4 248.615 40.1089   1 
   1  -6   4 1738.16 70.3342  -2 
   1  -6   4 1738.16 70.3342   1 
   2  -6   4 2848.50 149.652  -2 
   2  -6   4 2848.50 149.652   1 
   3  -6   4 307.044 75.8566  -2 
   3  -6   4 307.044 75.8566   1 
   4  -6   4 375.352 88.5756  -2 
   4  -6   4 375.352 88.5756   1 
   5  -6   4 744.139 106.217  -2 
   5  -6   4 744.139 106.217   1 
   6  -6   4 438.681 48.3532  -2 
   6  -6   4 438.681 48.3532   1 
   7  -6   4 86.0254 41.6373  -2 
   7  -6   4 86.0254 41.6373   1 
   8  -6   4 938.851 72.1661  -2 
   8  -6   4 938.851 72.1661   1 
   9  -6   3 487.515 73.3995  -2 
   9  -6   4 487.515 73.3995   1 
  10  -6   3 137.144 64.6838  -2 
  10  -6   4 137.144 64.6838   1 
 -10  -5   4 403.935 56.9627   1 
  -9  -5   4 133.359 35.2335   1 
  -8  -5   4 27.8474 25.0902   1 
  -7  -5   4 1006.90 70.4773  -2 
  -7  -5   4 1006.90 70.4773   1 
  -6  -5   4 226.461 55.0997  -2 
  -6  -5   4 226.461 55.0997   1 
  -5  -5   4 4.73765 38.9938  -2 
  -5  -5   4 4.73765 38.9938   1 
  -4  -5   4 643.848 61.3602  -2 
  -4  -5   4 643.848 61.3602   1 
  -3  -5   4 429.481 34.3427  -2 
  -3  -5   4 429.481 34.3427   1 
  -2  -5   4 50.8719 23.9691  -2 
  -2  -5   4 50.8719 23.9691   1 
  -1  -5   4 453.647 32.1947  -2 
  -1  -5   4 453.647 32.1947   1 
   0  -5   4 556.979 43.6247  -2 
   0  -5   4 556.979 43.6247   1 
   1  -5   4 196.089 55.6546  -2 
   1  -5   4 196.089 55.6546   1 
   2  -5   4 499.114 74.7037  -2 
   2  -5   4 499.114 74.7037   1 
   3  -5   4 1763.03 121.789  -2 
   3  -5   4 1763.03 121.789   1 
   4  -5   4 478.366 38.6989  -2 
   4  -5   4 478.366 38.6989   1 
   5  -5   4 136.762 32.2520  -2 
   5  -5   4 136.762 32.2520   1 
   6  -5   4 790.123 54.6977  -2 
   6  -5   4 790.123 54.6977   1 
   7  -5   4 324.652 46.9793  -2 
   7  -5   4 324.652 46.9793   1 
   8  -5   4 39.0797 43.8413  -2 
   8  -5   4 39.0797 43.8413   1 
   9  -5   4 446.273 99.0223  -2 
   9  -5   4 446.273 99.0223   1 
  10  -5   3 469.445 76.9467  -2 
  10  -5   4 469.445 76.9467   1 
  11  -5   3 33.0636 64.6188  -2 
  11  -5   4 33.0636 64.6188   1 
 -10  -4   4 311.424 54.1238   1 
  -9  -4   4 763.300 64.0396   1 
  -8  -4   4 0.03019 20.8470   1 
  -7  -4   4 909.521 120.689  -2 
  -7  -4   4 909.521 120.689   1 
  -6  -4   4 733.197 56.6246  -2 
  -6  -4   4 733.197 56.6246   1 
  -5  -4   4 365.267 52.6042  -2 
  -5  -4   4 365.267 52.6042   1 
  -4  -4   4 231.826 45.2316  -2 
  -4  -4   4 231.826 45.2316   1 
  -3  -4   4 1128.79 68.4573  -2 
  -3  -4   4 1128.79 68.4573   1 
  -2  -4   4 1303.61 48.8728   1 
  -1  -4   4 57.4086 36.0077  -2 
  -1  -4   4 57.4086 36.0077   1 
   0  -4   4 2485.43 105.191  -2 
   0  -4   4 2485.43 105.191   1 
   1  -4   4 1474.69 89.9889  -2 
   1  -4   4 1474.69 89.9889   1 
   2  -4   4 72.8713 29.4492  -2 
   2  -4   4 72.8713 29.4492   1 
   3  -4   4 659.772 80.7768  -2 
   3  -4   4 659.772 80.7768   1 
   4  -4   4 3605.33 161.426  -2 
   4  -4   4 3605.33 161.426   1 
   5  -4   4 782.541 47.8427  -2 
   5  -4   4 782.541 47.8427   1 
   6  -4   4 1529.37 67.3638  -2 
   6  -4   4 1529.37 67.3638   1 
   7  -4   4 2815.22 92.3927  -2 
   7  -4   4 2815.22 92.3927   1 
   8  -4   4 345.037 62.0799  -2 
   8  -4   4 345.037 62.0799   1 
   9  -4   4 303.967 89.9339  -2 
   9  -4   4 303.967 89.9339   1 
  10  -4   3 936.609 65.3351  -2 
  10  -4   4 936.609 65.3351   1 
  11  -4   3 340.067 53.3952  -2 
  11  -4   4 340.067 53.3952   1 
 -10  -3   4 3.98037 24.5409   1 
  -9  -3   4 46.1655 26.0774   1 
  -8  -3   4 211.664 101.551  -2 
  -8  -3   4 211.664 101.551   1 
  -7  -3   4 385.637 97.6069  -2 
  -7  -3   4 385.637 97.6069   1 
  -6  -3   4 140.327 79.4007  -2 
  -6  -3   4 140.327 79.4007   1 
  -5  -3   4 1811.39 71.8078  -2 
  -5  -3   4 1811.39 71.8078   1 
  -4  -3   4 69.2826 35.4247  -2 
  -4  -3   4 69.2826 35.4247   1 
  -3  -3   4 287.825 41.1973  -2 
  -3  -3   4 287.825 41.1973   1 
  -2  -3   4 264.525 23.4754   1 
  -1  -3   4 926.930 60.2876  -2 
  -1  -3   4 926.930 60.2876   1 
   0  -3   4 24.1148 30.5141  -2 
   0  -3   4 24.1148 30.5141   1 
   1  -3   4 497.317 37.6316  -2 
   1  -3   4 497.317 37.6316   1 
   2  -3   4 1841.53 52.9502  -2 
   2  -3   4 1841.53 52.9502   1 
   3  -3   4 186.424 54.8028  -2 
   3  -3   4 186.424 54.8028   1 
   4  -3   4 3418.09 75.8597  -2 
   4  -3   4 3418.09 75.8597   1 
   5  -3   4 827.418 46.7910  -2 
   5  -3   4 827.418 46.7910   1 
   6  -3   4 0.40445 28.5897  -2 
   6  -3   4 0.40445 28.5897   1 
   7  -3   4 150.163 38.1697  -2 
   7  -3   4 150.163 38.1697   1 
   8  -3   4 1163.63 66.5464  -2 
   8  -3   4 1163.63 66.5464   1 
   9  -3   4 148.901 74.2592  -2 
   9  -3   4 148.901 74.2592   1 
  10  -3   3 198.902 44.8516  -2 
  10  -3   4 198.902 44.8516   1 
  11  -3   3 896.890 66.5482  -2 
  11  -3   4 896.890 66.5482   1 
  12  -3   3 77.6974 70.0819  -2 
  12  -3   4 77.6974 70.0819   1 
 -11  -2   4 409.770 70.9251   1 
 -10  -2   4 190.237 41.6205   1 
  -9  -2   4 17.8481 22.9355   1 
  -8  -2   4 484.722 49.7137   1 
  -7  -2   4 1070.97 120.693  -2 
  -7  -2   4 1070.97 120.693   1 
  -6  -2   4 19.9631 68.4213  -2 
  -6  -2   4 19.9631 68.4213   1 
  -5  -2   4 465.333 82.4207  -2 
  -5  -2   4 465.333 82.4207   1 
  -4  -2   4 2298.31 70.8958  -2 
  -4  -2   4 2298.31 70.8958   1 
  -3  -2   4 255.098 31.8209  -2 
  -3  -2   4 255.098 31.8209   1 
  -2  -2   4 747.085 40.0848  -2 
  -2  -2   4 747.085 40.0848   1 
  -1  -2   4 4313.57 128.711  -2 
  -1  -2   4 4313.57 128.711   1 
   0  -2   4 770.902 39.8680  -2 
   0  -2   4 770.902 39.8680   1 
   1  -2   4 2225.37 59.2194  -2 
   1  -2   4 2225.37 59.2194   1 
   2  -2   4 6287.47 162.888  -2 
   2  -2   4 6287.47 162.888   1 
   3  -2   4 1346.32 84.5767  -2 
   3  -2   4 1346.32 84.5767   1 
   4  -2   4 364.748 30.4252  -2 
   4  -2   4 364.748 30.4252   1 
   5  -2   4 1981.06 62.3442  -2 
   5  -2   4 1981.06 62.3442   1 
   6  -2   4 1334.49 57.7547  -2 
   6  -2   4 1334.49 57.7547   1 
   7  -2   4 -2.1340 29.6892  -2 
   7  -2   4 -2.1340 29.6892   1 
   8  -2   4 1491.65 71.0119  -2 
   8  -2   4 1491.65 71.0119   1 
   9  -2   4 671.789 56.9209  -2 
   9  -2   4 671.789 56.9209   1 
  10  -2   3 16.8181 50.8046  -2 
  10  -2   4 16.8181 50.8046   1 
  11  -2   3 286.525 49.1253  -2 
  11  -2   4 286.525 49.1253   1 
  12  -2   3 469.115 59.1036  -2 
  12  -2   4 469.115 59.1036   1 
 -11  -1   4 19.9124 32.5218   1 
 -10  -1   4 280.639 49.3634   1 
  -9  -1   4 701.867 59.5781   1 
  -8  -1   4 65.0142 25.0486   1 
  -7  -1   4 454.060 33.6249   1 
  -6  -1   4 1723.89 126.187  -2 
  -6  -1   4 1723.89 126.187   1 
  -5  -1   4 341.701 76.6553  -2 
  -5  -1   4 341.701 76.6553   1 
  -4  -1   4 664.682 42.7923  -2 
  -4  -1   4 664.682 42.7923   1 
  -3  -1   4 1500.17 52.4773  -2 
  -3  -1   4 1500.17 52.4773   1 
  -2  -1   4 1023.22 41.3118  -2 
  -2  -1   4 1023.22 41.3118   1 
  -1  -1   4 542.082 56.6227  -2 
  -1  -1   4 542.082 56.6227   1 
   0  -1   4 3658.29 70.2956  -2 
   0  -1   4 3658.29 70.2956   1 
   1  -1   4 968.764 40.7814  -2 
   1  -1   4 968.764 40.7814   1 
   2  -1   4 2420.59 93.8705  -2 
   2  -1   4 2420.59 93.8705   1 
   3  -1   4 2631.35 102.901  -2 
   3  -1   4 2631.35 102.901   1 
   4  -1   4 1244.69 44.3446  -2 
   4  -1   4 1244.69 44.3446   1 
   5  -1   4 29.8331 21.7750  -2 
   5  -1   4 29.8331 21.7750   1 
   6  -1   4 346.071 35.3918  -2 
   6  -1   4 346.071 35.3918   1 
   7  -1   4 827.455 50.2187  -2 
   7  -1   4 827.455 50.2187   1 
   8  -1   4 198.786 38.4758  -2 
   8  -1   4 198.786 38.4758   1 
   9  -1   4 553.116 66.3205  -2 
   9  -1   4 553.116 66.3205   1 
  10  -1   3 897.375 81.0288  -2 
  10  -1   4 897.375 81.0288   1 
  11  -1   3 -1.5663 37.9416  -2 
  11  -1   4 -1.5663 37.9416   1 
  12  -1   3 265.327 67.3454  -2 
  12  -1   4 265.327 67.3454   1 
 -11   0   4 252.167 58.7922   1 
 -10   0   4 236.651 56.3887   1 
  -9   0   4 654.250 57.3474   1 
  -8   0   4 54.5569 17.6151   1 
  -7   0   4 64.0984 76.3442  -2 
  -7   0   4 64.0984 76.3442   1 
  -6   0   4 1473.93 117.039  -2 
  -6   0   4 1473.93 117.039   1 
  -5   0   4 1866.41 119.835  -2 
  -5   0   4 1866.41 119.835   1 
  -4   0   4 0.74375 53.3190  -2 
  -4   0   4 0.74375 53.3190   1 
  -3   0   4 3055.76 123.369  -2 
  -3   0   4 3055.76 123.369   1 
  -2   0   4 2770.68 61.3774  -2 
  -2   0   4 2770.68 61.3774   1 
  -1   0   4 1053.96 68.1733  -2 
  -1   0   4 1053.96 68.1733   1 
   0   0   4 5528.96 81.9021  -2 
   0   0   4 5528.96 81.9021   1 
   1   0   4 575.890 39.1557  -2 
   1   0   4 575.890 39.1557   1 
   2   0   4 1745.60 73.6785  -2 
   2   0   4 1745.60 73.6785   1 
   3   0   4 320.837 40.2371  -2 
   3   0   4 320.837 40.2371   1 
   4   0   4 6026.17 148.052  -2 
   4   0   4 6026.17 148.052   1 
   5   0   4 379.366 29.9293  -2 
   5   0   4 379.366 29.9293   1 
   6   0   4 983.354 47.1522  -2 
   6   0   4 983.354 47.1522   1 
   7   0   4 1452.50 59.6360  -2 
   7   0   4 1452.50 59.6360   1 
   8   0   4 822.102 51.7725  -2 
   8   0   4 822.102 51.7725   1 
   9   0   4 -6.4385 41.4934  -2 
   9   0   4 -6.4385 41.4934   1 
  10   0   3 506.184 67.9704  -2 
  10   0   4 506.184 67.9704   1 
  11   0   3 518.569 71.1963  -2 
  11   0   4 518.569 71.1963   1 
  12   0   3 -7.2234 53.3339  -2 
  12   0   4 -7.2234 53.3339   1 
 -11   1   4 292.036 65.7916   1 
 -10   1   4 127.675 42.7962   1 
  -9   1   4 14.9576 17.1034   1 
  -8   1   4 845.063 44.3806   1 
  -7   1   4 869.080 102.049  -2 
  -7   1   4 869.080 102.049   1 
  -6   1   4 476.810 83.7914  -2 
  -6   1   4 476.810 83.7914   1 
  -5   1   4 1413.41 103.686  -2 
  -5   1   4 1413.41 103.686   1 
  -4   1   4 571.517 71.0035  -2 
  -4   1   4 571.517 71.0035   1 
  -3   1   4 13.2089 43.3240  -2 
  -3   1   4 13.2089 43.3240   1 
  -2   1   4 1033.97 38.9655  -2 
  -2   1   4 1033.97 38.9655   1 
  -1   1   4 1680.04 43.6509  -2 
  -1   1   4 1680.04 43.6509   1 
   0   1   4 432.945 23.5791  -2 
   0   1   4 432.945 23.5791   1 
   1   1   4 101.178 18.6686  -2 
   1   1   4 101.178 18.6686   1 
   2   1   4 6746.74 125.602  -2 
   2   1   4 6746.74 125.602   1 
   3   1   4 413.060 24.6581  -2 
   3   1   4 413.060 24.6581   1 
   4   1   4 136.147 21.9047  -2 
   4   1   4 136.147 21.9047   1 
   5   1   4 1485.64 79.0588  -2 
   5   1   4 1485.64 79.0588   1 
   6   1   4 1578.94 53.6229  -2 
   6   1   4 1578.94 53.6229   1 
   7   1   4 8.28085 25.7504  -2 
   7   1   4 8.28085 25.7504   1 
   8   1   4 1537.89 63.0797  -2 
   8   1   4 1537.89 63.0797   1 
   9   1   4 2092.34 76.8777  -2 
   9   1   4 2092.34 76.8777   1 
  10   1   4 -4.0563 11.7847   1 
  11   1   3 906.427 84.5970  -2 
  11   1   4 906.427 84.5970   1 
  12   1   3 534.107 75.5062  -2 
  12   1   4 534.107 75.5062   1 
 -10   2   4 324.806 42.7031   1 
  -9   2   4 17.6282 27.5280   1 
  -8   2   4 255.335 33.6990   1 
  -7   2   4 905.359 99.5916  -2 
  -7   2   4 905.359 99.5916   1 
  -6   2   4 302.209 71.9727  -2 
  -6   2   4 302.209 71.9727   1 
  -5   2   4 773.336 84.1683  -2 
  -5   2   4 773.336 84.1683   1 
  -4   2   4 659.937 75.0808  -2 
  -4   2   4 659.937 75.0808   1 
  -3   2   4 15.1646 19.6799  -2 
  -3   2   4 15.1646 19.6799   1 
  -2   2   4 637.001 32.7063  -2 
  -2   2   4 637.001 32.7063   1 
  -1   2   4 1687.07 43.6202  -2 
  -1   2   4 1687.07 43.6202   1 
   0   2   4 804.965 27.4482  -2 
   0   2   4 804.965 27.4482   1 
   1   2   4 276.052 14.0574  -2 
   1   2   4 276.052 14.0574   1 
   2   2   4 2565.64 40.1269  -2 
   2   2   4 2565.64 40.1269   1 
   3   2   4 1467.46 39.9497  -2 
   3   2   4 1467.46 39.9497   1 
   4   2   4 4.23248 16.7704  -2 
   4   2   4 4.23248 16.7704   1 
   5   2   4 1635.16 50.7797  -2 
   5   2   4 1635.16 50.7797   1 
   6   2   4 2275.24 99.2720  -2 
   6   2   4 2275.24 99.2720   1 
   7   2   4 164.514 47.8346  -2 
   7   2   4 164.514 47.8346   1 
   8   2   4 222.214 34.9046  -2 
   8   2   4 222.214 34.9046   1 
   9   2   4 1326.00 80.9811  -2 
   9   2   4 1326.00 80.9811   1 
  10   2   4 311.032 32.7717   1 
  11   2   3 382.107 67.9600  -2 
  11   2   4 382.107 67.9600   1 
 -10   3   4 435.050 47.8400   1 
  -9   3   4 772.270 54.6497   1 
  -8   3   4 79.9644 33.8492   1 
  -7   3   4 199.067 29.5800   1 
  -6   3   4 1164.39 61.7687  -2 
  -6   3   4 1164.39 61.7687   1 
  -5   3   4 483.753 75.0580  -2 
  -5   3   4 483.753 75.0580   1 
  -4   3   4 1.55653 24.0720  -2 
  -4   3   4 1.55653 24.0720   1 
  -3   3   4 1253.87 36.9677  -2 
  -3   3   4 1253.87 36.9677   1 
  -2   3   4 3113.00 50.0431  -2 
  -2   3   4 3113.00 50.0431   1 
  -1   3   4 110.972 13.6622  -2 
  -1   3   4 110.972 13.6622   1 
   0   3   4 5847.23 57.2364  -2 
   0   3   4 5847.23 57.2364   1 
   1   3   4 1126.11 27.9955  -2 
   1   3   4 1126.11 27.9955   1 
   2   3   4 500.595 21.2772  -2 
   2   3   4 500.595 21.2772   1 
   3   3   4 3060.84 47.9330  -2 
   3   3   4 3060.84 47.9330   1 
   4   3   4 5488.97 80.5689  -2 
   4   3   4 5488.97 80.5689   1 
   5   3   4 823.226 38.6971  -2 
   5   3   4 823.226 38.6971   1 
   6   3   4 1019.87 45.4883  -2 
   6   3   4 1019.87 45.4883   1 
   7   3   4 3010.01 121.133  -2 
   7   3   4 3010.01 121.133   1 
   8   3   4 103.107 51.2330  -2 
   8   3   4 103.107 51.2330   1 
   9   3   4 471.763 71.1406  -2 
   9   3   4 471.763 71.1406   1 
  13   3   3 464.206 81.6676  -2 
  13   3   4 464.206 81.6676   1 
 -10   4   4 68.5269 26.3340   1 
  -9   4   4 118.329 29.3156   1 
  -8   4   4 296.893 37.5154   1 
  -7   4   4 120.198 24.7077   1 
  -6   4   4 141.078 37.7331  -2 
  -6   4   4 141.078 37.7331   1 
  -5   4   4 1177.98 58.3811  -2 
  -5   4   4 1177.98 58.3811   1 
  -4   4   4 423.233 38.3811  -2 
  -4   4   4 423.233 38.3811   1 
  -3   4   4 1751.14 57.6489  -2 
  -3   4   4 1751.14 57.6489   1 
  -2   4   4 1677.22 51.2816  -2 
  -2   4   4 1677.22 51.2816   1 
  -1   4   4 43.1850 17.6973  -2 
  -1   4   4 43.1850 17.6973   1 
   0   4   4 104.671 17.3223  -2 
   0   4   4 104.671 17.3223   1 
   1   4   4 2180.97 39.8761  -2 
   1   4   4 2180.97 39.8761   1 
   2   4   4 4666.52 59.5563  -2 
   2   4   4 4666.52 59.5563   1 
   3   4   4 822.278 28.3520  -2 
   3   4   4 822.278 28.3520   1 
   4   4   4 5207.66 69.2471  -2 
   4   4   4 5207.66 69.2471   1 
   5   4   4 1299.86 45.8056  -2 
   5   4   4 1299.86 45.8056   1 
   6   4   4 502.884 35.9287  -2 
   6   4   4 502.884 35.9287   1 
   7   4   4 466.522 31.2603  -2 
   7   4   4 466.522 31.2603   1 
   8   4   4 523.921 35.1327  -2 
   8   4   4 523.921 35.1327   1 
   9   4   4 115.754 28.6336  -2 
   9   4   4 115.754 28.6336   1 
  10   4   4 359.859 73.3706  -2 
  10   4   4 359.859 73.3706   1 
  11   4   4 400.373 53.2628   1 
 -10   5   4 361.591 49.3844   1 
  -9   5   4 -4.4468 17.7397   1 
  -8   5   4 442.511 72.0705  -2 
  -8   5   4 442.511 72.0705   1 
  -7   5   4 518.029 42.2427   1 
  -6   5   4 60.7306 30.7287  -2 
  -6   5   4 60.7306 30.7287   1 
  -5   5   4 714.648 38.8811  -2 
  -5   5   4 714.648 38.8811   1 
  -4   5   4 3059.68 63.4527  -2 
  -4   5   4 3059.68 63.4527   1 
  -3   5   4 441.949 27.9231  -2 
  -3   5   4 441.949 27.9231   1 
  -2   5   4 2701.22 50.1759  -2 
  -2   5   4 2701.22 50.1759   1 
  -1   5   4 3678.66 52.3525  -2 
  -1   5   4 3678.66 52.3525   1 
   0   5   4 1525.65 27.7251  -2 
   0   5   4 1525.65 27.7251   1 
   1   5   4 1018.01 22.3106  -2 
   1   5   4 1018.01 22.3106   1 
   2   5   4 4293.15 71.7033  -2 
   2   5   4 4293.15 71.7033   1 
   3   5   4 2209.00 44.8599  -2 
   3   5   4 2209.00 44.8599   1 
   4   5   4 104.659 17.6926  -2 
   4   5   4 104.659 17.6926   1 
   5   5   4 4031.32 66.9991  -2 
   5   5   4 4031.32 66.9991   1 
   6   5   4 1022.84 39.0601  -2 
   6   5   4 1022.84 39.0601   1 
   7   5   4 4.00017 21.1221  -2 
   7   5   4 4.00017 21.1221   1 
   8   5   4 887.967 43.1249  -2 
   8   5   4 887.967 43.1249   1 
   9   5   4 1632.46 59.3687  -2 
   9   5   4 1632.46 59.3687   1 
  10   5   4 118.453 63.1402  -2 
  10   5   4 118.453 63.1402   1 
  11   5   4 186.833 41.9939   1 
  -9   6   4 231.348 41.0437   1 
  -8   6   4 -12.146 55.4482  -2 
  -8   6   4 -12.146 55.4482   1 
  -7   6   4 825.768 58.0418  -2 
  -7   6   4 825.768 58.0418   1 
  -6   6   4 258.133 54.8017  -2 
  -6   6   4 258.133 54.8017   1 
  -5   6   4 278.006 50.5932  -2 
  -5   6   4 278.006 50.5932   1 
  -4   6   4 581.989 34.0918  -2 
  -4   6   4 581.989 34.0918   1 
  -3   6   4 602.926 31.6102  -2 
  -3   6   4 602.926 31.6102   1 
  -2   6   4 37.7570 16.9351  -2 
  -2   6   4 37.7570 16.9351   1 
  -1   6   4 867.551 25.4300  -2 
  -1   6   4 867.551 25.4300   1 
   0   6   4 2745.76 41.0648  -2 
   0   6   4 2745.76 41.0648   1 
   1   6   4 5.65528 10.4733  -2 
   1   6   4 5.65528 10.4733   1 
   2   6   4 465.521 22.7290  -2 
   2   6   4 465.521 22.7290   1 
   3   6   4 589.990 26.2690  -2 
   3   6   4 589.990 26.2690   1 
   4   6   4 12.0768 18.3560  -2 
   4   6   4 12.0768 18.3560   1 
   5   6   4 160.339 21.6035  -2 
   5   6   4 160.339 21.6035   1 
   6   6   4 586.462 33.3403  -2 
   6   6   4 586.462 33.3403   1 
   7   6   4 992.269 42.5174  -2 
   7   6   4 992.269 42.5174   1 
   8   6   4 72.7102 36.0038  -2 
   8   6   4 72.7102 36.0038   1 
   9   6   4 1082.83 70.1504  -2 
   9   6   4 1082.83 70.1504   1 
  10   6   4 488.871 82.5706  -2 
  10   6   4 488.871 82.5706   1 
  11   6   4 5.19181 33.3426   1 
  -9   7   4 857.584 101.284  -2 
  -9   7   4 857.584 101.284   1 
  -8   7   4 218.858 49.5281  -2 
  -8   7   4 218.858 49.5281   1 
  -7   7   4 274.285 47.2995  -2 
  -7   7   4 274.285 47.2995   1 
  -6   7   4 958.506 58.9297  -2 
  -6   7   4 958.506 58.9297   1 
  -5   7   4 812.462 72.5068  -2 
  -5   7   4 812.462 72.5068   1 
  -4   7   4 1.18298 26.4107  -2 
  -4   7   4 1.18298 26.4107   1 
  -3   7   4 2904.13 62.2925  -2 
  -3   7   4 2904.13 62.2925   1 
  -2   7   4 1564.59 44.5208  -2 
  -2   7   4 1564.59 44.5208   1 
  -1   7   4 299.242 19.7636  -2 
  -1   7   4 299.242 19.7636   1 
   0   7   4 896.447 26.7685  -2 
   0   7   4 896.447 26.7685   1 
   1   7   4 934.908 32.3450  -2 
   1   7   4 934.908 32.3450   1 
   2   7   4 122.592 14.9737  -2 
   2   7   4 122.592 14.9737   1 
   3   7   4 461.577 25.1571  -2 
   3   7   4 461.577 25.1571   1 
   4   7   4 3143.74 59.4454  -2 
   4   7   4 3143.74 59.4454   1 
   5   7   4 1687.97 48.1583  -2 
   5   7   4 1687.97 48.1583   1 
   6   7   4 672.416 41.5192  -2 
   6   7   4 672.416 41.5192   1 
   7   7   4 1148.27 95.1030  -2 
   7   7   4 1148.27 95.1030   1 
   8   7   4 747.278 87.2040  -2 
   8   7   4 747.278 87.2040   1 
   9   7   4 7.29076 58.9916  -2 
   9   7   4 7.29076 58.9916   1 
  10   7   4 493.569 80.8954   1 
  11   7   3 723.526 105.379  -2 
  11   7   4 723.526 105.379   1 
  -8   8   4 574.674 63.9813  -2 
  -8   8   4 574.674 63.9813   1 
  -7   8   4 200.377 49.3126  -2 
  -7   8   4 200.377 49.3126   1 
  -6   8   4 196.899 42.8402  -2 
  -6   8   4 196.899 42.8402   1 
  -5   8   4 790.988 55.7726  -2 
  -5   8   4 790.988 55.7726   1 
  -4   8   4 333.607 40.6844  -2 
  -4   8   4 333.607 40.6844   1 
  -3   8   4 31.0210 22.9888  -2 
  -3   8   4 31.0210 22.9888   1 
  -2   8   4 455.128 30.6472  -2 
  -2   8   4 455.128 30.6472   1 
  -1   8   4 386.418 23.5761  -2 
  -1   8   4 386.418 23.5761   1 
   0   8   4 126.822 16.1807  -2 
   0   8   4 126.822 16.1807   1 
   1   8   4 699.489 24.3067  -2 
   1   8   4 699.489 24.3067   1 
   2   8   4 1324.34 39.4560  -2 
   2   8   4 1324.34 39.4560   1 
   3   8   4 63.7648 15.7357  -2 
   3   8   4 63.7648 15.7357   1 
   4   8   4 1072.38 38.7341  -2 
   4   8   4 1072.38 38.7341   1 
   5   8   4 1630.35 47.8386  -2 
   5   8   4 1630.35 47.8386   1 
   6   8   4 737.647 56.7983  -2 
   6   8   4 737.647 56.7983   1 
   7   8   4 38.1731 37.7236  -2 
   7   8   4 38.1731 37.7236   1 
   8   8   4 697.967 63.6070  -2 
   8   8   4 697.967 63.6070   1 
   9   8   4 357.509 58.4242  -2 
   9   8   4 357.509 58.4242   1 
  10   8   4 147.344 74.4174  -2 
  10   8   4 147.344 74.4174   1 
  12   8   4 90.9737 52.5161   1 
  -8   9   4 196.517 56.4982   1 
  -7   9   4 564.537 62.3714  -2 
  -7   9   4 564.537 62.3714   1 
  -6   9   4 288.359 50.7393  -2 
  -6   9   4 288.359 50.7393   1 
  -5   9   4 580.042 54.4912  -2 
  -5   9   4 580.042 54.4912   1 
  -4   9   4 1693.64 71.2958  -2 
  -4   9   4 1693.64 71.2958   1 
  -3   9   4 201.024 36.2821  -2 
  -3   9   4 201.024 36.2821   1 
  -2   9   4 127.228 25.7286  -2 
  -2   9   4 127.228 25.7286   1 
  -1   9   4 1211.71 38.0319  -2 
  -1   9   4 1211.71 38.0319   1 
   0   9   4 1052.82 34.0756  -2 
   0   9   4 1052.82 34.0756   1 
   1   9   4 -1.6653 10.5259  -2 
   1   9   4 -1.6653 10.5259   1 
   2   9   4 2430.77 44.6601  -2 
   2   9   4 2430.77 44.6601   1 
   3   9   4 5128.17 120.202  -2 
   3   9   4 5128.17 120.202   1 
   4   9   4 40.3033 17.4477  -2 
   4   9   4 40.3033 17.4477   1 
   5   9   4 1772.17 80.6725  -2 
   5   9   4 1772.17 80.6725   1 
   6   9   4 1217.35 73.4361  -2 
   6   9   4 1217.35 73.4361   1 
   7   9   4 127.975 44.1592  -2 
   7   9   4 127.975 44.1592   1 
   8   9   4 524.385 63.3590  -2 
   8   9   4 524.385 63.3590   1 
   9   9   4 1487.14 91.7431  -2 
   9   9   4 1487.14 91.7431   1 
  10   9   4 285.512 65.6334  -2 
  10   9   4 285.512 65.6334   1 
  -7  10   4 135.130 52.7568  -2 
  -7  10   4 135.130 52.7568   1 
  -6  10   4 104.197 47.7964  -2 
  -6  10   4 104.197 47.7964   1 
  -5  10   4 113.842 44.5582  -2 
  -5  10   4 113.842 44.5582   1 
  -4  10   4 -11.867 36.8629  -2 
  -4  10   4 -11.867 36.8629   1 
  -3  10   4 975.341 57.3455  -2 
  -3  10   4 975.341 57.3455   1 
  -2  10   4 834.205 49.1794  -2 
  -2  10   4 834.205 49.1794   1 
  -1  10   4 291.677 25.6484  -2 
  -1  10   4 291.677 25.6484   1 
   0  10   4 1863.16 46.1795  -2 
   0  10   4 1863.16 46.1795   1 
   1  10   4 549.871 25.8837  -2 
   1  10   4 549.871 25.8837   1 
   2  10   4 12.6207 12.5812  -2 
   2  10   4 12.6207 12.5812   1 
   3  10   4 731.613 52.4202  -2 
   3  10   4 731.613 52.4202   1 
   4  10   4 1582.10 76.3782  -2 
   4  10   4 1582.10 76.3782   1 
   5  10   4 64.5138 35.7016  -2 
   5  10   4 64.5138 35.7016   1 
   6  10   4 808.343 67.6712  -2 
   6  10   4 808.343 67.6712   1 
   7  10   4 938.224 75.2434  -2 
   7  10   4 938.224 75.2434   1 
   8  10   4 14.8974 52.5231  -2 
   8  10   4 14.8974 52.5231   1 
   9  10   4 708.510 80.5608  -2 
   9  10   4 708.510 80.5608   1 
  10  10   4 307.114 71.3814  -2 
  10  10   4 307.114 71.3814   1 
  11  10   4 128.596 69.2577  -2 
  11  10   4 128.596 69.2577   1 
  -6  11   4 288.228 82.8471  -2 
  -6  11   4 288.228 82.8471   1 
  -5  11   4 896.429 66.5428  -2 
  -5  11   4 896.429 66.5428   1 
  -4  11   4 70.8463 40.4486  -2 
  -4  11   4 70.8463 40.4486   1 
  -3  11   4 921.981 58.2996  -2 
  -3  11   4 921.981 58.2996   1 
  -2  11   4 1041.59 56.6624  -2 
  -2  11   4 1041.59 56.6624   1 
  -1  11   4 12.6415 25.2192  -2 
  -1  11   4 12.6415 25.2192   1 
   0  11   4 686.835 32.9261  -2 
   0  11   4 686.835 32.9261   1 
   1  11   4 1353.64 69.7139  -2 
   1  11   4 1353.64 69.7139   1 
   2  11   4 629.131 50.8299  -2 
   2  11   4 629.131 50.8299   1 
   3  11   4 105.979 31.2208  -2 
   3  11   4 105.979 31.2208   1 
   4  11   4 1903.04 88.9164  -2 
   4  11   4 1903.04 88.9164   1 
   5  11   4 241.093 47.7913  -2 
   5  11   4 241.093 47.7913   1 
   6  11   4 152.354 49.6030  -2 
   6  11   4 152.354 49.6030   1 
   7  11   4 849.294 77.5169  -2 
   7  11   4 849.294 77.5169   1 
   8  11   4 412.993 71.5107  -2 
   8  11   4 412.993 71.5107   1 
   9  11   4 6.86673 61.2184  -2 
   9  11   4 6.86673 61.2184   1 
  10  11   4 299.518 77.5320  -2 
  10  11   4 299.518 77.5320   1 
  11  11   4 683.006 91.0404  -2 
  11  11   4 683.006 91.0404   1 
  -5  12   4 499.232 58.5805  -2 
  -5  12   4 499.232 58.5805   1 
  -4  12   4 907.705 64.2941  -2 
  -4  12   4 907.705 64.2941   1 
  -3  12   4 41.0187 38.9068  -2 
  -3  12   4 41.0187 38.9068   1 
  -2  12   4 717.941 52.6114  -2 
  -2  12   4 717.941 52.6114   1 
  -1  12   4 917.034 76.5532  -2 
  -1  12   4 917.034 76.5532   1 
   0  12   4 27.6434 44.4436  -2 
   0  12   4 27.6434 44.4436   1 
   1  12   4 145.987 34.9807  -2 
   1  12   4 145.987 34.9807   1 
   2  12   4 504.956 49.5615  -2 
   2  12   4 504.956 49.5615   1 
   3  12   4 412.079 48.9215  -2 
   3  12   4 412.079 48.9215   1 
   4  12   4 134.294 41.4674  -2 
   4  12   4 134.294 41.4674   1 
   5  12   4 708.660 69.6540  -2 
   5  12   4 708.660 69.6540   1 
   6  12   4 443.036 65.3528  -2 
   6  12   4 443.036 65.3528   1 
   7  12   4 19.6421 53.8058  -2 
   7  12   4 19.6421 53.8058   1 
   8  12   4 232.868 70.0780  -2 
   8  12   4 232.868 70.0780   1 
   9  12   4 442.397 80.3725  -2 
   9  12   4 442.397 80.3725   1 
  10  12   4 63.7074 73.1746  -2 
  10  12   4 63.7074 73.1746   1 
  -4  13   4 573.060 83.8770  -2 
  -4  13   4 573.060 83.8770   1 
  -3  13   4 351.633 70.9993  -2 
  -3  13   4 351.633 70.9993   1 
   1  13   4 4.37519 31.2298  -2 
   1  13   4 4.37519 31.2298   1 
   2  13   4 953.878 67.4584  -2 
   2  13   4 953.878 67.4584   1 
   3  13   4 506.726 56.6795  -2 
   3  13   4 506.726 56.6795   1 
   4  13   4 6.81478 35.8782  -2 
   4  13   4 6.81478 35.8782   1 
   5  13   4 161.335 52.2281  -2 
   5  13   4 161.335 52.2281   1 
   6  13   4 611.657 76.2601  -2 
   6  13   4 611.657 76.2601   1 
   7  13   4 821.733 90.2331  -2 
   7  13   4 821.733 90.2331   1 
   8  13   4 11.2911 66.4745  -2 
   8  13   4 11.2911 66.4745   1 
   9  13   4 1062.69 105.751  -2 
   9  13   4 1062.69 105.751   1 
   1  14   4 401.268 73.2313  -2 
   1  14   4 401.268 73.2313   1 
   2  14   4 184.537 48.2958  -2 
   2  14   4 184.537 48.2958   1 
   3  14   4 256.126 49.9594  -2 
   3  14   4 256.126 49.9594   1 
   4  14   4 1134.41 83.5629  -2 
   4  14   4 1134.41 83.5629   1 
   5  14   4 371.703 66.0356  -2 
   5  14   4 371.703 66.0356   1 
   6  14   4 213.743 67.5973  -2 
   6  14   4 213.743 67.5973   1 
   7  14   4 831.862 93.3703  -2 
   7  14   4 831.862 93.3703   1 
   1  15   4 360.116 74.1347  -2 
   1  15   4 360.116 74.1347   1 
   2  15   4 647.041 99.8217  -2 
   2  15   4 647.041 99.8217   1 
   3  15   4 6.85927 40.8084  -2 
   3  15   4 6.85927 40.8084   1 
   4  15   4 419.525 63.1912  -2 
   4  15   4 419.525 63.1912   1 
   5  15   4 707.096 83.0149  -2 
   5  15   4 707.096 83.0149   1 
   6  15   4 68.9254 97.0484  -2 
   6  15   4 68.9254 97.0484   1 
  -1 -12   5 28.0441 65.7302   1 
   0 -12   5 197.827 113.552   1 
  -4 -11   5 8.63470 23.8113   1 
  -3 -11   5 162.689 73.4544  -2 
  -3 -11   5 162.689 73.4544   1 
  -2 -11   5 858.425 80.8374  -2 
  -2 -11   5 858.425 80.8374   1 
  -1 -11   5 69.2393 54.6706  -2 
  -1 -11   5 69.2393 54.6706   1 
   0 -11   5 633.638 90.0157  -2 
   0 -11   5 633.638 90.0157   1 
   1 -11   5 1099.91 83.9087  -2 
   1 -11   5 1099.91 83.9087   1 
   2 -11   5 21.6708 52.9030  -2 
   2 -11   5 21.6708 52.9030   1 
   3 -11   5 227.412 57.6151  -2 
   3 -11   5 227.412 57.6151   1 
  -6 -10   5 -6.8126 25.7909   1 
  -5 -10   5 574.657 119.141  -2 
  -5 -10   5 574.657 119.141   1 
  -4 -10   5 340.593 75.1684  -2 
  -4 -10   5 340.593 75.1684   1 
  -3 -10   5 11.0912 50.9592  -2 
  -3 -10   5 11.0912 50.9592   1 
  -2 -10   5 472.081 76.4086  -2 
  -2 -10   5 472.081 76.4086   1 
  -1 -10   5 1099.50 81.5970  -2 
  -1 -10   5 1099.50 81.5970   1 
   0 -10   5 110.199 51.0911  -2 
   0 -10   5 110.199 51.0911   1 
   1 -10   5 458.872 76.0493  -2 
   1 -10   5 458.872 76.0493   1 
   2 -10   5 868.080 75.0455  -2 
   2 -10   5 868.080 75.0455   1 
   3 -10   5 140.762 113.926  -2 
   3 -10   5 140.762 113.926   1 
   4 -10   5 368.862 134.019  -2 
   4 -10   5 368.862 134.019   1 
   5 -10   5 317.707 126.306  -2 
   5 -10   5 317.707 126.306   1 
   6 -10   5 56.9062 114.068  -2 
   6 -10   5 56.9062 114.068   1 
  -7  -9   5 252.031 50.0280   1 
  -6  -9   5 245.316 125.766  -2 
  -6  -9   5 245.316 125.766   1 
  -5  -9   5 48.4083 49.4264  -2 
  -5  -9   5 48.4083 49.4264   1 
  -4  -9   5 1234.85 79.9716  -2 
  -4  -9   5 1234.85 79.9716   1 
  -3  -9   5 562.838 63.8424  -2 
  -3  -9   5 562.838 63.8424   1 
  -2  -9   5 231.041 51.0522  -2 
  -2  -9   5 231.041 51.0522   1 
  -1  -9   5 1078.00 91.3240  -2 
  -1  -9   5 1078.00 91.3240   1 
   0  -9   5 293.306 52.7558  -2 
   0  -9   5 293.306 52.7558   1 
   1  -9   5 -23.792 48.8239  -2 
   1  -9   5 -23.792 48.8239   1 
   2  -9   5 663.687 123.690  -2 
   2  -9   5 663.687 123.690   1 
   3  -9   5 1270.80 153.043  -2 
   3  -9   5 1270.80 153.043   1 
   4  -9   5 22.0917 105.854  -2 
   4  -9   5 22.0917 105.854   1 
   5  -9   5 555.492 65.9211  -2 
   5  -9   5 555.492 65.9211   1 
   6  -9   5 725.774 142.230  -2 
   6  -9   5 725.774 142.230   1 
   7  -9   5 64.1837 119.128  -2 
   7  -9   5 64.1837 119.128   1 
  -8  -8   5 114.956 40.5069   1 
  -7  -8   5 322.935 55.2872   1 
  -6  -8   5 1141.82 83.5878  -2 
  -6  -8   5 1141.82 83.5878   1 
  -5  -8   5 128.332 61.2711  -2 
  -5  -8   5 128.332 61.2711   1 
  -4  -8   5 270.101 52.1269  -2 
  -4  -8   5 270.101 52.1269   1 
  -3  -8   5 764.344 62.9461  -2 
  -3  -8   5 764.344 62.9461   1 
  -2  -8   5 325.358 50.7682  -2 
  -2  -8   5 325.358 50.7682   1 
  -1  -8   5 15.6270 38.7873  -2 
  -1  -8   5 15.6270 38.7873   1 
   0  -8   5 511.428 54.4617  -2 
   0  -8   5 511.428 54.4617   1 
   1  -8   5 1093.56 124.403  -2 
   1  -8   5 1093.56 124.403   1 
   2  -8   5 214.328 90.4957  -2 
   2  -8   5 214.328 90.4957   1 
   3  -8   5 820.158 124.341  -2 
   3  -8   5 820.158 124.341   1 
   4  -8   5 483.866 120.444  -2 
   4  -8   5 483.866 120.444   1 
   5  -8   5 265.742 109.997  -2 
   5  -8   5 265.742 109.997   1 
   6  -8   5 19.8309 98.1834  -2 
   6  -8   5 19.8309 98.1834   1 
   7  -8   5 835.350 146.618  -2 
   7  -8   5 835.350 146.618   1 
   8  -8   5 437.752 126.682  -2 
   8  -8   5 437.752 126.682   1 
  -8  -7   5 152.553 40.1651   1 
  -7  -7   5 6.03116 25.8844   1 
  -6  -7   5 531.519 65.5152  -2 
  -6  -7   5 531.519 65.5152   1 
  -5  -7   5 534.042 74.1237  -2 
  -5  -7   5 534.042 74.1237   1 
  -4  -7   5 40.7438 39.6141  -2 
  -4  -7   5 40.7438 39.6141   1 
  -3  -7   5 270.876 44.3601  -2 
  -3  -7   5 270.876 44.3601   1 
  -2  -7   5 705.994 55.5157  -2 
  -2  -7   5 705.994 55.5157   1 
  -1  -7   5 24.1571 34.1456  -2 
  -1  -7   5 24.1571 34.1456   1 
   0  -7   5 490.955 86.6315  -2 
   0  -7   5 490.955 86.6315   1 
   1  -7   5 822.166 103.542  -2 
   1  -7   5 822.166 103.542   1 
   2  -7   5 348.662 88.8547  -2 
   2  -7   5 348.662 88.8547   1 
   3  -7   5 22.4977 74.9483  -2 
   3  -7   5 22.4977 74.9483   1 
   4  -7   5 590.312 115.612  -2 
   4  -7   5 590.312 115.612   1 
   5  -7   5 1151.74 135.293  -2 
   5  -7   5 1151.74 135.293   1 
   6  -7   4 74.5585 83.0548  -2 
   6  -7   5 74.5585 83.0548  -2 
   6  -7   5 74.5585 83.0548   1 
   7  -7   5 683.815 65.8684  -2 
   7  -7   5 683.815 65.8684   1 
   8  -7   5 621.783 127.830  -2 
   8  -7   5 621.783 127.830   1 
   9  -7   5 26.5295 65.6110  -2 
   9  -7   5 26.5295 65.6110   1 
  -9  -6   5 -1.5590 26.3450   1 
  -8  -6   5 471.297 58.5536   1 
  -7  -6   5 436.264 54.5007   1 
  -6  -6   5 7.61605 99.9336  -2 
  -6  -6   5 7.61605 99.9336   1 
  -5  -6   5 252.130 103.707  -2 
  -5  -6   5 252.130 103.707   1 
  -4  -6   5 506.255 65.6281  -2 
  -4  -6   5 506.255 65.6281   1 
  -3  -6   5 194.142 59.3462  -2 
  -3  -6   5 194.142 59.3462   1 
  -2  -6   5 358.783 42.1441  -2 
  -2  -6   5 358.783 42.1441   1 
  -1  -6   5 1543.82 67.2678  -2 
  -1  -6   5 1543.82 67.2678   1 
   0  -6   5 306.293 69.3434  -2 
   0  -6   5 306.293 69.3434   1 
   1  -6   5 134.038 65.6389  -2 
   1  -6   5 134.038 65.6389   1 
   2  -6   5 1810.34 131.389  -2 
   2  -6   5 1810.34 131.389   1 
   3  -6   5 721.556 102.496  -2 
   3  -6   5 721.556 102.496   1 
   4  -6   5 211.809 87.0948  -2 
   4  -6   5 211.809 87.0948   1 
   5  -6   5 566.084 101.587  -2 
   5  -6   5 566.084 101.587   1 
   6  -6   5 1177.98 136.655  -2 
   6  -6   5 1177.98 136.655   1 
   7  -6   5 23.5801 83.7562  -2 
   7  -6   5 23.5801 83.7562   1 
   8  -6   5 797.067 70.7781  -2 
   8  -6   5 797.067 70.7781   1 
   9  -6   5 508.666 69.0572  -2 
   9  -6   5 508.666 69.0572   1 
  10  -6   4 68.0980 58.0075  -2 
  10  -6   5 68.0980 58.0075   1 
  -9  -5   5 41.4311 29.1230   1 
  -8  -5   5 3.18163 23.4528   1 
  -7  -5   5 388.548 70.0193  -2 
  -7  -5   5 388.548 70.0193   1 
  -6  -5   5 792.061 124.416  -2 
  -6  -5   5 792.061 124.416   1 
  -5  -5   5 5.78400 89.0712  -2 
  -5  -5   5 5.78400 89.0712   1 
  -4  -5   5 951.770 63.2123  -2 
  -4  -5   5 951.770 63.2123   1 
  -3  -5   5 436.048 56.6210  -2 
  -3  -5   5 436.048 56.6210   1 
  -2  -5   5 84.0061 49.2341  -2 
  -2  -5   5 84.0061 49.2341   1 
  -1  -5   5 410.526 40.1701  -2 
  -1  -5   5 410.526 40.1701   1 
   0  -5   5 1984.99 114.815  -2 
   0  -5   5 1984.99 114.815   1 
   1  -5   5 2068.96 79.0824  -2 
   1  -5   5 2068.96 79.0824   1 
   2  -5   5 988.598 99.0022  -2 
   2  -5   5 988.598 99.0022   1 
   3  -5   5 2584.56 149.963  -2 
   3  -5   5 2584.56 149.963   1 
   4  -5   5 188.232 76.7014  -2 
   4  -5   5 188.232 76.7014   1 
   5  -5   5 558.969 93.7806  -2 
   5  -5   5 558.969 93.7806   1 
   6  -5   5 882.756 117.805  -2 
   6  -5   5 882.756 117.805   1 
   7  -5   5 235.034 45.6008  -2 
   7  -5   5 235.034 45.6008   1 
   8  -5   5 31.8641 43.2537  -2 
   8  -5   5 31.8641 43.2537   1 
   9  -5   5 654.885 70.2602  -2 
   9  -5   5 654.885 70.2602   1 
  10  -5   4 429.661 74.1057  -2 
  10  -5   5 429.661 74.1057   1 
  11  -5   4 111.232 63.6390  -2 
  11  -5   5 111.232 63.6390   1 
 -10  -4   5 33.4263 30.9558   1 
  -9  -4   5 512.404 61.1055   1 
  -8  -4   5 275.417 47.9759   1 
  -7  -4   5 70.3854 95.8526  -2 
  -7  -4   5 70.3854 95.8526   1 
  -6  -4   5 765.151 61.6033  -2 
  -6  -4   5 765.151 61.6033   1 
  -5  -4   5 881.377 114.761  -2 
  -5  -4   5 881.377 114.761   1 
  -4  -4   5 21.2117 35.6075  -2 
  -4  -4   5 21.2117 35.6075   1 
  -3  -4   5 870.404 68.1119  -2 
  -3  -4   5 870.404 68.1119   1 
  -2  -4   5 2804.19 142.707  -2 
  -2  -4   5 2804.19 142.707   1 
  -1  -4   5 691.460 52.2951  -2 
  -1  -4   5 691.460 52.2951   1 
   0  -4   5 2590.07 83.2919  -2 
   0  -4   5 2590.07 83.2919   1 
   1  -4   5 3248.25 87.7805  -2 
   1  -4   5 3248.25 87.7805   1 
   2  -4   5 279.445 39.1382  -2 
   2  -4   5 279.445 39.1382   1 
   3  -4   5 1137.76 102.700  -2 
   3  -4   5 1137.76 102.700   1 
   4  -4   5 1725.33 124.622  -2 
   4  -4   5 1725.33 124.622   1 
   5  -4   5 431.277 40.5996  -2 
   5  -4   5 431.277 40.5996   1 
   6  -4   5 163.240 38.0701  -2 
   6  -4   5 163.240 38.0701   1 
   7  -4   5 1784.67 78.0290  -2 
   7  -4   5 1784.67 78.0290   1 
   8  -4   5 767.902 64.0064  -2 
   8  -4   5 767.902 64.0064   1 
   9  -4   5 62.0628 46.1925  -2 
   9  -4   5 62.0628 46.1925   1 
  10  -4   5 328.779 103.585  -2 
  10  -4   5 328.779 103.585   1 
  11  -4   4 308.352 51.1928  -2 
  11  -4   5 308.352 51.1928   1 
 -10  -3   5 19.4322 27.6041   1 
  -9  -3   5 18.6835 25.7549   1 
  -8  -3   5 466.002 53.6270   1 
  -7  -3   5 190.413 98.3683  -2 
  -7  -3   5 190.413 98.3683   1 
  -6  -3   5 224.013 45.4594  -2 
  -6  -3   5 224.013 45.4594   1 
  -5  -3   5 994.732 111.706  -2 
  -5  -3   5 994.732 111.706   1 
  -4  -3   5 552.952 91.7066  -2 
  -4  -3   5 552.952 91.7066   1 
  -3  -3   5 326.765 40.7966  -2 
  -3  -3   5 326.765 40.7966   1 
  -2  -3   5 1668.88 109.457  -2 
  -2  -3   5 1668.88 109.457   1 
  -1  -3   5 1505.43 60.7093  -2 
  -1  -3   5 1505.43 60.7093   1 
   0  -3   5 -1.3485 29.8323  -2 
   0  -3   5 -1.3485 29.8323   1 
   1  -3   5 1579.90 61.1620  -2 
   1  -3   5 1579.90 61.1620   1 
   2  -3   5 554.201 50.7679  -2 
   2  -3   5 554.201 50.7679   1 
   3  -3   5 126.512 57.5103  -2 
   3  -3   5 126.512 57.5103   1 
   4  -3   5 1233.35 97.4325  -2 
   4  -3   5 1233.35 97.4325   1 
   5  -3   5 1177.21 54.4514  -2 
   5  -3   5 1177.21 54.4514   1 
   6  -3   5 39.7039 30.7970  -2 
   6  -3   5 39.7039 30.7970   1 
   7  -3   5 145.219 38.3124  -2 
   7  -3   5 145.219 38.3124   1 
   8  -3   5 1218.71 70.2271  -2 
   8  -3   5 1218.71 70.2271   1 
   9  -3   5 239.541 88.0762  -2 
   9  -3   5 239.541 88.0762   1 
  10  -3   4 42.0907 58.2077  -2 
  10  -3   5 42.0907 58.2077   1 
  10  -3   5 54.1246 81.4814  -2 
  10  -3   5 54.1246 81.4814   1 
  11  -3   4 490.049 55.7245  -2 
  11  -3   5 490.049 55.7245   1 
  12  -3   4 170.579 68.5219  -2 
  12  -3   5 170.579 68.5219   1 
 -10  -2   5 497.278 105.326   1 
  -9  -2   5 14.8133 24.9017   1 
  -8  -2   5 294.743 45.9482   1 
  -7  -2   5 980.877 131.343  -2 
  -7  -2   5 980.877 131.343   1 
  -6  -2   5 182.858 84.5936  -2 
  -6  -2   5 182.858 84.5936   1 
  -5  -2   5 213.363 76.7215  -2 
  -5  -2   5 213.363 76.7215   1 
  -4  -2   5 3815.66 163.231  -2 
  -4  -2   5 3815.66 163.231   1 
  -3  -2   5 808.400 47.7130  -2 
  -3  -2   5 808.400 47.7130   1 
  -2  -2   5 1313.29 53.7960  -2 
  -2  -2   5 1313.29 53.7960   1 
  -1  -2   5 1504.40 90.9173  -2 
  -1  -2   5 1504.40 90.9173   1 
   0  -2   5 716.054 44.0074  -2 
   0  -2   5 716.054 44.0074   1 
   1  -2   5 115.899 31.2819  -2 
   1  -2   5 115.899 31.2819   1 
   2  -2   5 802.424 72.5930  -2 
   2  -2   5 802.424 72.5930   1 
   3  -2   5 1801.75 101.475  -2 
   3  -2   5 1801.75 101.475   1 
   4  -2   5 637.486 74.1212  -2 
   4  -2   5 637.486 74.1212   1 
   5  -2   5 1257.58 52.8350  -2 
   5  -2   5 1257.58 52.8350   1 
   6  -2   5 1625.61 64.7772  -2 
   6  -2   5 1625.61 64.7772   1 
   7  -2   5 116.532 35.6808  -2 
   7  -2   5 116.532 35.6808   1 
   8  -2   5 174.890 41.8937  -2 
   8  -2   5 174.890 41.8937   1 
   9  -2   5 563.879 57.4173  -2 
   9  -2   5 563.879 57.4173   1 
  10  -2   4 313.666 66.6392  -2 
  10  -2   5 313.666 66.6392   1 
  10  -2   5 524.270 97.8252  -2 
  10  -2   5 524.270 97.8252   1 
  11  -2   4 91.9466 40.6737  -2 
  11  -2   5 91.9466 40.6737   1 
  12  -2   4 928.260 99.8180  -2 
  12  -2   5 928.260 99.8180   1 
 -10  -1   5 192.400 41.2587   1 
  -9  -1   5 428.041 54.1294   1 
  -8  -1   5 88.9836 29.4599   1 
  -7  -1   5 420.376 46.2249   1 
  -6  -1   5 1594.11 134.769  -2 
  -6  -1   5 1594.11 134.769   1 
  -5  -1   5 -5.9158 69.3938  -2 
  -5  -1   5 -5.9158 69.3938   1 
  -4  -1   5 1478.16 112.877  -2 
  -4  -1   5 1478.16 112.877   1 
  -3  -1   5 267.923 66.7175  -2 
  -3  -1   5 267.923 66.7175   1 
  -2  -1   5 23.0376 52.1433  -2 
  -2  -1   5 23.0376 52.1433   1 
  -1  -1   5 24.0838 23.4557  -2 
  -1  -1   5 24.0838 23.4557   1 
   0  -1   5 2913.83 71.5156  -2 
   0  -1   5 2913.83 71.5156   1 
   1  -1   5 1188.58 49.8512  -2 
   1  -1   5 1188.58 49.8512   1 
   2  -1   5 398.251 52.4763  -2 
   2  -1   5 398.251 52.4763   1 
   3  -1   5 1888.34 95.0344  -2 
   3  -1   5 1888.34 95.0344   1 
   4  -1   5 341.184 56.5303  -2 
   4  -1   5 341.184 56.5303   1 
   5  -1   5 170.783 51.1509  -2 
   5  -1   5 170.783 51.1509   1 
   6  -1   5 108.542 30.0333  -2 
   6  -1   5 108.542 30.0333   1 
   7  -1   5 1202.71 59.2299  -2 
   7  -1   5 1202.71 59.2299   1 
   8  -1   5 293.919 42.4162  -2 
   8  -1   5 293.919 42.4162   1 
   9  -1   5 667.879 56.5985  -2 
   9  -1   5 667.879 56.5985   1 
  10  -1   4 443.966 65.3730  -2 
  10  -1   5 443.966 65.3730   1 
  11  -1   4 -7.8809 54.4755  -2 
  11  -1   5 -7.8809 54.4755   1 
  12  -1   4 221.398 69.8973  -2 
  12  -1   5 221.398 69.8973   1 
 -10   0   5 41.1579 35.5973   1 
  -9   0   5 596.933 58.9906   1 
  -8   0   5 333.729 45.7247   1 
  -7   0   5 0.24118 12.4290   1 
  -6   0   5 1235.68 119.981  -2 
  -6   0   5 1235.68 119.981   1 
  -5   0   5 1495.58 116.798  -2 
  -5   0   5 1495.58 116.798   1 
  -4   0   5 23.5582 61.3383  -2 
  -4   0   5 23.5582 61.3383   1 
  -3   0   5 1253.91 94.5229  -2 
  -3   0   5 1253.91 94.5229   1 
  -2   0   5 2120.28 104.630  -2 
  -2   0   5 2120.28 104.630   1 
  -1   0   5 779.019 68.0974  -2 
  -1   0   5 779.019 68.0974   1 
   0   0   5 472.415 32.3080  -2 
   0   0   5 472.415 32.3080   1 
   1   0   5 5339.29 84.6878  -2 
   1   0   5 5339.29 84.6878   1 
   2   0   5 2867.79 100.088  -2 
   2   0   5 2867.79 100.088   1 
   3   0   5 273.678 43.8673  -2 
   3   0   5 273.678 43.8673   1 
   4   0   5 2935.46 113.324  -2 
   4   0   5 2935.46 113.324   1 
   5   0   5 3141.49 125.346  -2 
   5   0   5 3141.49 125.346   1 
   6   0   5 12.5760 43.5243  -2 
   6   0   5 12.5760 43.5243   1 
   7   0   5 1567.73 62.7173  -2 
   7   0   5 1567.73 62.7173   1 
   8   0   5 2256.09 78.1950  -2 
   8   0   5 2256.09 78.1950   1 
   9   0   5 4.83590 44.2195  -2 
   9   0   5 4.83590 44.2195   1 
  10   0   4 738.614 75.3132  -2 
  10   0   5 738.614 75.3132   1 
  11   0   4 1044.27 88.3471  -2 
  11   0   5 1044.27 88.3471   1 
  12   0   4 36.5524 56.2784  -2 
  12   0   5 36.5524 56.2784   1 
 -10   1   5 185.229 50.6460   1 
  -9   1   5 85.4697 30.6470   1 
  -8   1   5 372.047 35.7199   1 
  -7   1   5 97.6917 20.4992   1 
  -6   1   5 30.5662 70.2049  -2 
  -6   1   5 30.5662 70.2049   1 
  -5   1   5 158.916 68.6147  -2 
  -5   1   5 158.916 68.6147   1 
  -4   1   5 898.843 89.5672  -2 
  -4   1   5 898.843 89.5672   1 
  -3   1   5 264.004 60.8139  -2 
  -3   1   5 264.004 60.8139   1 
  -2   1   5 868.655 40.3773  -2 
  -2   1   5 868.655 40.3773   1 
  -1   1   5 3474.82 67.2684  -2 
  -1   1   5 3474.82 67.2684   1 
   0   1   5 868.695 33.9360  -2 
   0   1   5 868.695 33.9360   1 
   1   1   5 479.041 29.9075  -2 
   1   1   5 479.041 29.9075   1 
   2   1   5 2101.85 77.8553  -2 
   2   1   5 2101.85 77.8553   1 
   3   1   5 328.535 24.7271  -2 
   3   1   5 328.535 24.7271   1 
   4   1   5 333.197 27.8909  -2 
   4   1   5 333.197 27.8909   1 
   5   1   5 1966.46 58.9437  -2 
   5   1   5 1966.46 58.9437   1 
   6   1   5 2403.90 111.964  -2 
   6   1   5 2403.90 111.964   1 
   7   1   5 242.597 59.3691  -2 
   7   1   5 242.597 59.3691   1 
   8   1   5 1563.23 106.020  -2 
   8   1   5 1563.23 106.020   1 
   9   1   5 388.862 72.9636  -2 
   9   1   5 388.862 72.9636   1 
  10   1   4 53.4294 47.2441  -2 
  10   1   5 53.4294 47.2441   1 
  -9   2   5 29.6847 21.1353   1 
  -8   2   5 40.0096 20.5333   1 
  -7   2   5 256.051 84.8994  -2 
  -7   2   5 256.051 84.8994   1 
  -6   2   5 1168.72 107.325  -2 
  -6   2   5 1168.72 107.325   1 
  -5   2   5 135.734 66.4238  -2 
  -5   2   5 135.734 66.4238   1 
  -4   2   5 3043.83 80.0588  -2 
  -4   2   5 3043.83 80.0588   1 
  -3   2   5 942.163 82.1570  -2 
  -3   2   5 942.163 82.1570   1 
  -2   2   5 29.9647 22.0902  -2 
  -2   2   5 29.9647 22.0902   1 
  -1   2   5 1785.27 49.3322  -2 
  -1   2   5 1785.27 49.3322   1 
   0   2   5 2350.53 50.2986  -2 
   0   2   5 2350.53 50.2986   1 
   1   2   5 1139.19 26.7643  -2 
   1   2   5 1139.19 26.7643   1 
   2   2   5 1460.88 44.3390  -2 
   2   2   5 1460.88 44.3390   1 
   3   2   5 9999.99 108.307  -2 
   3   2   5 9999.99 108.307   1 
   4   2   5 35.6319 18.6697  -2 
   4   2   5 35.6319 18.6697   1 
   5   2   5 1416.95 50.5488  -2 
   5   2   5 1416.95 50.5488   1 
   6   2   5 2051.41 63.7475  -2 
   6   2   5 2051.41 63.7475   1 
   7   2   5 217.735 54.4203  -2 
   7   2   5 217.735 54.4203   1 
   8   2   5 110.308 55.7086  -2 
   8   2   5 110.308 55.7086   1 
   9   2   5 869.573 43.8586   1 
 -10   3   5 27.6551 23.9486   1 
  -9   3   5 534.553 70.9487   1 
  -8   3   5 297.083 38.8775   1 
  -7   3   5 4.37434 77.5373  -2 
  -7   3   5 4.37434 77.5373   1 
  -6   3   5 1070.72 108.529  -2 
  -6   3   5 1070.72 108.529   1 
  -5   3   5 504.960 44.8880  -2 
  -5   3   5 504.960 44.8880   1 
  -4   3   5 76.3263 29.7692  -2 
  -4   3   5 76.3263 29.7692   1 
  -3   3   5 1138.96 49.5944  -2 
  -3   3   5 1138.96 49.5944   1 
  -2   3   5 1583.71 51.3623  -2 
  -2   3   5 1583.71 51.3623   1 
  -1   3   5 65.9948 14.9496  -2 
  -1   3   5 65.9948 14.9496   1 
   0   3   5 2535.45 50.3495  -2 
   0   3   5 2535.45 50.3495   1 
   1   3   5 1907.66 29.4415  -2 
   1   3   5 1907.66 29.4415   1 
   2   3   5 63.3436 14.9517  -2 
   2   3   5 63.3436 14.9517   1 
   3   3   5 1081.56 32.3860  -2 
   3   3   5 1081.56 32.3860   1 
   4   3   5 1380.77 45.4935  -2 
   4   3   5 1380.77 45.4935   1 
   5   3   5 501.196 33.1765  -2 
   5   3   5 501.196 33.1765   1 
   6   3   5 -3.7717 23.3234  -2 
   6   3   5 -3.7717 23.3234   1 
   7   3   5 562.980 42.7166  -2 
   7   3   5 562.980 42.7166   1 
   8   3   5 162.668 34.9030  -2 
   8   3   5 162.668 34.9030   1 
   9   3   5 68.1422 54.4693  -2 
   9   3   5 68.1422 54.4693   1 
  10   3   5 223.604 44.1997   1 
  12   3   4 13.1680 57.1420  -2 
  12   3   5 13.1680 57.1420   1 
  13   3   4 268.666 72.4807  -2 
  13   3   5 268.666 72.4807   1 
 -10   4   5 9.83090 28.1150   1 
  -9   4   5 132.077 30.8498   1 
  -8   4   5 823.692 55.9525   1 
  -7   4   5 173.618 46.8401   1 
  -6   4   5 1186.38 66.0002  -2 
  -6   4   5 1186.38 66.0002   1 
  -5   4   5 2158.05 128.080  -2 
  -5   4   5 2158.05 128.080   1 
  -4   4   5 216.352 34.1826  -2 
  -4   4   5 216.352 34.1826   1 
  -3   4   5 816.071 35.2360  -2 
  -3   4   5 816.071 35.2360   1 
  -2   4   5 1569.78 40.6177  -2 
  -2   4   5 1569.78 40.6177   1 
  -1   4   5 1296.48 34.5828  -2 
  -1   4   5 1296.48 34.5828   1 
   0   4   5 654.422 23.5100  -2 
   0   4   5 654.422 23.5100   1 
   1   4   5 7898.82 80.4656  -2 
   1   4   5 7898.82 80.4656   1 
   2   4   5 2715.98 48.6045  -2 
   2   4   5 2715.98 48.6045   1 
   3   4   5 340.359 22.2758  -2 
   3   4   5 340.359 22.2758   1 
   4   4   5 1129.53 35.4552  -2 
   4   4   5 1129.53 35.4552   1 
   5   4   5 837.556 40.9948  -2 
   5   4   5 837.556 40.9948   1 
   6   4   5 508.328 37.5617  -2 
   6   4   5 508.328 37.5617   1 
   7   4   5 677.951 45.6913  -2 
   7   4   5 677.951 45.6913   1 
   8   4   5 1735.00 68.3997  -2 
   8   4   5 1735.00 68.3997   1 
   9   4   5 429.587 46.9867  -2 
   9   4   5 429.587 46.9867   1 
  10   4   5 279.215 45.2724   1 
  11   4   5 469.684 57.9343   1 
  12   4   4 172.749 66.5160  -2 
  12   4   5 172.749 66.5160   1 
  -9   5   5 -3.7355 17.7488   1 
  -8   5   5 207.570 37.1740   1 
  -7   5   5 357.742 62.7498  -2 
  -7   5   5 357.742 62.7498   1 
  -6   5   5 247.965 55.2538  -2 
  -6   5   5 247.965 55.2538   1 
  -5   5   5 497.229 47.7106  -2 
  -5   5   5 497.229 47.7106   1 
  -4   5   5 2091.02 73.8041  -2 
  -4   5   5 2091.02 73.8041   1 
  -3   5   5 521.060 42.1394  -2 
  -3   5   5 521.060 42.1394   1 
  -2   5   5 1033.08 47.9743  -2 
  -2   5   5 1033.08 47.9743   1 
  -1   5   5 1596.35 53.3260  -2 
  -1   5   5 1596.35 53.3260   1 
   0   5   5 385.235 19.2713  -2 
   0   5   5 385.235 19.2713   1 
   1   5   5 41.1849 18.6336  -2 
   1   5   5 41.1849 18.6336   1 
   2   5   5 963.312 31.8614  -2 
   2   5   5 963.312 31.8614   1 
   3   5   5 2461.60 50.1756  -2 
   3   5   5 2461.60 50.1756   1 
   4   5   5 437.600 26.6643  -2 
   4   5   5 437.600 26.6643   1 
   5   5   5 1131.77 39.2481  -2 
   5   5   5 1131.77 39.2481   1 
   6   5   5 2426.16 69.0784  -2 
   6   5   5 2426.16 69.0784   1 
   7   5   5 11.5693 27.4429  -2 
   7   5   5 11.5693 27.4429   1 
   8   5   5 385.960 33.8406  -2 
   8   5   5 385.960 33.8406   1 
   9   5   5 992.928 60.0914  -2 
   9   5   5 992.928 60.0914   1 
  10   5   5 402.809 81.2076  -2 
  10   5   5 402.809 81.2076   1 
  11   5   5 20.2235 22.9640   1 
  -9   6   5 40.8220 24.8819   1 
  -8   6   5 -0.4868 60.8096  -2 
  -8   6   5 -0.4868 60.8096   1 
  -7   6   5 650.903 78.5380  -2 
  -7   6   5 650.903 78.5380   1 
  -6   6   5 727.312 72.1724  -2 
  -6   6   5 727.312 72.1724   1 
  -5   6   5 110.037 36.5053  -2 
  -5   6   5 110.037 36.5053   1 
  -4   6   5 1023.22 44.0367  -2 
  -4   6   5 1023.22 44.0367   1 
  -3   6   5 1048.99 40.8023  -2 
  -3   6   5 1048.99 40.8023   1 
  -2   6   5 12.2361 17.8814  -2 
  -2   6   5 12.2361 17.8814   1 
  -1   6   5 191.431 19.3717  -2 
  -1   6   5 191.431 19.3717   1 
   0   6   5 2089.05 41.1411  -2 
   0   6   5 2089.05 41.1411   1 
   1   6   5 1914.12 33.0837  -2 
   1   6   5 1914.12 33.0837   1 
   2   6   5 532.323 26.1258  -2 
   2   6   5 532.323 26.1258   1 
   3   6   5 1789.40 44.4698  -2 
   3   6   5 1789.40 44.4698   1 
   4   6   5 907.460 35.7265  -2 
   4   6   5 907.460 35.7265   1 
   5   6   5 306.502 26.9100  -2 
   5   6   5 306.502 26.9100   1 
   6   6   5 1915.45 54.0804  -2 
   6   6   5 1915.45 54.0804   1 
   7   6   5 1380.66 50.4406  -2 
   7   6   5 1380.66 50.4406   1 
   8   6   5 41.4705 26.3715  -2 
   8   6   5 41.4705 26.3715   1 
   9   6   5 1694.56 60.9946  -2 
   9   6   5 1694.56 60.9946   1 
  10   6   5 1407.95 80.4100  -2 
  10   6   5 1407.95 80.4100   1 
  11   6   5 23.0530 25.4722   1 
  -8   7   5 308.649 76.9133  -2 
  -8   7   5 308.649 76.9133   1 
  -7   7   5 -14.441 39.6053  -2 
  -7   7   5 -14.441 39.6053   1 
  -6   7   5 580.480 53.1045  -2 
  -6   7   5 580.480 53.1045   1 
  -5   7   5 764.082 72.1714  -2 
  -5   7   5 764.082 72.1714   1 
  -4   7   5 103.224 27.4856  -2 
  -4   7   5 103.224 27.4856   1 
  -3   7   5 502.904 33.1802  -2 
  -3   7   5 502.904 33.1802   1 
  -2   7   5 1221.40 42.1220  -2 
  -2   7   5 1221.40 42.1220   1 
  -1   7   5 491.360 27.7292  -2 
  -1   7   5 491.360 27.7292   1 
   0   7   5 20.9664 12.0210  -2 
   0   7   5 20.9664 12.0210   1 
   1   7   5 2477.02 40.8348  -2 
   1   7   5 2477.02 40.8348   1 
   2   7   5 1800.86 45.5723  -2 
   2   7   5 1800.86 45.5723   1 
   3   7   5 193.801 20.3464  -2 
   3   7   5 193.801 20.3464   1 
   4   7   5 2149.02 60.7697  -2 
   4   7   5 2149.02 60.7697   1 
   5   7   5 1829.07 60.6876  -2 
   5   7   5 1829.07 60.6876   1 
   6   7   5 15.2284 21.3848  -2 
   6   7   5 15.2284 21.3848   1 
   7   7   5 922.844 43.9991  -2 
   7   7   5 922.844 43.9991   1 
   8   7   5 789.128 44.5254  -2 
   8   7   5 789.128 44.5254   1 
   9   7   5 47.0050 41.2504  -2 
   9   7   5 47.0050 41.2504   1 
  10   7   5 987.712 74.1653  -2 
  10   7   5 987.712 74.1653   1 
  11   7   5 355.630 74.7371   1 
  -8   8   5 485.632 53.1879   1 
  -7   8   5 87.5094 47.4763  -2 
  -7   8   5 87.5094 47.4763   1 
  -6   8   5 71.2915 41.5962  -2 
  -6   8   5 71.2915 41.5962   1 
  -5   8   5 493.310 50.4048  -2 
  -5   8   5 493.310 50.4048   1 
  -4   8   5 322.870 40.1391  -2 
  -4   8   5 322.870 40.1391   1 
  -3   8   5 176.117 28.8039  -2 
  -3   8   5 176.117 28.8039   1 
  -2   8   5 1124.39 43.4372  -2 
  -2   8   5 1124.39 43.4372   1 
  -1   8   5 2001.70 51.1755  -2 
  -1   8   5 2001.70 51.1755   1 
   0   8   5 25.7238 14.2407  -2 
   0   8   5 25.7238 14.2407   1 
   1   8   5 2439.54 55.5397  -2 
   1   8   5 2439.54 55.5397   1 
   2   8   5 1413.29 42.4720  -2 
   2   8   5 1413.29 42.4720   1 
   3   8   5 23.7530 13.7420  -2 
   3   8   5 23.7530 13.7420   1 
   4   8   5 246.137 23.7047  -2 
   4   8   5 246.137 23.7047   1 
   5   8   5 1516.17 48.3791  -2 
   5   8   5 1516.17 48.3791   1 
   6   8   5 910.719 42.2124  -2 
   6   8   5 910.719 42.2124   1 
   7   8   5 554.741 44.1862  -2 
   7   8   5 554.741 44.1862   1 
   8   8   5 1066.30 103.168  -2 
   8   8   5 1066.30 103.168   1 
   9   8   5 55.9879 67.5802  -2 
   9   8   5 55.9879 67.5802   1 
  10   8   5 121.800 76.9452  -2 
  10   8   5 121.800 76.9452   1 
  -7   9   5 732.375 69.3860  -2 
  -7   9   5 732.375 69.3860   1 
  -6   9   5 968.606 68.7045  -2 
  -6   9   5 968.606 68.7045   1 
  -5   9   5 9.37269 40.0284  -2 
  -5   9   5 9.37269 40.0284   1 
  -4   9   5 2045.45 79.2094  -2 
  -4   9   5 2045.45 79.2094   1 
  -3   9   5 925.748 54.6673  -2 
  -3   9   5 925.748 54.6673   1 
  -2   9   5 71.9157 25.6003  -2 
  -2   9   5 71.9157 25.6003   1 
  -1   9   5 1082.57 42.5150  -2 
  -1   9   5 1082.57 42.5150   1 
   0   9   5 2407.54 48.7533  -2 
   0   9   5 2407.54 48.7533   1 
   1   9   5 47.2544 16.6070  -2 
   1   9   5 47.2544 16.6070   1 
   2   9   5 1440.76 44.8577  -2 
   2   9   5 1440.76 44.8577   1 
   3   9   5 2887.84 61.7978  -2 
   3   9   5 2887.84 61.7978   1 
   4   9   5 302.834 26.4445  -2 
   4   9   5 302.834 26.4445   1 
   5   9   5 1000.89 41.9121  -2 
   5   9   5 1000.89 41.9121   1 
   6   9   5 703.092 59.7312  -2 
   6   9   5 703.092 59.7312   1 
   7   9   5 213.206 48.3780  -2 
   7   9   5 213.206 48.3780   1 
   8   9   5 16.0921 44.1437  -2 
   8   9   5 16.0921 44.1437   1 
   9   9   5 650.692 70.5917  -2 
   9   9   5 650.692 70.5917   1 
  10   9   5 966.223 124.128  -2 
  10   9   5 966.223 124.128   1 
  12   9   5 391.390 90.6991   1 
  -7  10   5 123.246 82.4353  -2 
  -7  10   5 123.246 82.4353   1 
  -6  10   5 401.584 58.4253  -2 
  -6  10   5 401.584 58.4253   1 
  -5  10   5 194.245 48.6672  -2 
  -5  10   5 194.245 48.6672   1 
  -4  10   5 480.212 75.9843  -2 
  -4  10   5 480.212 75.9843   1 
  -3  10   5 981.057 58.3438  -2 
  -3  10   5 981.057 58.3438   1 
  -2  10   5 165.242 35.5868  -2 
  -2  10   5 165.242 35.5868   1 
  -1  10   5 283.449 30.4868  -2 
  -1  10   5 283.449 30.4868   1 
   0  10   5 1509.95 42.7658  -2 
   0  10   5 1509.95 42.7658   1 
   1  10   5 793.695 37.8608  -2 
   1  10   5 793.695 37.8608   1 
   2  10   5 8.42964 12.9117  -2 
   2  10   5 8.42964 12.9117   1 
   3  10   5 637.264 32.7465  -2 
   3  10   5 637.264 32.7465   1 
   4  10   5 456.833 46.1024  -2 
   4  10   5 456.833 46.1024   1 
   5  10   5 83.2094 37.2346  -2 
   5  10   5 83.2094 37.2346   1 
   6  10   5 522.422 58.4279  -2 
   6  10   5 522.422 58.4279   1 
   7  10   5 563.152 64.2284  -2 
   7  10   5 563.152 64.2284   1 
   8  10   5 87.9356 50.8094  -2 
   8  10   5 87.9356 50.8094   1 
   9  10   5 248.875 62.6079  -2 
   9  10   5 248.875 62.6079   1 
  10  10   5 742.676 82.4590  -2 
  10  10   5 742.676 82.4590   1 
  -6  11   5 400.820 89.3634  -2 
  -6  11   5 400.820 89.3634   1 
  -5  11   5 941.271 70.1831  -2 
  -5  11   5 941.271 70.1831   1 
  -4  11   5 19.3446 41.6856  -2 
  -4  11   5 19.3446 41.6856   1 
  -3  11   5 391.505 48.3911  -2 
  -3  11   5 391.505 48.3911   1 
  -2  11   5 970.253 55.8193  -2 
  -2  11   5 970.253 55.8193   1 
  -1  11   5 838.447 43.4438  -2 
  -1  11   5 838.447 43.4438   1 
   0  11   5 -1.9760 26.9281  -2 
   0  11   5 -1.9760 26.9281   1 
   1  11   5 1695.51 56.0075  -2 
   1  11   5 1695.51 56.0075   1 
   2  11   5 928.993 40.6862  -2 
   2  11   5 928.993 40.6862   1 
   3  11   5 3.03655 23.2160  -2 
   3  11   5 3.03655 23.2160   1 
   4  11   5 700.892 56.9451  -2 
   4  11   5 700.892 56.9451   1 
   5  11   5 579.774 57.8558  -2 
   5  11   5 579.774 57.8558   1 
   6  11   5 202.096 49.9966  -2 
   6  11   5 202.096 49.9966   1 
   7  11   5 327.674 60.7814  -2 
   7  11   5 327.674 60.7814   1 
   8  11   5 2058.82 110.801  -2 
   8  11   5 2058.82 110.801   1 
   9  11   5 243.041 69.5222  -2 
   9  11   5 243.041 69.5222   1 
  10  11   5 414.363 79.1617  -2 
  10  11   5 414.363 79.1617   1 
  -5  12   5 80.1642 48.6907  -2 
  -5  12   5 80.1642 48.6907   1 
  -4  12   5 670.687 61.1438  -2 
  -4  12   5 670.687 61.1438   1 
  -3  12   5 14.1064 38.8434  -2 
  -3  12   5 14.1064 38.8434   1 
  -2  12   5 421.445 46.0821  -2 
  -2  12   5 421.445 46.0821   1 
  -1  12   5 525.680 62.9412  -2 
  -1  12   5 525.680 62.9412   1 
   0  12   5 88.5109 59.2135  -2 
   0  12   5 88.5109 59.2135   1 
   1  12   5 35.4269 27.8806  -2 
   1  12   5 35.4269 27.8806   1 
   2  12   5 56.4785 29.6516  -2 
   2  12   5 56.4785 29.6516   1 
   3  12   5 596.263 52.9582  -2 
   3  12   5 596.263 52.9582   1 
   4  12   5 32.3774 33.9609  -2 
   4  12   5 32.3774 33.9609   1 
   5  12   5 1410.79 85.5982  -2 
   5  12   5 1410.79 85.5982   1 
   6  12   5 755.663 73.3061  -2 
   6  12   5 755.663 73.3061   1 
   7  12   5 1.13089 51.9695  -2 
   7  12   5 1.13089 51.9695   1 
   8  12   5 245.235 67.7966  -2 
   8  12   5 245.235 67.7966   1 
   9  12   5 236.505 72.6060  -2 
   9  12   5 236.505 72.6060   1 
  10  12   5 65.9163 70.7015  -2 
  10  12   5 65.9163 70.7015   1 
  -4  13   5 646.729 61.9129  -2 
  -4  13   5 646.729 61.9129   1 
   1  13   5 274.992 43.3841  -2 
   1  13   5 274.992 43.3841   1 
   2  13   5 332.124 45.1277  -2 
   2  13   5 332.124 45.1277   1 
   3  13   5 1336.37 79.5641  -2 
   3  13   5 1336.37 79.5641   1 
   4  13   5 713.415 63.9783  -2 
   4  13   5 713.415 63.9783   1 
   5  13   5 71.2016 45.7378  -2 
   5  13   5 71.2016 45.7378   1 
   6  13   5 1271.29 93.1739  -2 
   6  13   5 1271.29 93.1739   1 
   7  13   5 810.439 85.8433  -2 
   7  13   5 810.439 85.8433   1 
   8  13   5 13.6921 61.1298  -2 
   8  13   5 13.6921 61.1298   1 
   9  13   5 716.570 93.1282  -2 
   9  13   5 716.570 93.1282   1 
   2  14   5 201.090 43.3661  -2 
   2  14   5 201.090 43.3661   1 
   3  14   5 470.142 55.0105  -2 
   3  14   5 470.142 55.0105   1 
   4  14   5 804.346 71.7192  -2 
   4  14   5 804.346 71.7192   1 
   5  14   5 61.1796 48.9220  -2 
   5  14   5 61.1796 48.9220   1 
   6  14   5 53.4373 54.3409  -2 
   6  14   5 53.4373 54.3409   1 
   7  14   5 384.359 76.6182  -2 
   7  14   5 384.359 76.6182   1 
   8  14   5 131.118 73.9671  -2 
   8  14   5 131.118 73.9671   1 
   2  15   5 584.363 85.4076  -2 
   2  15   5 584.363 85.4076   1 
   3  15   5 5.47275 53.8764  -2 
   3  15   5 5.47275 53.8764   1 
   4  15   5 206.357 51.1893  -2 
   4  15   5 206.357 51.1893   1 
   5  15   5 563.123 73.7687  -2 
   5  15   5 563.123 73.7687   1 
   6  15   5 124.049 64.1455  -2 
   6  15   5 124.049 64.1455   1 
  -2 -11   6 1070.25 164.013  -2 
  -2 -11   6 1070.25 164.013   1 
  -1 -11   6 117.249 63.9307  -2 
  -1 -11   6 117.249 63.9307   1 
   0 -11   6 396.083 84.8550  -2 
   0 -11   6 396.083 84.8550   1 
   1 -11   6 447.036 72.5062  -2 
   1 -11   6 447.036 72.5062   1 
  -4 -10   6 67.9487 117.830  -2 
  -4 -10   6 67.9487 117.830   1 
  -3 -10   6 10.7648 54.1412  -2 
  -3 -10   6 10.7648 54.1412   1 
  -2 -10   6 139.112 58.8967  -2 
  -2 -10   6 139.112 58.8967   1 
  -1 -10   6 780.432 77.1756  -2 
  -1 -10   6 780.432 77.1756   1 
   0 -10   6 110.819 58.1417  -2 
   0 -10   6 110.819 58.1417   1 
   1 -10   6 205.994 58.8332  -2 
   1 -10   6 205.994 58.8332   1 
   2 -10   6 340.395 128.973  -2 
   2 -10   6 340.395 128.973   1 
   3 -10   6 -42.309 113.815  -2 
   3 -10   6 -42.309 113.815   1 
   4 -10   6 67.6450 121.118  -2 
   4 -10   6 67.6450 121.118   1 
   5 -10   6 95.9114 40.0853   1 
  -6  -9   6 63.8127 32.1486   1 
  -5  -9   6 27.1312 114.083  -2 
  -5  -9   6 27.1312 114.083   1 
  -4  -9   6 850.911 67.8705  -2 
  -4  -9   6 850.911 67.8705   1 
  -3  -9   6 770.018 63.9366  -2 
  -3  -9   6 770.018 63.9366   1 
  -2  -9   6 35.2854 90.0768  -2 
  -2  -9   6 35.2854 90.0768   1 
  -1  -9   6 898.327 75.5271  -2 
  -1  -9   6 898.327 75.5271   1 
   0  -9   6 777.877 72.1614  -2 
   0  -9   6 777.877 72.1614   1 
   1  -9   6 25.9722 95.9323  -2 
   1  -9   6 25.9722 95.9323   1 
   2  -9   6 194.197 108.573  -2 
   2  -9   6 194.197 108.573   1 
   3  -9   6 814.310 143.705  -2 
   3  -9   6 814.310 143.705   1 
   4  -9   6 582.850 141.518  -2 
   4  -9   6 582.850 141.518   1 
   5  -9   6 130.165 107.579  -2 
   5  -9   6 130.165 107.579   1 
   6  -9   6 932.787 158.812  -2 
   6  -9   6 932.787 158.812   1 
  -7  -8   6 71.0057 34.4148   1 
  -6  -8   6 308.732 53.1216   1 
  -5  -8   6 160.478 119.075  -2 
  -5  -8   6 160.478 119.075   1 
  -4  -8   6 24.3131 62.6120  -2 
  -4  -8   6 24.3131 62.6120   1 
  -3  -8   6 268.298 48.8190  -2 
  -3  -8   6 268.298 48.8190   1 
  -2  -8   6 619.669 54.8187  -2 
  -2  -8   6 619.669 54.8187   1 
  -1  -8   6 9.74766 79.1528  -2 
  -1  -8   6 9.74766 79.1528   1 
   0  -8   6 366.978 101.295  -2 
   0  -8   6 366.978 101.295   1 
   1  -8   6 644.464 115.433  -2 
   1  -8   6 644.464 115.433   1 
   2  -8   6 117.525 93.7595  -2 
   2  -8   6 117.525 93.7595   1 
   3  -8   6 384.941 115.581  -2 
   3  -8   6 384.941 115.581   1 
   4  -8   6 1034.64 149.658  -2 
   4  -8   6 1034.64 149.658   1 
   5  -8   6 418.583 116.088  -2 
   5  -8   6 418.583 116.088   1 
   6  -8   6 214.134 118.514  -2 
   6  -8   6 214.134 118.514   1 
   7  -8   6 813.789 149.797  -2 
   7  -8   6 813.789 149.797   1 
   8  -8   6 143.895 119.580  -2 
   8  -8   6 143.895 119.580   1 
  -7  -7   6 69.3597 32.1440   1 
  -6  -7   6 188.698 41.1751   1 
  -5  -7   6 1141.24 149.196  -2 
  -5  -7   6 1141.24 149.196   1 
  -4  -7   6 210.766 43.8775  -2 
  -4  -7   6 210.766 43.8775   1 
  -3  -7   6 189.505 41.1873  -2 
  -3  -7   6 189.505 41.1873   1 
  -2  -7   6 822.624 78.1012  -2 
  -2  -7   6 822.624 78.1012   1 
  -1  -7   6 348.747 65.3444  -2 
  -1  -7   6 348.747 65.3444   1 
   0  -7   6 4.56254 73.3714  -2 
   0  -7   6 4.56254 73.3714   1 
   1  -7   6 906.424 117.406  -2 
   1  -7   6 906.424 117.406   1 
   2  -7   6 2087.05 160.226  -2 
   2  -7   6 2087.05 160.226   1 
   3  -7   6 3.67587 18.3233   1 
   4  -7   6 1648.17 159.979  -2 
   4  -7   6 1648.17 159.979   1 
   5  -7   6 1127.60 137.824  -2 
   5  -7   6 1127.60 137.824   1 
   6  -7   6 13.3120 97.4044  -2 
   6  -7   6 13.3120 97.4044   1 
   7  -7   6 430.145 121.552  -2 
   7  -7   6 430.145 121.552   1 
   8  -7   6 648.975 135.863  -2 
   8  -7   6 648.975 135.863   1 
   9  -7   6 189.231 122.550  -2 
   9  -7   6 189.231 122.550   1 
  -8  -6   6 133.492 38.5066   1 
  -7  -6   6 425.759 56.3586   1 
  -6  -6   6 15.1177 23.3306   1 
  -5  -6   6 20.8260 100.745  -2 
  -5  -6   6 20.8260 100.745   1 
  -4  -6   6 375.700 55.2921  -2 
  -4  -6   6 375.700 55.2921   1 
  -3  -6   6 604.428 54.5688  -2 
  -3  -6   6 604.428 54.5688   1 
  -2  -6   6 32.4169 49.5796  -2 
  -2  -6   6 32.4169 49.5796   1 
  -1  -6   6 2478.38 102.742  -2 
  -1  -6   6 2478.38 102.742   1 
   0  -6   6 864.514 70.7483  -2 
   0  -6   6 864.514 70.7483   1 
   1  -6   6 76.3038 72.3060  -2 
   1  -6   6 76.3038 72.3060   1 
   2  -6   6 823.513 108.645  -2 
   2  -6   6 823.513 108.645   1 
   3  -6   6 408.290 95.9039  -2 
   3  -6   6 408.290 95.9039   1 
   4  -6   6 25.9548 78.8923  -2 
   4  -6   6 25.9548 78.8923   1 
   5  -6   6 238.050 90.8962  -2 
   5  -6   6 238.050 90.8962   1 
   6  -6   6 1067.95 141.609  -2 
   6  -6   6 1067.95 141.609   1 
   7  -6   6 10.5786 91.0796  -2 
   7  -6   6 10.5786 91.0796   1 
   8  -6   6 453.061 119.588  -2 
   8  -6   6 453.061 119.588   1 
   9  -6   6 263.520 64.1560  -2 
   9  -6   6 263.520 64.1560   1 
  10  -6   5 41.7443 61.4081  -2 
  10  -6   6 41.7443 61.4081   1 
  -9  -5   6 269.813 59.6663   1 
  -8  -5   6 13.0415 24.4438   1 
  -7  -5   6 339.462 52.9602   1 
  -6  -5   6 582.142 58.2796   1 
  -5  -5   6 51.4229 92.6876  -2 
  -5  -5   6 51.4229 92.6876   1 
  -4  -5   6 891.671 66.3330  -2 
  -4  -5   6 891.671 66.3330   1 
  -3  -5   6 1582.75 77.5558  -2 
  -3  -5   6 1582.75 77.5558   1 
  -2  -5   6 306.219 52.5938  -2 
  -2  -5   6 306.219 52.5938   1 
  -1  -5   6 1620.46 81.8158  -2 
  -1  -5   6 1620.46 81.8158   1 
   0  -5   6 2113.85 88.1519  -2 
   0  -5   6 2113.85 88.1519   1 
   1  -5   6 347.501 50.1852  -2 
   1  -5   6 347.501 50.1852   1 
   2  -5   6 306.158 77.3503  -2 
   2  -5   6 306.158 77.3503   1 
   3  -5   6 817.590 49.2614   1 
   4  -5   6 283.656 86.3621  -2 
   4  -5   6 283.656 86.3621   1 
   5  -5   6 29.0553 72.8462  -2 
   5  -5   6 29.0553 72.8462   1 
   6  -5   6 762.178 118.818  -2 
   6  -5   6 762.178 118.818   1 
   7  -5   6 359.204 51.0408  -2 
   7  -5   6 359.204 51.0408   1 
   8  -5   6 4.41839 90.0987  -2 
   8  -5   6 4.41839 90.0987   1 
   9  -5   6 357.200 63.5105  -2 
   9  -5   6 357.200 63.5105   1 
  10  -5   5 394.654 72.9205  -2 
  10  -5   6 394.654 72.9205   1 
  10  -5   6 467.976 125.403  -2 
  10  -5   6 467.976 125.403   1 
  -9  -4   6 413.924 60.4195   1 
  -8  -4   6 291.172 53.7456   1 
  -7  -4   6 -8.6362 21.4546   1 
  -6  -4   6 757.757 127.612  -2 
  -6  -4   6 757.757 127.612   1 
  -5  -4   6 995.103 125.858  -2 
  -5  -4   6 995.103 125.858   1 
  -4  -4   6 70.4763 85.0748  -2 
  -4  -4   6 70.4763 85.0748   1 
  -3  -4   6 1594.31 71.5642  -2 
  -3  -4   6 1594.31 71.5642   1 
  -2  -4   6 1762.36 102.020  -2 
  -2  -4   6 1762.36 102.020   1 
  -1  -4   6 202.328 46.1480  -2 
  -1  -4   6 202.328 46.1480   1 
   0  -4   6 704.438 57.8476  -2 
   0  -4   6 704.438 57.8476   1 
   1  -4   6 817.005 59.5037  -2 
   1  -4   6 817.005 59.5037   1 
   2  -4   6 234.788 67.4921  -2 
   2  -4   6 234.788 67.4921   1 
   3  -4   6 49.8272 66.8173  -2 
   3  -4   6 49.8272 66.8173   1 
   4  -4   6 1500.47 120.468  -2 
   4  -4   6 1500.47 120.468   1 
   5  -4   6 1011.33 111.913  -2 
   5  -4   6 1011.33 111.913   1 
   6  -4   6 7.01812 72.6354  -2 
   6  -4   6 7.01812 72.6354   1 
   7  -4   6 609.262 106.692  -2 
   7  -4   6 609.262 106.692   1 
   8  -4   6 410.135 56.1103  -2 
   8  -4   6 410.135 56.1103   1 
   9  -4   6 17.4511 46.6950  -2 
   9  -4   6 17.4511 46.6950   1 
  10  -4   5 209.513 61.0213  -2 
  10  -4   6 209.513 61.0213   1 
  10  -4   6 151.360 103.282  -2 
  10  -4   6 151.360 103.282   1 
  11  -4   5 343.791 69.9629  -2 
  11  -4   6 343.791 69.9629   1 
  -9  -3   6 10.2589 27.6485   1 
  -8  -3   6 542.919 60.2160   1 
  -7  -3   6 241.372 45.2690   1 
  -6  -3   6 897.491 129.475  -2 
  -6  -3   6 897.491 129.475   1 
  -5  -3   6 1652.63 142.615  -2 
  -5  -3   6 1652.63 142.615   1 
  -4  -3   6 437.522 97.5369  -2 
  -4  -3   6 437.522 97.5369   1 
  -3  -3   6 89.8200 37.9577  -2 
  -3  -3   6 89.8200 37.9577   1 
  -2  -3   6 211.353 38.6961  -2 
  -2  -3   6 211.353 38.6961   1 
  -1  -3   6 897.380 58.4861  -2 
  -1  -3   6 897.380 58.4861   1 
   0  -3   6 265.807 44.7358  -2 
   0  -3   6 265.807 44.7358   1 
   1  -3   6 1477.54 67.6257  -2 
   1  -3   6 1477.54 67.6257   1 
   2  -3   6 1418.90 79.0641  -2 
   2  -3   6 1418.90 79.0641   1 
   3  -3   6 1.78408 53.3435  -2 
   3  -3   6 1.78408 53.3435   1 
   4  -3   6 757.522 89.4332  -2 
   4  -3   6 757.522 89.4332   1 
   5  -3   6 1011.85 107.749  -2 
   5  -3   6 1011.85 107.749   1 
   6  -3   6 414.478 84.8279  -2 
   6  -3   6 414.478 84.8279   1 
   7  -3   6 -18.815 34.1743  -2 
   7  -3   6 -18.815 34.1743   1 
   8  -3   6 1618.11 79.7984  -2 
   8  -3   6 1618.11 79.7984   1 
   9  -3   6 1475.97 82.5799  -2 
   9  -3   6 1475.97 82.5799   1 
  10  -3   6 247.312 101.020  -2 
  10  -3   6 247.312 101.020   1 
  11  -3   5 488.669 53.4597  -2 
  11  -3   6 488.669 53.4597   1 
  11  -3   6 774.169 129.943  -2 
  11  -3   6 774.169 129.943   1 
  -9  -2   6 72.1958 32.5393   1 
  -8  -2   6 166.557 38.1235   1 
  -7  -2   6 636.315 58.8527   1 
  -6  -2   6 210.774 98.3594  -2 
  -6  -2   6 210.774 98.3594   1 
  -5  -2   6 75.6367 84.8672  -2 
  -5  -2   6 75.6367 84.8672   1 
  -4  -2   6 829.803 106.438  -2 
  -4  -2   6 829.803 106.438   1 
  -3  -2   6 1725.90 125.209  -2 
  -3  -2   6 1725.90 125.209   1 
  -2  -2   6 27.2055 31.4688  -2 
  -2  -2   6 27.2055 31.4688   1 
  -1  -2   6 601.291 47.0685  -2 
  -1  -2   6 601.291 47.0685   1 
   0  -2   6 1087.67 58.2765  -2 
   0  -2   6 1087.67 58.2765   1 
   1  -2   6 206.167 38.7020  -2 
   1  -2   6 206.167 38.7020   1 
   2  -2   6 361.602 45.4391  -2 
   2  -2   6 361.602 45.4391   1 
   3  -2   6 2323.11 116.513  -2 
   3  -2   6 2323.11 116.513   1 
   4  -2   6 1103.33 94.3182  -2 
   4  -2   6 1103.33 94.3182   1 
   5  -2   6 348.835 73.2604  -2 
   5  -2   6 348.835 73.2604   1 
   6  -2   6 1577.54 116.696  -2 
   6  -2   6 1577.54 116.696   1 
   7  -2   6 446.890 87.6051  -2 
   7  -2   6 446.890 87.6051   1 
   8  -2   6 168.903 42.9886  -2 
   8  -2   6 168.903 42.9886   1 
   9  -2   6 1268.34 75.1467  -2 
   9  -2   6 1268.34 75.1467   1 
  10  -2   6 318.116 96.7816  -2 
  10  -2   6 318.116 96.7816   1 
  10  -2   5 309.106 63.6351  -2 
  10  -2   6 309.106 63.6351   1 
  11  -2   5 11.5309 36.9627  -2 
  11  -2   6 11.5309 36.9627   1 
  11  -2   6 39.4035 88.3627  -2 
  11  -2   6 39.4035 88.3627   1 
 -10  -1   6 126.068 69.8036   1 
  -9  -1   6 323.480 53.9134   1 
  -8  -1   6 -11.563 21.8432   1 
  -7  -1   6 457.423 50.7509   1 
  -6  -1   6 544.726 108.269  -2 
  -6  -1   6 544.726 108.269   1 
  -5  -1   6 60.4001 78.9417  -2 
  -5  -1   6 60.4001 78.9417   1 
  -4  -1   6 -4.5151 68.5604  -2 
  -4  -1   6 -4.5151 68.5604   1 
  -3  -1   6 1135.24 105.030  -2 
  -3  -1   6 1135.24 105.030   1 
  -2  -1   6 574.279 83.1947  -2 
  -2  -1   6 574.279 83.1947   1 
  -1  -1   6 111.630 31.4416  -2 
  -1  -1   6 111.630 31.4416   1 
   0  -1   6 3165.12 82.1748  -2 
   0  -1   6 3165.12 82.1748   1 
   1  -1   6 1191.25 68.9791  -2 
   1  -1   6 1191.25 68.9791   1 
   2  -1   6 10.3661 39.7432  -2 
   2  -1   6 10.3661 39.7432   1 
   3  -1   6 485.754 63.1954  -2 
   3  -1   6 485.754 63.1954   1 
   4  -1   6 2219.34 114.914  -2 
   4  -1   6 2219.34 114.914   1 
   5  -1   6 285.364 62.8691  -2 
   5  -1   6 285.364 62.8691   1 
   6  -1   6 1059.47 97.4931  -2 
   6  -1   6 1059.47 97.4931   1 
   7  -1   6 1177.48 105.618  -2 
   7  -1   6 1177.48 105.618   1 
   8  -1   6 -0.8199 66.5268  -2 
   8  -1   6 -0.8199 66.5268   1 
   9  -1   6 672.275 100.554  -2 
   9  -1   6 672.275 100.554   1 
  10  -1   6 650.781 108.770  -2 
  10  -1   6 650.781 108.770   1 
  10  -1   5 519.588 69.2823  -2 
  10  -1   6 519.588 69.2823   1 
  11  -1   6 36.1756 83.5048  -2 
  11  -1   6 36.1756 83.5048   1 
 -10   0   6 -9.6452 27.2732   1 
  -9   0   6 151.014 38.5524   1 
  -8   0   6 505.706 55.8318   1 
  -7   0   6 239.514 42.4106   1 
  -6   0   6 252.217 39.0941   1 
  -5   0   6 2279.66 145.718  -2 
  -5   0   6 2279.66 145.718   1 
  -4   0   6 590.187 88.9328  -2 
  -4   0   6 590.187 88.9328   1 
  -3   0   6 886.341 92.1253  -2 
  -3   0   6 886.341 92.1253   1 
  -2   0   6 2435.72 121.382  -2 
  -2   0   6 2435.72 121.382   1 
  -1   0   6 937.448 46.4907  -2 
  -1   0   6 937.448 46.4907   1 
   0   0   6 129.995 27.4701  -2 
   0   0   6 129.995 27.4701   1 
   1   0   6 3227.44 75.2329  -2 
   1   0   6 3227.44 75.2329   1 
   2   0   6 2929.09 93.4028  -2 
   2   0   6 2929.09 93.4028   1 
   3   0   6 28.8796 38.0625  -2 
   3   0   6 28.8796 38.0625   1 
   4   0   6 2970.90 120.805  -2 
   4   0   6 2970.90 120.805   1 
   5   0   6 1696.84 102.949  -2 
   5   0   6 1696.84 102.949   1 
   6   0   6 82.7242 32.0585  -2 
   6   0   6 82.7242 32.0585   1 
   7   0   6 341.161 72.0789  -2 
   7   0   6 341.161 72.0789   1 
   8   0   6 496.745 83.7576  -2 
   8   0   6 496.745 83.7576   1 
   9   0   6 319.715 82.2603  -2 
   9   0   6 319.715 82.2603   1 
  10   0   6 344.401 87.6079  -2 
  10   0   6 344.401 87.6079   1 
 -10   1   6 123.808 72.1311   1 
  -9   1   6 -2.0089 22.4317   1 
  -8   1   6 338.688 48.3482   1 
  -7   1   6 495.320 38.8456   1 
  -6   1   6 -1.4891 13.0181   1 
  -5   1   6 876.027 103.736  -2 
  -5   1   6 876.027 103.736   1 
  -4   1   6 692.028 89.8366  -2 
  -4   1   6 692.028 89.8366   1 
  -3   1   6 484.911 41.0479  -2 
  -3   1   6 484.911 41.0479   1 
  -2   1   6 796.473 43.5321  -2 
  -2   1   6 796.473 43.5321   1 
  -1   1   6 4184.90 79.7013  -2 
  -1   1   6 4184.90 79.7013   1 
   0   1   6 676.713 67.4564  -2 
   0   1   6 676.713 67.4564   1 
   1   1   6 1314.85 48.4614  -2 
   1   1   6 1314.85 48.4614   1 
   2   1   6 1661.99 72.7174  -2 
   2   1   6 1661.99 72.7174   1 
   3   1   6 212.043 42.8457  -2 
   3   1   6 212.043 42.8457   1 
   4   1   6 779.391 67.6820  -2 
   4   1   6 779.391 67.6820   1 
   5   1   6 592.688 39.4108  -2 
   5   1   6 592.688 39.4108   1 
   6   1   6 1135.79 54.5305  -2 
   6   1   6 1135.79 54.5305   1 
   7   1   6 28.1836 51.9846  -2 
   7   1   6 28.1836 51.9846   1 
   8   1   6 2059.83 127.113  -2 
   8   1   6 2059.83 127.113   1 
   9   1   6 616.057 90.1579  -2 
   9   1   6 616.057 90.1579   1 
  -9   2   6 436.795 66.9218   1 
  -8   2   6 6.01070 17.5718   1 
  -7   2   6 1076.96 130.152  -2 
  -7   2   6 1076.96 130.152   1 
  -6   2   6 977.006 63.3390  -2 
  -6   2   6 977.006 63.3390   1 
  -5   2   6 -0.0087 69.6477  -2 
  -5   2   6 -0.0087 69.6477   1 
  -4   2   6 1772.18 68.3140  -2 
  -4   2   6 1772.18 68.3140   1 
  -3   2   6 1894.34 65.4194  -2 
  -3   2   6 1894.34 65.4194   1 
  -2   2   6 341.932 69.0743  -2 
  -2   2   6 341.932 69.0743   1 
  -1   2   6 727.770 38.6564  -2 
  -1   2   6 727.770 38.6564   1 
   0   2   6 4477.35 76.1579  -2 
   0   2   6 4477.35 76.1579   1 
   1   2   6 230.074 18.1582  -2 
   1   2   6 230.074 18.1582   1 
   2   2   6 416.003 31.3203  -2 
   2   2   6 416.003 31.3203   1 
   3   2   6 2112.39 86.8957  -2 
   3   2   6 2112.39 86.8957   1 
   4   2   6 160.471 25.1439  -2 
   4   2   6 160.471 25.1439   1 
   5   2   6 37.3655 22.9462  -2 
   5   2   6 37.3655 22.9462   1 
   6   2   6 818.962 47.8595  -2 
   6   2   6 818.962 47.8595   1 
   7   2   6 1965.71 71.0653  -2 
   7   2   6 1965.71 71.0653   1 
   8   2   6 -18.818 52.4958  -2 
   8   2   6 -18.818 52.4958   1 
   9   2   6 1316.55 109.741  -2 
   9   2   6 1316.55 109.741   1 
  10   2   6 991.465 77.2442   1 
  12   2   5 595.620 82.1260  -2 
  12   2   6 595.620 82.1260   1 
  13   2   5 401.195 78.0390  -2 
  13   2   6 401.195 78.0390   1 
  -9   3   6 480.732 72.0282   1 
  -8   3   6 45.8159 23.6306   1 
  -7   3   6 141.246 93.9448  -2 
  -7   3   6 141.246 93.9448   1 
  -6   3   6 294.504 48.3075  -2 
  -6   3   6 294.504 48.3075   1 
  -5   3   6 798.426 99.9229  -2 
  -5   3   6 798.426 99.9229   1 
  -4   3   6 4.76666 64.3108  -2 
  -4   3   6 4.76666 64.3108   1 
  -3   3   6 1366.91 58.0110  -2 
  -3   3   6 1366.91 58.0110   1 
  -2   3   6 1220.41 50.4159  -2 
  -2   3   6 1220.41 50.4159   1 
  -1   3   6 88.6548 23.2714  -2 
  -1   3   6 88.6548 23.2714   1 
   0   3   6 1114.12 40.0371  -2 
   0   3   6 1114.12 40.0371   1 
   1   3   6 335.832 19.5118  -2 
   1   3   6 335.832 19.5118   1 
   2   3   6 868.819 24.8689  -2 
   2   3   6 868.819 24.8689   1 
   3   3   6 78.9122 17.1559  -2 
   3   3   6 78.9122 17.1559   1 
   4   3   6 2113.81 58.3114  -2 
   4   3   6 2113.81 58.3114   1 
   5   3   6 473.872 35.8352  -2 
   5   3   6 473.872 35.8352   1 
   6   3   6 413.586 37.2938  -2 
   6   3   6 413.586 37.2938   1 
   7   3   6 1067.42 55.5318  -2 
   7   3   6 1067.42 55.5318   1 
   8   3   6 614.221 78.7225  -2 
   8   3   6 614.221 78.7225   1 
   9   3   6 22.2701 57.7935  -2 
   9   3   6 22.2701 57.7935   1 
  10   3   6 501.031 57.0065   1 
  11   3   5 543.892 74.6007  -2 
  11   3   6 543.892 74.6007   1 
  12   3   5 15.2461 55.4346  -2 
  12   3   6 15.2461 55.4346   1 
  13   3   5 678.059 91.3872  -2 
  13   3   6 678.059 91.3872   1 
  -9   4   6 153.361 34.1559   1 
  -8   4   6 788.343 83.9575   1 
  -7   4   6 357.283 65.9577  -2 
  -7   4   6 357.283 65.9577   1 
  -6   4   6 597.560 57.9721  -2 
  -6   4   6 597.560 57.9721   1 
  -5   4   6 1611.07 125.613  -2 
  -5   4   6 1611.07 125.613   1 
  -4   4   6 146.126 67.7522  -2 
  -4   4   6 146.126 67.7522   1 
  -3   4   6 65.6142 22.9252  -2 
  -3   4   6 65.6142 22.9252   1 
  -2   4   6 1157.64 39.0944  -2 
  -2   4   6 1157.64 39.0944   1 
  -1   4   6 1322.96 38.1318  -2 
  -1   4   6 1322.96 38.1318   1 
   0   4   6 304.134 20.6741  -2 
   0   4   6 304.134 20.6741   1 
   1   4   6 1398.88 28.1729  -2 
   1   4   6 1398.88 28.1729   1 
   2   4   6 4492.20 65.5700  -2 
   2   4   6 4492.20 65.5700   1 
   3   4   6 628.376 29.1854  -2 
   3   4   6 628.376 29.1854   1 
   4   4   6 1360.48 40.5860  -2 
   4   4   6 1360.48 40.5860   1 
   5   4   6 894.347 43.6980  -2 
   5   4   6 894.347 43.6980   1 
   6   4   6 1307.30 54.9624  -2 
   6   4   6 1307.30 54.9624   1 
   7   4   6 10.1208 28.6700  -2 
   7   4   6 10.1208 28.6700   1 
   8   4   6 2617.66 83.6587  -2 
   8   4   6 2617.66 83.6587   1 
   9   4   6 1057.10 62.5958  -2 
   9   4   6 1057.10 62.5958   1 
  10   4   6 76.0755 29.5959   1 
  11   4   6 865.562 73.7809   1 
  12   4   5 345.415 71.0298  -2 
  12   4   6 345.415 71.0298   1 
  13   4   5 41.9447 63.9371  -2 
  13   4   6 41.9447 63.9371   1 
  -9   5   6 18.0865 22.1877   1 
  -8   5   6 180.814 34.8576   1 
  -7   5   6 607.293 79.0730  -2 
  -7   5   6 607.293 79.0730   1 
  -6   5   6 163.100 79.7614  -2 
  -6   5   6 163.100 79.7614   1 
  -5   5   6 131.130 41.0224  -2 
  -5   5   6 131.130 41.0224   1 
  -4   5   6 808.529 90.3529  -2 
  -4   5   6 808.529 90.3529   1 
  -3   5   6 352.940 40.4868  -2 
  -3   5   6 352.940 40.4868   1 
  -2   5   6 84.0527 20.9877  -2 
  -2   5   6 84.0527 20.9877   1 
  -1   5   6 1335.61 38.9348  -2 
  -1   5   6 1335.61 38.9348   1 
   0   5   6 2339.90 44.5284  -2 
   0   5   6 2339.90 44.5284   1 
   1   5   6 71.5941 16.0165  -2 
   1   5   6 71.5941 16.0165   1 
   2   5   6 1381.30 40.0857  -2 
   2   5   6 1381.30 40.0857   1 
   3   5   6 1381.44 41.2092  -2 
   3   5   6 1381.44 41.2092   1 
   4   5   6 19.2925 18.0063  -2 
   4   5   6 19.2925 18.0063   1 
   5   5   6 1354.01 44.5714  -2 
   5   5   6 1354.01 44.5714   1 
   6   5   6 2411.32 72.0957  -2 
   6   5   6 2411.32 72.0957   1 
   7   5   6 85.1154 33.2103  -2 
   7   5   6 85.1154 33.2103   1 
   8   5   6 467.746 45.4564  -2 
   8   5   6 467.746 45.4564   1 
   9   5   6 816.848 56.9935  -2 
   9   5   6 816.848 56.9935   1 
  10   5   6 123.955 69.0205  -2 
  10   5   6 123.955 69.0205   1 
  11   5   6 170.838 43.2821   1 
  12   5   5 691.063 82.3555  -2 
  12   5   6 691.063 82.3555   1 
  13   5   5 216.211 86.9524  -2 
  13   5   6 216.211 86.9524   1 
  -8   6   6 3.42304 20.0513   1 
  -7   6   6 366.658 43.8011   1 
  -6   6   6 755.096 56.0709  -2 
  -6   6   6 755.096 56.0709   1 
  -5   6   6 30.4726 37.3480  -2 
  -5   6   6 30.4726 37.3480   1 
  -4   6   6 220.620 31.8077  -2 
  -4   6   6 220.620 31.8077   1 
  -3   6   6 1959.68 56.1499  -2 
  -3   6   6 1959.68 56.1499   1 
  -2   6   6 2258.80 54.6652  -2 
  -2   6   6 2258.80 54.6652   1 
  -1   6   6 254.679 23.0949  -2 
  -1   6   6 254.679 23.0949   1 
   0   6   6 2817.42 49.5772  -2 
   0   6   6 2817.42 49.5772   1 
   1   6   6 1645.63 42.1252  -2 
   1   6   6 1645.63 42.1252   1 
   2   6   6 599.460 36.8854  -2 
   2   6   6 599.460 36.8854   1 
   3   6   6 1624.34 45.2254  -2 
   3   6   6 1624.34 45.2254   1 
   4   6   6 1588.07 47.2858  -2 
   4   6   6 1588.07 47.2858   1 
   5   6   6 8.90129 20.6904  -2 
   5   6   6 8.90129 20.6904   1 
   6   6   6 2469.19 62.9865  -2 
   6   6   6 2469.19 62.9865   1 
   7   6   6 2279.82 75.4739  -2 
   7   6   6 2279.82 75.4739   1 
   8   6   6 -0.5086 24.7851  -2 
   8   6   6 -0.5086 24.7851   1 
   9   6   6 1418.82 70.3138  -2 
   9   6   6 1418.82 70.3138   1 
  10   6   6 913.777 106.489  -2 
  10   6   6 913.777 106.489   1 
  11   6   6 8.97567 21.8226   1 
  12   6   6 -3.1241 21.8065   1 
  -8   7   6 119.536 31.9780   1 
  -7   7   6 206.705 38.0294   1 
  -6   7   6 288.487 47.8934  -2 
  -6   7   6 288.487 47.8934   1 
  -5   7   6 1456.75 68.5618  -2 
  -5   7   6 1456.75 68.5618   1 
  -4   7   6 223.301 32.8400  -2 
  -4   7   6 223.301 32.8400   1 
  -3   7   6 663.267 38.3690  -2 
  -3   7   6 663.267 38.3690   1 
  -2   7   6 1979.91 53.0735  -2 
  -2   7   6 1979.91 53.0735   1 
  -1   7   6 100.160 20.6678  -2 
  -1   7   6 100.160 20.6678   1 
   0   7   6 10.3679 15.2289  -2 
   0   7   6 10.3679 15.2289   1 
   1   7   6 716.103 31.8268  -2 
   1   7   6 716.103 31.8268   1 
   2   7   6 2072.04 51.0635  -2 
   2   7   6 2072.04 51.0635   1 
   3   7   6 415.023 33.1144  -2 
   3   7   6 415.023 33.1144   1 
   4   7   6 2447.86 69.3706  -2 
   4   7   6 2447.86 69.3706   1 
   5   7   6 182.762 26.6733  -2 
   5   7   6 182.762 26.6733   1 
   6   7   6 2.05190 22.3687  -2 
   6   7   6 2.05190 22.3687   1 
   7   7   6 439.924 35.3999  -2 
   7   7   6 439.924 35.3999   1 
   8   7   6 221.183 32.9676  -2 
   8   7   6 221.183 32.9676   1 
   9   7   6 42.7625 30.6139  -2 
   9   7   6 42.7625 30.6139   1 
  10   7   6 272.523 52.7756  -2 
  10   7   6 272.523 52.7756   1 
  -8   8   6 560.012 62.5319   1 
  -7   8   6 400.660 58.3360  -2 
  -7   8   6 400.660 58.3360   1 
  -6   8   6 -5.6392 40.7702  -2 
  -6   8   6 -5.6392 40.7702   1 
  -5   8   6 924.593 86.2592  -2 
  -5   8   6 924.593 86.2592   1 
  -4   8   6 1318.47 64.4146  -2 
  -4   8   6 1318.47 64.4146   1 
  -3   8   6 11.5301 26.2642  -2 
  -3   8   6 11.5301 26.2642   1 
  -2   8   6 986.403 43.2839  -2 
  -2   8   6 986.403 43.2839   1 
  -1   8   6 1474.22 45.6968  -2 
  -1   8   6 1474.22 45.6968   1 
   0   8   6 71.4849 16.1002  -2 
   0   8   6 71.4849 16.1002   1 
   1   8   6 876.344 28.5027  -2 
   1   8   6 876.344 28.5027   1 
   2   8   6 2540.67 58.3118  -2 
   2   8   6 2540.67 58.3118   1 
   3   8   6 399.696 28.5478  -2 
   3   8   6 399.696 28.5478   1 
   4   8   6 91.9310 22.4499  -2 
   4   8   6 91.9310 22.4499   1 
   5   8   6 917.326 48.7555  -2 
   5   8   6 917.326 48.7555   1 
   6   8   6 1078.00 54.5738  -2 
   6   8   6 1078.00 54.5738   1 
   7   8   6 7.24911 28.5018  -2 
   7   8   6 7.24911 28.5018   1 
   8   8   6 850.967 55.7021  -2 
   8   8   6 850.967 55.7021   1 
   9   8   6 925.430 102.379  -2 
   9   8   6 925.430 102.379   1 
  10   8   6 -26.205 66.5019  -2 
  10   8   6 -26.205 66.5019   1 
  11   8   6 531.500 89.3691   1 
  -7   9   6 909.487 74.5212  -2 
  -7   9   6 909.487 74.5212   1 
  -6   9   6 494.199 59.4736  -2 
  -6   9   6 494.199 59.4736   1 
  -5   9   6 80.9515 43.6742  -2 
  -5   9   6 80.9515 43.6742   1 
  -4   9   6 696.034 55.8746  -2 
  -4   9   6 696.034 55.8746   1 
  -3   9   6 434.664 39.6588  -2 
  -3   9   6 434.664 39.6588   1 
  -2   9   6 29.7884 26.4631  -2 
  -2   9   6 29.7884 26.4631   1 
  -1   9   6 490.007 34.1420  -2 
  -1   9   6 490.007 34.1420   1 
   0   9   6 1320.55 43.4858  -2 
   0   9   6 1320.55 43.4858   1 
   1   9   6 123.397 20.8401  -2 
   1   9   6 123.397 20.8401   1 
   2   9   6 642.733 33.6377  -2 
   2   9   6 642.733 33.6377   1 
   3   9   6 563.848 32.7371  -2 
   3   9   6 563.848 32.7371   1 
   4   9   6 428.569 30.3350  -2 
   4   9   6 428.569 30.3350   1 
   5   9   6 17.3907 20.9792  -2 
   5   9   6 17.3907 20.9792   1 
   6   9   6 320.425 31.9572  -2 
   6   9   6 320.425 31.9572   1 
   7   9   6 1049.67 50.2079  -2 
   7   9   6 1049.67 50.2079   1 
   8   9   6 43.0000 44.7113  -2 
   8   9   6 43.0000 44.7113   1 
   9   9   6 1108.18 117.813  -2 
   9   9   6 1108.18 117.813   1 
  10   9   6 594.340 108.005  -2 
  10   9   6 594.340 108.005   1 
  11   9   6 -0.9124 36.4622   1 
  12   9   6 180.742 66.1722   1 
  -6  10   6 352.304 58.3356  -2 
  -6  10   6 352.304 58.3356   1 
  -5  10   6 149.348 49.1895  -2 
  -5  10   6 149.348 49.1895   1 
  -4  10   6 34.0667 42.0931  -2 
  -4  10   6 34.0667 42.0931   1 
  -3  10   6 1474.48 69.3429  -2 
  -3  10   6 1474.48 69.3429   1 
  -2  10   6 887.644 46.9821  -2 
  -2  10   6 887.644 46.9821   1 
  -1  10   6 202.961 30.3290  -2 
  -1  10   6 202.961 30.3290   1 
   0  10   6 1015.19 56.0627  -2 
   0  10   6 1015.19 56.0627   1 
   1  10   6 565.383 34.5189  -2 
   1  10   6 565.383 34.5189   1 
   2  10   6 129.058 21.6941  -2 
   2  10   6 129.058 21.6941   1 
   3  10   6 292.207 25.0516  -2 
   3  10   6 292.207 25.0516   1 
   4  10   6 1450.73 50.2079  -2 
   4  10   6 1450.73 50.2079   1 
   5  10   6 174.937 27.1523  -2 
   5  10   6 174.937 27.1523   1 
   6  10   6 776.331 64.1553  -2 
   6  10   6 776.331 64.1553   1 
   7  10   6 2323.80 103.802  -2 
   7  10   6 2323.80 103.802   1 
   8  10   6 136.062 53.3193  -2 
   8  10   6 136.062 53.3193   1 
   9  10   6 325.249 64.5410  -2 
   9  10   6 325.249 64.5410   1 
  10  10   6 785.183 83.4864  -2 
  10  10   6 785.183 83.4864   1 
  -6  11   6 87.4884 79.4544  -2 
  -6  11   6 87.4884 79.4544   1 
  -5  11   6 596.090 64.0505  -2 
  -5  11   6 596.090 64.0505   1 
  -4  11   6 269.559 51.6519  -2 
  -4  11   6 269.559 51.6519   1 
  -3  11   6 67.2422 40.8586  -2 
  -3  11   6 67.2422 40.8586   1 
  -2  11   6 403.400 46.4114  -2 
  -2  11   6 403.400 46.4114   1 
  -1  11   6 1108.79 65.9449  -2 
  -1  11   6 1108.79 65.9449   1 
   0  11   6 466.254 46.3523  -2 
   0  11   6 466.254 46.3523   1 
   1  11   6 790.155 42.0644  -2 
   1  11   6 790.155 42.0644   1 
   2  11   6 1363.64 49.6117  -2 
   2  11   6 1363.64 49.6117   1 
   3  11   6 11.7681 15.4420  -2 
   3  11   6 11.7681 15.4420   1 
   4  11   6 497.403 48.7112  -2 
   4  11   6 497.403 48.7112   1 
   5  11   6 918.218 67.5420  -2 
   5  11   6 918.218 67.5420   1 
   6  11   6 77.1969 45.2109  -2 
   6  11   6 77.1969 45.2109   1 
   7  11   6 190.491 54.7868  -2 
   7  11   6 190.491 54.7868   1 
   8  11   6 1346.48 93.0344  -2 
   8  11   6 1346.48 93.0344   1 
   9  11   6 290.050 67.6961  -2 
   9  11   6 290.050 67.6961   1 
  10  11   6 388.557 76.0487  -2 
  10  11   6 388.557 76.0487   1 
  -5  12   6 243.660 81.9979  -2 
  -5  12   6 243.660 81.9979   1 
  -4  12   6 934.385 70.6312  -2 
  -4  12   6 934.385 70.6312   1 
  -3  12   6 112.955 62.9663  -2 
  -3  12   6 112.955 62.9663   1 
  -2  12   6 86.1930 55.1213  -2 
  -2  12   6 86.1930 55.1213   1 
  -1  12   6 445.713 65.8650  -2 
  -1  12   6 445.713 65.8650   1 
   0  12   6 783.080 56.5729  -2 
   0  12   6 783.080 56.5729   1 
   1  12   6 3.63521 27.3273  -2 
   1  12   6 3.63521 27.3273   1 
   2  12   6 1450.51 76.2487  -2 
   2  12   6 1450.51 76.2487   1 
   3  12   6 819.411 59.7162  -2 
   3  12   6 819.411 59.7162   1 
   4  12   6 45.7119 30.6555  -2 
   4  12   6 45.7119 30.6555   1 
   5  12   6 1533.34 85.8320  -2 
   5  12   6 1533.34 85.8320   1 
   6  12   6 346.076 57.2019  -2 
   6  12   6 346.076 57.2019   1 
   7  12   6 -9.3950 49.9556  -2 
   7  12   6 -9.3950 49.9556   1 
   8  12   6 403.061 71.4244  -2 
   8  12   6 403.061 71.4244   1 
   9  12   6 979.042 95.2267  -2 
   9  12   6 979.042 95.2267   1 
  10  12   6 27.5208 66.1375  -2 
  10  12   6 27.5208 66.1375   1 
  -3  13   6 839.205 93.1309  -2 
  -3  13   6 839.205 93.1309   1 
  -2  13   6 649.596 81.4843  -2 
  -2  13   6 649.596 81.4843   1 
  -1  13   6 186.841 57.8195  -2 
  -1  13   6 186.841 57.8195   1 
   1  13   6 302.651 71.4461  -2 
   1  13   6 302.651 71.4461   1 
   2  13   6 152.742 36.3894  -2 
   2  13   6 152.742 36.3894   1 
   3  13   6 922.841 67.2019  -2 
   3  13   6 922.841 67.2019   1 
   4  13   6 480.394 53.8449  -2 
   4  13   6 480.394 53.8449   1 
   5  13   6 53.0969 41.1096  -2 
   5  13   6 53.0969 41.1096   1 
   6  13   6 430.252 63.3253  -2 
   6  13   6 430.252 63.3253   1 
   7  13   6 1086.40 91.1358  -2 
   7  13   6 1086.40 91.1358   1 
   8  13   6 -14.033 58.8071  -2 
   8  13   6 -14.033 58.8071   1 
   9  13   6 281.435 77.2955  -2 
   9  13   6 281.435 77.2955   1 
   2  14   6 237.166 64.1463  -2 
   2  14   6 237.166 64.1463   1 
   3  14   6 217.426 42.6560  -2 
   3  14   6 217.426 42.6560   1 
   4  14   6 637.958 63.0553  -2 
   4  14   6 637.958 63.0553   1 
   5  14   6 115.957 46.9681  -2 
   5  14   6 115.957 46.9681   1 
   6  14   6 185.864 59.3795  -2 
   6  14   6 185.864 59.3795   1 
   7  14   6 269.543 68.6393  -2 
   7  14   6 269.543 68.6393   1 
   8  14   6 177.689 73.0139  -2 
   8  14   6 177.689 73.0139   1 
   3  15   6 240.062 46.3982  -2 
   3  15   6 240.062 46.3982   1 
   4  15   6 39.6165 36.5898  -2 
   4  15   6 39.6165 36.5898   1 
   5  15   6 445.519 66.8324  -2 
   5  15   6 445.519 66.8324   1 
   6  15   6 225.905 62.4891  -2 
   6  15   6 225.905 62.4891   1 
  -3 -10   7 29.7721 114.237  -2 
  -3 -10   7 29.7721 114.237   1 
  -2 -10   7 76.7510 64.8105  -2 
  -2 -10   7 76.7510 64.8105   1 
  -1 -10   7 377.163 132.875  -2 
  -1 -10   7 377.163 132.875   1 
   0 -10   7 257.065 129.115  -2 
   0 -10   7 257.065 129.115   1 
   1 -10   7 102.340 120.059  -2 
   1 -10   7 102.340 120.059   1 
   2 -10   7 487.564 146.345  -2 
   2 -10   7 487.564 146.345   1 
   3 -10   7 145.097 47.2742   1 
  -4  -9   7 454.248 130.794  -2 
  -4  -9   7 454.248 130.794   1 
  -3  -9   7 908.390 141.733  -2 
  -3  -9   7 908.390 141.733   1 
  -2  -9   7 106.961 59.3935  -2 
  -2  -9   7 106.961 59.3935   1 
  -1  -9   7 64.8796 107.675  -2 
  -1  -9   7 64.8796 107.675   1 
   0  -9   7 734.042 140.695  -2 
   0  -9   7 734.042 140.695   1 
   1  -9   7 509.850 128.606  -2 
   1  -9   7 509.850 128.606   1 
   2  -9   7 -6.4137 110.078  -2 
   2  -9   7 -6.4137 110.078   1 
   3  -9   7 1102.72 166.529  -2 
   3  -9   7 1102.72 166.529   1 
   4  -9   7 573.340 142.952  -2 
   4  -9   7 573.340 142.952   1 
   5  -9   7 116.239 117.448  -2 
   5  -9   7 116.239 117.448   1 
   6  -9   7 251.098 61.6407   1 
  -6  -8   7 281.023 53.7587   1 
  -5  -8   7 101.829 34.8663   1 
  -4  -8   7 -15.965 104.528  -2 
  -4  -8   7 -15.965 104.528   1 
  -3  -8   7 241.509 75.7474  -2 
  -3  -8   7 241.509 75.7474   1 
  -2  -8   7 745.391 72.2609  -2 
  -2  -8   7 745.391 72.2609   1 
  -1  -8   7 42.5809 91.8712  -2 
  -1  -8   7 42.5809 91.8712   1 
   0  -8   7 1360.36 151.020  -2 
   0  -8   7 1360.36 151.020   1 
   1  -8   7 967.568 139.765  -2 
   1  -8   7 967.568 139.765   1 
   2  -8   7 -35.430 95.0737  -2 
   2  -8   7 -35.430 95.0737   1 
   3  -8   7 571.414 130.313  -2 
   3  -8   7 571.414 130.313   1 
   4  -8   7 369.305 122.767  -2 
   4  -8   7 369.305 122.767   1 
   5  -8   7 257.910 114.359  -2 
   5  -8   7 257.910 114.359   1 
   6  -8   7 133.746 120.920  -2 
   6  -8   7 133.746 120.920   1 
   7  -8   7 939.731 161.631  -2 
   7  -8   7 939.731 161.631   1 
  -6  -7   7 -15.669 24.2926   1 
  -5  -7   7 795.416 67.2389   1 
  -4  -7   7 911.272 139.299  -2 
  -4  -7   7 911.272 139.299   1 
  -3  -7   7 32.2847 60.5596  -2 
  -3  -7   7 32.2847 60.5596   1 
  -2  -7   7 851.377 84.6550  -2 
  -2  -7   7 851.377 84.6550   1 
  -1  -7   7 899.576 120.046  -2 
  -1  -7   7 899.576 120.046   1 
   0  -7   7 8.30757 81.9398  -2 
   0  -7   7 8.30757 81.9398   1 
   1  -7   7 807.024 120.770  -2 
   1  -7   7 807.024 120.770   1 
   2  -7   7 1411.55 148.618  -2 
   2  -7   7 1411.55 148.618   1 
   3  -7   7 22.0567 91.0589  -2 
   3  -7   7 22.0567 91.0589   1 
   4  -7   7 474.828 118.351  -2 
   4  -7   7 474.828 118.351   1 
   5  -7   7 1093.55 143.399  -2 
   5  -7   7 1093.55 143.399   1 
   6  -7   7 84.7338 111.287  -2 
   6  -7   7 84.7338 111.287   1 
   7  -7   7 214.724 114.767  -2 
   7  -7   7 214.724 114.767   1 
   8  -7   7 441.000 129.575  -2 
   8  -7   7 441.000 129.575   1 
  -7  -6   7 215.389 48.8520   1 
  -6  -6   7 157.637 40.1562   1 
  -5  -6   7 134.846 115.370  -2 
  -5  -6   7 134.846 115.370   1 
  -4  -6   7 790.357 130.988  -2 
  -4  -6   7 790.357 130.988   1 
  -3  -6   7 232.439 45.3975  -2 
  -3  -6   7 232.439 45.3975   1 
  -2  -6   7 252.859 62.6811  -2 
  -2  -6   7 252.859 62.6811   1 
  -1  -6   7 856.225 76.8729  -2 
  -1  -6   7 856.225 76.8729   1 
   0  -6   7 127.745 79.1676  -2 
   0  -6   7 127.745 79.1676   1 
   1  -6   7 14.8796 74.4172  -2 
   1  -6   7 14.8796 74.4172   1 
   2  -6   7 94.4020 84.9224  -2 
   2  -6   7 94.4020 84.9224   1 
   3  -6   7 573.253 111.600  -2 
   3  -6   7 573.253 111.600   1 
   4  -6   7 -41.122 82.8635  -2 
   4  -6   7 -41.122 82.8635   1 
   5  -6   7 276.672 99.7776  -2 
   5  -6   7 276.672 99.7776   1 
   6  -6   7 508.673 126.580  -2 
   6  -6   7 508.673 126.580   1 
   7  -6   7 43.4281 98.2390  -2 
   7  -6   7 43.4281 98.2390   1 
   8  -6   7 301.516 119.393  -2 
   8  -6   7 301.516 119.393   1 
   9  -6   7 294.414 130.081  -2 
   9  -6   7 294.414 130.081   1 
  -8  -5   7 30.9686 29.6293   1 
  -7  -5   7 392.399 57.3226   1 
  -6  -5   7 836.325 69.1313   1 
  -5  -5   7 21.7020 105.635  -2 
  -5  -5   7 21.7020 105.635   1 
  -4  -5   7 1077.38 136.514  -2 
  -4  -5   7 1077.38 136.514   1 
  -3  -5   7 925.237 75.0104  -2 
  -3  -5   7 925.237 75.0104   1 
  -2  -5   7 303.630 59.1577  -2 
  -2  -5   7 303.630 59.1577   1 
  -1  -5   7 -0.9677 50.0991  -2 
  -1  -5   7 -0.9677 50.0991   1 
   0  -5   7 1355.57 83.0704  -2 
   0  -5   7 1355.57 83.0704   1 
   1  -5   7 1407.50 122.275  -2 
   1  -5   7 1407.50 122.275   1 
   2  -5   7 1.00730 69.9025  -2 
   2  -5   7 1.00730 69.9025   1 
   3  -5   7 1368.86 132.732  -2 
   3  -5   7 1368.86 132.732   1 
   4  -5   7 401.162 95.1898  -2 
   4  -5   7 401.162 95.1898   1 
   5  -5   7 127.597 84.3798  -2 
   5  -5   7 127.597 84.3798   1 
   6  -5   7 290.090 104.956  -2 
   6  -5   7 290.090 104.956   1 
   7  -5   7 1333.16 149.905  -2 
   7  -5   7 1333.16 149.905   1 
   8  -5   7 175.565 108.019  -2 
   8  -5   7 175.565 108.019   1 
   9  -5   7 399.684 127.745  -2 
   9  -5   7 399.684 127.745   1 
  10  -5   6 648.818 83.4545  -2 
  10  -5   7 648.818 83.4545   1 
  -8  -4   7 95.9636 35.8316   1 
  -7  -4   7 31.5575 28.4482   1 
  -6  -4   7 144.184 35.9315   1 
  -5  -4   7 435.274 119.275  -2 
  -5  -4   7 435.274 119.275   1 
  -4  -4   7 104.457 99.7074  -2 
  -4  -4   7 104.457 99.7074   1 
  -3  -4   7 273.706 49.3259  -2 
  -3  -4   7 273.706 49.3259   1 
  -2  -4   7 1071.25 73.2523  -2 
  -2  -4   7 1071.25 73.2523   1 
  -1  -4   7 248.359 54.0438  -2 
  -1  -4   7 248.359 54.0438   1 
   0  -4   7 261.505 53.5382  -2 
   0  -4   7 261.505 53.5382   1 
   1  -4   7 546.412 58.8272  -2 
   1  -4   7 546.412 58.8272   1 
   2  -4   7 182.808 74.7208  -2 
   2  -4   7 182.808 74.7208   1 
   3  -4   7 117.614 74.2920  -2 
   3  -4   7 117.614 74.2920   1 
   4  -4   7 610.031 93.8954  -2 
   4  -4   7 610.031 93.8954   1 
   5  -4   7 1607.96 138.608  -2 
   5  -4   7 1607.96 138.608   1 
   6  -4   7 26.1734 80.0578  -2 
   6  -4   7 26.1734 80.0578   1 
   7  -4   7 1009.10 128.451  -2 
   7  -4   7 1009.10 128.451   1 
   8  -4   7 517.567 119.453  -2 
   8  -4   7 517.567 119.453   1 
   9  -4   7 41.3354 97.7100  -2 
   9  -4   7 41.3354 97.7100   1 
  10  -4   7 107.748 32.2434   1 
  11  -4   6 462.430 76.8149  -2 
  11  -4   7 462.430 76.8149   1 
  -8  -3   7 435.757 58.9882   1 
  -7  -3   7 297.856 51.1225   1 
  -6  -3   7 43.3117 25.6291   1 
  -5  -3   7 842.772 132.037  -2 
  -5  -3   7 842.772 132.037   1 
  -4  -3   7 1108.35 135.238  -2 
  -4  -3   7 1108.35 135.238   1 
  -3  -3   7 462.699 104.947  -2 
  -3  -3   7 462.699 104.947   1 
  -2  -3   7 614.420 43.2468  -2 
  -2  -3   7 614.420 43.2468   1 
  -1  -3   7 2229.56 89.2229  -2 
  -1  -3   7 2229.56 89.2229   1 
   0  -3   7 257.112 49.3607  -2 
   0  -3   7 257.112 49.3607   1 
   1  -3   7 1200.31 68.8110  -2 
   1  -3   7 1200.31 68.8110   1 
   2  -3   7 1023.62 70.8326  -2 
   2  -3   7 1023.62 70.8326   1 
   3  -3   7 637.310 87.1593  -2 
   3  -3   7 637.310 87.1593   1 
   4  -3   7 382.189 78.9445  -2 
   4  -3   7 382.189 78.9445   1 
   5  -3   7 2480.91 155.492  -2 
   5  -3   7 2480.91 155.492   1 
   6  -3   7 1541.81 130.647  -2 
   6  -3   7 1541.81 130.647   1 
   7  -3   7 232.105 91.9018  -2 
   7  -3   7 232.105 91.9018   1 
   8  -3   7 1757.34 156.346  -2 
   8  -3   7 1757.34 156.346   1 
   9  -3   7 666.011 120.181  -2 
   9  -3   7 666.011 120.181   1 
  10  -3   7 49.0285 97.4184  -2 
  10  -3   7 49.0285 97.4184   1 
  11  -3   7 164.644 64.1286   1 
  -9  -2   7 36.5799 31.4657   1 
  -8  -2   7 -1.8375 24.6754   1 
  -7  -2   7 249.971 47.9321   1 
  -6  -2   7 703.933 60.0647   1 
  -5  -2   7 77.1078 95.7748  -2 
  -5  -2   7 77.1078 95.7748   1 
  -4  -2   7 579.424 108.555  -2 
  -4  -2   7 579.424 108.555   1 
  -3  -2   7 1090.44 118.201  -2 
  -3  -2   7 1090.44 118.201   1 
  -2  -2   7 3.56811 34.6849  -2 
  -2  -2   7 3.56811 34.6849   1 
  -1  -2   7 114.376 42.2107  -2 
  -1  -2   7 114.376 42.2107   1 
   0  -2   7 1234.57 67.2077  -2 
   0  -2   7 1234.57 67.2077   1 
   1  -2   7 1056.55 62.5888  -2 
   1  -2   7 1056.55 62.5888   1 
   2  -2   7 757.314 83.9444  -2 
   2  -2   7 757.314 83.9444   1 
   3  -2   7 1785.16 113.827  -2 
   3  -2   7 1785.16 113.827   1 
   4  -2   7 46.2783 59.0549  -2 
   4  -2   7 46.2783 59.0549   1 
   5  -2   7 568.017 86.5637  -2 
   5  -2   7 568.017 86.5637   1 
   6  -2   7 1395.13 117.096  -2 
   6  -2   7 1395.13 117.096   1 
   7  -2   7 172.475 80.7181  -2 
   7  -2   7 172.475 80.7181   1 
   8  -2   7 33.8858 80.2015  -2 
   8  -2   7 33.8858 80.2015   1 
   9  -2   7 355.303 102.141  -2 
   9  -2   7 355.303 102.141   1 
  10  -2   7 435.538 113.713  -2 
  10  -2   7 435.538 113.713   1 
  11  -2   7 28.5651 97.5185  -2 
  11  -2   7 28.5651 97.5185   1 
  -9  -1   7 623.330 68.2808   1 
  -8  -1   7 148.579 38.4689   1 
  -7  -1   7 171.627 37.2591   1 
  -6  -1   7 935.987 65.5298   1 
  -5  -1   7 290.538 96.0460  -2 
  -5  -1   7 290.538 96.0460   1 
  -4  -1   7 83.0976 82.6779  -2 
  -4  -1   7 83.0976 82.6779   1 
  -3  -1   7 1306.49 118.461  -2 
  -3  -1   7 1306.49 118.461   1 
  -2  -1   7 1529.46 118.874  -2 
  -2  -1   7 1529.46 118.874   1 
  -1  -1   7 17.1889 34.9469  -2 
  -1  -1   7 17.1889 34.9469   1 
   0  -1   7 2795.59 83.0470  -2 
   0  -1   7 2795.59 83.0470   1 
   1  -1   7 3611.72 91.1094  -2 
   1  -1   7 3611.72 91.1094   1 
   2  -1   7 369.658 60.4119  -2 
   2  -1   7 369.658 60.4119   1 
   3  -1   7 708.348 79.2297  -2 
   3  -1   7 708.348 79.2297   1 
   4  -1   7 868.901 86.4364  -2 
   4  -1   7 868.901 86.4364   1 
   5  -1   7 407.247 73.1087  -2 
   5  -1   7 407.247 73.1087   1 
   6  -1   7 461.255 82.7172  -2 
   6  -1   7 461.255 82.7172   1 
   7  -1   7 1284.69 120.203  -2 
   7  -1   7 1284.69 120.203   1 
   8  -1   7 367.507 89.8011  -2 
   8  -1   7 367.507 89.8011   1 
   9  -1   7 292.387 92.7397  -2 
   9  -1   7 292.387 92.7397   1 
  10  -1   7 1080.69 129.162  -2 
  10  -1   7 1080.69 129.162   1 
  11  -1   7 208.604 98.2671  -2 
  11  -1   7 208.604 98.2671   1 
  -9   0   7 124.603 38.9447   1 
  -8   0   7 539.140 60.2494   1 
  -7   0   7 383.842 52.1193   1 
  -6   0   7 121.417 30.9989   1 
  -5   0   7 1043.63 120.737  -2 
  -5   0   7 1043.63 120.737   1 
  -4   0   7 334.407 85.1395  -2 
  -4   0   7 334.407 85.1395   1 
  -3   0   7 103.600 74.4538  -2 
  -3   0   7 103.600 74.4538   1 
  -2   0   7 2034.55 122.035  -2 
  -2   0   7 2034.55 122.035   1 
  -1   0   7 1150.52 54.1472  -2 
  -1   0   7 1150.52 54.1472   1 
   0   0   7 7.66445 28.1783  -2 
   0   0   7 7.66445 28.1783   1 
   1   0   7 664.271 46.1270  -2 
   1   0   7 664.271 46.1270   1 
   2   0   7 1132.67 80.7389  -2 
   2   0   7 1132.67 80.7389   1 
   3   0   7 164.769 49.6460  -2 
   3   0   7 164.769 49.6460   1 
   4   0   7 537.303 68.8311  -2 
   4   0   7 537.303 68.8311   1 
   5   0   7 863.728 85.3046  -2 
   5   0   7 863.728 85.3046   1 
   6   0   7 458.806 78.6785  -2 
   6   0   7 458.806 78.6785   1 
   7   0   7 122.225 67.8106  -2 
   7   0   7 122.225 67.8106   1 
   8   0   7 542.122 92.9849  -2 
   8   0   7 542.122 92.9849   1 
   9   0   7 517.631 95.6737  -2 
   9   0   7 517.631 95.6737   1 
  10   0   7 31.1365 79.2400  -2 
  10   0   7 31.1365 79.2400   1 
  11   0   7 801.509 120.698  -2 
  11   0   7 801.509 120.698   1 
  -9   1   7 4.73691 26.0955   1 
  -8   1   7 611.848 62.3256   1 
  -7   1   7 278.566 46.6507   1 
  -6   1   7 -35.100 82.7309  -2 
  -6   1   7 -35.100 82.7309   1 
  -5   1   7 728.117 111.056  -2 
  -5   1   7 728.117 111.056   1 
  -4   1   7 2009.18 141.371  -2 
  -4   1   7 2009.18 141.371   1 
  -3   1   7 354.540 85.0114  -2 
  -3   1   7 354.540 85.0114   1 
  -2   1   7 1293.10 57.5763  -2 
  -2   1   7 1293.10 57.5763   1 
  -1   1   7 1957.58 63.2054  -2 
  -1   1   7 1957.58 63.2054   1 
   0   1   7 -1.6159 23.1505  -2 
   0   1   7 -1.6159 23.1505   1 
   1   1   7 314.745 35.5531  -2 
   1   1   7 314.745 35.5531   1 
   2   1   7 474.608 51.7326  -2 
   2   1   7 474.608 51.7326   1 
   3   1   7 1002.81 75.4670  -2 
   3   1   7 1002.81 75.4670   1 
   4   1   7 15.5125 23.8234  -2 
   4   1   7 15.5125 23.8234   1 
   5   1   7 1965.42 106.896  -2 
   5   1   7 1965.42 106.896   1 
   6   1   7 2485.82 78.6050  -2 
   6   1   7 2485.82 78.6050   1 
   7   1   7 56.2709 60.7431  -2 
   7   1   7 56.2709 60.7431   1 
   8   1   7 1057.70 104.834  -2 
   8   1   7 1057.70 104.834   1 
   9   1   7 770.167 102.421  -2 
   9   1   7 770.167 102.421   1 
  10   1   7 483.826 97.6766  -2 
  10   1   7 483.826 97.6766   1 
  11   1   6 81.1545 57.7388  -2 
  11   1   7 81.1545 57.7388   1 
  11   1   7 47.0749 82.3244  -2 
  11   1   7 47.0749 82.3244   1 
  12   1   6 1109.97 101.775  -2 
  12   1   7 1109.97 101.775   1 
  -9   2   7 343.699 55.7289   1 
  -8   2   7 40.9187 27.3215   1 
  -7   2   7 377.057 38.6665   1 
  -6   2   7 1277.05 135.584  -2 
  -6   2   7 1277.05 135.584   1 
  -5   2   7 44.7673 81.0972  -2 
  -5   2   7 44.7673 81.0972   1 
  -4   2   7 1029.35 112.002  -2 
  -4   2   7 1029.35 112.002   1 
  -3   2   7 792.533 98.8898  -2 
  -3   2   7 792.533 98.8898   1 
  -2   2   7 660.250 46.3894  -2 
  -2   2   7 660.250 46.3894   1 
  -1   2   7 405.249 75.0141  -2 
  -1   2   7 405.249 75.0141   1 
   0   2   7 2274.69 61.8329  -2 
   0   2   7 2274.69 61.8329   1 
   1   2   7 1222.20 35.5525  -2 
   1   2   7 1222.20 35.5525   1 
   2   2   7 339.199 33.3304  -2 
   2   2   7 339.199 33.3304   1 
   3   2   7 915.471 68.8118  -2 
   3   2   7 915.471 68.8118   1 
   4   2   7 1721.52 93.4054  -2 
   4   2   7 1721.52 93.4054   1 
   5   2   7 65.6105 27.3211  -2 
   5   2   7 65.6105 27.3211   1 
   6   2   7 1036.10 53.2738  -2 
   6   2   7 1036.10 53.2738   1 
   7   2   7 2212.28 126.538  -2 
   7   2   7 2212.28 126.538   1 
   8   2   7 207.993 68.3987  -2 
   8   2   7 207.993 68.3987   1 
   9   2   7 1093.77 108.631  -2 
   9   2   7 1093.77 108.631   1 
  10   2   7 1390.30 124.154  -2 
  10   2   7 1390.30 124.154   1 
  11   2   6 61.5391 55.4742  -2 
  11   2   7 61.5391 55.4742   1 
  11   2   7 37.5452 77.6205  -2 
  11   2   7 37.5452 77.6205   1 
  12   2   6 191.525 67.3295  -2 
  12   2   7 191.525 67.3295   1 
  13   2   6 353.763 76.7743  -2 
  13   2   7 353.763 76.7743   1 
  -9   3   7 144.128 48.4333   1 
  -8   3   7 90.7437 25.3554   1 
  -7   3   7 54.8034 21.3686   1 
  -6   3   7 501.837 106.875  -2 
  -6   3   7 501.837 106.875   1 
  -5   3   7 633.037 103.329  -2 
  -5   3   7 633.037 103.329   1 
  -4   3   7 49.7427 74.1970  -2 
  -4   3   7 49.7427 74.1970   1 
  -3   3   7 260.704 77.5924  -2 
  -3   3   7 260.704 77.5924   1 
  -2   3   7 1452.78 58.9950  -2 
  -2   3   7 1452.78 58.9950   1 
  -1   3   7 661.771 40.9534  -2 
  -1   3   7 661.771 40.9534   1 
   0   3   7 1000.23 43.1210  -2 
   0   3   7 1000.23 43.1210   1 
   1   3   7 1486.25 37.1121  -2 
   1   3   7 1486.25 37.1121   1 
   2   3   7 301.974 20.2565  -2 
   2   3   7 301.974 20.2565   1 
   3   3   7 93.1389 19.3760  -2 
   3   3   7 93.1389 19.3760   1 
   4   3   7 2316.92 64.4402  -2 
   4   3   7 2316.92 64.4402   1 
   5   3   7 948.215 48.1536  -2 
   5   3   7 948.215 48.1536   1 
   6   3   7 112.205 31.6480  -2 
   6   3   7 112.205 31.6480   1 
   7   3   7 2915.86 85.9197  -2 
   7   3   7 2915.86 85.9197   1 
   8   3   7 981.871 59.7670  -2 
   8   3   7 981.871 59.7670   1 
   9   3   7 155.987 69.4364  -2 
   9   3   7 155.987 69.4364   1 
  10   3   7 781.484 102.789  -2 
  10   3   7 781.484 102.789   1 
  11   3   6 460.046 72.9503  -2 
  11   3   7 460.046 72.9503   1 
  12   3   6 21.9306 58.2303  -2 
  12   3   7 21.9306 58.2303   1 
  13   3   6 608.204 66.3250  -2 
  13   3   7 608.204 66.3250   1 
  -9   4   7 6.27463 23.8039   1 
  -8   4   7 658.289 82.2835   1 
  -7   4   7 343.016 113.456  -2 
  -7   4   7 343.016 113.456   1 
  -6   4   7 -19.873 87.5205  -2 
  -6   4   7 -19.873 87.5205   1 
  -5   4   7 482.784 97.4917  -2 
  -5   4   7 482.784 97.4917   1 
  -4   4   7 1262.29 64.7854  -2 
  -4   4   7 1262.29 64.7854   1 
  -3   4   7 487.561 44.7256  -2 
  -3   4   7 487.561 44.7256   1 
  -2   4   7 911.606 49.9536  -2 
  -2   4   7 911.606 49.9536   1 
  -1   4   7 3526.93 78.5863  -2 
  -1   4   7 3526.93 78.5863   1 
   0   4   7 521.167 27.1033  -2 
   0   4   7 521.167 27.1033   1 
   1   4   7 1496.37 32.0785  -2 
   1   4   7 1496.37 32.0785   1 
   2   4   7 2531.10 53.4588  -2 
   2   4   7 2531.10 53.4588   1 
   3   4   7 561.344 30.6846  -2 
   3   4   7 561.344 30.6846   1 
   4   4   7 64.0660 24.6117  -2 
   4   4   7 64.0660 24.6117   1 
   5   4   7 2400.00 69.6071  -2 
   5   4   7 2400.00 69.6071   1 
   6   4   7 1960.89 68.4808  -2 
   6   4   7 1960.89 68.4808   1 
   7   4   7 42.4095 31.6565  -2 
   7   4   7 42.4095 31.6565   1 
   8   4   7 1694.07 71.9280  -2 
   8   4   7 1694.07 71.9280   1 
   9   4   7 277.161 73.4622  -2 
   9   4   7 277.161 73.4622   1 
  10   4   7 14.6539 66.0069  -2 
  10   4   7 14.6539 66.0069   1 
  11   4   6 727.072 82.3329  -2 
  11   4   7 727.072 82.3329   1 
  12   4   6 572.987 81.1582  -2 
  12   4   7 572.987 81.1582   1 
  13   4   6 56.2430 49.9732  -2 
  13   4   7 56.2430 49.9732   1 
  -8   5   7 72.6541 28.0673   1 
  -7   5   7 240.069 61.5618   1 
  -6   5   7 509.058 62.5686  -2 
  -6   5   7 509.058 62.5686   1 
  -5   5   7 17.6485 39.8424  -2 
  -5   5   7 17.6485 39.8424   1 
  -4   5   7 1764.50 58.3382  -2 
  -4   5   7 1764.50 58.3382   1 
  -3   5   7 551.212 36.1502  -2 
  -3   5   7 551.212 36.1502   1 
  -2   5   7 227.588 26.9497  -2 
  -2   5   7 227.588 26.9497   1 
  -1   5   7 723.258 34.2259  -2 
  -1   5   7 723.258 34.2259   1 
   0   5   7 989.346 34.4073  -2 
   0   5   7 989.346 34.4073   1 
   1   5   7 8.10086 23.1120  -2 
   1   5   7 8.10086 23.1120   1 
   2   5   7 1544.03 44.9256  -2 
   2   5   7 1544.03 44.9256   1 
   3   5   7 1946.24 51.1351  -2 
   3   5   7 1946.24 51.1351   1 
   4   5   7 191.748 24.5148  -2 
   4   5   7 191.748 24.5148   1 
   5   5   7 2202.28 68.0208  -2 
   5   5   7 2202.28 68.0208   1 
   6   5   7 673.285 44.8209  -2 
   6   5   7 673.285 44.8209   1 
   7   5   7 14.7319 31.6258  -2 
   7   5   7 14.7319 31.6258   1 
   8   5   7 39.9082 34.9741  -2 
   8   5   7 39.9082 34.9741   1 
   9   5   7 585.913 53.4032  -2 
   9   5   7 585.913 53.4032   1 
  10   5   7 1003.02 110.001  -2 
  10   5   7 1003.02 110.001   1 
  11   5   7 25.2274 23.9890   1 
  12   5   6 731.034 86.1606  -2 
  12   5   7 731.034 86.1606   1 
  13   5   6 353.479 60.8003  -2 
  13   5   7 353.479 60.8003   1 
  -8   6   7 173.294 36.4732   1 
  -7   6   7 267.890 42.3884   1 
  -6   6   7 1629.95 78.0524  -2 
  -6   6   7 1629.95 78.0524   1 
  -5   6   7 274.244 39.3549  -2 
  -5   6   7 274.244 39.3549   1 
  -4   6   7 214.931 45.6127  -2 
  -4   6   7 214.931 45.6127   1 
  -3   6   7 931.301 60.4029  -2 
  -3   6   7 931.301 60.4029   1 
  -2   6   7 2290.33 78.3697  -2 
  -2   6   7 2290.33 78.3697   1 
  -1   6   7 37.2253 30.1870  -2 
  -1   6   7 37.2253 30.1870   1 
   0   6   7 2251.95 71.2067  -2 
   0   6   7 2251.95 71.2067   1 
   1   6   7 787.841 45.0044  -2 
   1   6   7 787.841 45.0044   1 
   2   6   7 120.223 22.4333  -2 
   2   6   7 120.223 22.4333   1 
   3   6   7 1732.83 50.0962  -2 
   3   6   7 1732.83 50.0962   1 
   4   6   7 638.828 35.4790  -2 
   4   6   7 638.828 35.4790   1 
   5   6   7 192.929 27.6367  -2 
   5   6   7 192.929 27.6367   1 
   6   6   7 339.148 31.8600  -2 
   6   6   7 339.148 31.8600   1 
   7   6   7 1897.29 71.8187  -2 
   7   6   7 1897.29 71.8187   1 
   8   6   7 219.618 36.7229  -2 
   8   6   7 219.618 36.7229   1 
   9   6   7 211.306 44.4420  -2 
   9   6   7 211.306 44.4420   1 
  10   6   7 1204.98 117.752  -2 
  10   6   7 1204.98 117.752   1 
  11   6   7 361.696 53.6836   1 
  12   6   7 0.95136 21.9002   1 
  13   6   6 485.478 100.649  -2 
  13   6   7 485.478 100.649   1 
  -8   7   7 372.420 50.3109   1 
  -7   7   7 41.9355 65.7566  -2 
  -7   7   7 41.9355 65.7566   1 
  -6   7   7 559.936 56.8930  -2 
  -6   7   7 559.936 56.8930   1 
  -5   7   7 1007.83 85.3161  -2 
  -5   7   7 1007.83 85.3161   1 
  -4   7   7 28.6206 30.0758  -2 
  -4   7   7 28.6206 30.0758   1 
  -3   7   7 46.7998 27.2395  -2 
  -3   7   7 46.7998 27.2395   1 
  -2   7   7 701.150 38.0717  -2 
  -2   7   7 701.150 38.0717   1 
  -1   7   7 420.174 29.3348  -2 
  -1   7   7 420.174 29.3348   1 
   0   7   7 120.104 19.8174  -2 
   0   7   7 120.104 19.8174   1 
   1   7   7 1112.31 52.6807  -2 
   1   7   7 1112.31 52.6807   1 
   2   7   7 695.939 34.5263  -2 
   2   7   7 695.939 34.5263   1 
   3   7   7 135.601 29.2755  -2 
   3   7   7 135.601 29.2755   1 
   4   7   7 251.842 28.0433  -2 
   4   7   7 251.842 28.0433   1 
   5   7   7 452.199 34.7787  -2 
   5   7   7 452.199 34.7787   1 
   6   7   7 79.7989 27.6983  -2 
   6   7   7 79.7989 27.6983   1 
   7   7   7 947.630 55.0747  -2 
   7   7   7 947.630 55.0747   1 
   8   7   7 1436.23 58.0149  -2 
   8   7   7 1436.23 58.0149   1 
   9   7   7 76.5518 32.2507  -2 
   9   7   7 76.5518 32.2507   1 
  10   7   7 200.855 50.8596  -2 
  10   7   7 200.855 50.8596   1 
  11   7   7 1128.71 122.877  -2 
  11   7   7 1128.71 122.877   1 
  -7   8   7 445.267 89.4433  -2 
  -7   8   7 445.267 89.4433   1 
  -6   8   7 31.5843 44.4473  -2 
  -6   8   7 31.5843 44.4473   1 
  -5   8   7 256.998 67.2366  -2 
  -5   8   7 256.998 67.2366   1 
  -4   8   7 1366.44 58.4258  -2 
  -4   8   7 1366.44 58.4258   1 
  -3   8   7 206.069 33.4743  -2 
  -3   8   7 206.069 33.4743   1 
  -2   8   7 349.364 33.7711  -2 
  -2   8   7 349.364 33.7711   1 
  -1   8   7 1662.41 50.2116  -2 
  -1   8   7 1662.41 50.2116   1 
   0   8   7 357.493 38.5139  -2 
   0   8   7 357.493 38.5139   1 
   1   8   7 148.619 21.5386  -2 
   1   8   7 148.619 21.5386   1 
   2   8   7 759.910 36.8519  -2 
   2   8   7 759.910 36.8519   1 
   3   8   7 1906.65 54.7786  -2 
   3   8   7 1906.65 54.7786   1 
   4   8   7 362.326 37.8326  -2 
   4   8   7 362.326 37.8326   1 
   5   8   7 1954.42 70.0053  -2 
   5   8   7 1954.42 70.0053   1 
   6   8   7 2311.33 66.1020  -2 
   6   8   7 2311.33 66.1020   1 
   7   8   7 -6.5988 26.2339  -2 
   7   8   7 -6.5988 26.2339   1 
   8   8   7 1105.54 54.0969  -2 
   8   8   7 1105.54 54.0969   1 
   9   8   7 809.077 51.3818  -2 
   9   8   7 809.077 51.3818   1 
  10   8   7 249.891 42.0763  -2 
  10   8   7 249.891 42.0763   1 
  11   8   7 243.177 70.0124   1 
  -7   9   7 233.055 48.2755   1 
  -6   9   7 632.346 65.5890  -2 
  -6   9   7 632.346 65.5890   1 
  -5   9   7 -4.6926 28.3829   1 
  -4   9   7 304.024 48.0662  -2 
  -4   9   7 304.024 48.0662   1 
  -3   9   7 94.6964 33.9525  -2 
  -3   9   7 94.6964 33.9525   1 
  -2   9   7 111.497 30.6759  -2 
  -2   9   7 111.497 30.6759   1 
  -1   9   7 207.674 30.1040  -2 
  -1   9   7 207.674 30.1040   1 
   0   9   7 970.565 54.4004  -2 
   0   9   7 970.565 54.4004   1 
   1   9   7 980.611 52.6611  -2 
   1   9   7 980.611 52.6611   1 
   2   9   7 108.115 22.7360  -2 
   2   9   7 108.115 22.7360   1 
   3   9   7 1733.52 53.9941  -2 
   3   9   7 1733.52 53.9941   1 
   4   9   7 344.741 31.0706  -2 
   4   9   7 344.741 31.0706   1 
   5   9   7 113.103 26.2580  -2 
   5   9   7 113.103 26.2580   1 
   6   9   7 961.041 54.9910  -2 
   6   9   7 961.041 54.9910   1 
   7   9   7 997.631 59.4120  -2 
   7   9   7 997.631 59.4120   1 
   8   9   7 13.6004 35.8720  -2 
   8   9   7 13.6004 35.8720   1 
   9   9   7 927.018 111.116  -2 
   9   9   7 927.018 111.116   1 
  10   9   7 684.222 107.315  -2 
  10   9   7 684.222 107.315   1 
  -6  10   7 432.525 63.7565  -2 
  -6  10   7 432.525 63.7565   1 
  -5  10   7 400.078 58.3513  -2 
  -5  10   7 400.078 58.3513   1 
  -4  10   7 -36.740 41.1546  -2 
  -4  10   7 -36.740 41.1546   1 
  -3  10   7 992.980 63.4346  -2 
  -3  10   7 992.980 63.4346   1 
  -2  10   7 1273.75 55.1381  -2 
  -2  10   7 1273.75 55.1381   1 
  -1  10   7 87.7806 37.4845  -2 
  -1  10   7 87.7806 37.4845   1 
   0  10   7 568.939 47.3963  -2 
   0  10   7 568.939 47.3963   1 
   1  10   7 1570.33 66.0076  -2 
   1  10   7 1570.33 66.0076   1 
   2  10   7 169.212 24.5428  -2 
   2  10   7 169.212 24.5428   1 
   3  10   7 571.643 35.5188  -2 
   3  10   7 571.643 35.5188   1 
   4  10   7 1642.58 55.8373  -2 
   4  10   7 1642.58 55.8373   1 
   5  10   7 380.466 34.1585  -2 
   5  10   7 380.466 34.1585   1 
   6  10   7 461.586 37.7570  -2 
   6  10   7 461.586 37.7570   1 
   7  10   7 1526.34 87.1788  -2 
   7  10   7 1526.34 87.1788   1 
   8  10   7 743.314 73.4834  -2 
   8  10   7 743.314 73.4834   1 
   9  10   7 44.4486 52.5707  -2 
   9  10   7 44.4486 52.5707   1 
  10  10   7 597.212 112.054  -2 
  10  10   7 597.212 112.054   1 
  -5  11   7 165.752 55.6652  -2 
  -5  11   7 165.752 55.6652   1 
  -4  11   7 565.088 60.8584  -2 
  -4  11   7 565.088 60.8584   1 
  -3  11   7 30.5510 60.3266  -2 
  -3  11   7 30.5510 60.3266   1 
  -2  11   7 629.097 79.0441  -2 
  -2  11   7 629.097 79.0441   1 
  -1  11   7 1801.58 82.1071  -2 
  -1  11   7 1801.58 82.1071   1 
   0  11   7 25.4078 32.4703  -2 
   0  11   7 25.4078 32.4703   1 
   1  11   7 1106.83 59.0136  -2 
   1  11   7 1106.83 59.0136   1 
   2  11   7 186.043 25.9906  -2 
   2  11   7 186.043 25.9906   1 
   3  11   7 30.5714 20.1246  -2 
   3  11   7 30.5714 20.1246   1 
   4  11   7 86.9376 22.3453  -2 
   4  11   7 86.9376 22.3453   1 
   5  11   7 978.071 47.2842  -2 
   5  11   7 978.071 47.2842   1 
   6  11   7 165.767 47.7913  -2 
   6  11   7 165.767 47.7913   1 
   7  11   7 383.975 60.5585  -2 
   7  11   7 383.975 60.5585   1 
   8  11   7 861.513 80.3790  -2 
   8  11   7 861.513 80.3790   1 
   9  11   7 172.671 61.4642  -2 
   9  11   7 172.671 61.4642   1 
  10  11   7 99.5697 95.7672  -2 
  10  11   7 99.5697 95.7672   1 
  -4  12   7 1156.39 107.414  -2 
  -4  12   7 1156.39 107.414   1 
  -3  12   7 560.972 82.7346  -2 
  -3  12   7 560.972 82.7346   1 
  -2  12   7 106.744 60.5622  -2 
  -2  12   7 106.744 60.5622   1 
  -1  12   7 864.034 83.2236  -2 
  -1  12   7 864.034 83.2236   1 
   0  12   7 363.174 48.5190  -2 
   0  12   7 363.174 48.5190   1 
   1  12   7 -3.3725 29.6734  -2 
   1  12   7 -3.3725 29.6734   1 
   2  12   7 993.437 56.1680  -2 
   2  12   7 993.437 56.1680   1 
   3  12   7 944.894 45.3135  -2 
   3  12   7 944.894 45.3135   1 
   4  12   7 23.1114 27.6938  -2 
   4  12   7 23.1114 27.6938   1 
   5  12   7 822.595 65.2650  -2 
   5  12   7 822.595 65.2650   1 
   6  12   7 814.444 72.5630  -2 
   6  12   7 814.444 72.5630   1 
   7  12   7 3.55741 51.5175  -2 
   7  12   7 3.55741 51.5175   1 
   8  12   7 8.12383 57.0457  -2 
   8  12   7 8.12383 57.0457   1 
   9  12   7 841.447 89.2081  -2 
   9  12   7 841.447 89.2081   1 
  10  12   7 505.717 126.526  -2 
  10  12   7 505.717 126.526   1 
  -3  13   7 448.579 82.1595  -2 
  -3  13   7 448.579 82.1595   1 
  -2  13   7 198.054 65.7322  -2 
  -2  13   7 198.054 65.7322   1 
   0  13   7 586.789 57.4414  -2 
   0  13   7 586.789 57.4414   1 
   1  13   7 395.849 82.4338  -2 
   1  13   7 395.849 82.4338   1 
   2  13   7 8.91077 47.6679  -2 
   2  13   7 8.91077 47.6679   1 
   3  13   7 480.054 51.5775  -2 
   3  13   7 480.054 51.5775   1 
   4  13   7 439.094 52.8382  -2 
   4  13   7 439.094 52.8382   1 
   5  13   7 122.011 40.8594  -2 
   5  13   7 122.011 40.8594   1 
   6  13   7 160.902 49.4188  -2 
   6  13   7 160.902 49.4188   1 
   7  13   7 887.443 85.4472  -2 
   7  13   7 887.443 85.4472   1 
   8  13   7 284.741 70.6259  -2 
   8  13   7 284.741 70.6259   1 
   9  13   7 152.947 70.8356  -2 
   9  13   7 152.947 70.8356   1 
  10  13   7 443.012 131.562  -2 
  10  13   7 443.012 131.562   1 
   1  14   7 903.064 107.211  -2 
   1  14   7 903.064 107.211   1 
   2  14   7 381.776 75.0585  -2 
   2  14   7 381.776 75.0585   1 
   3  14   7 112.349 35.2715  -2 
   3  14   7 112.349 35.2715   1 
   4  14   7 599.170 60.4056  -2 
   4  14   7 599.170 60.4056   1 
   5  14   7 470.326 59.8439  -2 
   5  14   7 470.326 59.8439   1 
   6  14   7 22.4562 46.6467  -2 
   6  14   7 22.4562 46.6467   1 
   7  14   7 424.652 71.4264  -2 
   7  14   7 424.652 71.4264   1 
   8  14   7 1246.33 103.187  -2 
   8  14   7 1246.33 103.187   1 
   2  15   7 171.730 64.5605  -2 
   2  15   7 171.730 64.5605   1 
   3  15   7 489.201 84.1671  -2 
   3  15   7 489.201 84.1671   1 
   4  15   7 -2.1617 33.8239  -2 
   4  15   7 -2.1617 33.8239   1 
   5  15   7 799.842 75.3111  -2 
   5  15   7 799.842 75.3111   1 
   6  15   7 423.471 67.7804  -2 
   6  15   7 423.471 67.7804   1 
   7  15   7 48.6067 77.2342  -2 
   7  15   7 48.6067 77.2342   1 
  -3  -9   8 623.063 106.672   1 
  -2  -9   8 17.2304 26.1456   1 
  -1  -9   8 234.200 125.485  -2 
  -1  -9   8 234.200 125.485   1 
   0  -9   8 332.518 130.890  -2 
   0  -9   8 332.518 130.890   1 
   1  -9   8 173.242 42.4550   1 
   2  -9   8 -16.102 117.146  -2 
   2  -9   8 -16.102 117.146   1 
   3  -9   8 420.674 140.340  -2 
   3  -9   8 420.674 140.340   1 
   4  -9   8 124.468 44.1199   1 
  -4  -8   8 3.95914 26.2387   1 
  -3  -8   8 587.144 63.1750   1 
  -2  -8   8 708.683 134.025  -2 
  -2  -8   8 708.683 134.025   1 
  -1  -8   8 18.5680 102.485  -2 
  -1  -8   8 18.5680 102.485   1 
   0  -8   8 548.711 129.421  -2 
   0  -8   8 548.711 129.421   1 
   1  -8   8 746.109 140.833  -2 
   1  -8   8 746.109 140.833   1 
   2  -8   8 98.1095 112.332  -2 
   2  -8   8 98.1095 112.332   1 
   3  -8   8 87.8789 115.224  -2 
   3  -8   8 87.8789 115.224   1 
   4  -8   8 752.563 145.109  -2 
   4  -8   8 752.563 145.109   1 
   5  -8   8 316.460 127.806  -2 
   5  -8   8 316.460 127.806   1 
   6  -8   8 19.7574 123.237  -2 
   6  -8   8 19.7574 123.237   1 
  -5  -7   8 373.347 57.2526   1 
  -4  -7   8 146.685 129.283  -2 
  -4  -7   8 146.685 129.283   1 
  -3  -7   8 -1.2937 22.0190   1 
  -2  -7   8 139.643 72.6005  -2 
  -2  -7   8 139.643 72.6005   1 
  -1  -7   8 598.292 117.261  -2 
  -1  -7   8 598.292 117.261   1 
   0  -7   8 94.4806 96.5838  -2 
   0  -7   8 94.4806 96.5838   1 
   1  -7   8 243.819 106.792  -2 
   1  -7   8 243.819 106.792   1 
   2  -7   8 681.412 129.176  -2 
   2  -7   8 681.412 129.176   1 
   3  -7   8 164.317 108.937  -2 
   3  -7   8 164.317 108.937   1 
   4  -7   8 283.682 113.349  -2 
   4  -7   8 283.682 113.349   1 
   5  -7   8 431.421 127.176  -2 
   5  -7   8 431.421 127.176   1 
   6  -7   8 389.853 134.672  -2 
   6  -7   8 389.853 134.672   1 
   7  -7   8 84.8142 116.486  -2 
   7  -7   8 84.8142 116.486   1 
   8  -7   8 244.608 55.8517   1 
  -6  -6   8 33.7162 31.2848   1 
  -5  -6   8 29.4594 27.9563   1 
  -4  -6   8 358.639 134.367  -2 
  -4  -6   8 358.639 134.367   1 
  -3  -6   8 822.533 139.906  -2 
  -3  -6   8 822.533 139.906   1 
  -2  -6   8 -24.300 62.5491  -2 
  -2  -6   8 -24.300 62.5491   1 
  -1  -6   8 1050.69 91.1339  -2 
  -1  -6   8 1050.69 91.1339   1 
   0  -6   8 358.478 99.7712  -2 
   0  -6   8 358.478 99.7712   1 
   1  -6   8 -27.895 82.4922  -2 
   1  -6   8 -27.895 82.4922   1 
   2  -6   8 201.844 95.1442  -2 
   2  -6   8 201.844 95.1442   1 
   3  -6   8 1182.84 142.099  -2 
   3  -6   8 1182.84 142.099   1 
   4  -6   8 188.522 95.1747  -2 
   4  -6   8 188.522 95.1747   1 
   5  -6   8 513.218 121.500  -2 
   5  -6   8 513.218 121.500   1 
   6  -6   8 1663.28 177.019  -2 
   6  -6   8 1663.28 177.019   1 
   7  -6   8 206.080 117.078  -2 
   7  -6   8 206.080 117.078   1 
   8  -6   8 497.946 139.911  -2 
   8  -6   8 497.946 139.911   1 
   9  -6   8 344.822 63.5339   1 
  -7  -5   8 42.2755 33.1859   1 
  -6  -5   8 267.448 50.9723   1 
  -5  -5   8 198.111 42.5683   1 
  -4  -5   8 11.5207 112.851  -2 
  -4  -5   8 11.5207 112.851   1 
  -3  -5   8 871.805 139.614  -2 
  -3  -5   8 871.805 139.614   1 
  -2  -5   8 730.199 81.5305  -2 
  -2  -5   8 730.199 81.5305   1 
  -1  -5   8 196.102 64.2180  -2 
  -1  -5   8 196.102 64.2180   1 
   0  -5   8 496.836 68.1616  -2 
   0  -5   8 496.836 68.1616   1 
   1  -5   8 1199.30 126.716  -2 
   1  -5   8 1199.30 126.716   1 
   2  -5   8 209.961 87.6897  -2 
   2  -5   8 209.961 87.6897   1 
   3  -5   8 505.939 103.217  -2 
   3  -5   8 505.939 103.217   1 
   4  -5   8 1421.41 135.560  -2 
   4  -5   8 1421.41 135.560   1 
   5  -5   8 124.318 94.3828  -2 
   5  -5   8 124.318 94.3828   1 
   6  -5   8 242.922 110.330  -2 
   6  -5   8 242.922 110.330   1 
   7  -5   8 963.182 142.871  -2 
   7  -5   8 963.182 142.871   1 
   8  -5   8 192.817 117.381  -2 
   8  -5   8 192.817 117.381   1 
   9  -5   8 115.799 119.549  -2 
   9  -5   8 115.799 119.549   1 
  10  -5   8 445.153 66.8568   1 
  -7  -4   8 1.83434 27.4858   1 
  -6  -4   8 109.817 36.2867   1 
  -5  -4   8 914.258 70.2495   1 
  -4  -4   8 136.166 111.940  -2 
  -4  -4   8 136.166 111.940   1 
  -3  -4   8 501.987 120.194  -2 
  -3  -4   8 501.987 120.194   1 
  -2  -4   8 976.218 127.603  -2 
  -2  -4   8 976.218 127.603   1 
  -1  -4   8 203.927 59.7489  -2 
  -1  -4   8 203.927 59.7489   1 
   0  -4   8 108.973 53.7883  -2 
   0  -4   8 108.973 53.7883   1 
   1  -4   8 793.884 68.7098  -2 
   1  -4   8 793.884 68.7098   1 
   2  -4   8 1307.18 125.309  -2 
   2  -4   8 1307.18 125.309   1 
   3  -4   8 11.3186 72.0139  -2 
   3  -4   8 11.3186 72.0139   1 
   4  -4   8 2394.24 158.347  -2 
   4  -4   8 2394.24 158.347   1 
   5  -4   8 608.985 110.489  -2 
   5  -4   8 608.985 110.489   1 
   6  -4   8 120.371 87.6495  -2 
   6  -4   8 120.371 87.6495   1 
   7  -4   8 396.420 110.342  -2 
   7  -4   8 396.420 110.342   1 
   8  -4   8 456.190 126.543  -2 
   8  -4   8 456.190 126.543   1 
   9  -4   8 158.054 116.746  -2 
   9  -4   8 158.054 116.746   1 
  10  -4   8 151.322 119.610  -2 
  10  -4   8 151.322 119.610   1 
  -8  -3   8 386.936 60.9802   1 
  -7  -3   8 665.842 67.1619   1 
  -6  -3   8 17.9569 25.9244   1 
  -5  -3   8 252.304 43.6196   1 
  -4  -3   8 847.801 132.517  -2 
  -4  -3   8 847.801 132.517   1 
  -3  -3   8 1111.72 133.592  -2 
  -3  -3   8 1111.72 133.592   1 
  -2  -3   8 324.497 99.1581  -2 
  -2  -3   8 324.497 99.1581   1 
  -1  -3   8 1835.36 90.2079  -2 
  -1  -3   8 1835.36 90.2079   1 
   0  -3   8 298.135 55.3172  -2 
   0  -3   8 298.135 55.3172   1 
   1  -3   8 391.716 66.5729  -2 
   1  -3   8 391.716 66.5729   1 
   2  -3   8 1779.92 128.470  -2 
   2  -3   8 1779.92 128.470   1 
   3  -3   8 434.680 80.0814  -2 
   3  -3   8 434.680 80.0814   1 
   4  -3   8 42.5043 70.0182  -2 
   4  -3   8 42.5043 70.0182   1 
   5  -3   8 730.032 108.026  -2 
   5  -3   8 730.032 108.026   1 
   6  -3   8 1389.58 133.634  -2 
   6  -3   8 1389.58 133.634   1 
   7  -3   8 129.663 90.6872  -2 
   7  -3   8 129.663 90.6872   1 
   8  -3   8 568.686 121.592  -2 
   8  -3   8 568.686 121.592   1 
   9  -3   8 535.356 121.656  -2 
   9  -3   8 535.356 121.656   1 
  10  -3   8 27.8173 107.530  -2 
  10  -3   8 27.8173 107.530   1 
  11  -3   7 101.117 67.4907  -2 
  11  -3   8 101.117 67.4907   1 
  -8  -2   8 -0.3129 26.4627   1 
  -7  -2   8 403.370 57.1618   1 
  -6  -2   8 400.054 54.3984   1 
  -5  -2   8 50.0271 26.6238   1 
  -4  -2   8 531.513 114.791  -2 
  -4  -2   8 531.513 114.791   1 
  -3  -2   8 1337.06 134.990  -2 
  -3  -2   8 1337.06 134.990   1 
  -2  -2   8 35.0205 82.1742  -2 
  -2  -2   8 35.0205 82.1742   1 
  -1  -2   8 935.907 68.1242  -2 
  -1  -2   8 935.907 68.1242   1 
   0  -2   8 476.256 56.6706  -2 
   0  -2   8 476.256 56.6706   1 
   1  -2   8 -0.6162 37.7223  -2 
   1  -2   8 -0.6162 37.7223   1 
   2  -2   8 587.709 80.5430  -2 
   2  -2   8 587.709 80.5430   1 
   3  -2   8 990.946 98.1903  -2 
   3  -2   8 990.946 98.1903   1 
   4  -2   8 438.917 83.9491  -2 
   4  -2   8 438.917 83.9491   1 
   5  -2   8 236.890 75.5647  -2 
   5  -2   8 236.890 75.5647   1 
   6  -2   8 1133.57 116.694  -2 
   6  -2   8 1133.57 116.694   1 
   7  -2   8 236.561 93.0336  -2 
   7  -2   8 236.561 93.0336   1 
   8  -2   8 10.6036 87.8093  -2 
   8  -2   8 10.6036 87.8093   1 
   9  -2   8 266.031 107.148  -2 
   9  -2   8 266.031 107.148   1 
  10  -2   8 509.538 56.0015   1 
  11  -2   7 -3.5257 58.2863  -2 
  11  -2   8 -3.5257 58.2863   1 
  -8  -1   8 183.419 43.1673   1 
  -7  -1   8 6.80416 25.3529   1 
  -6  -1   8 508.387 56.4262   1 
  -5  -1   8 601.046 55.8651   1 
  -4  -1   8 9.81518 89.5878  -2 
  -4  -1   8 9.81518 89.5878   1 
  -3  -1   8 871.182 118.435  -2 
  -3  -1   8 871.182 118.435   1 
  -2  -1   8 2426.98 149.101  -2 
  -2  -1   8 2426.98 149.101   1 
  -1  -1   8 19.9504 62.1473  -2 
  -1  -1   8 19.9504 62.1473   1 
   0  -1   8 608.809 53.4931  -2 
   0  -1   8 608.809 53.4931   1 
   1  -1   8 954.889 56.9627  -2 
   1  -1   8 954.889 56.9627   1 
   2  -1   8 590.359 50.0399  -2 
   2  -1   8 590.359 50.0399   1 
   3  -1   8 68.6177 62.0431  -2 
   3  -1   8 68.6177 62.0431   1 
   4  -1   8 1879.02 121.464  -2 
   4  -1   8 1879.02 121.464   1 
   5  -1   8 1679.23 118.362  -2 
   5  -1   8 1679.23 118.362   1 
   6  -1   8 100.882 72.2482  -2 
   6  -1   8 100.882 72.2482   1 
   7  -1   8 1370.24 130.306  -2 
   7  -1   8 1370.24 130.306   1 
   8  -1   8 664.336 108.330  -2 
   8  -1   8 664.336 108.330   1 
   9  -1   8 -28.403 82.6615  -2 
   9  -1   8 -28.403 82.6615   1 
  10  -1   8 1000.86 136.442  -2 
  10  -1   8 1000.86 136.442   1 
  11  -1   7 624.933 86.1447  -2 
  11  -1   8 624.933 86.1447   1 
  12  -1   7 90.5180 67.5043  -2 
  12  -1   8 90.5180 67.5043   1 
  -8   0   8 263.368 50.7480   1 
  -7   0   8 184.618 41.1553   1 
  -6   0   8 146.132 36.0029   1 
  -5   0   8 510.485 52.2321   1 
  -4   0   8 8.52968 84.0620  -2 
  -4   0   8 8.52968 84.0620   1 
  -3   0   8 7.89797 36.6675  -2 
  -3   0   8 7.89797 36.6675   1 
  -2   0   8 381.880 88.8171  -2 
  -2   0   8 381.880 88.8171   1 
  -1   0   8 366.163 40.5722  -2 
  -1   0   8 366.163 40.5722   1 
   0   0   8 253.294 41.5724  -2 
   0   0   8 253.294 41.5724   1 
   1   0   8 551.009 49.8435  -2 
   1   0   8 551.009 49.8435   1 
   2   0   8 2653.64 82.1997  -2 
   2   0   8 2653.64 82.1997   1 
   3   0   8 117.111 55.5316  -2 
   3   0   8 117.111 55.5316   1 
   4   0   8 434.591 73.0942  -2 
   4   0   8 434.591 73.0942   1 
   5   0   8 286.138 71.1660  -2 
   5   0   8 286.138 71.1660   1 
   6   0   8 414.900 82.6751  -2 
   6   0   8 414.900 82.6751   1 
   7   0   8 50.3553 68.9446  -2 
   7   0   8 50.3553 68.9446   1 
   8   0   8 1708.69 137.816  -2 
   8   0   8 1708.69 137.816   1 
   9   0   8 793.941 115.557  -2 
   9   0   8 793.941 115.557   1 
  10   0   8 104.490 94.0601  -2 
  10   0   8 104.490 94.0601   1 
  11   0   8 1124.16 140.614  -2 
  11   0   8 1124.16 140.614   1 
  11   0   7 968.393 97.0453  -2 
  11   0   8 968.393 97.0453   1 
  12   0   7 307.114 77.5861  -2 
  12   0   8 307.114 77.5861   1 
  -8   1   8 379.355 58.4050   1 
  -7   1   8 343.597 53.5520   1 
  -6   1   8 24.7508 23.7807   1 
  -5   1   8 22.2631 82.2836  -2 
  -5   1   8 22.2631 82.2836   1 
  -4   1   8 1376.44 125.153  -2 
  -4   1   8 1376.44 125.153   1 
  -3   1   8 941.069 104.797  -2 
  -3   1   8 941.069 104.797   1 
  -2   1   8 17.9145 67.3488  -2 
  -2   1   8 17.9145 67.3488   1 
  -1   1   8 1700.03 66.1966  -2 
  -1   1   8 1700.03 66.1966   1 
   0   1   8 1404.82 56.8399  -2 
   0   1   8 1404.82 56.8399   1 
   1   1   8 16.8498 32.3424  -2 
   1   1   8 16.8498 32.3424   1 
   2   1   8 1048.80 78.5116  -2 
   2   1   8 1048.80 78.5116   1 
   3   1   8 2746.06 121.814  -2 
   3   1   8 2746.06 121.814   1 
   4   1   8 468.443 71.5976  -2 
   4   1   8 468.443 71.5976   1 
   5   1   8 1392.98 100.839  -2 
   5   1   8 1392.98 100.839   1 
   6   1   8 3029.79 148.573  -2 
   6   1   8 3029.79 148.573   1 
   7   1   8 278.063 77.0264  -2 
   7   1   8 278.063 77.0264   1 
   8   1   8 831.042 103.502  -2 
   8   1   8 831.042 103.502   1 
   9   1   8 1471.48 133.899  -2 
   9   1   8 1471.48 133.899   1 
  10   1   8 613.482 107.650  -2 
  10   1   8 613.482 107.650   1 
  11   1   8 32.5242 90.5208  -2 
  11   1   8 32.5242 90.5208   1 
  12   1   7 860.122 98.9356  -2 
  12   1   8 860.122 98.9356   1 
  -8   2   8 -5.8384 26.7157   1 
  -7   2   8 196.824 41.3582   1 
  -6   2   8 324.650 37.2453   1 
  -5   2   8 383.808 105.136  -2 
  -5   2   8 383.808 105.136   1 
  -4   2   8 4.96867 81.5218  -2 
  -4   2   8 4.96867 81.5218   1 
  -3   2   8 759.134 105.917  -2 
  -3   2   8 759.134 105.917   1 
  -2   2   8 779.487 99.3657  -2 
  -2   2   8 779.487 99.3657   1 
  -1   2   8 158.602 73.9735  -2 
  -1   2   8 158.602 73.9735   1 
   0   2   8 993.346 50.0167  -2 
   0   2   8 993.346 50.0167   1 
   1   2   8 475.191 35.4281  -2 
   1   2   8 475.191 35.4281   1 
   2   2   8 88.8765 31.7437  -2 
   2   2   8 88.8765 31.7437   1 
   3   2   8 736.079 70.0957  -2 
   3   2   8 736.079 70.0957   1 
   4   2   8 1157.17 87.2573  -2 
   4   2   8 1157.17 87.2573   1 
   5   2   8 151.136 59.3042  -2 
   5   2   8 151.136 59.3042   1 
   6   2   8 1680.16 68.2840  -2 
   6   2   8 1680.16 68.2840   1 
   7   2   8 1098.90 101.859  -2 
   7   2   8 1098.90 101.859   1 
   8   2   8 113.315 69.2063  -2 
   8   2   8 113.315 69.2063   1 
   9   2   8 226.096 82.9915  -2 
   9   2   8 226.096 82.9915   1 
  10   2   8 215.764 88.2234  -2 
  10   2   8 215.764 88.2234   1 
  11   2   8 17.4023 82.2184  -2 
  11   2   8 17.4023 82.2184   1 
  12   2   7 72.0620 65.4615  -2 
  12   2   8 72.0620 65.4615   1 
  13   2   7 325.387 79.4907  -2 
  13   2   8 325.387 79.4907   1 
  -8   3   8 348.355 56.1082   1 
  -7   3   8 47.2883 21.9352   1 
  -6   3   8 349.586 38.7950   1 
  -5   3   8 1915.25 154.357  -2 
  -5   3   8 1915.25 154.357   1 
  -4   3   8 646.578 106.680  -2 
  -4   3   8 646.578 106.680   1 
  -3   3   8 1215.90 63.8729  -2 
  -3   3   8 1215.90 63.8729   1 
  -2   3   8 2403.93 77.9621  -2 
  -2   3   8 2403.93 77.9621   1 
  -1   3   8 146.370 33.1956  -2 
  -1   3   8 146.370 33.1956   1 
   0   3   8 279.414 33.2933  -2 
   0   3   8 279.414 33.2933   1 
   1   3   8 1882.47 46.0955  -2 
   1   3   8 1882.47 46.0955   1 
   2   3   8 1388.41 39.0525  -2 
   2   3   8 1388.41 39.0525   1 
   3   3   8 173.526 24.3090  -2 
   3   3   8 173.526 24.3090   1 
   4   3   8 4611.02 93.5546  -2 
   4   3   8 4611.02 93.5546   1 
   5   3   8 1023.35 52.4576  -2 
   5   3   8 1023.35 52.4576   1 
   6   3   8 386.590 41.7348  -2 
   6   3   8 386.590 41.7348   1 
   7   3   8 1020.30 58.9148  -2 
   7   3   8 1020.30 58.9148   1 
   8   3   8 834.007 95.9104  -2 
   8   3   8 834.007 95.9104   1 
   9   3   8 103.006 73.0897  -2 
   9   3   8 103.006 73.0897   1 
  10   3   8 146.233 80.6573  -2 
  10   3   8 146.233 80.6573   1 
  11   3   8 1174.71 128.275  -2 
  11   3   8 1174.71 128.275   1 
  12   3   7 141.453 65.8259  -2 
  12   3   8 141.453 65.8259   1 
  13   3   7 383.243 79.2366  -2 
  13   3   8 383.243 79.2366   1 
  -8   4   8 493.813 50.3018   1 
  -7   4   8 489.784 45.0636   1 
  -6   4   8 -13.377 92.2213  -2 
  -6   4   8 -13.377 92.2213   1 
  -5   4   8 183.254 95.2268  -2 
  -5   4   8 183.254 95.2268   1 
  -4   4   8 830.867 113.333  -2 
  -4   4   8 830.867 113.333   1 
  -3   4   8 98.5113 38.5305  -2 
  -3   4   8 98.5113 38.5305   1 
  -2   4   8 263.115 39.5249  -2 
  -2   4   8 263.115 39.5249   1 
  -1   4   8 2013.32 67.2079  -2 
  -1   4   8 2013.32 67.2079   1 
   0   4   8 663.454 40.8128  -2 
   0   4   8 663.454 40.8128   1 
   1   4   8 911.723 42.1634  -2 
   1   4   8 911.723 42.1634   1 
   2   4   8 1060.05 30.0368  -2 
   2   4   8 1060.05 30.0368   1 
   3   4   8 76.0114 23.0024  -2 
   3   4   8 76.0114 23.0024   1 
   4   4   8 53.4577 26.7877  -2 
   4   4   8 53.4577 26.7877   1 
   5   4   8 699.189 46.8328  -2 
   5   4   8 699.189 46.8328   1 
   6   4   8 1370.63 62.3821  -2 
   6   4   8 1370.63 62.3821   1 
   7   4   8 163.024 38.8021  -2 
   7   4   8 163.024 38.8021   1 
   8   4   8 765.795 57.7257  -2 
   8   4   8 765.795 57.7257   1 
   9   4   8 686.983 95.3279  -2 
   9   4   8 686.983 95.3279   1 
  10   4   8 8.72923 69.4379  -2 
  10   4   8 8.72923 69.4379   1 
  11   4   8 124.850 85.1938  -2 
  11   4   8 124.850 85.1938   1 
  11   4   7 201.702 66.9669  -2 
  11   4   8 201.702 66.9669   1 
  12   4   7 603.202 84.6805  -2 
  12   4   8 603.202 84.6805   1 
  13   4   7 244.409 74.8326  -2 
  13   4   8 244.409 74.8326   1 
  -8   5   8 34.6136 25.2418   1 
  -7   5   8 552.433 80.9510   1 
  -6   5   8 496.379 117.254  -2 
  -6   5   8 496.379 117.254   1 
  -5   5   8 70.4856 43.5548  -2 
  -5   5   8 70.4856 43.5548   1 
  -4   5   8 1054.85 115.841  -2 
  -4   5   8 1054.85 115.841   1 
  -3   5   8 741.649 55.0996  -2 
  -3   5   8 741.649 55.0996   1 
  -2   5   8 25.7819 31.4344  -2 
  -2   5   8 25.7819 31.4344   1 
  -1   5   8 1516.49 59.6398  -2 
  -1   5   8 1516.49 59.6398   1 
   0   5   8 1137.50 39.9796  -2 
   0   5   8 1137.50 39.9796   1 
   1   5   8 61.5608 19.3460  -2 
   1   5   8 61.5608 19.3460   1 
   2   5   8 1344.89 44.9361  -2 
   2   5   8 1344.89 44.9361   1 
   3   5   8 1561.75 49.6486  -2 
   3   5   8 1561.75 49.6486   1 
   4   5   8 839.525 40.5718  -2 
   4   5   8 839.525 40.5718   1 
   5   5   8 138.470 26.4510  -2 
   5   5   8 138.470 26.4510   1 
   6   5   8 1740.83 68.5922  -2 
   6   5   8 1740.83 68.5922   1 
   7   5   8 1248.23 62.9714  -2 
   7   5   8 1248.23 62.9714   1 
   8   5   8 15.7125 36.6738  -2 
   8   5   8 15.7125 36.6738   1 
   9   5   8 1841.91 82.6380  -2 
   9   5   8 1841.91 82.6380   1 
  10   5   8 1093.95 117.663  -2 
  10   5   8 1093.95 117.663   1 
  11   5   7 8.88293 56.1530  -2 
  11   5   8 8.88293 56.1530   1 
  11   5   8 -26.048 73.2627  -2 
  11   5   8 -26.048 73.2627   1 
  12   5   7 701.526 86.0421  -2 
  12   5   8 701.526 86.0421   1 
  13   5   7 629.450 86.8163  -2 
  13   5   8 629.450 86.8163   1 
  -7   6   8 42.6368 26.4839   1 
  -6   6   8 266.148 71.8190  -2 
  -6   6   8 266.148 71.8190   1 
  -5   6   8 389.228 59.1202  -2 
  -5   6   8 389.228 59.1202   1 
  -4   6   8 43.6518 41.9708  -2 
  -4   6   8 43.6518 41.9708   1 
  -3   6   8 689.767 58.4390  -2 
  -3   6   8 689.767 58.4390   1 
  -2   6   8 933.816 58.5435  -2 
  -2   6   8 933.816 58.5435   1 
  -1   6   8 23.7732 21.9680  -2 
  -1   6   8 23.7732 21.9680   1 
   0   6   8 390.646 28.3106  -2 
   0   6   8 390.646 28.3106   1 
   1   6   8 184.954 33.1296  -2 
   1   6   8 184.954 33.1296   1 
   2   6   8 570.545 34.7266  -2 
   2   6   8 570.545 34.7266   1 
   3   6   8 94.6904 26.6214  -2 
   3   6   8 94.6904 26.6214   1 
   4   6   8 1785.41 55.2990  -2 
   4   6   8 1785.41 55.2990   1 
   5   6   8 760.211 41.1616  -2 
   5   6   8 760.211 41.1616   1 
   6   6   8 205.639 30.3106  -2 
   6   6   8 205.639 30.3106   1 
   7   6   8 2392.15 82.5424  -2 
   7   6   8 2392.15 82.5424   1 
   8   6   8 579.382 52.0630  -2 
   8   6   8 579.382 52.0630   1 
   9   6   8 -2.0131 38.1749  -2 
   9   6   8 -2.0131 38.1749   1 
  10   6   8 492.084 58.3307  -2 
  10   6   8 492.084 58.3307   1 
  11   6   8 628.811 69.3361   1 
  12   6   7 1.98027 61.1207  -2 
  12   6   8 1.98027 61.1207   1 
  13   6   7 419.087 81.8399  -2 
  13   6   8 419.087 81.8399   1 
  -7   7   8 20.1622 21.7226   1 
  -6   7   8 139.944 33.3189   1 
  -5   7   8 949.408 57.0490  -2 
  -5   7   8 949.408 57.0490   1 
  -4   7   8 153.568 36.6209  -2 
  -4   7   8 153.568 36.6209   1 
  -3   7   8 245.298 35.6568  -2 
  -3   7   8 245.298 35.6568   1 
  -2   7   8 342.136 34.7191  -2 
  -2   7   8 342.136 34.7191   1 
  -1   7   8 840.740 39.9368  -2 
  -1   7   8 840.740 39.9368   1 
   0   7   8 -1.2299 19.3826  -2 
   0   7   8 -1.2299 19.3826   1 
   1   7   8 990.348 54.3769  -2 
   1   7   8 990.348 54.3769   1 
   2   7   8 2019.72 72.2751  -2 
   2   7   8 2019.72 72.2751   1 
   3   7   8 57.0836 25.2616  -2 
   3   7   8 57.0836 25.2616   1 
   4   7   8 2058.98 59.9201  -2 
   4   7   8 2058.98 59.9201   1 
   5   7   8 970.663 46.3493  -2 
   5   7   8 970.663 46.3493   1 
   6   7   8 8.02780 26.0132  -2 
   6   7   8 8.02780 26.0132   1 
   7   7   8 483.747 40.1717  -2 
   7   7   8 483.747 40.1717   1 
   8   7   8 2075.03 83.9743  -2 
   8   7   8 2075.03 83.9743   1 
   9   7   8 469.597 54.3706  -2 
   9   7   8 469.597 54.3706   1 
  10   7   8 370.570 92.9882  -2 
  10   7   8 370.570 92.9882   1 
  11   7   8 1023.05 126.275  -2 
  11   7   8 1023.05 126.275   1 
  12   7   8 41.8849 30.9265   1 
  -7   8   8 298.332 48.2465   1 
  -6   8   8 232.532 53.3870  -2 
  -6   8   8 232.532 53.3870   1 
  -5   8   8 27.4796 59.8389  -2 
  -5   8   8 27.4796 59.8389   1 
  -4   8   8 748.598 51.1723  -2 
  -4   8   8 748.598 51.1723   1 
  -3   8   8 849.551 49.0707  -2 
  -3   8   8 849.551 49.0707   1 
  -2   8   8 1.00531 27.3010  -2 
  -2   8   8 1.00531 27.3010   1 
  -1   8   8 1739.12 53.8664  -2 
  -1   8   8 1739.12 53.8664   1 
   0   8   8 1411.73 64.9763  -2 
   0   8   8 1411.73 64.9763   1 
   1   8   8 -0.7773 27.5380  -2 
   1   8   8 -0.7773 27.5380   1 
   2   8   8 1092.51 43.9970  -2 
   2   8   8 1092.51 43.9970   1 
   3   8   8 1481.28 50.7376  -2 
   3   8   8 1481.28 50.7376   1 
   4   8   8 68.2455 31.5657  -2 
   4   8   8 68.2455 31.5657   1 
   5   8   8 1230.19 51.0754  -2 
   5   8   8 1230.19 51.0754   1 
   6   8   8 1939.14 64.5887  -2 
   6   8   8 1939.14 64.5887   1 
   7   8   8 159.517 33.0223  -2 
   7   8   8 159.517 33.0223   1 
   8   8   8 518.050 44.1657  -2 
   8   8   8 518.050 44.1657   1 
   9   8   8 442.308 44.7341  -2 
   9   8   8 442.308 44.7341   1 
  10   8   8 152.651 52.0430  -2 
  10   8   8 152.651 52.0430   1 
  11   8   8 24.6639 27.2747   1 
  -6   9   8 292.617 59.1607  -2 
  -6   9   8 292.617 59.1607   1 
  -5   9   8 -1.0252 30.3019   1 
  -4   9   8 145.097 64.4861  -2 
  -4   9   8 145.097 64.4861   1 
  -3   9   8 731.749 49.8692  -2 
  -3   9   8 731.749 49.8692   1 
  -2   9   8 420.310 39.7956  -2 
  -2   9   8 420.310 39.7956   1 
  -1   9   8 433.713 49.2315  -2 
  -1   9   8 433.713 49.2315   1 
   0   9   8 2093.29 79.5327  -2 
   0   9   8 2093.29 79.5327   1 
   1   9   8 154.122 33.0253  -2 
   1   9   8 154.122 33.0253   1 
   2   9   8 428.547 33.2604  -2 
   2   9   8 428.547 33.2604   1 
   3   9   8 1554.95 53.8120  -2 
   3   9   8 1554.95 53.8120   1 
   4   9   8 501.464 37.0822  -2 
   4   9   8 501.464 37.0822   1 
   5   9   8 11.9704 31.0937  -2 
   5   9   8 11.9704 31.0937   1 
   6   9   8 1059.90 60.1095  -2 
   6   9   8 1059.90 60.1095   1 
   7   9   8 1278.33 68.5075  -2 
   7   9   8 1278.33 68.5075   1 
   8   9   8 55.7062 39.1471  -2 
   8   9   8 55.7062 39.1471   1 
   9   9   8 601.568 50.7755  -2 
   9   9   8 601.568 50.7755   1 
  10   9   8 257.754 60.5445  -2 
  10   9   8 257.754 60.5445   1 
  -5  10   8 1208.19 80.1843  -2 
  -5  10   8 1208.19 80.1843   1 
  -4  10   8 84.8152 46.2025  -2 
  -4  10   8 84.8152 46.2025   1 
  -3  10   8 1087.84 67.5972  -2 
  -3  10   8 1087.84 67.5972   1 
  -2  10   8 933.481 69.6812  -2 
  -2  10   8 933.481 69.6812   1 
  -1  10   8 71.1444 40.2119  -2 
  -1  10   8 71.1444 40.2119   1 
   0  10   8 92.2347 36.2330  -2 
   0  10   8 92.2347 36.2330   1 
   1  10   8 703.868 51.3936  -2 
   1  10   8 703.868 51.3936   1 
   2  10   8 650.460 48.8633  -2 
   2  10   8 650.460 48.8633   1 
   3  10   8 234.586 29.9825  -2 
   3  10   8 234.586 29.9825   1 
   4  10   8 1763.96 59.9317  -2 
   4  10   8 1763.96 59.9317   1 
   5  10   8 976.212 49.1464  -2 
   5  10   8 976.212 49.1464   1 
   6  10   8 65.6364 29.6509  -2 
   6  10   8 65.6364 29.6509   1 
   7  10   8 388.191 40.7812  -2 
   7  10   8 388.191 40.7812   1 
   8  10   8 740.639 60.2224  -2 
   8  10   8 740.639 60.2224   1 
   9  10   8 122.920 83.5467  -2 
   9  10   8 122.920 83.5467   1 
  10  10   8 182.119 87.5893  -2 
  10  10   8 182.119 87.5893   1 
  -4  11   8 291.235 77.7179  -2 
  -4  11   8 291.235 77.7179   1 
  -3  11   8 -46.064 57.5633  -2 
  -3  11   8 -46.064 57.5633   1 
  -2  11   8 429.245 59.8499  -2 
  -2  11   8 429.245 59.8499   1 
  -1  11   8 307.641 52.1849  -2 
  -1  11   8 307.641 52.1849   1 
   0  11   8 -0.5535 35.0047  -2 
   0  11   8 -0.5535 35.0047   1 
   1  11   8 454.739 45.9712  -2 
   1  11   8 454.739 45.9712   1 
   2  11   8 533.793 47.5582  -2 
   2  11   8 533.793 47.5582   1 
   3  11   8 2.65608 21.8100  -2 
   3  11   8 2.65608 21.8100   1 
   4  11   8 77.9153 25.5512  -2 
   4  11   8 77.9153 25.5512   1 
   5  11   8 413.689 37.9955  -2 
   5  11   8 413.689 37.9955   1 
   6  11   8 505.390 41.8444  -2 
   6  11   8 505.390 41.8444   1 
   7  11   8 75.3193 49.2920  -2 
   7  11   8 75.3193 49.2920   1 
   8  11   8 979.447 83.4032  -2 
   8  11   8 979.447 83.4032   1 
   9  11   8 705.503 80.6744  -2 
   9  11   8 705.503 80.6744   1 
  10  11   8 22.2982 86.9962  -2 
  10  11   8 22.2982 86.9962   1 
  -3  12   8 354.418 67.9429   1 
  -2  12   8 -5.3926 58.3155  -2 
  -2  12   8 -5.3926 58.3155   1 
  -1  12   8 470.418 59.5263  -2 
  -1  12   8 470.418 59.5263   1 
   0  12   8 793.861 63.7957  -2 
   0  12   8 793.861 63.7957   1 
   1  12   8 81.2325 34.7200  -2 
   1  12   8 81.2325 34.7200   1 
   2  12   8 520.202 47.8873  -2 
   2  12   8 520.202 47.8873   1 
   3  12   8 1071.22 51.3597  -2 
   3  12   8 1071.22 51.3597   1 
   4  12   8 180.979 27.8791  -2 
   4  12   8 180.979 27.8791   1 
   5  12   8 37.6039 38.4249  -2 
   5  12   8 37.6039 38.4249   1 
   6  12   8 1360.72 88.7026  -2 
   6  12   8 1360.72 88.7026   1 
   7  12   8 671.104 74.1112  -2 
   7  12   8 671.104 74.1112   1 
   8  12   8 33.5536 56.0087  -2 
   8  12   8 33.5536 56.0087   1 
   9  12   8 1096.17 95.7417  -2 
   9  12   8 1096.17 95.7417   1 
  10  12   8 591.719 124.371  -2 
  10  12   8 591.719 124.371   1 
  -3  13   8 264.952 79.5474  -2 
  -3  13   8 264.952 79.5474   1 
  -2  13   8 315.548 75.6974  -2 
  -2  13   8 315.548 75.6974   1 
  -1  13   8 57.2075 59.8660  -2 
  -1  13   8 57.2075 59.8660   1 
   0  13   8 678.831 63.8916  -2 
   0  13   8 678.831 63.8916   1 
   1  13   8 315.133 48.8640  -2 
   1  13   8 315.133 48.8640   1 
   2  13   8 17.0551 30.2504  -2 
   2  13   8 17.0551 30.2504   1 
   3  13   8 236.482 66.8606  -2 
   3  13   8 236.482 66.8606   1 
   4  13   8 991.330 71.3044  -2 
   4  13   8 991.330 71.3044   1 
   5  13   8 375.995 51.5348  -2 
   5  13   8 375.995 51.5348   1 
   6  13   8 571.946 62.5988  -2 
   6  13   8 571.946 62.5988   1 
   7  13   8 1107.94 89.8366  -2 
   7  13   8 1107.94 89.8366   1 
   8  13   8 47.9925 60.4769  -2 
   8  13   8 47.9925 60.4769   1 
   9  13   8 192.687 72.2546  -2 
   9  13   8 192.687 72.2546   1 
  10  13   8 231.417 76.7053  -2 
  10  13   8 231.417 76.7053   1 
  -1  14   8 385.915 76.0199  -2 
  -1  14   8 385.915 76.0199   1 
   1  14   8 1299.80 128.569  -2 
   1  14   8 1299.80 128.569   1 
   2  14   8 1062.60 112.742  -2 
   2  14   8 1062.60 112.742   1 
   3  14   8 27.1944 35.7816  -2 
   3  14   8 27.1944 35.7816   1 
   4  14   8 921.387 71.8323  -2 
   4  14   8 921.387 71.8323   1 
   5  14   8 717.241 68.6970  -2 
   5  14   8 717.241 68.6970   1 
   6  14   8 101.966 44.1709  -2 
   6  14   8 101.966 44.1709   1 
   7  14   8 386.073 67.3488  -2 
   7  14   8 386.073 67.3488   1 
   8  14   8 854.490 91.6546  -2 
   8  14   8 854.490 91.6546   1 
   2  15   8 419.216 83.4187  -2 
   2  15   8 419.216 83.4187   1 
   3  15   8 266.160 73.9059  -2 
   3  15   8 266.160 73.9059   1 
   4  15   8 48.5086 57.7860  -2 
   4  15   8 48.5086 57.7860   1 
   5  15   8 347.232 54.6906  -2 
   5  15   8 347.232 54.6906   1 
   6  15   8 244.203 56.4567  -2 
   6  15   8 244.203 56.4567   1 
   7  15   8 0.91172 66.3004  -2 
   7  15   8 0.91172 66.3004   1 
   1  -9   9 284.612 97.0454   1 
  -2  -8   9 531.172 75.2410   1 
  -1  -8   9 66.3423 30.6345   1 
   0  -8   9 32.0724 117.047  -2 
   0  -8   9 32.0724 117.047   1 
   1  -8   9 329.841 55.0979   1 
   2  -8   9 140.597 39.4111   1 
   3  -8   9 -10.190 113.678  -2 
   3  -8   9 -10.190 113.678   1 
   4  -8   9 527.546 135.631  -2 
   4  -8   9 527.546 135.631   1 
   5  -8   9 755.862 70.5571   1 
  -4  -7   9 167.434 42.1230   1 
  -3  -7   9 9.44754 25.8320   1 
  -2  -7   9 68.2505 35.4723   1 
  -1  -7   9 330.143 114.251  -2 
  -1  -7   9 330.143 114.251   1 
   0  -7   9 142.453 107.367  -2 
   0  -7   9 142.453 107.367   1 
   1  -7   9 172.150 114.947  -2 
   1  -7   9 172.150 114.947   1 
   2  -7   9 671.572 64.3789   1 
   3  -7   9 419.076 126.775  -2 
   3  -7   9 419.076 126.775   1 
   4  -7   9 231.553 115.094  -2 
   4  -7   9 231.553 115.094   1 
   5  -7   9 549.639 138.624  -2 
   5  -7   9 549.639 138.624   1 
   6  -7   9 186.594 43.7916   1 
   7  -7   9 -8.4221 21.6717   1 
  -5  -6   9 16.2856 28.6602   1 
  -4  -6   9 531.362 62.4477   1 
  -3  -6   9 501.783 59.5628   1 
  -2  -6   9 1.11135 23.0153   1 
  -1  -6   9 408.621 111.194  -2 
  -1  -6   9 408.621 111.194   1 
   0  -6   9 907.322 132.832  -2 
   0  -6   9 907.322 132.832   1 
   1  -6   9 113.143 99.8093  -2 
   1  -6   9 113.143 99.8093   1 
   2  -6   9 356.227 51.0217   1 
   3  -6   9 1198.21 73.8673   1 
   4  -6   9 241.158 110.081  -2 
   4  -6   9 241.158 110.081   1 
   5  -6   9 442.247 127.087  -2 
   5  -6   9 442.247 127.087   1 
   6  -6   9 716.979 144.876  -2 
   6  -6   9 716.979 144.876   1 
   7  -6   9 97.2889 32.4121   1 
   8  -6   9 -0.8209 22.3428   1 
  -6  -5   9 234.823 50.2098   1 
  -5  -5   9 242.134 49.3147   1 
  -4  -5   9 2.69596 24.7577   1 
  -3  -5   9 212.706 122.352  -2 
  -3  -5   9 212.706 122.352   1 
  -2  -5   9 672.317 59.3608   1 
  -1  -5   9 134.105 67.4536  -2 
  -1  -5   9 134.105 67.4536   1 
   0  -5   9 1285.66 137.537  -2 
   0  -5   9 1285.66 137.537   1 
   1  -5   9 1275.13 138.094  -2 
   1  -5   9 1275.13 138.094   1 
   2  -5   9 8.28104 83.8553  -2 
   2  -5   9 8.28104 83.8553   1 
   3  -5   9 168.334 92.4163  -2 
   3  -5   9 168.334 92.4163   1 
   4  -5   9 482.876 112.699  -2 
   4  -5   9 482.876 112.699   1 
   5  -5   9 38.0948 100.096  -2 
   5  -5   9 38.0948 100.096   1 
   6  -5   9 98.0534 103.724  -2 
   6  -5   9 98.0534 103.724   1 
   7  -5   9 690.223 139.483  -2 
   7  -5   9 690.223 139.483   1 
   8  -5   9 184.373 40.1460   1 
   9  -5   9 43.6555 21.3752   1 
  -6  -4   9 100.125 36.6388   1 
  -5  -4   9 671.354 66.3754   1 
  -4  -4   9 250.717 49.2829   1 
  -3  -4   9 286.464 115.910  -2 
  -3  -4   9 286.464 115.910   1 
  -2  -4   9 1262.42 145.848  -2 
  -2  -4   9 1262.42 145.848   1 
  -1  -4   9 365.664 100.806  -2 
  -1  -4   9 365.664 100.806   1 
   0  -4   9 27.1043 56.7407  -2 
   0  -4   9 27.1043 56.7407   1 
   1  -4   9 887.826 116.332  -2 
   1  -4   9 887.826 116.332   1 
   2  -4   9 972.355 117.240  -2 
   2  -4   9 972.355 117.240   1 
   3  -4   9 158.597 80.9467  -2 
   3  -4   9 158.597 80.9467   1 
   4  -4   9 801.927 118.831  -2 
   4  -4   9 801.927 118.831   1 
   5  -4   9 1075.18 136.921  -2 
   5  -4   9 1075.18 136.921   1 
   6  -4   9 100.262 94.8659  -2 
   6  -4   9 100.262 94.8659   1 
   7  -4   9 236.500 105.069  -2 
   7  -4   9 236.500 105.069   1 
   8  -4   9 693.897 141.080  -2 
   8  -4   9 693.897 141.080   1 
   9  -4   9 303.771 36.5109   1 
  10  -4   9 5.48900 23.7991   1 
  -7  -3   9 341.347 58.1394   1 
  -6  -3   9 122.695 37.6229   1 
  -5  -3   9 73.9996 30.7737   1 
  -4  -3   9 473.104 55.8685   1 
  -3  -3   9 78.4309 103.130  -2 
  -3  -3   9 78.4309 103.130   1 
  -2  -3   9 174.997 101.803  -2 
  -2  -3   9 174.997 101.803   1 
  -1  -3   9 564.312 109.094  -2 
  -1  -3   9 564.312 109.094   1 
   0  -3   9 246.028 58.1567  -2 
   0  -3   9 246.028 58.1567   1 
   1  -3   9 -4.0996 71.4064  -2 
   1  -3   9 -4.0996 71.4064   1 
   2  -3   9 571.327 92.3113  -2 
   2  -3   9 571.327 92.3113   1 
   3  -3   9 700.960 101.441  -2 
   3  -3   9 700.960 101.441   1 
   4  -3   9 86.8009 80.3209  -2 
   4  -3   9 86.8009 80.3209   1 
   5  -3   9 580.297 107.604  -2 
   5  -3   9 580.297 107.604   1 
   6  -3   9 619.133 36.9163   1 
   7  -3   9 233.022 107.621  -2 
   7  -3   9 233.022 107.621   1 
   8  -3   9 89.6619 104.734  -2 
   8  -3   9 89.6619 104.734   1 
   9  -3   9 477.151 127.081  -2 
   9  -3   9 477.151 127.081   1 
  10  -3   9 133.974 37.1715   1 
  -7  -2   9 214.955 50.0822   1 
  -6  -2   9 672.840 66.5744   1 
  -5  -2   9 -0.4592 22.5413   1 
  -4  -2   9 463.546 53.2672   1 
  -3  -2   9 281.261 108.957  -2 
  -3  -2   9 281.261 108.957   1 
  -2  -2   9 18.9697 90.1776  -2 
  -2  -2   9 18.9697 90.1776   1 
  -1  -2   9 99.3370 81.1716  -2 
  -1  -2   9 99.3370 81.1716   1 
   0  -2   9 732.571 67.1595  -2 
   0  -2   9 732.571 67.1595   1 
   1  -2   9 897.973 63.8562  -2 
   1  -2   9 897.973 63.8562   1 
   2  -2   9 301.056 77.3542  -2 
   2  -2   9 301.056 77.3542   1 
   3  -2   9 1997.38 136.044  -2 
   3  -2   9 1997.38 136.044   1 
   4  -2   9 889.332 107.086  -2 
   4  -2   9 889.332 107.086   1 
   5  -2   9 91.5419 74.8198  -2 
   5  -2   9 91.5419 74.8198   1 
   6  -2   9 652.885 109.148  -2 
   6  -2   9 652.885 109.148   1 
   7  -2   9 772.031 40.4869   1 
   8  -2   9 136.787 102.880  -2 
   8  -2   9 136.787 102.880   1 
   9  -2   9 543.888 128.088  -2 
   9  -2   9 543.888 128.088   1 
  10  -2   9 1229.85 163.248  -2 
  10  -2   9 1229.85 163.248   1 
  11  -2   9 14.4904 25.0360   1 
  -7  -1   9 4.08496 27.0867   1 
  -6  -1   9 88.9472 34.6308   1 
  -5  -1   9 299.163 50.6441   1 
  -4  -1   9 165.043 35.6971   1 
  -3  -1   9 104.030 97.1770  -2 
  -3  -1   9 104.030 97.1770   1 
  -2  -1   9 2098.54 154.144  -2 
  -2  -1   9 2098.54 154.144   1 
  -1  -1   9 279.035 88.4330  -2 
  -1  -1   9 279.035 88.4330   1 
   0  -1   9 439.791 51.2395  -2 
   0  -1   9 439.791 51.2395   1 
   1  -1   9 654.792 59.1095  -2 
   1  -1   9 654.792 59.1095   1 
   2  -1   9 612.616 75.0801  -2 
   2  -1   9 612.616 75.0801   1 
   3  -1   9 -2.9056 61.4652  -2 
   3  -1   9 -2.9056 61.4652   1 
   4  -1   9 1156.08 107.040  -2 
   4  -1   9 1156.08 107.040   1 
   5  -1   9 1621.54 125.092  -2 
   5  -1   9 1621.54 125.092   1 
   6  -1   9 -25.672 72.4917  -2 
   6  -1   9 -25.672 72.4917   1 
   7  -1   9 1805.01 152.643  -2 
   7  -1   9 1805.01 152.643   1 
   8  -1   9 283.572 99.6552  -2 
   8  -1   9 283.572 99.6552   1 
   9  -1   9 -10.055 89.5631  -2 
   9  -1   9 -10.055 89.5631   1 
  10  -1   9 191.994 111.498  -2 
  10  -1   9 191.994 111.498   1 
  11  -1   9 507.710 131.630  -2 
  11  -1   9 507.710 131.630   1 
  -7   0   9 76.8687 34.1498   1 
  -6   0   9 0.48755 23.8170   1 
  -5   0   9 385.546 51.6645   1 
  -4   0   9 381.159 48.5366   1 
  -3   0   9 12.3630 84.9240  -2 
  -3   0   9 12.3630 84.9240   1 
  -2   0   9 908.092 111.421  -2 
  -2   0   9 908.092 111.421   1 
  -1   0   9 2311.98 139.236  -2 
  -1   0   9 2311.98 139.236   1 
   0   0   9 55.8098 69.7916  -2 
   0   0   9 55.8098 69.7916   1 
   1   0   9 733.467 58.3735  -2 
   1   0   9 733.467 58.3735   1 
   2   0   9 1555.61 101.179  -2 
   2   0   9 1555.61 101.179   1 
   3   0   9 444.063 74.7947  -2 
   3   0   9 444.063 74.7947   1 
   4   0   9 453.629 79.4434  -2 
   4   0   9 453.629 79.4434   1 
   5   0   9 2160.82 136.849  -2 
   5   0   9 2160.82 136.849   1 
   6   0   9 383.372 88.4759  -2 
   6   0   9 383.372 88.4759   1 
   7   0   9 385.768 91.6169  -2 
   7   0   9 385.768 91.6169   1 
   8   0   9 1367.05 134.368  -2 
   8   0   9 1367.05 134.368   1 
   9   0   9 549.405 112.171  -2 
   9   0   9 549.405 112.171   1 
  10   0   9 0.13657 93.7078  -2 
  10   0   9 0.13657 93.7078   1 
  11   0   9 509.777 123.709  -2 
  11   0   9 509.777 123.709   1 
  11   0   8 621.122 85.7365  -2 
  11   0   9 621.122 85.7365   1 
  12   0   8 268.887 76.1921  -2 
  12   0   9 268.887 76.1921   1 
  12   0   9 275.760 115.433  -2 
  12   0   9 275.760 115.433   1 
  -8   1   9 -4.6175 48.7382   1 
  -7   1   9 221.686 45.8368   1 
  -6   1   9 474.505 56.8876   1 
  -5   1   9 0.11829 21.2593   1 
  -4   1   9 1314.94 138.068  -2 
  -4   1   9 1314.94 138.068   1 
  -3   1   9 910.675 117.875  -2 
  -3   1   9 910.675 117.875   1 
  -2   1   9 -3.1359 78.4467  -2 
  -2   1   9 -3.1359 78.4467   1 
  -1   1   9 944.267 109.129  -2 
  -1   1   9 944.267 109.129   1 
   0   1   9 1383.43 111.213  -2 
   0   1   9 1383.43 111.213   1 
   1   1   9 314.116 32.1365  -2 
   1   1   9 314.116 32.1365   1 
   2   1   9 583.803 51.5979  -2 
   2   1   9 583.803 51.5979   1 
   3   1   9 2149.05 118.340  -2 
   3   1   9 2149.05 118.340   1 
   4   1   9 323.479 73.7513  -2 
   4   1   9 323.479 73.7513   1 
   5   1   9 873.912 93.3856  -2 
   5   1   9 873.912 93.3856   1 
   6   1   9 1176.84 108.679  -2 
   6   1   9 1176.84 108.679   1 
   7   1   9 461.559 89.7831  -2 
   7   1   9 461.559 89.7831   1 
   8   1   9 -6.0309 72.9992  -2 
   8   1   9 -6.0309 72.9992   1 
   9   1   9 251.965 95.0130  -2 
   9   1   9 251.965 95.0130   1 
  10   1   9 925.908 128.774  -2 
  10   1   9 925.908 128.774   1 
  11   1   9 13.6523 94.8077  -2 
  11   1   9 13.6523 94.8077   1 
  12   1   8 622.145 92.4696  -2 
  12   1   9 622.145 92.4696   1 
  12   1   9 507.086 124.901  -2 
  12   1   9 507.086 124.901   1 
  -8   2   9 131.929 69.7252   1 
  -7   2   9 268.003 52.2640   1 
  -6   2   9 604.513 60.7946   1 
  -5   2   9 58.1556 26.0219   1 
  -4   2   9 234.579 100.548  -2 
  -4   2   9 234.579 100.548   1 
  -3   2   9 548.452 105.217  -2 
  -3   2   9 548.452 105.217   1 
  -2   2   9 620.370 100.433  -2 
  -2   2   9 620.370 100.433   1 
  -1   2   9 15.0054 34.6118  -2 
  -1   2   9 15.0054 34.6118   1 
   0   2   9 1704.66 66.9051  -2 
   0   2   9 1704.66 66.9051   1 
   1   2   9 543.591 41.7056  -2 
   1   2   9 543.591 41.7056   1 
   2   2   9 677.754 35.8124  -2 
   2   2   9 677.754 35.8124   1 
   3   2   9 1062.00 83.7762  -2 
   3   2   9 1062.00 83.7762   1 
   4   2   9 375.474 71.2176  -2 
   4   2   9 375.474 71.2176   1 
   5   2   9 157.811 65.6952  -2 
   5   2   9 157.811 65.6952   1 
   6   2   9 345.284 77.4879  -2 
   6   2   9 345.284 77.4879   1 
   7   2   9 1343.08 68.7647  -2 
   7   2   9 1343.08 68.7647   1 
   8   2   9 541.784 95.6597  -2 
   8   2   9 541.784 95.6597   1 
   9   2   9 130.980 80.8425  -2 
   9   2   9 130.980 80.8425   1 
  10   2   9 708.196 114.465  -2 
  10   2   9 708.196 114.465   1 
  11   2   9 67.8607 92.3462  -2 
  11   2   9 67.8607 92.3462   1 
  12   2   8 -5.7365 62.1820  -2 
  12   2   9 -5.7365 62.1820   1 
  -7   3   9 88.5644 32.7898   1 
  -6   3   9 183.573 31.1036   1 
  -5   3   9 830.098 50.0104   1 
  -4   3   9 533.182 110.849  -2 
  -4   3   9 533.182 110.849   1 
  -3   3   9 330.731 96.0968  -2 
  -3   3   9 330.731 96.0968   1 
  -2   3   9 1297.58 124.119  -2 
  -2   3   9 1297.58 124.119   1 
  -1   3   9 433.320 44.9173  -2 
  -1   3   9 433.320 44.9173   1 
   0   3   9 35.6372 31.6446  -2 
   0   3   9 35.6372 31.6446   1 
   1   3   9 673.868 44.2361  -2 
   1   3   9 673.868 44.2361   1 
   2   3   9 662.862 35.0759  -2 
   2   3   9 662.862 35.0759   1 
   3   3   9 47.3821 35.2037  -2 
   3   3   9 47.3821 35.2037   1 
   4   3   9 1328.43 95.8614  -2 
   4   3   9 1328.43 95.8614   1 
   5   3   9 2751.05 82.7971  -2 
   5   3   9 2751.05 82.7971   1 
   6   3   9 110.842 36.3966  -2 
   6   3   9 110.842 36.3966   1 
   7   3   9 41.8814 35.5381  -2 
   7   3   9 41.8814 35.5381   1 
   8   3   9 880.571 105.395  -2 
   8   3   9 880.571 105.395   1 
   9   3   9 605.582 99.8345  -2 
   9   3   9 605.582 99.8345   1 
  10   3   9 55.2163 82.4050  -2 
  10   3   9 55.2163 82.4050   1 
  11   3   9 951.972 127.662  -2 
  11   3   9 951.972 127.662   1 
  12   3   8 409.890 80.6001  -2 
  12   3   9 409.890 80.6001   1 
  13   3   8 161.205 73.7481  -2 
  13   3   9 161.205 73.7481   1 
  -7   4   9 216.197 35.1455   1 
  -6   4   9 -2.3896 16.9985   1 
  -5   4   9 104.404 101.558  -2 
  -5   4   9 104.404 101.558   1 
  -4   4   9 805.327 122.416  -2 
  -4   4   9 805.327 122.416   1 
  -3   4   9 226.286 46.5826  -2 
  -3   4   9 226.286 46.5826   1 
  -2   4   9 662.070 53.1481  -2 
  -2   4   9 662.070 53.1481   1 
  -1   4   9 843.088 53.2681  -2 
  -1   4   9 843.088 53.2681   1 
   0   4   9 73.2849 32.0644  -2 
   0   4   9 73.2849 32.0644   1 
   1   4   9 169.103 32.8578  -2 
   1   4   9 169.103 32.8578   1 
   2   4   9 957.155 36.9866  -2 
   2   4   9 957.155 36.9866   1 
   3   4   9 1548.35 67.6934  -2 
   3   4   9 1548.35 67.6934   1 
   4   4   9 169.273 33.8658  -2 
   4   4   9 169.273 33.8658   1 
   5   4   9 1859.92 70.6219  -2 
   5   4   9 1859.92 70.6219   1 
   6   4   9 1169.01 61.5854  -2 
   6   4   9 1169.01 61.5854   1 
   7   4   9 89.6526 62.2416  -2 
   7   4   9 89.6526 62.2416   1 
   8   4   9 632.935 56.9331  -2 
   8   4   9 632.935 56.9331   1 
   9   4   9 579.781 95.6620  -2 
   9   4   9 579.781 95.6620   1 
  10   4   9 61.3630 78.4649  -2 
  10   4   9 61.3630 78.4649   1 
  11   4   9 341.883 102.287  -2 
  11   4   9 341.883 102.287   1 
  12   4   8 730.866 92.4412  -2 
  12   4   9 730.866 92.4412   1 
  13   4   8 191.331 71.2129  -2 
  13   4   9 191.331 71.2129   1 
  -7   5   9 268.466 54.8977   1 
  -6   5   9 825.691 136.952  -2 
  -6   5   9 825.691 136.952   1 
  -5   5   9 23.3327 91.7467  -2 
  -5   5   9 23.3327 91.7467   1 
  -4   5   9 569.784 109.911  -2 
  -4   5   9 569.784 109.911   1 
  -3   5   9 604.065 104.871  -2 
  -3   5   9 604.065 104.871   1 
  -2   5   9 193.706 41.2792  -2 
  -2   5   9 193.706 41.2792   1 
  -1   5   9 146.250 28.8738  -2 
  -1   5   9 146.250 28.8738   1 
   0   5   9 1977.39 66.9178  -2 
   0   5   9 1977.39 66.9178   1 
   1   5   9 2003.71 60.8550  -2 
   1   5   9 2003.71 60.8550   1 
   2   5   9 228.699 29.5672  -2 
   2   5   9 228.699 29.5672   1 
   3   5   9 3579.70 74.6164  -2 
   3   5   9 3579.70 74.6164   1 
   4   5   9 1804.25 57.2611  -2 
   4   5   9 1804.25 57.2611   1 
   5   5   9 9.91913 25.0987  -2 
   5   5   9 9.91913 25.0987   1 
   6   5   9 1716.05 71.2444  -2 
   6   5   9 1716.05 71.2444   1 
   7   5   9 929.132 59.8820  -2 
   7   5   9 929.132 59.8820   1 
   8   5   9 46.5746 40.1125  -2 
   8   5   9 46.5746 40.1125   1 
   9   5   9 1200.48 118.358  -2 
   9   5   9 1200.48 118.358   1 
  10   5   9 1873.15 146.308  -2 
  10   5   9 1873.15 146.308   1 
  11   5   9 5.42861 80.6787  -2 
  11   5   9 5.42861 80.6787   1 
  12   5   8 516.272 83.7457  -2 
  12   5   9 516.272 83.7457   1 
  13   5   8 489.417 85.2004  -2 
  13   5   9 489.417 85.2004   1 
  -7   6   9 8.20567 24.1992   1 
  -6   6   9 188.538 116.759  -2 
  -6   6   9 188.538 116.759   1 
  -5   6   9 234.683 107.769  -2 
  -5   6   9 234.683 107.769   1 
  -4   6   9 61.3841 87.9609  -2 
  -4   6   9 61.3841 87.9609   1 
  -3   6   9 192.463 43.8202  -2 
  -3   6   9 192.463 43.8202   1 
  -2   6   9 849.798 45.0522  -2 
  -2   6   9 849.798 45.0522   1 
  -1   6   9 72.7377 27.0515  -2 
  -1   6   9 72.7377 27.0515   1 
   0   6   9 1268.56 45.4326  -2 
   0   6   9 1268.56 45.4326   1 
   1   6   9 924.832 55.6674  -2 
   1   6   9 924.832 55.6674   1 
   2   6   9 106.269 33.7702  -2 
   2   6   9 106.269 33.7702   1 
   3   6   9 59.9733 27.5918  -2 
   3   6   9 59.9733 27.5918   1 
   4   6   9 1412.03 53.3272  -2 
   4   6   9 1412.03 53.3272   1 
   5   6   9 654.551 42.2501  -2 
   5   6   9 654.551 42.2501   1 
   6   6   9 395.281 37.1539  -2 
   6   6   9 395.281 37.1539   1 
   7   6   9 1561.10 72.5028  -2 
   7   6   9 1561.10 72.5028   1 
   8   6   9 531.097 54.4971  -2 
   8   6   9 531.097 54.4971   1 
   9   6   9 193.186 47.7347  -2 
   9   6   9 193.186 47.7347   1 
  10   6   9 193.824 51.2738  -2 
  10   6   9 193.824 51.2738   1 
  11   6   9 224.795 91.6382  -2 
  11   6   9 224.795 91.6382   1 
  12   6   8 -2.2125 66.2908  -2 
  12   6   9 -2.2125 66.2908   1 
  13   6   8 269.724 75.7988  -2 
  13   6   9 269.724 75.7988   1 
  -6   7   9 32.4403 24.8142   1 
  -5   7   9 696.819 127.344  -2 
  -5   7   9 696.819 127.344   1 
  -4   7   9 975.436 58.0048  -2 
  -4   7   9 975.436 58.0048   1 
  -3   7   9 -4.0515 74.7693  -2 
  -3   7   9 -4.0515 74.7693   1 
  -2   7   9 989.452 66.3466  -2 
  -2   7   9 989.452 66.3466   1 
  -1   7   9 1895.31 79.9075  -2 
  -1   7   9 1895.31 79.9075   1 
   0   7   9 15.2524 31.3481  -2 
   0   7   9 15.2524 31.3481   1 
   1   7   9 1320.56 64.2169  -2 
   1   7   9 1320.56 64.2169   1 
   2   7   9 1168.13 61.8947  -2 
   2   7   9 1168.13 61.8947   1 
   3   7   9 111.537 28.9752  -2 
   3   7   9 111.537 28.9752   1 
   4   7   9 816.965 45.0034  -2 
   4   7   9 816.965 45.0034   1 
   5   7   9 1504.41 57.2552  -2 
   5   7   9 1504.41 57.2552   1 
   6   7   9 681.137 44.9509  -2 
   6   7   9 681.137 44.9509   1 
   7   7   9 242.857 36.4311  -2 
   7   7   9 242.857 36.4311   1 
   8   7   9 1508.25 75.5444  -2 
   8   7   9 1508.25 75.5444   1 
   9   7   9 510.743 58.0060  -2 
   9   7   9 510.743 58.0060   1 
  10   7   9 -8.2587 45.3955  -2 
  10   7   9 -8.2587 45.3955   1 
  11   7   9 300.278 99.8354  -2 
  11   7   9 300.278 99.8354   1 
  12   7   8 415.064 84.3764  -2 
  12   7   9 415.064 84.3764   1 
  13   7   8 100.995 69.5760  -2 
  13   7   9 100.995 69.5760   1 
  -6   8   9 441.556 86.8872  -2 
  -6   8   9 441.556 86.8872   1 
  -5   8   9 -23.388 43.0521  -2 
  -5   8   9 -23.388 43.0521   1 
  -4   8   9 1236.90 62.8589  -2 
  -4   8   9 1236.90 62.8589   1 
  -3   8   9 458.778 44.3189  -2 
  -3   8   9 458.778 44.3189   1 
  -2   8   9 226.984 34.6687  -2 
  -2   8   9 226.984 34.6687   1 
  -1   8   9 772.280 58.4885  -2 
  -1   8   9 772.280 58.4885   1 
   0   8   9 289.627 41.3441  -2 
   0   8   9 289.627 41.3441   1 
   1   8   9 17.0874 32.3735  -2 
   1   8   9 17.0874 32.3735   1 
   2   8   9 264.365 40.4818  -2 
   2   8   9 264.365 40.4818   1 
   3   8   9 1320.89 65.3593  -2 
   3   8   9 1320.89 65.3593   1 
   4   8   9 32.0761 28.4249  -2 
   4   8   9 32.0761 28.4249   1 
   5   8   9 733.624 45.2951  -2 
   5   8   9 733.624 45.2951   1 
   6   8   9 480.339 42.2392  -2 
   6   8   9 480.339 42.2392   1 
   7   8   9 24.7971 32.0864  -2 
   7   8   9 24.7971 32.0864   1 
   8   8   9 13.6725 32.4255  -2 
   8   8   9 13.6725 32.4255   1 
   9   8   9 278.843 53.0219  -2 
   9   8   9 278.843 53.0219   1 
  10   8   9 533.529 52.0101  -2 
  10   8   9 533.529 52.0101   1 
  11   8   9 -14.227 82.3230  -2 
  11   8   9 -14.227 82.3230   1 
  12   8   9 459.726 66.6543   1 
  -6   9   9 711.424 101.330  -2 
  -6   9   9 711.424 101.330   1 
  -5   9   9 9.25414 45.5152  -2 
  -5   9   9 9.25414 45.5152   1 
  -4   9   9 328.881 71.7625  -2 
  -4   9   9 328.881 71.7625   1 
  -3   9   9 789.043 53.2569  -2 
  -3   9   9 789.043 53.2569   1 
  -2   9   9 445.709 57.1563  -2 
  -2   9   9 445.709 57.1563   1 
  -1   9   9 91.1339 41.0044  -2 
  -1   9   9 91.1339 41.0044   1 
   0   9   9 2500.52 91.1259  -2 
   0   9   9 2500.52 91.1259   1 
   1   9   9 584.542 51.7127  -2 
   1   9   9 584.542 51.7127   1 
   2   9   9 99.7937 34.8673  -2 
   2   9   9 99.7937 34.8673   1 
   3   9   9 1057.19 48.7309  -2 
   3   9   9 1057.19 48.7309   1 
   4   9   9 1570.33 57.3567  -2 
   4   9   9 1570.33 57.3567   1 
   5   9   9 82.8467 36.1993  -2 
   5   9   9 82.8467 36.1993   1 
   6   9   9 254.182 43.3232  -2 
   6   9   9 254.182 43.3232   1 
   7   9   9 1446.13 63.8272  -2 
   7   9   9 1446.13 63.8272   1 
   8   9   9 445.012 45.8469  -2 
   8   9   9 445.012 45.8469   1 
   9   9   9 605.744 51.7689  -2 
   9   9   9 605.744 51.7689   1 
  10   9   9 951.117 83.1361  -2 
  10   9   9 951.117 83.1361   1 
  11   9   9 317.471 98.8129  -2 
  11   9   9 317.471 98.8129   1 
  -5  10   9 243.927 84.6722  -2 
  -5  10   9 243.927 84.6722   1 
  -4  10   9 68.7761 42.5007   1 
  -3  10   9 42.2142 51.9317  -2 
  -3  10   9 42.2142 51.9317   1 
  -2  10   9 395.406 60.5581  -2 
  -2  10   9 395.406 60.5581   1 
  -1  10   9 206.775 49.0886  -2 
  -1  10   9 206.775 49.0886   1 
   0  10   9 37.4450 37.5622  -2 
   0  10   9 37.4450 37.5622   1 
   1  10   9 570.883 51.3658  -2 
   1  10   9 570.883 51.3658   1 
   2  10   9 694.528 54.7223  -2 
   2  10   9 694.528 54.7223   1 
   3  10   9 10.8841 31.7997  -2 
   3  10   9 10.8841 31.7997   1 
   4  10   9 573.140 41.8932  -2 
   4  10   9 573.140 41.8932   1 
   5  10   9 1074.49 53.7208  -2 
   5  10   9 1074.49 53.7208   1 
   6  10   9 129.997 32.1650  -2 
   6  10   9 129.997 32.1650   1 
   7  10   9 526.800 53.4734  -2 
   7  10   9 526.800 53.4734   1 
   8  10   9 799.099 63.9432  -2 
   8  10   9 799.099 63.9432   1 
   9  10   9 179.167 50.8296  -2 
   9  10   9 179.167 50.8296   1 
  10  10   9 142.658 86.6659  -2 
  10  10   9 142.658 86.6659   1 
  11  10   9 596.671 111.849  -2 
  11  10   9 596.671 111.849   1 
  -4  11   9 340.365 82.5721  -2 
  -4  11   9 340.365 82.5721   1 
  -3  11   9 169.347 72.4865  -2 
  -3  11   9 169.347 72.4865   1 
  -2  11   9 512.537 66.7412  -2 
  -2  11   9 512.537 66.7412   1 
  -1  11   9 835.885 69.7195  -2 
  -1  11   9 835.885 69.7195   1 
   0  11   9 21.2059 38.2453  -2 
   0  11   9 21.2059 38.2453   1 
   1  11   9 175.383 39.4733  -2 
   1  11   9 175.383 39.4733   1 
   2  11   9 728.200 55.7556  -2 
   2  11   9 728.200 55.7556   1 
   3  11   9 606.486 51.9811  -2 
   3  11   9 606.486 51.9811   1 
   4  11   9 -4.2656 26.6166  -2 
   4  11   9 -4.2656 26.6166   1 
   5  11   9 1838.61 66.9677  -2 
   5  11   9 1838.61 66.9677   1 
   6  11   9 1497.93 64.3654  -2 
   6  11   9 1497.93 64.3654   1 
   7  11   9 325.236 42.5032  -2 
   7  11   9 325.236 42.5032   1 
   8  11   9 986.138 83.8576  -2 
   8  11   9 986.138 83.8576   1 
   9  11   9 542.619 76.0793  -2 
   9  11   9 542.619 76.0793   1 
  10  11   9 -3.8759 88.7974  -2 
  10  11   9 -3.8759 88.7974   1 
  -3  12   9 300.584 78.6549  -2 
  -3  12   9 300.584 78.6549   1 
  -2  12   9 79.6966 66.7740  -2 
  -2  12   9 79.6966 66.7740   1 
  -1  12   9 81.8367 50.6452  -2 
  -1  12   9 81.8367 50.6452   1 
   0  12   9 883.394 69.7011  -2 
   0  12   9 883.394 69.7011   1 
   1  12   9 532.084 53.1684  -2 
   1  12   9 532.084 53.1684   1 
   2  12   9 48.4946 34.5861  -2 
   2  12   9 48.4946 34.5861   1 
   3  12   9 1411.75 72.8681  -2 
   3  12   9 1411.75 72.8681   1 
   4  12   9 222.974 33.5621  -2 
   4  12   9 222.974 33.5621   1 
   5  12   9 179.728 32.9419  -2 
   5  12   9 179.728 32.9419   1 
   6  12   9 484.026 64.8459  -2 
   6  12   9 484.026 64.8459   1 
   7  12   9 541.793 71.0100  -2 
   7  12   9 541.793 71.0100   1 
   8  12   9 31.5821 55.2592  -2 
   8  12   9 31.5821 55.2592   1 
   9  12   9 354.272 72.8810  -2 
   9  12   9 354.272 72.8810   1 
  10  12   9 459.386 118.019  -2 
  10  12   9 459.386 118.019   1 
  -2  13   9 738.723 94.5860  -2 
  -2  13   9 738.723 94.5860   1 
  -1  13   9 10.9781 60.3459  -2 
  -1  13   9 10.9781 60.3459   1 
   0  13   9 915.127 74.3740  -2 
   0  13   9 915.127 74.3740   1 
   1  13   9 692.421 61.7450  -2 
   1  13   9 692.421 61.7450   1 
   2  13   9 10.4054 34.1114  -2 
   2  13   9 10.4054 34.1114   1 
   3  13   9 670.908 55.7426  -2 
   3  13   9 670.908 55.7426   1 
   4  13   9 906.315 62.2045  -2 
   4  13   9 906.315 62.2045   1 
   5  13   9 139.814 46.0815  -2 
   5  13   9 139.814 46.0815   1 
   6  13   9 264.937 56.7735  -2 
   6  13   9 264.937 56.7735   1 
   7  13   9 851.529 83.7996  -2 
   7  13   9 851.529 83.7996   1 
   8  13   9 41.4163 60.9010  -2 
   8  13   9 41.4163 60.9010   1 
   9  13   9 56.3461 65.6505  -2 
   9  13   9 56.3461 65.6505   1 
  10  13   9 396.706 82.8003  -2 
  10  13   9 396.706 82.8003   1 
  -1  14   9 754.598 94.6814  -2 
  -1  14   9 754.598 94.6814   1 
   0  14   9 -0.1099 57.4373  -2 
   0  14   9 -0.1099 57.4373   1 
   1  14   9 887.688 72.0742  -2 
   1  14   9 887.688 72.0742   1 
   2  14   9 485.975 87.4246  -2 
   2  14   9 485.975 87.4246   1 
   3  14   9 22.0750 55.6375  -2 
   3  14   9 22.0750 55.6375   1 
   4  14   9 113.142 71.2457  -2 
   4  14   9 113.142 71.2457   1 
   5  14   9 708.322 71.0547  -2 
   5  14   9 708.322 71.0547   1 
   6  14   9 426.986 62.2633  -2 
   6  14   9 426.986 62.2633   1 
   7  14   9 102.022 47.6748  -2 
   7  14   9 102.022 47.6748   1 
   8  14   9 520.383 79.6062  -2 
   8  14   9 520.383 79.6062   1 
   2  15   9 143.184 67.3382  -2 
   2  15   9 143.184 67.3382   1 
   3  15   9 504.415 90.3331  -2 
   3  15   9 504.415 90.3331   1 
   4  15   9 2.83939 58.7566  -2 
   4  15   9 2.83939 58.7566   1 
   5  15   9 590.061 105.385  -2 
   5  15   9 590.061 105.385   1 
   6  15   9 272.410 55.3508  -2 
   6  15   9 272.410 55.3508   1 
   7  15   9 8.74904 51.0076  -2 
   7  15   9 8.74904 51.0076   1 
   1  -8  10 324.325 110.832   1 
   2  -8  10 507.547 119.389   1 
  -2  -7  10 74.2339 40.4310   1 
  -1  -7  10 478.202 71.7899   1 
   0  -7  10 64.5399 32.5116   1 
   1  -7  10 244.458 48.4443   1 
   2  -7  10 511.661 61.3820   1 
   3  -7  10 57.9865 31.3618   1 
   4  -7  10 8.00360 23.6299   1 
   5  -7  10 138.750 37.4912   1 
  -3  -6  10 601.521 65.6287   1 
  -2  -6  10 9.58649 31.3974   1 
  -1  -6  10 251.797 58.4465   1 
   0  -6  10 345.941 52.3628   1 
   1  -6  10 164.429 107.845  -2 
   1  -6  10 164.429 107.845   1 
   2  -6  10 19.2516 23.8983   1 
   3  -6  10 801.789 135.693  -2 
   3  -6  10 801.789 135.693   1 
   4  -6  10 583.636 135.069  -2 
   4  -6  10 583.636 135.069   1 
   5  -6  10 22.9927 25.3474   1 
   6  -6  10 179.118 39.8324   1 
   7  -6  10 286.978 58.6718   1 
  -4  -5  10 3.09957 27.2605   1 
  -3  -5  10 296.870 52.7170   1 
  -2  -5  10 307.208 124.284  -2 
  -2  -5  10 307.208 124.284   1 
  -1  -5  10 -0.0309 25.8302   1 
   0  -5  10 112.032 32.3588   1 
   1  -5  10 399.770 50.9356   1 
   2  -5  10 66.1145 27.9462   1 
   3  -5  10 169.067 99.5285  -2 
   3  -5  10 169.067 99.5285   1 
   4  -5  10 398.357 119.626  -2 
   4  -5  10 398.357 119.626   1 
   5  -5  10 238.753 114.528  -2 
   5  -5  10 238.753 114.528   1 
   6  -5  10 13.6746 21.0371   1 
   7  -5  10 377.520 127.038  -2 
   7  -5  10 377.520 127.038   1 
   8  -5  10 528.474 145.263  -2 
   8  -5  10 528.474 145.263   1 
  -5  -4  10 439.922 60.6800   1 
  -4  -4  10 210.785 43.9259   1 
  -3  -4  10 45.3233 27.6211   1 
  -2  -4  10 312.736 49.9339   1 
  -1  -4  10 838.579 129.548  -2 
  -1  -4  10 838.579 129.548   1 
   0  -4  10 275.563 51.8329   1 
   1  -4  10 331.029 44.9525   1 
   2  -4  10 995.712 64.1576   1 
   3  -4  10 152.864 33.5155   1 
   4  -4  10 351.455 112.224  -2 
   4  -4  10 351.455 112.224   1 
   5  -4  10 1157.02 146.301  -2 
   5  -4  10 1157.02 146.301   1 
   6  -4  10 357.914 116.435  -2 
   6  -4  10 357.914 116.435   1 
   7  -4  10 12.1758 19.9925   1 
   8  -4  10 678.796 50.5088   1 
   9  -4  10 496.464 58.7735   1 
  -6  -3  10 -7.6581 31.7146   1 
  -5  -3  10 6.93649 28.5413   1 
  -4  -3  10 131.806 37.4998   1 
  -3  -3  10 323.527 50.5360   1 
  -2  -3  10 25.7371 98.4019  -2 
  -2  -3  10 25.7371 98.4019   1 
  -1  -3  10 740.612 125.149  -2 
  -1  -3  10 740.612 125.149   1 
   0  -3  10 415.846 101.353  -2 
   0  -3  10 415.846 101.353   1 
   1  -3  10 -3.1947 71.6028  -2 
   1  -3  10 -3.1947 71.6028   1 
   2  -3  10 339.272 93.4820  -2 
   2  -3  10 339.272 93.4820   1 
   3  -3  10 1000.59 123.081  -2 
   3  -3  10 1000.59 123.081   1 
   4  -3  10 262.809 38.9028   1 
   5  -3  10 412.783 105.457  -2 
   5  -3  10 412.783 105.457   1 
   6  -3  10 1194.67 141.993  -2 
   6  -3  10 1194.67 141.993   1 
   7  -3  10 127.234 106.189  -2 
   7  -3  10 127.234 106.189   1 
   8  -3  10 268.696 32.4990   1 
   9  -3  10 300.274 49.9154   1 
  10  -3  10 39.5281 27.4369   1 
  -6  -2  10 419.436 61.4122   1 
  -5  -2  10 144.941 39.1315   1 
  -4  -2  10 127.781 36.1281   1 
  -3  -2  10 572.970 58.9220   1 
  -2  -2  10 339.538 116.695  -2 
  -2  -2  10 339.538 116.695   1 
  -1  -2  10 43.6825 91.0339  -2 
  -1  -2  10 43.6825 91.0339   1 
   0  -2  10 634.158 92.2747  -2 
   0  -2  10 634.158 92.2747   1 
   1  -2  10 1253.20 79.6801  -2 
   1  -2  10 1253.20 79.6801   1 
   2  -2  10 -4.5858 72.5054  -2 
   2  -2  10 -4.5858 72.5054   1 
   3  -2  10 2325.27 153.489  -2 
   3  -2  10 2325.27 153.489   1 
   4  -2  10 1229.97 123.565  -2 
   4  -2  10 1229.97 123.565   1 
   5  -2  10 25.8917 14.4811   1 
   6  -2  10 456.341 110.875  -2 
   6  -2  10 456.341 110.875   1 
   7  -2  10 616.226 123.463  -2 
   7  -2  10 616.226 123.463   1 
   8  -2  10 66.1111 104.872  -2 
   8  -2  10 66.1111 104.872   1 
   9  -2  10 123.623 34.8524   1 
  10  -2  10 409.762 55.5860   1 
  11  -2  10 115.472 36.7438   1 
  -6  -1  10 38.1983 31.2547   1 
  -5  -1  10 812.193 69.7091   1 
  -4  -1  10 131.035 33.6817   1 
  -3  -1  10 431.741 116.033  -2 
  -3  -1  10 431.741 116.033   1 
  -2  -1  10 561.644 109.796  -2 
  -2  -1  10 561.644 109.796   1 
  -1  -1  10 214.306 90.1674  -2 
  -1  -1  10 214.306 90.1674   1 
   0  -1  10 68.1775 76.9557  -2 
   0  -1  10 68.1775 76.9557   1 
   1  -1  10 820.841 69.9582  -2 
   1  -1  10 820.841 69.9582   1 
   2  -1  10 826.388 89.7607  -2 
   2  -1  10 826.388 89.7607   1 
   3  -1  10 72.0107 71.5901  -2 
   3  -1  10 72.0107 71.5901   1 
   4  -1  10 1208.92 116.068  -2 
   4  -1  10 1208.92 116.068   1 
   5  -1  10 240.345 83.9074  -2 
   5  -1  10 240.345 83.9074   1 
   6  -1  10 24.3399 13.4126   1 
   7  -1  10 117.352 97.1658  -2 
   7  -1  10 117.352 97.1658   1 
   8  -1  10 363.229 110.288  -2 
   8  -1  10 363.229 110.288   1 
   9  -1  10 45.2170 25.8614   1 
  10  -1  10 28.3806 25.1410   1 
  11  -1  10 308.667 52.9431   1 
  -7   0  10 287.680 73.6638   1 
  -6   0  10 2.39605 27.3710   1 
  -5   0  10 638.994 64.5321   1 
  -4   0  10 686.100 61.6522   1 
  -3   0  10 -20.245 91.1832  -2 
  -3   0  10 -20.245 91.1832   1 
  -2   0  10 524.561 108.624  -2 
  -2   0  10 524.561 108.624   1 
  -1   0  10 2378.44 155.618  -2 
  -1   0  10 2378.44 155.618   1 
   0   0  10 236.997 87.5776  -2 
   0   0  10 236.997 87.5776   1 
   1   0  10 534.768 87.6665  -2 
   1   0  10 534.768 87.6665   1 
   2   0  10 1573.27 77.2316  -2 
   2   0  10 1573.27 77.2316   1 
   3   0  10 434.342 80.2141  -2 
   3   0  10 434.342 80.2141   1 
   4   0  10 193.049 78.9924  -2 
   4   0  10 193.049 78.9924   1 
   5   0  10 399.463 91.9862  -2 
   5   0  10 399.463 91.9862   1 
   6   0  10 807.308 109.251  -2 
   6   0  10 807.308 109.251   1 
   7   0  10 69.4388 83.8085  -2 
   7   0  10 69.4388 83.8085   1 
   8   0  10 1161.97 138.977  -2 
   8   0  10 1161.97 138.977   1 
   9   0  10 992.368 141.204  -2 
   9   0  10 992.368 141.204   1 
  10   0  10 -3.0385 101.063  -2 
  10   0  10 -3.0385 101.063   1 
  11   0  10 127.828 36.0636   1 
  12   0  10 247.728 85.1500   1 
  -7   1  10 136.819 72.3672   1 
  -6   1  10 213.018 44.1104   1 
  -5   1  10 20.8589 26.7115   1 
  -4   1  10 473.416 54.8321   1 
  -3   1  10 1165.71 138.532  -2 
  -3   1  10 1165.71 138.532   1 
  -2   1  10 -15.936 87.5684  -2 
  -2   1  10 -15.936 87.5684   1 
  -1   1  10 709.954 107.753  -2 
  -1   1  10 709.954 107.753   1 
   0   1  10 428.384 48.4661  -2 
   0   1  10 428.384 48.4661   1 
   1   1  10 320.823 80.1034  -2 
   1   1  10 320.823 80.1034   1 
   2   1  10 13.1860 41.7596  -2 
   2   1  10 13.1860 41.7596   1 
   3   1  10 1221.16 104.459  -2 
   3   1  10 1221.16 104.459   1 
   4   1  10 805.936 97.4687  -2 
   4   1  10 805.936 97.4687   1 
   5   1  10 40.8206 69.2485  -2 
   5   1  10 40.8206 69.2485   1 
   6   1  10 1254.02 120.188  -2 
   6   1  10 1254.02 120.188   1 
   7   1  10 563.935 101.178  -2 
   7   1  10 563.935 101.178   1 
   8   1  10 -0.3981 81.7311  -2 
   8   1  10 -0.3981 81.7311   1 
   9   1  10 350.213 106.539  -2 
   9   1  10 350.213 106.539   1 
  10   1  10 807.371 133.546  -2 
  10   1  10 807.371 133.546   1 
  11   1  10 6.71443 102.302  -2 
  11   1  10 6.71443 102.302   1 
  12   1   9 675.435 93.9879  -2 
  12   1  10 675.435 93.9879   1 
  -7   2  10 96.3790 38.4962   1 
  -6   2  10 314.520 54.8255   1 
  -5   2  10 139.094 36.3270   1 
  -4   2  10 5.92252 22.9656   1 
  -3   2  10 813.942 121.665  -2 
  -3   2  10 813.942 121.665   1 
  -2   2  10 410.841 102.816  -2 
  -2   2  10 410.841 102.816   1 
  -1   2  10 -25.792 82.5809  -2 
  -1   2  10 -25.792 82.5809   1 
   0   2  10 802.163 56.4025  -2 
   0   2  10 802.163 56.4025   1 
   1   2  10 645.819 48.2060  -2 
   1   2  10 645.819 48.2060   1 
   2   2  10 124.971 28.9207  -2 
   2   2  10 124.971 28.9207   1 
   3   2  10 371.067 73.0129  -2 
   3   2  10 371.067 73.0129   1 
   4   2  10 2365.21 131.730  -2 
   4   2  10 2365.21 131.730   1 
   5   2  10 977.238 102.012  -2 
   5   2  10 977.238 102.012   1 
   6   2  10 175.762 79.5264  -2 
   6   2  10 175.762 79.5264   1 
   7   2  10 1519.20 127.303  -2 
   7   2  10 1519.20 127.303   1 
   8   2  10 730.828 63.6937  -2 
   8   2  10 730.828 63.6937   1 
   9   2  10 77.9104 88.7079  -2 
   9   2  10 77.9104 88.7079   1 
  10   2  10 841.499 131.158  -2 
  10   2  10 841.499 131.158   1 
  11   2  10 559.833 123.136  -2 
  11   2  10 559.833 123.136   1 
  11   2   9 351.167 73.4480  -2 
  11   2  10 351.167 73.4480   1 
  12   2   9 -4.4725 60.9446  -2 
  12   2  10 -4.4725 60.9446   1 
  -7   3  10 270.921 55.3299   1 
  -6   3  10 49.5531 31.4279   1 
  -5   3  10 479.014 56.9968   1 
  -4   3  10 183.404 30.3776   1 
  -3   3  10 -20.285 92.3555  -2 
  -3   3  10 -20.285 92.3555   1 
  -2   3  10 135.737 93.3052  -2 
  -2   3  10 135.737 93.3052   1 
  -1   3  10 565.533 104.133  -2 
  -1   3  10 565.533 104.133   1 
   0   3  10 290.862 42.4971  -2 
   0   3  10 290.862 42.4971   1 
   1   3  10 616.976 90.4446  -2 
   1   3  10 616.976 90.4446   1 
   2   3  10 2699.97 74.9000  -2 
   2   3  10 2699.97 74.9000   1 
   3   3  10 34.2363 37.3288  -2 
   3   3  10 34.2363 37.3288   1 
   4   3  10 809.826 88.0007  -2 
   4   3  10 809.826 88.0007   1 
   5   3  10 778.892 92.8029  -2 
   5   3  10 778.892 92.8029   1 
   6   3  10 357.592 83.5700  -2 
   6   3  10 357.592 83.5700   1 
   7   3  10 -13.375 67.0893  -2 
   7   3  10 -13.375 67.0893   1 
   8   3  10 1010.39 116.212  -2 
   8   3  10 1010.39 116.212   1 
   9   3  10 686.902 109.933  -2 
   9   3  10 686.902 109.933   1 
  10   3  10 197.471 99.5989  -2 
  10   3  10 197.471 99.5989   1 
  11   3  10 540.644 121.510  -2 
  11   3  10 540.644 121.510   1 
  12   3   9 281.230 73.4197  -2 
  12   3  10 281.230 73.4197   1 
  -7   4  10 210.946 44.3928   1 
  -6   4  10 4.52984 19.8224   1 
  -5   4  10 54.7434 22.8643   1 
  -4   4  10 507.176 119.052  -2 
  -4   4  10 507.176 119.052   1 
  -3   4  10 774.127 118.866  -2 
  -3   4  10 774.127 118.866   1 
  -2   4  10 353.847 97.4147  -2 
  -2   4  10 353.847 97.4147   1 
  -1   4  10 1621.45 71.8543  -2 
  -1   4  10 1621.45 71.8543   1 
   0   4  10 984.544 57.5458  -2 
   0   4  10 984.544 57.5458   1 
   1   4  10 3.33907 32.1950  -2 
   1   4  10 3.33907 32.1950   1 
   2   4  10 2221.25 134.523  -2 
   2   4  10 2221.25 134.523   1 
   3   4  10 971.798 62.5028  -2 
   3   4  10 971.798 62.5028   1 
   4   4  10 60.5111 38.2876  -2 
   4   4  10 60.5111 38.2876   1 
   5   4  10 579.898 50.0944  -2 
   5   4  10 579.898 50.0944   1 
   6   4  10 1737.32 75.1423  -2 
   6   4  10 1737.32 75.1423   1 
   7   4  10 16.2697 64.5069  -2 
   7   4  10 16.2697 64.5069   1 
   8   4  10 828.760 107.161  -2 
   8   4  10 828.760 107.161   1 
   9   4  10 775.061 111.781  -2 
   9   4  10 775.061 111.781   1 
  10   4  10 97.0199 90.6562  -2 
  10   4  10 97.0199 90.6562   1 
  11   4  10 71.4128 92.5368  -2 
  11   4  10 71.4128 92.5368   1 
  12   4   9 588.822 88.4873  -2 
  12   4  10 588.822 88.4873   1 
  12   4  10 525.255 118.898  -2 
  12   4  10 525.255 118.898   1 
  13   4  10 159.998 69.5227   1 
  -6   5  10 446.621 45.6145   1 
  -5   5  10 143.765 29.1053   1 
  -4   5  10 285.186 109.014  -2 
  -4   5  10 285.186 109.014   1 
  -3   5  10 1272.75 136.905  -2 
  -3   5  10 1272.75 136.905   1 
  -2   5  10 313.551 49.9361  -2 
  -2   5  10 313.551 49.9361   1 
  -1   5  10 273.774 45.4552  -2 
  -1   5  10 273.774 45.4552   1 
   0   5  10 2416.90 78.1075  -2 
   0   5  10 2416.90 78.1075   1 
   1   5  10 1550.96 126.275  -2 
   1   5  10 1550.96 126.275   1 
   2   5  10 -6.7362 31.2446  -2 
   2   5  10 -6.7362 31.2446   1 
   3   5  10 1321.12 52.2220  -2 
   3   5  10 1321.12 52.2220   1 
   4   5  10 796.123 44.9466  -2 
   4   5  10 796.123 44.9466   1 
   5   5  10 10.8701 27.2788  -2 
   5   5  10 10.8701 27.2788   1 
   6   5  10 870.326 60.1489  -2 
   6   5  10 870.326 60.1489   1 
   7   5  10 524.859 54.3783  -2 
   7   5  10 524.859 54.3783   1 
   8   5  10 73.6336 43.0027  -2 
   8   5  10 73.6336 43.0027   1 
   9   5  10 136.432 81.8212  -2 
   9   5  10 136.432 81.8212   1 
  10   5  10 827.488 118.908  -2 
  10   5  10 827.488 118.908   1 
  11   5  10 105.478 93.2165  -2 
  11   5  10 105.478 93.2165   1 
  12   5  10 18.6852 91.3944  -2 
  12   5  10 18.6852 91.3944   1 
  12   5   9 185.878 73.1084  -2 
  12   5  10 185.878 73.1084   1 
  13   5   9 346.321 84.5867  -2 
  13   5  10 346.321 84.5867   1 
  -6   6  10 110.202 38.6187   1 
  -5   6  10 756.775 138.719  -2 
  -5   6  10 756.775 138.719   1 
  -4   6  10 -27.463 94.8292  -2 
  -4   6  10 -27.463 94.8292   1 
  -3   6  10 1155.22 136.203  -2 
  -3   6  10 1155.22 136.203   1 
  -2   6  10 1076.05 65.9708  -2 
  -2   6  10 1076.05 65.9708   1 
  -1   6  10 24.1264 37.1528  -2 
  -1   6  10 24.1264 37.1528   1 
   0   6  10 292.086 84.2975  -2 
   0   6  10 292.086 84.2975   1 
   1   6  10 646.552 52.4722  -2 
   1   6  10 646.552 52.4722   1 
   2   6  10 869.619 57.2012  -2 
   2   6  10 869.619 57.2012   1 
   3   6  10 152.790 31.3237  -2 
   3   6  10 152.790 31.3237   1 
   4   6  10 2104.12 65.1868  -2 
   4   6  10 2104.12 65.1868   1 
   5   6  10 420.375 39.8511  -2 
   5   6  10 420.375 39.8511   1 
   6   6  10 393.581 48.7227  -2 
   6   6  10 393.581 48.7227   1 
   7   6  10 639.594 57.9464  -2 
   7   6  10 639.594 57.9464   1 
   8   6  10 539.436 57.5515  -2 
   8   6  10 539.436 57.5515   1 
   9   6  10 100.063 48.3380  -2 
   9   6  10 100.063 48.3380   1 
  10   6  10 326.658 58.4148  -2 
  10   6  10 326.658 58.4148   1 
  11   6  10 1004.99 131.347  -2 
  11   6  10 1004.99 131.347   1 
  12   6  10 170.220 97.8777  -2 
  12   6  10 170.220 97.8777   1 
  13   6   9 514.639 91.5929  -2 
  13   6  10 514.639 91.5929   1 
  -6   7  10 25.8959 25.7298   1 
  -5   7  10 564.685 71.8651  -2 
  -5   7  10 564.685 71.8651   1 
  -4   7  10 445.877 65.0608  -2 
  -4   7  10 445.877 65.0608   1 
  -3   7  10 62.2123 86.6556  -2 
  -3   7  10 62.2123 86.6556   1 
  -2   7  10 339.009 53.0576  -2 
  -2   7  10 339.009 53.0576   1 
  -1   7  10 911.710 65.6506  -2 
  -1   7  10 911.710 65.6506   1 
   0   7  10 557.368 52.9176  -2 
   0   7  10 557.368 52.9176   1 
   1   7  10 369.108 44.4696  -2 
   1   7  10 369.108 44.4696   1 
   2   7  10 775.718 56.8824  -2 
   2   7  10 775.718 56.8824   1 
   3   7  10 38.8589 36.7626  -2 
   3   7  10 38.8589 36.7626   1 
   4   7  10 12.2193 30.1909  -2 
   4   7  10 12.2193 30.1909   1 
   5   7  10 603.374 44.8004  -2 
   5   7  10 603.374 44.8004   1 
   6   7  10 1805.37 66.3803  -2 
   6   7  10 1805.37 66.3803   1 
   7   7  10 103.137 33.9856  -2 
   7   7  10 103.137 33.9856   1 
   8   7  10 882.122 65.9230  -2 
   8   7  10 882.122 65.9230   1 
   9   7  10 891.697 69.3352  -2 
   9   7  10 891.697 69.3352   1 
  10   7  10 23.2464 49.0857  -2 
  10   7  10 23.2464 49.0857   1 
  11   7  10 315.211 104.053  -2 
  11   7  10 315.211 104.053   1 
  12   7   9 474.075 85.7824  -2 
  12   7  10 474.075 85.7824   1 
  12   7  10 479.066 118.458  -2 
  12   7  10 479.066 118.458   1 
  13   7   9 45.1915 72.7498  -2 
  13   7  10 45.1915 72.7498   1 
  -5   8  10 28.9940 63.7693  -2 
  -5   8  10 28.9940 63.7693   1 
  -4   8  10 949.264 74.6756  -2 
  -4   8  10 949.264 74.6756   1 
  -3   8  10 385.896 45.8118  -2 
  -3   8  10 385.896 45.8118   1 
  -2   8  10 25.2468 43.4983  -2 
  -2   8  10 25.2468 43.4983   1 
  -1   8  10 267.075 49.3466  -2 
  -1   8  10 267.075 49.3466   1 
   0   8  10 648.659 57.8591  -2 
   0   8  10 648.659 57.8591   1 
   1   8  10 1.32057 34.8434  -2 
   1   8  10 1.32057 34.8434   1 
   2   8  10 162.907 41.9619  -2 
   2   8  10 162.907 41.9619   1 
   3   8  10 925.781 61.9339  -2 
   3   8  10 925.781 61.9339   1 
   4   8  10 488.560 42.0855  -2 
   4   8  10 488.560 42.0855   1 
   5   8  10 228.444 37.7358  -2 
   5   8  10 228.444 37.7358   1 
   6   8  10 1113.40 57.0384  -2 
   6   8  10 1113.40 57.0384   1 
   7   8  10 454.249 45.6329  -2 
   7   8  10 454.249 45.6329   1 
   8   8  10 27.9296 34.8687  -2 
   8   8  10 27.9296 34.8687   1 
   9   8  10 851.629 71.2179  -2 
   9   8  10 851.629 71.2179   1 
  10   8  10 383.665 61.3086  -2 
  10   8  10 383.665 61.3086   1 
  11   8  10 -15.584 88.0147  -2 
  11   8  10 -15.584 88.0147   1 
  12   8   9 618.982 95.6167  -2 
  12   8  10 618.982 95.6167   1 
  12   8  10 546.757 125.145  -2 
  12   8  10 546.757 125.145   1 
  -5   9  10 218.841 75.6756  -2 
  -5   9  10 218.841 75.6756   1 
  -4   9  10 26.6349 54.7578  -2 
  -4   9  10 26.6349 54.7578   1 
  -3   9  10 1041.70 81.1820  -2 
  -3   9  10 1041.70 81.1820   1 
  -2   9  10 847.423 72.4030  -2 
  -2   9  10 847.423 72.4030   1 
  -1   9  10 6.77238 41.2697  -2 
  -1   9  10 6.77238 41.2697   1 
   0   9  10 701.664 58.2799  -2 
   0   9  10 701.664 58.2799   1 
   1   9  10 998.187 66.3125  -2 
   1   9  10 998.187 66.3125   1 
   2   9  10 180.182 42.3258  -2 
   2   9  10 180.182 42.3258   1 
   3   9  10 310.065 46.1172  -2 
   3   9  10 310.065 46.1172   1 
   4   9  10 2386.62 90.7537  -2 
   4   9  10 2386.62 90.7537   1 
   5   9  10 602.595 55.4761  -2 
   5   9  10 602.595 55.4761   1 
   6   9  10 283.902 40.3985  -2 
   6   9  10 283.902 40.3985   1 
   7   9  10 1111.15 59.5443  -2 
   7   9  10 1111.15 59.5443   1 
   8   9  10 344.999 44.4350  -2 
   8   9  10 344.999 44.4350   1 
   9   9  10 306.015 46.3125  -2 
   9   9  10 306.015 46.3125   1 
  10   9  10 533.765 66.2386  -2 
  10   9  10 533.765 66.2386   1 
  11   9  10 423.365 104.674  -2 
  11   9  10 423.365 104.674   1 
  12   9  10 13.6373 88.2966  -2 
  12   9  10 13.6373 88.2966   1 
  -4  10  10 105.009 48.1941   1 
  -3  10  10 154.248 59.5431  -2 
  -3  10  10 154.248 59.5431   1 
  -2  10  10 410.091 65.8540  -2 
  -2  10  10 410.091 65.8540   1 
  -1  10  10 161.532 51.7164  -2 
  -1  10  10 161.532 51.7164   1 
   0  10  10 30.8025 40.7839  -2 
   0  10  10 30.8025 40.7839   1 
   1  10  10 1237.01 71.6727  -2 
   1  10  10 1237.01 71.6727   1 
   2  10  10 1644.58 78.9988  -2 
   2  10  10 1644.58 78.9988   1 
   3  10  10 5.20674 35.4956  -2 
   3  10  10 5.20674 35.4956   1 
   4  10  10 1257.39 71.5582  -2 
   4  10  10 1257.39 71.5582   1 
   5  10  10 451.148 43.2323  -2 
   5  10  10 451.148 43.2323   1 
   6  10  10 15.4735 38.8671  -2 
   6  10  10 15.4735 38.8671   1 
   7  10  10 319.687 50.5071  -2 
   7  10  10 319.687 50.5071   1 
   8  10  10 496.228 58.4025  -2 
   8  10  10 496.228 58.4025   1 
   9  10  10 139.775 51.0759  -2 
   9  10  10 139.775 51.0759   1 
  10  10  10 342.643 61.4636  -2 
  10  10  10 342.643 61.4636   1 
  -3  11  10 318.758 81.6983  -2 
  -3  11  10 318.758 81.6983   1 
  -2  11  10 91.3418 54.8370  -2 
  -2  11  10 91.3418 54.8370   1 
  -1  11  10 1441.52 87.4482  -2 
  -1  11  10 1441.52 87.4482   1 
   0  11  10 590.031 61.0672  -2 
   0  11  10 590.031 61.0672   1 
   1  11  10 155.686 42.0711  -2 
   1  11  10 155.686 42.0711   1 
   2  11  10 894.766 65.7552  -2 
   2  11  10 894.766 65.7552   1 
   3  11  10 782.351 61.9632  -2 
   3  11  10 782.351 61.9632   1 
   4  11  10 7.58862 36.6402  -2 
   4  11  10 7.58862 36.6402   1 
   5  11  10 883.608 53.2711  -2 
   5  11  10 883.608 53.2711   1 
   6  11  10 1184.65 61.0146  -2 
   6  11  10 1184.65 61.0146   1 
   7  11  10 1.41604 34.6213  -2 
   7  11  10 1.41604 34.6213   1 
   8  11  10 408.600 49.5510  -2 
   8  11  10 408.600 49.5510   1 
   9  11  10 570.291 109.647  -2 
   9  11  10 570.291 109.647   1 
  10  11  10 59.7615 94.2326  -2 
  10  11  10 59.7615 94.2326   1 
  11  11  10 82.8385 97.6215  -2 
  11  11  10 82.8385 97.6215   1 
  -2  12  10 193.231 75.9379  -2 
  -2  12  10 193.231 75.9379   1 
  -1  12  10 238.214 60.2080  -2 
  -1  12  10 238.214 60.2080   1 
   0  12  10 656.888 67.6476  -2 
   0  12  10 656.888 67.6476   1 
   1  12  10 120.979 42.7958  -2 
   1  12  10 120.979 42.7958   1 
   2  12  10 104.574 40.7137  -2 
   2  12  10 104.574 40.7137   1 
   3  12  10 366.194 51.7157  -2 
   3  12  10 366.194 51.7157   1 
   4  12  10 211.738 44.8862  -2 
   4  12  10 211.738 44.8862   1 
   5  12  10 4.79464 33.6735  -2 
   5  12  10 4.79464 33.6735   1 
   6  12  10 267.043 41.0800  -2 
   6  12  10 267.043 41.0800   1 
   7  12  10 527.608 50.6915  -2 
   7  12  10 527.608 50.6915   1 
   8  12  10 18.2490 56.8583  -2 
   8  12  10 18.2490 56.8583   1 
   9  12  10 225.175 68.7320  -2 
   9  12  10 225.175 68.7320   1 
  10  12  10 264.839 108.438  -2 
  10  12  10 264.839 108.438   1 
  -1  13  10 -4.9256 64.1121  -2 
  -1  13  10 -4.9256 64.1121   1 
   0  13  10 196.242 56.7636  -2 
   0  13  10 196.242 56.7636   1 
   1  13  10 494.210 59.1777  -2 
   1  13  10 494.210 59.1777   1 
   2  13  10 461.025 54.6842  -2 
   2  13  10 461.025 54.6842   1 
   3  13  10 98.0155 42.6465  -2 
   3  13  10 98.0155 42.6465   1 
   4  13  10 1155.04 73.0359  -2 
   4  13  10 1155.04 73.0359   1 
   5  13  10 432.215 52.6335  -2 
   5  13  10 432.215 52.6335   1 
   6  13  10 18.4885 47.5421  -2 
   6  13  10 18.4885 47.5421   1 
   7  13  10 647.209 78.8944  -2 
   7  13  10 647.209 78.8944   1 
   8  13  10 237.697 67.7321  -2 
   8  13  10 237.697 67.7321   1 
   9  13  10 71.8883 65.8590  -2 
   9  13  10 71.8883 65.8590   1 
  10  13  10 293.786 117.693  -2 
  10  13  10 293.786 117.693   1 
   0  14  10 -4.3304 49.9157  -2 
   0  14  10 -4.3304 49.9157   1 
   1  14  10 329.956 56.4787  -2 
   1  14  10 329.956 56.4787   1 
   2  14  10 502.055 58.7861  -2 
   2  14  10 502.055 58.7861   1 
   3  14  10 108.511 41.5998  -2 
   3  14  10 108.511 41.5998   1 
   4  14  10 41.5201 73.9722  -2 
   4  14  10 41.5201 73.9722   1 
   5  14  10 329.800 93.6749  -2 
   5  14  10 329.800 93.6749   1 
   6  14  10 311.578 60.7501  -2 
   6  14  10 311.578 60.7501   1 
   7  14  10 -16.628 58.2843  -2 
   7  14  10 -16.628 58.2843   1 
   8  14  10 668.122 84.9755  -2 
   8  14  10 668.122 84.9755   1 
   2  15  10 371.784 87.1177  -2 
   2  15  10 371.784 87.1177   1 
   3  15  10 713.875 106.215  -2 
   3  15  10 713.875 106.215   1 
   4  15  10 152.602 80.1165  -2 
   4  15  10 152.602 80.1165   1 
   5  15  10 444.993 103.061  -2 
   5  15  10 444.993 103.061   1 
   7  15  10 210.173 75.5668  -2 
   7  15  10 210.173 75.5668   1 
  -1  -6  11 -0.7127 29.1868   1 
   0  -6  11 209.372 56.8635   1 
   1  -6  11 395.598 55.8331   1 
   2  -6  11 3.32414 23.4508   1 
   3  -6  11 190.334 40.8443   1 
   4  -6  11 319.784 54.8231   1 
   5  -6  11 49.4898 29.8245   1 
  -3  -5  11 159.611 42.4776   1 
  -2  -5  11 451.073 61.1220   1 
  -1  -5  11 122.099 43.1603   1 
   0  -5  11 304.074 58.8252   1 
   1  -5  11 559.571 58.6398   1 
   2  -5  11 60.9762 28.4449   1 
   3  -5  11 1.77907 21.8904   1 
   4  -5  11 294.966 50.9147   1 
   5  -5  11 592.735 59.0858   1 
   6  -5  11 29.2645 25.1259   1 
   7  -5  11 594.715 72.4382   1 
  -4  -4  11 424.860 63.9344   1 
  -3  -4  11 -5.9864 27.5264   1 
  -2  -4  11 129.849 36.2488   1 
  -1  -4  11 608.399 59.0551   1 
   0  -4  11 354.853 60.2119   1 
   1  -4  11 57.5549 27.0110   1 
   2  -4  11 900.024 65.0368   1 
   3  -4  11 343.768 113.392  -2 
   3  -4  11 343.768 113.392   1 
   4  -4  11 54.5577 27.6562   1 
   5  -4  11 492.151 52.8815   1 
   6  -4  11 61.9077 27.4602   1 
   7  -4  11 -7.8266 19.9235   1 
   8  -4  11 374.586 139.182  -2 
   8  -4  11 374.586 139.182   1 
  -4  -3  11 381.218 57.9461   1 
  -3  -3  11 449.855 58.0938   1 
  -2  -3  11 9.46362 108.275  -2 
  -2  -3  11 9.46362 108.275   1 
  -1  -3  11 638.170 117.344  -2 
  -1  -3  11 638.170 117.344   1 
   0  -3  11 504.826 65.1425   1 
   1  -3  11 26.7243 22.2738   1 
   2  -3  11 522.713 51.4497   1 
   3  -3  11 602.712 54.2705   1 
   4  -3  11 15.7593 20.7570   1 
   5  -3  11 353.339 108.073  -2 
   5  -3  11 353.339 108.073   1 
   6  -3  11 354.749 46.2571   1 
   7  -3  11 34.7009 23.7833   1 
   8  -3  11 65.4844 28.9839   1 
   9  -3  11 383.227 53.6651   1 
  -5  -2  11 109.829 37.5351   1 
  -4  -2  11 4.21280 26.8169   1 
  -3  -2  11 236.196 48.9917   1 
  -2  -2  11 606.813 124.678  -2 
  -2  -2  11 606.813 124.678   1 
  -1  -2  11 37.4262 25.3462   1 
   0  -2  11 1271.73 132.597  -2 
   0  -2  11 1271.73 132.597   1 
   1  -2  11 733.368 65.4999   1 
   2  -2  11 9.79915 81.4463  -2 
   2  -2  11 9.79915 81.4463   1 
   3  -2  11 185.911 35.2655   1 
   4  -2  11 183.358 35.1479   1 
   5  -2  11 401.365 103.682  -2 
   5  -2  11 401.365 103.682   1 
   6  -2  11 10.1223 14.7105   1 
   7  -2  11 547.586 53.7780   1 
   8  -2  11 394.867 51.1532   1 
   9  -2  11 4.18264 22.9310   1 
  10  -2  11 363.320 54.9717   1 
  -5  -1  11 408.163 60.5687   1 
  -4  -1  11 32.3974 29.1757   1 
  -3  -1  11 124.594 34.9858   1 
  -2  -1  11 547.511 127.293  -2 
  -2  -1  11 547.511 127.293   1 
  -1  -1  11 170.208 103.705  -2 
  -1  -1  11 170.208 103.705   1 
   0  -1  11 254.732 98.0681  -2 
   0  -1  11 254.732 98.0681   1 
   1  -1  11 122.901 34.5604   1 
   2  -1  11 227.446 35.3269   1 
   3  -1  11 157.412 83.4515  -2 
   3  -1  11 157.412 83.4515   1 
   4  -1  11 512.236 102.493  -2 
   4  -1  11 512.236 102.493   1 
   5  -1  11 498.657 35.4410   1 
   6  -1  11 -2.1770 17.1924   1 
   7  -1  11 151.235 101.740  -2 
   7  -1  11 151.235 101.740   1 
   8  -1  11 346.781 49.0175   1 
   9  -1  11 125.914 35.6718   1 
  10  -1  11 10.6371 22.0156   1 
  11  -1  11 323.243 56.9612   1 
  -6   0  11 27.1559 45.6035   1 
  -5   0  11 266.177 51.6718   1 
  -4   0  11 618.581 63.8892   1 
  -3   0  11 115.716 33.6703   1 
  -2   0  11 172.105 111.058  -2 
  -2   0  11 172.105 111.058   1 
  -1   0  11 1077.02 133.430  -2 
  -1   0  11 1077.02 133.430   1 
   0   0  11 1044.16 119.360  -2 
   0   0  11 1044.16 119.360   1 
   1   0  11 -12.443 75.9947  -2 
   1   0  11 -12.443 75.9947   1 
   2   0  11 554.927 61.6380  -2 
   2   0  11 554.927 61.6380   1 
   3   0  11 1079.16 109.448  -2 
   3   0  11 1079.16 109.448   1 
   4   0  11 -11.681 76.9503  -2 
   4   0  11 -11.681 76.9503   1 
   5   0  11 700.848 110.054  -2 
   5   0  11 700.848 110.054   1 
   6   0  11 933.150 58.7871   1 
   7   0  11 263.385 98.6536  -2 
   7   0  11 263.385 98.6536   1 
   8   0  11 532.924 120.239  -2 
   8   0  11 532.924 120.239   1 
   9   0  11 600.180 59.3992   1 
  10   0  11 100.638 31.9584   1 
  11   0  11 90.5949 32.9571   1 
  -6   1  11 208.402 45.6054   1 
  -5   1  11 -6.8957 24.9101   1 
  -4   1  11 466.547 57.6379   1 
  -3   1  11 188.818 38.3164   1 
  -2   1  11 5.45075 95.9440  -2 
  -2   1  11 5.45075 95.9440   1 
  -1   1  11 16.0989 91.5854  -2 
  -1   1  11 16.0989 91.5854   1 
   0   1  11 984.762 121.654  -2 
   0   1  11 984.762 121.654   1 
   1   1  11 727.115 104.358  -2 
   1   1  11 727.115 104.358   1 
   2   1  11 56.7681 68.0805  -2 
   2   1  11 56.7681 68.0805   1 
   3   1  11 1830.85 128.631  -2 
   3   1  11 1830.85 128.631   1 
   4   1  11 351.136 87.8668  -2 
   4   1  11 351.136 87.8668   1 
   5   1  11 143.836 79.7594  -2 
   5   1  11 143.836 79.7594   1 
   6   1  11 663.340 109.737  -2 
   6   1  11 663.340 109.737   1 
   7   1  11 477.046 104.899  -2 
   7   1  11 477.046 104.899   1 
   8   1  11 26.3684 90.6110  -2 
   8   1  11 26.3684 90.6110   1 
   9   1  11 517.711 56.1606   1 
  10   1  11 503.428 56.4001   1 
  11   1  11 -0.9830 22.7802   1 
  12   1  11 217.693 113.552   1 
  -6   2  11 207.831 44.9293   1 
  -5   2  11 292.300 53.1001   1 
  -4   2  11 61.1362 30.0556   1 
  -3   2  11 261.657 46.9194   1 
  -2   2  11 2075.74 166.477  -2 
  -2   2  11 2075.74 166.477   1 
  -1   2  11 364.300 107.729  -2 
  -1   2  11 364.300 107.729   1 
   0   2  11 951.469 62.7867  -2 
   0   2  11 951.469 62.7867   1 
   1   2  11 1160.97 116.834  -2 
   1   2  11 1160.97 116.834   1 
   2   2  11 180.504 38.8275  -2 
   2   2  11 180.504 38.8275   1 
   3   2  11 80.9465 46.3480  -2 
   3   2  11 80.9465 46.3480   1 
   4   2  11 2488.68 144.153  -2 
   4   2  11 2488.68 144.153   1 
   5   2  11 1376.19 120.256  -2 
   5   2  11 1376.19 120.256   1 
   6   2  11 86.0308 82.1637  -2 
   6   2  11 86.0308 82.1637   1 
   7   2  11 1335.52 130.097  -2 
   7   2  11 1335.52 130.097   1 
   8   2  11 637.794 114.482  -2 
   8   2  11 637.794 114.482   1 
   9   2  11 190.156 102.737  -2 
   9   2  11 190.156 102.737   1 
  10   2  11 328.085 50.4744   1 
  11   2  11 176.173 40.6331   1 
  12   2  10 42.0543 67.9991  -2 
  12   2  11 42.0543 67.9991   1 
  -6   3  11 5.11366 27.6361   1 
  -5   3  11 202.257 42.9992   1 
  -4   3  11 362.367 52.8288   1 
  -3   3  11 68.0722 106.573  -2 
  -3   3  11 68.0722 106.573   1 
  -2   3  11 543.200 118.188  -2 
  -2   3  11 543.200 118.188   1 
  -1   3  11 493.535 109.012  -2 
  -1   3  11 493.535 109.012   1 
   0   3  11 -17.501 80.8286  -2 
   0   3  11 -17.501 80.8286   1 
   1   3  11 372.932 88.1761  -2 
   1   3  11 372.932 88.1761   1 
   2   3  11 1104.11 111.980  -2 
   2   3  11 1104.11 111.980   1 
   3   3  11 178.031 48.6596  -2 
   3   3  11 178.031 48.6596   1 
   4   3  11 422.324 82.7396  -2 
   4   3  11 422.324 82.7396   1 
   5   3  11 644.864 96.7503  -2 
   5   3  11 644.864 96.7503   1 
   6   3  11 298.855 87.5791  -2 
   6   3  11 298.855 87.5791   1 
   7   3  11 91.4066 81.5430  -2 
   7   3  11 91.4066 81.5430   1 
   8   3  11 233.442 91.4221  -2 
   8   3  11 233.442 91.4221   1 
   9   3  11 349.707 105.228  -2 
   9   3  11 349.707 105.228   1 
  10   3  11 -19.373 95.9797  -2 
  10   3  11 -19.373 95.9797   1 
  11   3  11 319.696 50.9964   1 
  12   3  10 222.348 77.4952  -2 
  12   3  11 222.348 77.4952   1 
  -6   4  11 283.945 55.6218   1 
  -5   4  11 86.4869 32.6968   1 
  -4   4  11 933.564 55.7261   1 
  -3   4  11 664.188 127.088  -2 
  -3   4  11 664.188 127.088   1 
  -2   4  11 130.422 99.1720  -2 
  -2   4  11 130.422 99.1720   1 
  -1   4  11 1313.74 71.2495  -2 
  -1   4  11 1313.74 71.2495   1 
   0   4  11 850.099 60.7838  -2 
   0   4  11 850.099 60.7838   1 
   1   4  11 6.75043 78.8045  -2 
   1   4  11 6.75043 78.8045   1 
   2   4  11 821.252 106.143  -2 
   2   4  11 821.252 106.143   1 
   3   4  11 1149.83 106.573  -2 
   3   4  11 1149.83 106.573   1 
   4   4  11 71.0362 31.6091  -2 
   4   4  11 71.0362 31.6091   1 
   5   4  11 368.353 82.9622  -2 
   5   4  11 368.353 82.9622   1 
   6   4  11 1098.79 111.565  -2 
   6   4  11 1098.79 111.565   1 
   7   4  11 86.3885 76.1530  -2 
   7   4  11 86.3885 76.1530   1 
   8   4  11 -4.3903 76.0647  -2 
   8   4  11 -4.3903 76.0647   1 
   9   4  11 724.673 116.420  -2 
   9   4  11 724.673 116.420   1 
  10   4  11 917.020 133.904  -2 
  10   4  11 917.020 133.904   1 
  11   4  11 18.4902 98.3138  -2 
  11   4  11 18.4902 98.3138   1 
  12   4  10 599.062 93.1295  -2 
  12   4  11 599.062 93.1295   1 
  -6   5  11 528.232 53.0614   1 
  -5   5  11 4.12330 19.4401   1 
  -4   5  11 138.844 28.2436   1 
  -3   5  11 256.058 106.620  -2 
  -3   5  11 256.058 106.620   1 
  -2   5  11 645.029 118.337  -2 
  -2   5  11 645.029 118.337   1 
  -1   5  11 -9.2221 41.0406  -2 
  -1   5  11 -9.2221 41.0406   1 
   0   5  11 1338.75 134.217  -2 
   0   5  11 1338.75 134.217   1 
   1   5  11 898.870 115.964  -2 
   1   5  11 898.870 115.964   1 
   2   5  11 14.8874 35.9805  -2 
   2   5  11 14.8874 35.9805   1 
   3   5  11 307.884 79.3004  -2 
   3   5  11 307.884 79.3004   1 
   4   5  11 142.658 33.9779  -2 
   4   5  11 142.658 33.9779   1 
   5   5  11 46.5460 38.5292  -2 
   5   5  11 46.5460 38.5292   1 
   6   5  11 6.68460 39.8248  -2 
   6   5  11 6.68460 39.8248   1 
   7   5  11 1210.75 118.700  -2 
   7   5  11 1210.75 118.700   1 
   8   5  11 490.272 96.2829  -2 
   8   5  11 490.272 96.2829   1 
   9   5  11 362.513 59.7447  -2 
   9   5  11 362.513 59.7447   1 
  10   5  11 1062.45 131.384  -2 
  10   5  11 1062.45 131.384   1 
  11   5  11 141.382 105.261  -2 
  11   5  11 141.382 105.261   1 
  12   5  11 40.5322 103.559  -2 
  12   5  11 40.5322 103.559   1 
  -5   6  11 345.585 43.9154   1 
  -4   6  11 78.1076 110.380  -2 
  -4   6  11 78.1076 110.380   1 
  -3   6  11 485.414 121.273  -2 
  -3   6  11 485.414 121.273   1 
  -2   6  11 1354.30 145.115  -2 
  -2   6  11 1354.30 145.115   1 
  -1   6  11 184.663 92.0777  -2 
  -1   6  11 184.663 92.0777   1 
   0   6  11 78.9299 85.6335  -2 
   0   6  11 78.9299 85.6335   1 
   1   6  11 585.943 102.603  -2 
   1   6  11 585.943 102.603   1 
   2   6  11 928.266 62.2643  -2 
   2   6  11 928.266 62.2643   1 
   3   6  11 3.61195 37.0747  -2 
   3   6  11 3.61195 37.0747   1 
   4   6  11 1403.52 59.2129  -2 
   4   6  11 1403.52 59.2129   1 
   5   6  11 1046.66 54.1361  -2 
   5   6  11 1046.66 54.1361   1 
   6   6  11 31.1417 32.3321  -2 
   6   6  11 31.1417 32.3321   1 
   7   6  11 1106.48 72.7246  -2 
   7   6  11 1106.48 72.7246   1 
   8   6  11 846.303 68.4654  -2 
   8   6  11 846.303 68.4654   1 
   9   6  11 195.615 54.0876  -2 
   9   6  11 195.615 54.0876   1 
  10   6  11 558.516 115.692  -2 
  10   6  11 558.516 115.692   1 
  11   6  11 1255.48 147.467  -2 
  11   6  11 1255.48 147.467   1 
  12   6  11 177.207 107.494  -2 
  12   6  11 177.207 107.494   1 
  12   6  10 218.451 79.2118  -2 
  12   6  11 218.451 79.2118   1 
  -5   7  11 84.8651 27.1240   1 
  -4   7  11 702.583 137.533  -2 
  -4   7  11 702.583 137.533   1 
  -3   7  11 342.250 115.958  -2 
  -3   7  11 342.250 115.958   1 
  -2   7  11 27.6408 44.9516  -2 
  -2   7  11 27.6408 44.9516   1 
  -1   7  11 398.846 54.9198  -2 
  -1   7  11 398.846 54.9198   1 
   0   7  11 333.930 50.2404  -2 
   0   7  11 333.930 50.2404   1 
   1   7  11 27.2603 36.1818  -2 
   1   7  11 27.2603 36.1818   1 
   2   7  11 654.010 57.8488  -2 
   2   7  11 654.010 57.8488   1 
   3   7  11 1173.87 70.8398  -2 
   3   7  11 1173.87 70.8398   1 
   4   7  11 -14.051 32.0646  -2 
   4   7  11 -14.051 32.0646   1 
   5   7  11 1355.68 60.7234  -2 
   5   7  11 1355.68 60.7234   1 
   6   7  11 913.712 54.5595  -2 
   6   7  11 913.712 54.5595   1 
   7   7  11 -20.791 43.4421  -2 
   7   7  11 -20.791 43.4421   1 
   8   7  11 525.328 62.1365  -2 
   8   7  11 525.328 62.1365   1 
   9   7  11 730.088 69.7913  -2 
   9   7  11 730.088 69.7913   1 
  10   7  11 43.6732 52.4839  -2 
  10   7  11 43.6732 52.4839   1 
  11   7  11 291.764 106.766  -2 
  11   7  11 291.764 106.766   1 
  12   7  11 438.625 124.271  -2 
  12   7  11 438.625 124.271   1 
  -5   8  11 167.470 115.575  -2 
  -5   8  11 167.470 115.575   1 
  -4   8  11 729.407 136.697  -2 
  -4   8  11 729.407 136.697   1 
  -3   8  11 529.244 68.8405  -2 
  -3   8  11 529.244 68.8405   1 
  -2   8  11 46.3244 46.0525  -2 
  -2   8  11 46.3244 46.0525   1 
  -1   8  11 52.7667 43.9829  -2 
  -1   8  11 52.7667 43.9829   1 
   0   8  11 868.612 67.2703  -2 
   0   8  11 868.612 67.2703   1 
   1   8  11 430.150 54.1864  -2 
   1   8  11 430.150 54.1864   1 
   2   8  11 392.018 52.0241  -2 
   2   8  11 392.018 52.0241   1 
   3   8  11 2177.34 91.0710  -2 
   3   8  11 2177.34 91.0710   1 
   4   8  11 669.746 60.0970  -2 
   4   8  11 669.746 60.0970   1 
   5   8  11 635.479 49.7478  -2 
   5   8  11 635.479 49.7478   1 
   6   8  11 525.189 47.9070  -2 
   6   8  11 525.189 47.9070   1 
   7   8  11 379.042 46.5489  -2 
   7   8  11 379.042 46.5489   1 
   8   8  11 7.57497 37.6520  -2 
   8   8  11 7.57497 37.6520   1 
   9   8  11 889.767 74.2818  -2 
   9   8  11 889.767 74.2818   1 
  10   8  11 904.988 79.9537  -2 
  10   8  11 904.988 79.9537   1 
  11   8  11 -32.507 89.8349  -2 
  11   8  11 -32.507 89.8349   1 
  12   8  11 376.495 124.447  -2 
  12   8  11 376.495 124.447   1 
  -4   9  11 243.322 115.425  -2 
  -4   9  11 243.322 115.425   1 
  -3   9  11 397.829 65.8292  -2 
  -3   9  11 397.829 65.8292   1 
  -2   9  11 1220.53 84.5470  -2 
  -2   9  11 1220.53 84.5470   1 
  -1   9  11 17.2884 45.5770  -2 
  -1   9  11 17.2884 45.5770   1 
   0   9  11 746.984 66.5583  -2 
   0   9  11 746.984 66.5583   1 
   1   9  11 1264.45 76.6879  -2 
   1   9  11 1264.45 76.6879   1 
   2   9  11 89.7081 42.2028  -2 
   2   9  11 89.7081 42.2028   1 
   3   9  11 41.0298 41.3195  -2 
   3   9  11 41.0298 41.3195   1 
   4   9  11 637.791 60.4809  -2 
   4   9  11 637.791 60.4809   1 
   5   9  11 539.633 48.4423  -2 
   5   9  11 539.633 48.4423   1 
   6   9  11 115.139 38.3081  -2 
   6   9  11 115.139 38.3081   1 
   7   9  11 898.437 58.3396  -2 
   7   9  11 898.437 58.3396   1 
   8   9  11 187.935 44.4881  -2 
   8   9  11 187.935 44.4881   1 
   9   9  11 29.9514 40.5706  -2 
   9   9  11 29.9514 40.5706   1 
  10   9  11 311.817 62.3235  -2 
  10   9  11 311.817 62.3235   1 
  11   9  11 199.144 100.874  -2 
  11   9  11 199.144 100.874   1 
  12   9  11 177.302 101.629  -2 
  12   9  11 177.302 101.629   1 
  -3  10  11 65.0385 56.9113  -2 
  -3  10  11 65.0385 56.9113   1 
  -2  10  11 1003.54 84.1081  -2 
  -2  10  11 1003.54 84.1081   1 
  -1  10  11 410.720 63.8967  -2 
  -1  10  11 410.720 63.8967   1 
   0  10  11 12.9622 40.1628  -2 
   0  10  11 12.9622 40.1628   1 
   1  10  11 1038.62 73.8149  -2 
   1  10  11 1038.62 73.8149   1 
   2  10  11 770.787 64.4598  -2 
   2  10  11 770.787 64.4598   1 
   3  10  11 -15.362 39.3528  -2 
   3  10  11 -15.362 39.3528   1 
   4  10  11 312.451 52.8814  -2 
   4  10  11 312.451 52.8814   1 
   5  10  11 570.530 60.6466  -2 
   5  10  11 570.530 60.6466   1 
   6  10  11 23.0275 43.9163  -2 
   6  10  11 23.0275 43.9163   1 
   7  10  11 190.492 50.2657  -2 
   7  10  11 190.492 50.2657   1 
   8  10  11 733.135 57.6877  -2 
   8  10  11 733.135 57.6877   1 
   9  10  11 205.509 47.0727  -2 
   9  10  11 205.509 47.0727   1 
  10  10  11 78.0199 45.8391  -2 
  10  10  11 78.0199 45.8391   1 
  11  10  11 567.833 118.815  -2 
  11  10  11 567.833 118.815   1 
  -3  11  11 174.581 59.9974   1 
  -2  11  11 160.796 61.4039  -2 
  -2  11  11 160.796 61.4039   1 
  -1  11  11 649.761 73.1170  -2 
  -1  11  11 649.761 73.1170   1 
   0  11  11 306.580 53.8935  -2 
   0  11  11 306.580 53.8935   1 
   1  11  11 59.3837 41.8939  -2 
   1  11  11 59.3837 41.8939   1 
   2  11  11 184.549 49.3224  -2 
   2  11  11 184.549 49.3224   1 
   3  11  11 1040.46 71.7450  -2 
   3  11  11 1040.46 71.7450   1 
   4  11  11 43.5648 42.9385  -2 
   4  11  11 43.5648 42.9385   1 
   5  11  11 713.134 65.0800  -2 
   5  11  11 713.134 65.0800   1 
   6  11  11 393.380 47.2681  -2 
   6  11  11 393.380 47.2681   1 
   7  11  11 148.503 40.7344  -2 
   7  11  11 148.503 40.7344   1 
   8  11  11 30.7525 47.6607  -2 
   8  11  11 30.7525 47.6607   1 
   9  11  11 551.558 66.3347  -2 
   9  11  11 551.558 66.3347   1 
  10  11  11 431.625 109.593  -2 
  10  11  11 431.625 109.593   1 
  11  11  11 51.4357 94.6974  -2 
  11  11  11 51.4357 94.6974   1 
  -1  12  11 36.3893 56.8267  -2 
  -1  12  11 36.3893 56.8267   1 
   0  12  11 424.029 63.4735  -2 
   0  12  11 424.029 63.4735   1 
   1  12  11 384.982 55.3750  -2 
   1  12  11 384.982 55.3750   1 
   2  12  11 45.3434 45.4873  -2 
   2  12  11 45.3434 45.4873   1 
   3  12  11 551.186 61.5278  -2 
   3  12  11 551.186 61.5278   1 
   4  12  11 220.397 50.5930  -2 
   4  12  11 220.397 50.5930   1 
   5  12  11 10.7502 42.2138  -2 
   5  12  11 10.7502 42.2138   1 
   6  12  11 209.702 42.1841  -2 
   6  12  11 209.702 42.1841   1 
   7  12  11 964.797 63.5132  -2 
   7  12  11 964.797 63.5132   1 
   8  12  11 206.931 47.8396  -2 
   8  12  11 206.931 47.8396   1 
   9  12  11 576.422 81.1821  -2 
   9  12  11 576.422 81.1821   1 
  10  12  11 949.424 96.1789  -2 
  10  12  11 949.424 96.1789   1 
  -1  13  11 276.557 118.129  -2 
  -1  13  11 276.557 118.129   1 
   0  13  11 7.24160 51.1695  -2 
   0  13  11 7.24160 51.1695   1 
   1  13  11 421.960 59.3763  -2 
   1  13  11 421.960 59.3763   1 
   2  13  11 602.661 63.7183  -2 
   2  13  11 602.661 63.7183   1 
   3  13  11 13.2872 44.2707  -2 
   3  13  11 13.2872 44.2707   1 
   4  13  11 834.107 69.8435  -2 
   4  13  11 834.107 69.8435   1 
   5  13  11 640.635 64.1129  -2 
   5  13  11 640.635 64.1129   1 
   6  13  11 8.04724 40.0931  -2 
   6  13  11 8.04724 40.0931   1 
   7  13  11 537.065 78.2355  -2 
   7  13  11 537.065 78.2355   1 
   8  13  11 802.705 87.3805  -2 
   8  13  11 802.705 87.3805   1 
   9  13  11 64.2119 65.1613  -2 
   9  13  11 64.2119 65.1613   1 
   1  14  11 154.005 52.7328  -2 
   1  14  11 154.005 52.7328   1 
   2  14  11 344.069 56.8530  -2 
   2  14  11 344.069 56.8530   1 
   3  14  11 332.595 54.8744  -2 
   3  14  11 332.595 54.8744   1 
   4  14  11 37.7863 45.0433  -2 
   4  14  11 37.7863 45.0433   1 
   5  14  11 840.458 126.372  -2 
   5  14  11 840.458 126.372   1 
   6  14  11 262.465 101.670  -2 
   6  14  11 262.465 101.670   1 
   7  14  11 112.883 60.1493  -2 
   7  14  11 112.883 60.1493   1 
   8  14  11 657.150 121.353  -2 
   8  14  11 657.150 121.353   1 
   0  -5  12 6.67675 32.7438   1 
   2  -5  12 405.159 86.2319  -2 
   1  -5  12 405.159 86.2319   1 
   2  -5  12 235.098 47.6048   1 
   3  -5  12 8.20159 24.0454   1 
   4  -5  12 239.988 47.6153   1 
   5  -5  12 330.552 53.1065   1 
  -2  -4  12 77.5539 34.1544   1 
  -1  -4  12 427.649 71.8271   1 
   0  -4  12 104.740 40.5919   1 
   1  -4  12 84.3087 35.2561   1 
   3  -4  12 155.670 75.7199  -2 
   2  -4  12 155.670 75.7199   1 
   3  -4  12 16.2250 22.7416   1 
   4  -4  12 13.3524 22.9312   1 
   5  -4  12 61.7314 28.5297   1 
   6  -4  12 291.456 49.3395   1 
   7  -4  12 8.67071 50.7005   1 
  -3  -3  12 729.869 73.4980   1 
  -2  -3  12 0.38481 26.7961   1 
  -1  -3  12 334.291 52.7105   1 
   0  -3  12 260.068 58.0880   1 
   1  -3  12 87.1069 35.4904   1 
   2  -3  12 55.1856 27.5636   1 
   3  -3  12 432.855 50.6044   1 
   4  -3  12 256.232 44.6827   1 
   5  -3  12 28.8354 23.7585   1 
   6  -3  12 882.923 68.3532   1 
   7  -3  12 246.962 84.5483   1 
   8  -3  12 -1.1253 47.2467   1 
  -4  -2  12 -4.1114 28.5488   1 
  -3  -2  12 101.719 35.6323   1 
  -2  -2  12 143.340 38.3465   1 
  -1  -2  12 73.4952 29.8457   1 
   0  -2  12 107.668 39.9288   1 
   1  -2  12 445.321 61.5677   1 
   2  -2  12 89.2719 26.7403   1 
   3  -2  12 61.9617 26.1318   1 
   4  -2  12 334.488 43.9068   1 
   5  -2  12 171.184 37.1269   1 
   6  -2  12 7.67203 45.6590   1 
   7  -2  12 449.775 103.893   1 
   8  -2  12 303.341 50.3067   1 
   9  -2  12 23.3038 27.5768   1 
  -4  -1  12 140.834 40.6754   1 
  -3  -1  12 12.0637 27.0454   1 
  -2  -1  12 196.671 44.1074   1 
  -1  -1  12 402.488 52.3983   1 
   0  -1  12 87.4577 97.3776  -2 
   0  -1  12 87.4577 97.3776   1 
   1  -1  12 396.388 56.7828   1 
   2  -1  12 937.203 72.3862   1 
   3  -1  12 45.4114 22.1664   1 
   4  -1  12 524.570 47.8257   1 
   5  -1  12 677.907 69.7701   1 
   6  -1  12 190.636 39.0061   1 
   7  -1  12 62.6063 26.6415   1 
   8  -1  12 596.996 60.6347   1 
   9  -1  12 236.369 47.5081   1 
  10  -1  12 169.025 41.9813   1 
  -4   0  12 225.799 48.9726   1 
  -3   0  12 612.708 63.9783   1 
  -2   0  12 12.5535 24.0666   1 
  -1   0  12 689.574 130.252  -2 
  -1   0  12 689.574 130.252   1 
   0   0  12 862.811 123.802  -2 
   0   0  12 862.811 123.802   1 
   1   0  12 17.3124 24.0767   1 
   2   0  12 239.313 45.0648   1 
   3   0  12 522.952 100.597  -2 
   3   0  12 522.952 100.597   1 
   4   0  12 175.286 35.1509   1 
   5   0  12 163.634 35.9968   1 
   6   0  12 1127.47 132.749  -2 
   6   0  12 1127.47 132.749   1 
   7   0  12 70.8902 28.0595   1 
   8   0  12 267.638 46.7348   1 
   9   0  12 275.735 49.1398   1 
  10   0  12 39.5980 26.9834   1 
  -5   1  12 69.9584 37.0141   1 
  -4   1  12 395.750 58.6176   1 
  -3   1  12 730.102 66.8003   1 
  -2   1  12 72.5011 30.0844   1 
  -1   1  12 8.94414 103.959  -2 
  -1   1  12 8.94414 103.959   1 
   0   1  12 1154.38 135.918  -2 
   0   1  12 1154.38 135.918   1 
   1   1  12 406.294 98.5700  -2 
   1   1  12 406.294 98.5700   1 
   2   1  12 134.444 77.7809  -2 
   2   1  12 134.444 77.7809   1 
   3   1  12 911.570 42.7906   1 
   4   1  12 674.087 101.740  -2 
   4   1  12 674.087 101.740   1 
   5   1  12 124.878 30.1187   1 
   6   1  12 532.580 109.521  -2 
   6   1  12 532.580 109.521   1 
   7   1  12 389.106 107.853  -2 
   7   1  12 389.106 107.853   1 
   8   1  12 11.2812 20.2892   1 
   9   1  12 270.844 48.5269   1 
  10   1  12 534.181 60.6549   1 
  11   1  12 125.592 37.3643   1 
  -5   2  12 661.970 70.0218   1 
  -4   2  12 99.2049 35.9075   1 
  -3   2  12 169.822 39.4338   1 
  -2   2  12 731.423 141.536  -2 
  -2   2  12 731.423 141.536   1 
  -1   2  12 132.914 106.011  -2 
  -1   2  12 132.914 106.011   1 
   0   2  12 88.1574 96.5379  -2 
   0   2  12 88.1574 96.5379   1 
   1   2  12 1022.13 120.908  -2 
   1   2  12 1022.13 120.908   1 
   2   2  12 528.214 95.8987  -2 
   2   2  12 528.214 95.8987   1 
   3   2  12 17.0257 69.8357  -2 
   3   2  12 17.0257 69.8357   1 
   4   2  12 643.715 101.615  -2 
   4   2  12 643.715 101.615   1 
   5   2  12 406.551 97.3182  -2 
   5   2  12 406.551 97.3182   1 
   6   2  12 25.9924 82.9114  -2 
   6   2  12 25.9924 82.9114   1 
   7   2  12 381.547 103.694  -2 
   7   2  12 381.547 103.694   1 
   8   2  12 626.246 118.483  -2 
   8   2  12 626.246 118.483   1 
   9   2  12 53.4241 27.3885   1 
  10   2  12 105.356 34.7169   1 
  11   2  12 356.641 55.2918   1 
  -5   3  12 336.235 59.1889   1 
  -4   3  12 108.305 36.2212   1 
  -3   3  12 2.94218 23.8690   1 
  -2   3  12 202.352 114.190  -2 
  -2   3  12 202.352 114.190   1 
  -1   3  12 511.798 119.398  -2 
  -1   3  12 511.798 119.398   1 
   0   3  12 220.627 102.326  -2 
   0   3  12 220.627 102.326   1 
   1   3  12 783.108 115.294  -2 
   1   3  12 783.108 115.294   1 
   2   3  12 988.861 115.620  -2 
   2   3  12 988.861 115.620   1 
   3   3  12 36.6431 70.6093  -2 
   3   3  12 36.6431 70.6093   1 
   4   3  12 109.572 75.1262  -2 
   4   3  12 109.572 75.1262   1 
   5   3  12 225.741 88.0093  -2 
   5   3  12 225.741 88.0093   1 
   6   3  12 736.321 113.115  -2 
   6   3  12 736.321 113.115   1 
   7   3  12 -5.9479 82.9355  -2 
   7   3  12 -5.9479 82.9355   1 
   8   3  12 1207.34 134.454  -2 
   8   3  12 1207.34 134.454   1 
   9   3  12 496.877 54.4500   1 
  10   3  12 20.2490 24.9466   1 
  11   3  12 331.513 53.6117   1 
  12   3  12 150.243 52.6806   1 
  -5   4  12 16.9486 28.8913   1 
  -4   4  12 573.599 140.295  -2 
  -4   4  12 573.599 140.295   1 
  -3   4  12 472.475 44.2681   1 
  -2   4  12 29.2653 105.188  -2 
  -2   4  12 29.2653 105.188   1 
  -1   4  12 631.586 120.806  -2 
  -1   4  12 631.586 120.806   1 
   0   4  12 654.360 120.040  -2 
   0   4  12 654.360 120.040   1 
   1   4  12 334.028 100.007  -2 
   1   4  12 334.028 100.007   1 
   2   4  12 34.7281 82.8897  -2 
   2   4  12 34.7281 82.8897   1 
   3   4  12 1001.68 112.628  -2 
   3   4  12 1001.68 112.628   1 
   4   4  12 687.876 91.6218  -2 
   4   4  12 687.876 91.6218   1 
   5   4  12 50.9266 72.7603  -2 
   5   4  12 50.9266 72.7603   1 
   6   4  12 1484.53 78.5463  -2 
   6   4  12 1484.53 78.5463   1 
   7   4  12 943.617 117.767  -2 
   7   4  12 943.617 117.767   1 
   8   4  12 22.4572 48.7879  -2 
   8   4  12 22.4572 48.7879   1 
   9   4  12 438.284 110.385  -2 
   9   4  12 438.284 110.385   1 
  10   4  12 696.361 62.8492   1 
  11   4  12 24.7466 27.0678   1 
  12   4  12 325.150 55.4417   1 
  -5   5  12 50.7623 30.0474   1 
  -4   5  12 116.102 115.910  -2 
  -4   5  12 116.102 115.910   1 
  -3   5  12 395.582 126.351  -2 
  -3   5  12 395.582 126.351   1 
  -2   5  12 549.367 126.916  -2 
  -2   5  12 549.367 126.916   1 
  -1   5  12 -25.926 97.3841  -2 
  -1   5  12 -25.926 97.3841   1 
   0   5  12 367.950 109.281  -2 
   0   5  12 367.950 109.281   1 
   1   5  12 672.520 116.622  -2 
   1   5  12 672.520 116.622   1 
   2   5  12 59.7467 84.2141  -2 
   2   5  12 59.7467 84.2141   1 
   3   5  12 344.392 89.8356  -2 
   3   5  12 344.392 89.8356   1 
   4   5  12 523.303 54.2937  -2 
   4   5  12 523.303 54.2937   1 
   5   5  12 90.5142 35.3927  -2 
   5   5  12 90.5142 35.3927   1 
   6   5  12 448.181 56.4057  -2 
   6   5  12 448.181 56.4057   1 
   7   5  12 1489.63 82.8096  -2 
   7   5  12 1489.63 82.8096   1 
   8   5  12 173.840 52.8209  -2 
   8   5  12 173.840 52.8209   1 
   9   5  12 198.959 93.7085  -2 
   9   5  12 198.959 93.7085   1 
  10   5  12 770.834 128.885  -2 
  10   5  12 770.834 128.885   1 
  11   5  12 183.845 41.6981   1 
  12   5  12 9.89082 25.6132   1 
  -4   6  12 120.698 28.5583   1 
  -3   6  12 64.1896 110.937  -2 
  -3   6  12 64.1896 110.937   1 
  -2   6  12 659.552 131.791  -2 
  -2   6  12 659.552 131.791   1 
  -1   6  12 1093.25 143.725  -2 
  -1   6  12 1093.25 143.725   1 
   0   6  12 223.299 101.803  -2 
   0   6  12 223.299 101.803   1 
   1   6  12 1189.50 133.610  -2 
   1   6  12 1189.50 133.610   1 
   2   6  12 1623.47 142.332  -2 
   2   6  12 1623.47 142.332   1 
   3   6  12 21.2418 40.4772  -2 
   3   6  12 21.2418 40.4772   1 
   4   6  12 1132.67 70.1656  -2 
   4   6  12 1132.67 70.1656   1 
   5   6  12 560.881 47.7526  -2 
   5   6  12 560.881 47.7526   1 
   6   6  12 109.745 45.8247  -2 
   6   6  12 109.745 45.8247   1 
   7   6  12 342.330 56.1536  -2 
   7   6  12 342.330 56.1536   1 
   8   6  12 1337.39 84.0037  -2 
   8   6  12 1337.39 84.0037   1 
   9   6  12 410.672 64.1220  -2 
   9   6  12 410.672 64.1220   1 
  10   6  12 100.294 96.6449  -2 
  10   6  12 100.294 96.6449   1 
  11   6  12 994.365 143.280  -2 
  11   6  12 994.365 143.280   1 
  12   6  12 68.3568 32.3302   1 
  -4   7  12 265.642 54.0086   1 
  -3   7  12 286.289 122.609  -2 
  -3   7  12 286.289 122.609   1 
  -2   7  12 16.3558 99.7254  -2 
  -2   7  12 16.3558 99.7254   1 
  -1   7  12 950.809 134.866  -2 
  -1   7  12 950.809 134.866   1 
   0   7  12 471.445 110.985  -2 
   0   7  12 471.445 110.985   1 
   1   7  12 315.558 50.6843  -2 
   1   7  12 315.558 50.6843   1 
   2   7  12 740.288 63.7945  -2 
   2   7  12 740.288 63.7945   1 
   3   7  12 171.247 49.8399  -2 
   3   7  12 171.247 49.8399   1 
   4   7  12 42.9886 44.0024  -2 
   4   7  12 42.9886 44.0024   1 
   5   7  12 401.411 44.7659  -2 
   5   7  12 401.411 44.7659   1 
   6   7  12 865.940 67.1855  -2 
   6   7  12 865.940 67.1855   1 
   7   7  12 8.05948 36.4813  -2 
   7   7  12 8.05948 36.4813   1 
   8   7  12 741.162 72.4842  -2 
   8   7  12 741.162 72.4842   1 
   9   7  12 273.664 62.0234  -2 
   9   7  12 273.664 62.0234   1 
  10   7  12 5.99533 55.1769  -2 
  10   7  12 5.99533 55.1769   1 
  11   7  12 28.9653 95.1300  -2 
  11   7  12 28.9653 95.1300   1 
  12   7  12 129.146 46.6741   1 
  -4   8  12 328.891 87.5707  -2 
  -4   8  12 328.891 87.5707   1 
  -3   8  12 1000.15 148.374  -2 
  -3   8  12 1000.15 148.374   1 
  -2   8  12 191.765 57.3844  -2 
  -2   8  12 191.765 57.3844   1 
  -1   8  12 139.822 48.7741  -2 
  -1   8  12 139.822 48.7741   1 
   0   8  12 762.184 68.8086  -2 
   0   8  12 762.184 68.8086   1 
   1   8  12 724.492 66.6010  -2 
   1   8  12 724.492 66.6010   1 
   2   8  12 273.675 52.9405  -2 
   2   8  12 273.675 52.9405   1 
   3   8  12 1200.67 77.1525  -2 
   3   8  12 1200.67 77.1525   1 
   4   8  12 809.640 68.1649  -2 
   4   8  12 809.640 68.1649   1 
   5   8  12 29.8891 44.3110  -2 
   5   8  12 29.8891 44.3110   1 
   6   8  12 757.578 56.8592  -2 
   6   8  12 757.578 56.8592   1 
   7   8  12 634.120 54.9136  -2 
   7   8  12 634.120 54.9136   1 
   8   8  12 206.178 57.9264  -2 
   8   8  12 206.178 57.9264   1 
   9   8  12 235.728 62.6956  -2 
   9   8  12 235.728 62.6956   1 
  10   8  12 878.418 82.1335  -2 
  10   8  12 878.418 82.1335   1 
  11   8  12 60.6750 98.1597  -2 
  11   8  12 60.6750 98.1597   1 
  12   8  12 113.255 45.0602   1 
  -3   9  12 501.570 124.678  -2 
  -3   9  12 501.570 124.678   1 
  -2   9  12 396.152 65.6032  -2 
  -2   9  12 396.152 65.6032   1 
  -1   9  12 3.44941 40.9758  -2 
  -1   9  12 3.44941 40.9758   1 
   0   9  12 35.0728 46.9734  -2 
   0   9  12 35.0728 46.9734   1 
   1   9  12 367.432 56.6926  -2 
   1   9  12 367.432 56.6926   1 
   2   9  12 346.800 56.1028  -2 
   2   9  12 346.800 56.1028   1 
   3   9  12 24.2345 44.0156  -2 
   3   9  12 24.2345 44.0156   1 
   4   9  12 652.390 64.8045  -2 
   4   9  12 652.390 64.8045   1 
   5   9  12 348.785 57.8499  -2 
   5   9  12 348.785 57.8499   1 
   6   9  12 28.2928 39.4398  -2 
   6   9  12 28.2928 39.4398   1 
   7   9  12 274.463 48.0271  -2 
   7   9  12 274.463 48.0271   1 
   8   9  12 323.691 50.8896  -2 
   8   9  12 323.691 50.8896   1 
   9   9  12 88.6013 46.7222  -2 
   9   9  12 88.6013 46.7222   1 
  10   9  12 328.669 68.9591  -2 
  10   9  12 328.669 68.9591   1 
  11   9  12 939.002 143.249  -2 
  11   9  12 939.002 143.249   1 
  12   9  12 67.3523 39.5919   1 
  -3  10  12 82.4529 116.771  -2 
  -3  10  12 82.4529 116.771   1 
  -2  10  12 316.664 117.386  -2 
  -2  10  12 316.664 117.386   1 
  -1  10  12 895.663 78.9425  -2 
  -1  10  12 895.663 78.9425   1 
   0  10  12 122.215 47.8527  -2 
   0  10  12 122.215 47.8527   1 
   1  10  12 467.223 63.9056  -2 
   1  10  12 467.223 63.9056   1 
   2  10  12 1039.26 76.7624  -2 
   2  10  12 1039.26 76.7624   1 
   3  10  12 31.1436 44.5129  -2 
   3  10  12 31.1436 44.5129   1 
   4  10  12 89.8732 48.6754  -2 
   4  10  12 89.8732 48.6754   1 
   5  10  12 587.991 65.2455  -2 
   5  10  12 587.991 65.2455   1 
   6  10  12 736.852 69.7598  -2 
   6  10  12 736.852 69.7598   1 
   7  10  12 18.7117 41.4240  -2 
   7  10  12 18.7117 41.4240   1 
   8  10  12 1338.08 73.0892  -2 
   8  10  12 1338.08 73.0892   1 
   9  10  12 807.098 64.6162  -2 
   9  10  12 807.098 64.6162   1 
  10  10  12 84.6332 47.5972  -2 
  10  10  12 84.6332 47.5972   1 
  11  10  12 808.065 132.254  -2 
  11  10  12 808.065 132.254   1 
  -2  11  12 -45.767 114.010  -2 
  -2  11  12 -45.767 114.010   1 
  -1  11  12 174.505 61.8680  -2 
  -1  11  12 174.505 61.8680   1 
   0  11  12 308.260 56.6657  -2 
   0  11  12 308.260 56.6657   1 
   1  11  12 99.2520 50.0623  -2 
   1  11  12 99.2520 50.0623   1 
   2  11  12 136.262 51.2191  -2 
   2  11  12 136.262 51.2191   1 
   3  11  12 374.139 59.4999  -2 
   3  11  12 374.139 59.4999   1 
   4  11  12 397.216 59.0575  -2 
   4  11  12 397.216 59.0575   1 
   5  11  12 200.365 54.0382  -2 
   5  11  12 200.365 54.0382   1 
   6  11  12 889.385 76.0013  -2 
   6  11  12 889.385 76.0013   1 
   7  11  12 101.812 53.7131  -2 
   7  11  12 101.812 53.7131   1 
   8  11  12 188.288 57.2375  -2 
   8  11  12 188.288 57.2375   1 
   9  11  12 530.191 69.3742  -2 
   9  11  12 530.191 69.3742   1 
  10  11  12 277.492 61.6065  -2 
  10  11  12 277.492 61.6065   1 
  11  11  12 -7.4950 28.2777   1 
  -1  12  12 104.314 112.143  -2 
  -1  12  12 104.314 112.143   1 
   0  12  12 552.194 66.3402  -2 
   0  12  12 552.194 66.3402   1 
   1  12  12 362.079 58.8261  -2 
   1  12  12 362.079 58.8261   1 
   2  12  12 26.7375 50.0469  -2 
   2  12  12 26.7375 50.0469   1 
   3  12  12 659.166 68.8625  -2 
   3  12  12 659.166 68.8625   1 
   4  12  12 903.539 74.4595  -2 
   4  12  12 903.539 74.4595   1 
   5  12  12 85.7831 50.2146  -2 
   5  12  12 85.7831 50.2146   1 
   6  12  12 588.654 68.3056  -2 
   6  12  12 588.654 68.3056   1 
   7  12  12 1167.04 69.8619  -2 
   7  12  12 1167.04 69.8619   1 
   8  12  12 90.9048 46.1945  -2 
   8  12  12 90.9048 46.1945   1 
   9  12  12 333.925 54.8578  -2 
   9  12  12 333.925 54.8578   1 
  10  12  12 418.146 79.0857  -2 
  10  12  12 418.146 79.0857   1 
   1  13  12 455.954 63.5703  -2 
   1  13  12 455.954 63.5703   1 
   2  13  12 829.726 73.6201  -2 
   2  13  12 829.726 73.6201   1 
   3  13  12 35.7482 49.9669  -2 
   3  13  12 35.7482 49.9669   1 
   4  13  12 732.721 71.2396  -2 
   4  13  12 732.721 71.2396   1 
   5  13  12 263.902 56.8451  -2 
   5  13  12 263.902 56.8451   1 
   6  13  12 0.85078 47.1043  -2 
   6  13  12 0.85078 47.1043   1 
   7  13  12 35.7367 50.2437  -2 
   7  13  12 35.7367 50.2437   1 
   8  13  12 768.134 88.1220  -2 
   8  13  12 768.134 88.1220   1 
   9  13  12 256.189 75.3242  -2 
   9  13  12 256.189 75.3242   1 
   2  14  12 453.197 82.0061  -2 
   2  14  12 453.197 82.0061   1 
   3  14  12 68.7423 50.0604  -2 
   3  14  12 68.7423 50.0604   1 
   4  14  12 -2.9721 49.1353  -2 
   4  14  12 -2.9721 49.1353   1 
   5  14  12 526.287 65.9832  -2 
   5  14  12 526.287 65.9832   1 
   6  14  12 344.860 114.987  -2 
   6  14  12 344.860 114.987   1 
   2  -4  13 153.385 83.3799  -2 
   1  -4  13 153.385 83.3799   1 
   3  -4  13 324.418 84.7251  -2 
   2  -4  13 324.418 84.7251   1 
   4  -4  13 173.733 81.5690  -2 
   3  -4  13 173.733 81.5690   1 
   4  -4  13 -3.5881 23.1572   1 
   5  -4  13 134.354 39.0939   1 
  -1  -3  13 23.0794 31.5086   1 
   0  -3  13 363.628 68.3830   1 
   1  -3  13 242.631 58.6743   1 
   3  -3  13 260.776 79.7300  -2 
   2  -3  13 260.776 79.7300   1 
   3  -3  13 433.567 53.6326   1 
   4  -3  13 227.055 44.0304   1 
   5  -3  13 -12.813 40.6163   1 
   6  -3  13 544.604 108.523   1 
   7  -3  13 423.622 113.657   1 
  -2  -2  13 521.938 65.1106   1 
  -1  -2  13 52.9371 31.5246   1 
   0  -2  13 305.659 52.4681   1 
   1  -2  13 357.268 61.7879   1 
   2  -2  13 9.24228 27.7742   1 
   4  -2  13 167.536 76.9863  -2 
   3  -2  13 167.536 76.9863   1 
   4  -2  13 352.206 49.7148   1 
   5  -2  13 311.310 87.5961   1 
   6  -2  13 80.2192 58.6639   1 
   7  -2  13 704.953 115.367   1 
   8  -2  13 58.0845 59.3894   1 
  -3  -1  13 -0.3774 27.8944   1 
  -2  -1  13 279.969 52.7989   1 
  -1  -1  13 409.496 57.2221   1 
   0  -1  13 88.9555 32.0787   1 
   1  -1  13 261.347 56.1078   1 
   2  -1  13 748.443 71.5572   1 
   3  -1  13 190.037 42.3273   1 
   4  -1  13 277.891 81.4944   1 
   5  -1  13 553.108 100.894   1 
   6  -1  13 137.777 60.9491   1 
   7  -1  13 -1.3544 29.7655   1 
   8  -1  13 159.936 39.4623   1 
   9  -1  13 234.938 48.3156   1 
  -3   0  13 255.187 52.2686   1 
  -2   0  13 9.50117 27.4548   1 
  -1   0  13 325.819 52.9111   1 
   0   0  13 364.872 120.239  -2 
   0   0  13 364.872 120.239   1 
   1   0  13 2.78118 25.9797   1 
   2   0  13 243.417 50.6098   1 
   4   0  13 36.7783 42.9957   1 
   5   0  13 109.859 31.4176   1 
   6   0  13 265.689 45.5151   1 
   7   0  13 159.503 37.3002   1 
   8   0  13 21.2642 23.8779   1 
   9   0  13 345.374 52.3895   1 
  10   0  13 172.718 50.7048   1 
  -3   1  13 331.938 58.2214   1 
  -2   1  13 313.158 53.9184   1 
  -1   1  13 14.5983 113.600  -2 
  -1   1  13 14.5983 113.600   1 
   0   1  13 684.165 129.581  -2 
   0   1  13 684.165 129.581   1 
   1   1  13 512.393 62.9742   1 
   3   1  13 127.941 38.3668   1 
   4   1  13 342.266 44.3786   1 
   5   1  13 71.9558 27.7241   1 
   6   1  13 125.857 33.3121   1 
   7   1  13 883.785 66.3785   1 
   8   1  13 448.849 53.7414   1 
   9   1  13 91.9756 32.8539   1 
  10   1  13 655.483 66.2242   1 
  -4   2  13 91.2880 41.8723   1 
  -3   2  13 31.2026 29.9416   1 
  -2   2  13 443.137 57.1666   1 
  -1   2  13 83.7104 113.357  -2 
  -1   2  13 83.7104 113.357   1 
   0   2  13 83.1324 102.838  -2 
   0   2  13 83.1324 102.838   1 
   1   2  13 206.996 101.027  -2 
   1   2  13 206.996 101.027   1 
   2   2  13 185.606 92.1445  -2 
   2   2  13 185.606 92.1445   1 
   3   2  13 109.307 82.5335  -2 
   3   2  13 109.307 82.5335   1 
   4   2  13 309.005 51.8958   1 
   5   2  13 677.435 55.7620   1 
   6   2  13 8.15329 87.9151  -2 
   6   2  13 8.15329 87.9151   1 
   7   2  13 400.023 50.4211   1 
   8   2  13 265.021 46.6870   1 
   9   2  13 89.5470 32.7185   1 
  10   2  13 47.0153 27.6132   1 
  11   2  13 254.843 61.6428   1 
  -4   3  13 175.497 44.1725   1 
  -3   3  13 39.2019 29.2468   1 
  -2   3  13 64.9355 30.7027   1 
  -1   3  13 936.053 148.781  -2 
  -1   3  13 936.053 148.781   1 
   0   3  13 525.160 122.731  -2 
   0   3  13 525.160 122.731   1 
   1   3  13 59.6723 96.0033  -2 
   1   3  13 59.6723 96.0033   1 
   2   3  13 1019.38 126.583  -2 
   2   3  13 1019.38 126.583   1 
   3   3  13 604.555 104.859  -2 
   3   3  13 604.555 104.859   1 
   4   3  13 98.8497 71.5919  -2 
   4   3  13 98.8497 71.5919   1 
   5   3  13 1263.03 130.778  -2 
   5   3  13 1263.03 130.778   1 
   6   3  13 1079.57 133.052  -2 
   6   3  13 1079.57 133.052   1 
   7   3  13 116.502 91.7659  -2 
   7   3  13 116.502 91.7659   1 
   8   3  13 566.770 57.2516   1 
   9   3  13 491.879 56.7658   1 
  10   3  13 12.1935 25.1818   1 
  11   3  13 234.353 49.1428   1 
  -4   4  13 133.817 41.6791   1 
  -3   4  13 382.064 139.155  -2 
  -3   4  13 382.064 139.155   1 
  -2   4  13 173.368 116.732  -2 
  -2   4  13 173.368 116.732   1 
  -1   4  13 102.582 113.402  -2 
  -1   4  13 102.582 113.402   1 
   0   4  13 797.835 135.930  -2 
   0   4  13 797.835 135.930   1 
   1   4  13 624.116 122.827  -2 
   1   4  13 624.116 122.827   1 
   2   4  13 132.139 96.9364  -2 
   2   4  13 132.139 96.9364   1 
   3   4  13 1153.57 127.051  -2 
   3   4  13 1153.57 127.051   1 
   4   4  13 355.891 87.4552  -2 
   4   4  13 355.891 87.4552   1 
   5   4  13 68.4351 26.4643   1 
   6   4  13 462.819 103.340  -2 
   6   4  13 462.819 103.340   1 
   7   4  13 688.540 116.836  -2 
   7   4  13 688.540 116.836   1 
   8   4  13 -19.484 87.7037  -2 
   8   4  13 -19.484 87.7037   1 
   9   4  13 210.787 44.1726   1 
  10   4  13 313.988 51.7995   1 
  11   4  13 3.51154 24.5193   1 
  -4   5  13 -14.499 30.3859   1 
  -3   5  13 405.552 138.421  -2 
  -3   5  13 405.552 138.421   1 
  -2   5  13 1467.01 173.646  -2 
  -2   5  13 1467.01 173.646   1 
  -1   5  13 103.181 112.577  -2 
  -1   5  13 103.181 112.577   1 
   0   5  13 1017.13 146.653  -2 
   0   5  13 1017.13 146.653   1 
   1   5  13 717.864 129.117  -2 
   1   5  13 717.864 129.117   1 
   2   5  13 39.4296 92.8627  -2 
   2   5  13 39.4296 92.8627   1 
   3   5  13 343.743 98.3687  -2 
   3   5  13 343.743 98.3687   1 
   4   5  13 925.662 115.596  -2 
   4   5  13 925.662 115.596   1 
   5   5  13 341.893 45.1800   1 
   6   5  13 151.051 50.7266  -2 
   6   5  13 151.051 50.7266   1 
   7   5  13 1491.24 86.0073  -2 
   7   5  13 1491.24 86.0073   1 
   8   5  13 433.527 65.3475  -2 
   8   5  13 433.527 65.3475   1 
   9   5  13 176.940 99.5068  -2 
   9   5  13 176.940 99.5068   1 
  10   5  13 343.257 53.3456   1 
  11   5  13 242.042 49.9288   1 
  -3   6  13 35.9084 117.917  -2 
  -3   6  13 35.9084 117.917   1 
  -2   6  13 499.624 139.520  -2 
  -2   6  13 499.624 139.520   1 
  -1   6  13 544.513 136.363  -2 
  -1   6  13 544.513 136.363   1 
   0   6  13 22.9789 103.029  -2 
   0   6  13 22.9789 103.029   1 
   1   6  13 178.445 104.822  -2 
   1   6  13 178.445 104.822   1 
   2   6  13 632.501 117.770  -2 
   2   6  13 632.501 117.770   1 
   3   6  13 173.021 93.2111  -2 
   3   6  13 173.021 93.2111   1 
   4   6  13 396.749 55.8428  -2 
   4   6  13 396.749 55.8428   1 
   5   6  13 463.977 59.1223  -2 
   5   6  13 463.977 59.1223   1 
   6   6  13 93.3339 48.7442  -2 
   6   6  13 93.3339 48.7442   1 
   7   6  13 0.15734 48.2591  -2 
   7   6  13 0.15734 48.2591   1 
   8   6  13 633.312 71.2236  -2 
   8   6  13 633.312 71.2236   1 
   9   6  13 401.716 108.885  -2 
   9   6  13 401.716 108.885   1 
  10   6  13 35.4251 94.1934  -2 
  10   6  13 35.4251 94.1934   1 
  11   6  13 240.866 49.4447   1 
  -3   7  13 293.786 128.174  -2 
  -3   7  13 293.786 128.174   1 
  -2   7  13 146.199 117.598  -2 
  -2   7  13 146.199 117.598   1 
  -1   7  13 598.833 135.511  -2 
  -1   7  13 598.833 135.511   1 
   0   7  13 149.258 50.5458  -2 
   0   7  13 149.258 50.5458   1 
   1   7  13 166.385 101.583  -2 
   1   7  13 166.385 101.583   1 
   2   7  13 591.382 62.4823  -2 
   2   7  13 591.382 62.4823   1 
   3   7  13 552.020 62.8527  -2 
   3   7  13 552.020 62.8527   1 
   4   7  13 44.9807 47.0776  -2 
   4   7  13 44.9807 47.0776   1 
   5   7  13 449.694 59.3579  -2 
   5   7  13 449.694 59.3579   1 
   6   7  13 653.692 55.5273  -2 
   6   7  13 653.692 55.5273   1 
   7   7  13 99.2771 53.0688  -2 
   7   7  13 99.2771 53.0688   1 
   8   7  13 220.375 61.0989  -2 
   8   7  13 220.375 61.0989   1 
   9   7  13 586.051 74.5398  -2 
   9   7  13 586.051 74.5398   1 
  10   7  13 341.101 108.360  -2 
  10   7  13 341.101 108.360   1 
  11   7  13 49.6896 30.2912   1 
  -3   8  13 68.9414 34.7700   1 
  -2   8  13 529.774 131.300  -2 
  -2   8  13 529.774 131.300   1 
  -1   8  13 24.0350 100.848  -2 
  -1   8  13 24.0350 100.848   1 
   0   8  13 760.246 71.6129  -2 
   0   8  13 760.246 71.6129   1 
   1   8  13 781.693 71.3682  -2 
   1   8  13 781.693 71.3682   1 
   2   8  13 49.8532 47.0889  -2 
   2   8  13 49.8532 47.0889   1 
   3   8  13 522.852 63.2941  -2 
   3   8  13 522.852 63.2941   1 
   4   8  13 413.729 61.3410  -2 
   4   8  13 413.729 61.3410   1 
   5   8  13 330.956 58.7278  -2 
   5   8  13 330.956 58.7278   1 
   6   8  13 102.198 52.0796  -2 
   6   8  13 102.198 52.0796   1 
   7   8  13 1266.68 84.1955  -2 
   7   8  13 1266.68 84.1955   1 
   8   8  13 639.738 74.4227  -2 
   8   8  13 639.738 74.4227   1 
   9   8  13 349.006 109.917  -2 
   9   8  13 349.006 109.917   1 
  10   8  13 836.466 84.1954  -2 
  10   8  13 836.466 84.1954   1 
  11   8  13 -45.642 98.1983  -2 
  11   8  13 -45.642 98.1983   1 
  -2   9  13 626.882 77.1151  -2 
  -2   9  13 626.882 77.1151   1 
  -1   9  13 52.6929 50.6452  -2 
  -1   9  13 52.6929 50.6452   1 
   0   9  13 140.358 54.2161  -2 
   0   9  13 140.358 54.2161   1 
   1   9  13 386.552 63.5193  -2 
   1   9  13 386.552 63.5193   1 
   2   9  13 525.876 64.3867  -2 
   2   9  13 525.876 64.3867   1 
   3   9  13 31.8152 48.2710  -2 
   3   9  13 31.8152 48.2710   1 
   4   9  13 920.222 75.8532  -2 
   4   9  13 920.222 75.8532   1 
   5   9  13 941.137 77.9261  -2 
   5   9  13 941.137 77.9261   1 
   6   9  13 -11.946 49.1203  -2 
   6   9  13 -11.946 49.1203   1 
   7   9  13 891.630 65.4557  -2 
   7   9  13 891.630 65.4557   1 
   8   9  13 686.007 61.8358  -2 
   8   9  13 686.007 61.8358   1 
   9   9  13 -4.9436 59.6729  -2 
   9   9  13 -4.9436 59.6729   1 
  10   9  13 344.042 70.6549  -2 
  10   9  13 344.042 70.6549   1 
  11   9  13 637.049 135.304  -2 
  11   9  13 637.049 135.304   1 
  -2  10  13 117.743 68.1930   1 
  -1  10  13 430.357 102.425  -2 
  -1  10  13 430.357 102.425   1 
   0  10  13 359.475 62.2146  -2 
   0  10  13 359.475 62.2146   1 
   1  10  13 -14.447 51.2067  -2 
   1  10  13 -14.447 51.2067   1 
   2  10  13 1052.43 81.9550  -2 
   2  10  13 1052.43 81.9550   1 
   3  10  13 526.354 65.4474  -2 
   3  10  13 526.354 65.4474   1 
   4  10  13 66.5822 91.3727  -2 
   4  10  13 66.5822 91.3727   1 
   5  10  13 804.446 75.3649  -2 
   5  10  13 804.446 75.3649   1 
   6  10  13 695.267 74.4772  -2 
   6  10  13 695.267 74.4772   1 
   7  10  13 11.4114 45.6286  -2 
   7  10  13 11.4114 45.6286   1 
   8  10  13 689.972 62.5489  -2 
   8  10  13 689.972 62.5489   1 
   9  10  13 737.532 64.9795  -2 
   9  10  13 737.532 64.9795   1 
  10  10  13 86.3303 62.8529  -2 
  10  10  13 86.3303 62.8529   1 
  11  10  13 221.021 60.8265   1 
   0  11  13 290.033 60.2577  -2 
   0  11  13 290.033 60.2577   1 
   1  11  13 186.668 58.1234  -2 
   1  11  13 186.668 58.1234   1 
   2  11  13 363.957 62.7502  -2 
   2  11  13 363.957 62.7502   1 
   3  11  13 870.523 77.2710  -2 
   3  11  13 870.523 77.2710   1 
   4  11  13 6.44487 51.0415  -2 
   4  11  13 6.44487 51.0415   1 
   5  11  13 378.119 63.5783  -2 
   5  11  13 378.119 63.5783   1 
   6  11  13 405.799 66.1226  -2 
   6  11  13 405.799 66.1226   1 
   7  11  13 22.8764 56.1489  -2 
   7  11  13 22.8764 56.1489   1 
   8  11  13 -3.8767 54.1083  -2 
   8  11  13 -3.8767 54.1083   1 
   9  11  13 468.107 71.5000  -2 
   9  11  13 468.107 71.5000   1 
  10  11  13 441.535 71.1396  -2 
  10  11  13 441.535 71.1396   1 
   1  12  13 446.680 67.7784  -2 
   1  12  13 446.680 67.7784   1 
   2  12  13 5.10885 52.0823  -2 
   2  12  13 5.10885 52.0823   1 
   3  12  13 241.959 60.8422  -2 
   3  12  13 241.959 60.8422   1 
   4  12  13 537.844 69.4799  -2 
   4  12  13 537.844 69.4799   1 
   5  12  13 265.835 60.2605  -2 
   5  12  13 265.835 60.2605   1 
   6  12  13 76.6145 55.2929  -2 
   6  12  13 76.6145 55.2929   1 
   7  12  13 1178.93 88.8726  -2 
   7  12  13 1178.93 88.8726   1 
   8  12  13 463.284 60.5344  -2 
   8  12  13 463.284 60.5344   1 
   9  12  13 20.3770 57.6830  -2 
   9  12  13 20.3770 57.6830   1 
   2  13  13 210.466 73.6118  -2 
   2  13  13 210.466 73.6118   1 
   3  13  13 -14.006 53.0097  -2 
   3  13  13 -14.006 53.0097   1 
   4  13  13 253.188 61.8107  -2 
   4  13  13 253.188 61.8107   1 
   5  13  13 450.025 68.3476  -2 
   5  13  13 450.025 68.3476   1 
   6  13  13 106.741 57.2914  -2 
   6  13  13 106.741 57.2914   1 
   7  13  13 43.5504 55.7807  -2 
   7  13  13 43.5504 55.7807   1 
   8  13  13 450.788 71.2975  -2 
   8  13  13 450.788 71.2975   1 
   5  14  13 627.238 90.0485  -2 
   5  14  13 627.238 90.0485   1 
   6  14  13 754.990 93.7808  -2 
   6  14  13 754.990 93.7808   1 
   2  -2  14 235.958 76.7503  -2 
   1  -2  14 235.958 76.7503   1 
   4  -2  14 279.557 93.6850   1 
   5  -2  14 262.346 89.8211   1 
   6  -2  14 6.97407 44.2377   1 
  -1  -1  14 383.050 60.3823   1 
   0  -1  14 61.1032 31.9384   1 
   1  -1  14 153.341 47.8489   1 
   5  -1  14 167.921 62.6225   1 
   6  -1  14 336.253 89.1425   1 
   7  -1  14 33.7705 56.0597   1 
  -1   0  14 274.504 53.0368   1 
   0   0  14 109.997 35.3199   1 
   1   0  14 23.9243 39.8460   1 
   5   0  14 10.6112 45.8179   1 
   6   0  14 743.627 116.258   1 
   7   0  14 140.075 41.9414   1 
   8   0  14 58.4199 30.9874   1 
  -2   1  14 156.274 41.7718   1 
  -1   1  14 53.6136 29.9498   1 
   0   1  14 205.005 117.093  -2 
   0   1  14 205.005 117.093   1 
   5   1  14 254.168 46.5197   1 
   6   1  14 129.889 34.9019   1 
   7   1  14 635.852 62.0681   1 
   8   1  14 504.295 58.5174   1 
   9   1  14 3.69266 26.3360   1 
  -2   2  14 217.182 44.3504   1 
  -1   2  14 167.636 70.7540   1 
   0   2  14 55.1234 110.030  -2 
   0   2  14 55.1234 110.030   1 
   1   2  14 448.097 119.463  -2 
   1   2  14 448.097 119.463   1 
   2   2  14 467.301 114.528  -2 
   2   2  14 467.301 114.528   1 
   3   2  14 23.0883 28.2574   1 
   4   2  14 391.571 59.7577   1 
   5   2  14 392.870 49.4846   1 
   6   2  14 11.2411 21.8973   1 
   7   2  14 151.815 37.4332   1 
   8   2  14 477.656 57.8297   1 
   9   2  14 93.8617 34.2824   1 
  10   2  14 45.0627 31.7157   1 
  -2   3  14 2.23306 51.0168   1 
  -1   3  14 972.252 129.082   1 
   0   3  14 431.480 127.598  -2 
   0   3  14 431.480 127.598   1 
   1   3  14 81.1585 109.895  -2 
   1   3  14 81.1585 109.895   1 
   2   3  14 699.806 123.265  -2 
   2   3  14 699.806 123.265   1 
   3   3  14 312.988 100.107  -2 
   3   3  14 312.988 100.107   1 
   4   3  14 35.0510 24.6355   1 
   5   3  14 224.290 48.2534   1 
   6   3  14 1208.26 140.955  -2 
   6   3  14 1208.26 140.955   1 
   7   3  14 18.7782 24.9990   1 
   8   3  14 251.758 49.1091   1 
   9   3  14 150.015 38.8877   1 
  10   3  14 31.6036 26.4543   1 
  -2   4  14 123.485 127.407  -2 
  -2   4  14 123.485 127.407   1 
  -1   4  14 105.126 124.471  -2 
  -1   4  14 105.126 124.471   1 
   0   4  14 491.409 133.527  -2 
   0   4  14 491.409 133.527   1 
   1   4  14 280.489 116.814  -2 
   1   4  14 280.489 116.814   1 
   2   4  14 181.212 105.476  -2 
   2   4  14 181.212 105.476   1 
   3   4  14 700.655 118.145  -2 
   3   4  14 700.655 118.145   1 
   4   4  14 512.933 100.221  -2 
   4   4  14 512.933 100.221   1 
   5   4  14 11.4190 25.6537   1 
   6   4  14 300.794 48.7862   1 
   7   4  14 110.450 97.6943  -2 
   7   4  14 110.450 97.6943   1 
   8   4  14 29.8926 26.7660   1 
   9   4  14 29.5026 27.1939   1 
  10   4  14 276.952 50.4768   1 
  -2   5  14 474.153 145.286  -2 
  -2   5  14 474.153 145.286   1 
  -1   5  14 145.035 125.721  -2 
  -1   5  14 145.035 125.721   1 
   0   5  14 367.391 131.433  -2 
   0   5  14 367.391 131.433   1 
   1   5  14 812.683 141.687  -2 
   1   5  14 812.683 141.687   1 
   2   5  14 286.283 110.275  -2 
   2   5  14 286.283 110.275   1 
   3   5  14 55.3054 89.2626  -2 
   3   5  14 55.3054 89.2626   1 
   4   5  14 815.327 118.635  -2 
   4   5  14 815.327 118.635   1 
   5   5  14 412.913 93.5802  -2 
   5   5  14 412.913 93.5802   1 
   6   5  14 -14.029 23.4600   1 
   7   5  14 667.366 70.4617  -2 
   7   5  14 667.366 70.4617   1 
   8   5  14 1029.32 82.1573  -2 
   8   5  14 1029.32 82.1573   1 
   9   5  14 19.7275 26.5488   1 
  10   5  14 104.227 109.144  -2 
  10   5  14 104.227 109.144   1 
  11   5  14 443.930 84.0420   1 
  -2   6  14 64.5448 127.338  -2 
  -2   6  14 64.5448 127.338   1 
  -1   6  14 470.233 141.676  -2 
  -1   6  14 470.233 141.676   1 
   0   6  14 164.574 117.752  -2 
   0   6  14 164.574 117.752   1 
   1   6  14 299.096 118.972  -2 
   1   6  14 299.096 118.972   1 
   2   6  14 641.491 126.687  -2 
   2   6  14 641.491 126.687   1 
   3   6  14 97.5049 93.3766  -2 
   3   6  14 97.5049 93.3766   1 
   4   6  14 62.5788 96.0156  -2 
   4   6  14 62.5788 96.0156   1 
   5   6  14 296.156 99.0755  -2 
   5   6  14 296.156 99.0755   1 
   6   6  14 492.454 78.9585  -2 
   6   6  14 492.454 78.9585   1 
   7   6  14 -10.744 53.3840  -2 
   7   6  14 -10.744 53.3840   1 
   8   6  14 1189.25 87.6725  -2 
   8   6  14 1189.25 87.6725   1 
   9   6  14 645.792 126.461  -2 
   9   6  14 645.792 126.461   1 
  10   6  14 1.18512 95.0208  -2 
  10   6  14 1.18512 95.0208   1 
  11   6  14 168.261 62.5752   1 
  -2   7  14 24.2665 38.5265   1 
  -1   7  14 647.726 149.150  -2 
  -1   7  14 647.726 149.150   1 
   0   7  14 610.195 136.777  -2 
   0   7  14 610.195 136.777   1 
   1   7  14 98.6859 107.494  -2 
   1   7  14 98.6859 107.494   1 
   2   7  14 112.151 108.200  -2 
   2   7  14 112.151 108.200   1 
   3   7  14 693.975 130.470  -2 
   3   7  14 693.975 130.470   1 
   4   7  14 659.834 69.1327  -2 
   4   7  14 659.834 69.1327   1 
   5   7  14 385.300 61.6541  -2 
   5   7  14 385.300 61.6541   1 
   6   7  14 1488.34 89.0159  -2 
   6   7  14 1488.34 89.0159   1 
   7   7  14 231.638 61.1189  -2 
   7   7  14 231.638 61.1189   1 
   8   7  14 54.3059 58.9379  -2 
   8   7  14 54.3059 58.9379   1 
   9   7  14 483.898 75.7227  -2 
   9   7  14 483.898 75.7227   1 
  10   7  14 170.533 42.0367   1 
  11   7  14 26.9015 36.3709   1 
  -2   8  14 210.758 62.8731   1 
  -1   8  14 75.0097 55.6757  -2 
  -1   8  14 75.0097 55.6757   1 
   0   8  14 568.710 69.7803  -2 
   0   8  14 568.710 69.7803   1 
   1   8  14 554.510 131.538  -2 
   1   8  14 554.510 131.538   1 
   2   8  14 71.5542 50.0401  -2 
   2   8  14 71.5542 50.0401   1 
   3   8  14 437.314 64.2975  -2 
   3   8  14 437.314 64.2975   1 
   4   8  14 827.280 77.8442  -2 
   4   8  14 827.280 77.8442   1 
   5   8  14 146.650 55.7931  -2 
   5   8  14 146.650 55.7931   1 
   6   8  14 182.074 56.5890  -2 
   6   8  14 182.074 56.5890   1 
   7   8  14 440.856 65.4714  -2 
   7   8  14 440.856 65.4714   1 
   8   8  14 114.341 60.8153  -2 
   8   8  14 114.341 60.8153   1 
   9   8  14 104.192 65.0347  -2 
   9   8  14 104.192 65.0347   1 
  10   8  14 245.576 111.387  -2 
  10   8  14 245.576 111.387   1 
  11   8  14 43.2857 46.8388   1 
  -1   9  14 349.967 80.0280  -2 
  -1   9  14 349.967 80.0280   1 
   0   9  14 26.3358 52.4418  -2 
   0   9  14 26.3358 52.4418   1 
   1   9  14 842.261 77.8581  -2 
   1   9  14 842.261 77.8581   1 
   2   9  14 925.627 80.0005  -2 
   2   9  14 925.627 80.0005   1 
   3   9  14 108.449 54.6056  -2 
   3   9  14 108.449 54.6056   1 
   4   9  14 929.949 81.5392  -2 
   4   9  14 929.949 81.5392   1 
   5   9  14 705.816 75.5757  -2 
   5   9  14 705.816 75.5757   1 
   6   9  14 34.3071 53.9854  -2 
   6   9  14 34.3071 53.9854   1 
   7   9  14 304.961 64.9943  -2 
   7   9  14 304.961 64.9943   1 
   8   9  14 580.290 76.5547  -2 
   8   9  14 580.290 76.5547   1 
   9   9  14 92.3732 64.3038  -2 
   9   9  14 92.3732 64.3038   1 
  10   9  14 140.851 69.2919  -2 
  10   9  14 140.851 69.2919   1 
   0  10  14 368.532 69.4919  -2 
   0  10  14 368.532 69.4919   1 
   1  10  14 219.015 60.1164  -2 
   1  10  14 219.015 60.1164   1 
   2  10  14 423.233 68.0497  -2 
   2  10  14 423.233 68.0497   1 
   3  10  14 85.5801 55.4392  -2 
   3  10  14 85.5801 55.4392   1 
   4  10  14 48.2375 53.5019  -2 
   4  10  14 48.2375 53.5019   1 
   5  10  14 208.299 62.9433  -2 
   5  10  14 208.299 62.9433   1 
   6  10  14 834.620 81.7921  -2 
   6  10  14 834.620 81.7921   1 
   7  10  14 21.1477 55.3889  -2 
   7  10  14 21.1477 55.3889   1 
   8  10  14 459.616 71.9273  -2 
   8  10  14 459.616 71.9273   1 
   9  10  14 506.845 73.7045  -2 
   9  10  14 506.845 73.7045   1 
  10  10  14 132.121 66.5566  -2 
  10  10  14 132.121 66.5566   1 
   1  11  14 75.3290 55.5281  -2 
   1  11  14 75.3290 55.5281   1 
   2  11  14 73.2408 112.804  -2 
   2  11  14 73.2408 112.804   1 
   3  11  14 762.255 78.6289  -2 
   3  11  14 762.255 78.6289   1 
   4  11  14 160.612 58.4183  -2 
   4  11  14 160.612 58.4183   1 
   5  11  14 63.5683 56.7291  -2 
   5  11  14 63.5683 56.7291   1 
   6  11  14 537.990 74.8184  -2 
   6  11  14 537.990 74.8184   1 
   7  11  14 473.418 74.3556  -2 
   7  11  14 473.418 74.3556   1 
   8  11  14 43.5771 60.2671  -2 
   8  11  14 43.5771 60.2671   1 
   9  11  14 300.591 69.6234  -2 
   9  11  14 300.591 69.6234   1 
   3  12  14 21.6241 56.5544  -2 
   3  12  14 21.6241 56.5544   1 
   4  12  14 522.793 72.9117  -2 
   4  12  14 522.793 72.9117   1 
   5  12  14 463.770 71.5708  -2 
   5  12  14 463.770 71.5708   1 
   6  12  14 26.1723 57.5445  -2 
   6  12  14 26.1723 57.5445   1 
   7  12  14 335.213 71.0811  -2 
   7  12  14 335.213 71.0811   1 
   8  12  14 417.514 74.9230  -2 
   8  12  14 417.514 74.9230   1 
   5  13  14 657.740 95.6355  -2 
   5  13  14 657.740 95.6355   1 
   6  13  14 336.507 82.0406  -2 
   6  13  14 336.507 82.0406   1 
   6   0  15 495.199 107.045   1 
   0   1  15 371.877 132.175  -2 
   0   1  15 371.877 132.175   1 
   1   1  15 277.682 95.0578   1 
   6   1  15 73.0787 54.8702   1 
   7   1  15 461.073 61.5428   1 
   8   1  15 142.477 71.5675   1 
   0   2  15 6.01494 50.6320   1 
   1   2  15 67.3001 111.750  -2 
   1   2  15 67.3001 111.750   1 
   5   2  15 526.048 69.5102   1 
   6   2  15 32.4779 27.0559   1 
   7   2  15 34.8475 27.7077   1 
   8   2  15 195.448 43.4474   1 
  -1   3  15 198.163 79.3535   1 
   0   3  15 343.375 136.800  -2 
   0   3  15 343.375 136.800   1 
   1   3  15 42.1395 109.931  -2 
   1   3  15 42.1395 109.931   1 
   2   3  15 271.773 116.662  -2 
   2   3  15 271.773 116.662   1 
   3   3  15 283.033 61.8977   1 
   4   3  15 54.8438 32.3373   1 
   5   3  15 6.23850 29.0322   1 
   6   3  15 335.679 63.0151   1 
   7   3  15 237.860 46.0191   1 
   8   3  15 1.17232 23.7990   1 
   9   3  15 290.732 54.3212   1 
   0   4  15 637.941 147.947  -2 
   0   4  15 637.941 147.947   1 
   1   4  15 370.443 128.243  -2 
   1   4  15 370.443 128.243   1 
   2   4  15 83.8635 104.030  -2 
   2   4  15 83.8635 104.030   1 
   3   4  15 403.136 67.0588   1 
   4   4  15 341.780 62.3623   1 
   5   4  15 68.2624 36.2841   1 
   6   4  15 81.6436 38.9549   1 
   7   4  15 307.657 51.8310   1 
   8   4  15 134.796 37.7666   1 
   9   4  15 154.147 40.5493   1 
   0   5  15 157.962 130.210  -2 
   0   5  15 157.962 130.210   1 
   1   5  15 443.715 132.698  -2 
   1   5  15 443.715 132.698   1 
   2   5  15 741.575 134.950  -2 
   2   5  15 741.575 134.950   1 
   3   5  15 202.600 104.775  -2 
   3   5  15 202.600 104.775   1 
   4   5  15 662.988 119.921  -2 
   4   5  15 662.988 119.921   1 
   5   5  15 933.180 72.8292   1 
   6   5  15 3.73876 28.1912   1 
   7   5  15 430.619 85.9221  -2 
   7   5  15 430.619 85.9221   1 
   8   5  15 364.081 53.6802   1 
   9   5  15 14.6939 26.9495   1 
  10   5  15 11.4708 36.8829   1 
  -1   6  15 179.459 51.2020   1 
   0   6  15 443.863 141.623  -2 
   0   6  15 443.863 141.623   1 
   1   6  15 234.124 125.370  -2 
   1   6  15 234.124 125.370   1 
   2   6  15 990.743 148.983  -2 
   2   6  15 990.743 148.983   1 
   3   6  15 311.820 114.330  -2 
   3   6  15 311.820 114.330   1 
   4   6  15 111.863 42.4953   1 
   5   6  15 605.257 72.5341   1 
   6   6  15 255.854 76.8709  -2 
   6   6  15 255.854 76.8709   1 
   7   6  15 -3.9416 26.7983   1 
   8   6  15 429.294 73.0332  -2 
   8   6  15 429.294 73.0332   1 
   9   6  15 338.783 56.4468   1 
  10   6  15 1.93478 28.3664   1 
   0   7  15 1035.31 159.950  -2 
   0   7  15 1035.31 159.950   1 
   1   7  15 396.623 137.560  -2 
   1   7  15 396.623 137.560   1 
   2   7  15 209.307 117.702  -2 
   2   7  15 209.307 117.702   1 
   3   7  15 1015.52 153.047  -2 
   3   7  15 1015.52 153.047   1 
   4   7  15 236.084 113.786  -2 
   4   7  15 236.084 113.786   1 
   5   7  15 77.4487 56.0378  -2 
   5   7  15 77.4487 56.0378   1 
   6   7  15 437.139 64.5863  -2 
   6   7  15 437.139 64.5863   1 
   7   7  15 201.230 77.1593  -2 
   7   7  15 201.230 77.1593   1 
   8   7  15 -12.188 72.9210  -2 
   8   7  15 -12.188 72.9210   1 
   9   7  15 422.062 122.506  -2 
   9   7  15 422.062 122.506   1 
  10   7  15 202.014 53.6995   1 
   0   8  15 400.506 72.7959   1 
   1   8  15 347.015 134.291  -2 
   1   8  15 347.015 134.291   1 
   2   8  15 29.4646 50.1630  -2 
   2   8  15 29.4646 50.1630   1 
   3   8  15 135.198 53.3171  -2 
   3   8  15 135.198 53.3171   1 
   4   8  15 316.338 65.8435  -2 
   4   8  15 316.338 65.8435   1 
   5   8  15 259.157 63.4644  -2 
   5   8  15 259.157 63.4644   1 
   6   8  15 35.5262 55.4962  -2 
   6   8  15 35.5262 55.4962   1 
   7   8  15 283.283 101.210  -2 
   7   8  15 283.283 101.210   1 
   8   8  15 113.485 79.0453  -2 
   8   8  15 113.485 79.0453   1 
   9   8  15 148.782 67.5017  -2 
   9   8  15 148.782 67.5017   1 
  10   8  15 82.0665 63.4833   1 
   1   9  15 307.170 67.3601  -2 
   1   9  15 307.170 67.3601   1 
   2   9  15 730.606 78.0774  -2 
   2   9  15 730.606 78.0774   1 
   3   9  15 210.588 59.7631  -2 
   3   9  15 210.588 59.7631   1 
   4   9  15 377.449 66.6912  -2 
   4   9  15 377.449 66.6912   1 
   5   9  15 643.181 77.0238  -2 
   5   9  15 643.181 77.0238   1 
   6   9  15 111.535 60.0588  -2 
   6   9  15 111.535 60.0588   1 
   7   9  15 66.6196 59.0556  -2 
   7   9  15 66.6196 59.0556   1 
   8   9  15 338.560 91.8672  -2 
   8   9  15 338.560 91.8672   1 
   9   9  15 435.481 78.7388  -2 
   9   9  15 435.481 78.7388   1 
   2  10  15 168.578 62.5561  -2 
   2  10  15 168.578 62.5561   1 
   3  10  15 449.546 70.4211  -2 
   3  10  15 449.546 70.4211   1 
   4  10  15 71.8339 57.5720  -2 
   4  10  15 71.8339 57.5720   1 
   5  10  15 187.852 64.4170  -2 
   5  10  15 187.852 64.4170   1 
   6  10  15 579.912 78.4045  -2 
   6  10  15 579.912 78.4045   1 
   7  10  15 70.0486 62.3964  -2 
   7  10  15 70.0486 62.3964   1 
   8  10  15 234.133 71.0418  -2 
   8  10  15 234.133 71.0418   1 
   4  11  15 324.833 68.6073  -2 
   4  11  15 324.833 68.6073   1 
   5  11  15 -6.6089 60.7470  -2 
   5  11  15 -6.6089 60.7470   1 
   6  11  15 245.535 70.5987  -2 
   6  11  15 245.535 70.5987   1 
   7  11  15 1279.49 100.088  -2 
   7  11  15 1279.49 100.088   1 
   8  11  15 67.2469 110.250  -2 
   8  11  15 67.2469 110.250   1 
   6   3  16 502.509 72.8757   1 
   7   3  16 46.2155 36.7679   1 
   2   4  16 191.766 116.467  -2 
   2   4  16 191.766 116.467   1 
   3   4  16 410.913 78.8881   1 
   4   4  16 481.649 73.1778   1 
   5   4  16 31.9149 33.9113   1 
   6   4  16 56.8484 37.3182   1 
   7   4  16 386.074 69.1126   1 
   8   4  16 129.221 40.9805   1 
   2   5  16 571.503 133.612  -2 
   2   5  16 571.503 133.612   1 
   3   5  16 -4.5173 30.9413   1 
   4   5  16 166.206 50.3304   1 
   5   5  16 226.763 59.7866   1 
   6   5  16 9.94567 28.1030   1 
   7   5  16 53.6302 36.1776   1 
   8   5  16 164.341 41.7780   1 
   1   6  16 146.894 51.5461   1 
   2   6  16 544.124 138.336  -2 
   2   6  16 544.124 138.336   1 
   3   6  16 82.3826 41.9874   1 
   4   6  16 34.5989 36.4585   1 
   5   6  16 376.812 68.5635   1 
   6   6  16 382.451 67.6482   1 
   7   6  16 -13.507 29.1543   1 
   8   6  16 255.516 63.2642   1 
   2   7  16 5.75824 32.1928   1 
   3   7  16 283.400 64.9719   1 
   4   7  16 254.261 64.4118   1 
   5   7  16 8.95347 30.5737   1 
   6   7  16 230.774 59.2666   1 
   7   7  16 109.571 74.5558  -2 
   7   7  16 109.571 74.5558   1 
   8   7  16 41.0526 35.2176   1 
   2   8  16 78.7806 66.3142  -2 
   2   8  16 78.7806 66.3142   1 
   3   8  16 21.9902 33.5233   1 
   4   8  16 381.871 84.4760  -2 
   4   8  16 381.871 84.4760   1 
   5   8  16 243.289 62.5420   1 
   6   8  16 -1.1595 68.7767  -2 
   6   8  16 -1.1595 68.7767   1 
   7   8  16 495.087 98.6008  -2 
   7   8  16 495.087 98.6008   1 
   4   9  16 78.5968 59.8771  -2 
   4   9  16 78.5968 59.8771   1 
   5   9  16 352.798 88.9410  -2 
   5   9  16 352.798 88.9410   1 
   6   9  16 450.039 91.0409  -2 
   6   9  16 450.039 91.0409   1 
   7   9  16 -11.858 102.736  -2 
   7   9  16 -11.858 102.736   1 
   0   0   0    0.00    0.00   0 
;
_shelx_hkl_checksum              47163
loop_
_space_group_symop_operation_xyz
'x, y, z'
'-x, -y, -z'
loop_
_atom_site_label
_atom_site_type_symbol
_atom_site_fract_x
_atom_site_fract_y
_atom_site_fract_z
_atom_site_U_iso_or_equiv
_atom_site_adp_type
_atom_site_occupancy
_atom_site_site_symmetry_order
_atom_site_calc_flag
_atom_site_refinement_flags_posn
Pu1 Pu 0.65506(2) 0.36068(2) 0.46652(2) 0.00505(5) Uani 1 1 d .
K1 K 0.78316(14) -0.06445(11) 0.56519(13) 0.0110(2) Uani 1 1 d .
K2 K 1.29691(15) 0.47815(11) 0.20839(14) 0.0143(3) Uani 1 1 d .
K3 K 0.35043(14) 0.10242(11) 0.72621(13) 0.0127(2) Uani 1 1 d .
K4 K 0.78391(16) 0.63187(12) 0.06529(14) 0.0178(3) Uani 1 1 d .
O1 O 0.6846(5) 0.1538(3) 0.6710(4) 0.0108(8) Uani 1 1 d .
O2 O 0.7905(4) 0.3426(3) 0.6274(4) 0.0100(8) Uani 1 1 d .
O3 O 0.5929(5) 0.3546(3) 0.2742(4) 0.0103(8) Uani 1 1 d .
O4 O 0.5631(4) 0.1625(3) 0.4601(4) 0.0085(7) Uani 1 1 d .
O5 O 0.9000(5) 0.4405(3) 0.2935(4) 0.0133(8) Uani 1 1 d .
O6 O 0.6318(5) 0.5918(4) 0.4596(4) 0.0144(8) Uani 1 1 d .
O7 O 0.5728(5) 0.5996(4) 0.3458(4) 0.0149(8) Uani 1 1 d .
O8 O 0.5006(4) 0.1717(4) 0.2750(4) 0.0120(8) Uani 1 1 d .
O9 O 0.8030(5) 0.1562(4) 0.8196(4) 0.0136(8) Uani 1 1 d .
O10 O 1.1247(5) 0.2946(4) 0.2129(4) 0.0125(8) Uani 1 1 d .
O11 O 0.9044(4) 0.2097(3) 0.3826(4) 0.0103(8) Uani 1 1 d .
C1 C 0.5505(6) 0.2244(5) 0.3364(6) 0.0088(10) Uani 1 1 d .
C2 C 0.7585(6) 0.2146(5) 0.7102(6) 0.0094(10) Uani 1 1 d .
C3 C 0.9850(7) 0.3137(5) 0.2927(6) 0.0108(11) Uani 1 1 d .
OW1 O 0.8581(5) -0.3193(4) 0.5114(5) 0.0189(9) Uani 1 1 d D
H1 H 0.796(5) -0.356(5) 0.490(6) 0.008(15) Uiso 1 1 d D
H1A H 0.966(3) -0.322(6) 0.461(6) 0.018(17) Uiso 1 1 d D
OW2 O 0.3341(6) 0.0789(4) 0.9873(5) 0.0228(10) Uani 1 1 d D
H2 H 0.290(8) 0.003(5) 1.054(5) 0.03(2) Uiso 1 1 d D
H2A H 0.409(7) 0.097(8) 1.015(8) 0.06(3) Uiso 1 1 d D
OW3 O 0.0542(5) 0.2721(4) 0.8134(5) 0.0202(10) Uani 1 1 d .
OW4 O 0.8350(5) 0.3769(4) 0.0268(5) 0.0232(10) Uani 1 1 d .
OW5 O 1.5210(6) 0.2839(5) -0.0013(5) 0.0256(10) Uani 1 1 d D
H5 H 1.616(8) 0.251(12) -0.055(11) 0.16(5) Uiso 1 1 d D
H5A H 1.507(10) 0.240(7) 0.090(3) 0.06(3) Uiso 1 1 d D
OW6 O 0.1063(5) -0.0297(4) 0.7475(5) 0.0245(11) Uani 1 1 d D
H6 H 0.090(8) -0.102(5) 0.732(7) 0.031(19) Uiso 1 1 d D
H6A H 0.003(3) 0.015(5) 0.774(6) 0.012(15) Uiso 1 1 d D
loop_
_atom_site_aniso_label
_atom_site_aniso_U_11
_atom_site_aniso_U_22
_atom_site_aniso_U_33
_atom_site_aniso_U_23
_atom_site_aniso_U_13
_atom_site_aniso_U_12
Pu1 0.00525(9) 0.00347(7) 0.00691(10) -0.00189(6) -0.00260(7) 0.00005(6)
K1 0.0103(5) 0.0079(5) 0.0144(6) -0.0038(4) -0.0044(5) 0.0006(4)
K2 0.0154(6) 0.0122(5) 0.0158(7) -0.0034(5) -0.0062(5) -0.0023(4)
K3 0.0117(6) 0.0106(5) 0.0139(7) -0.0040(5) -0.0015(5) -0.0019(4)
K4 0.0240(7) 0.0173(6) 0.0128(7) -0.0060(5) -0.0049(6) -0.0034(5)
O1 0.016(2) 0.0063(15) 0.011(2) -0.0010(15) -0.0072(17) -0.0012(14)
O2 0.0125(19) 0.0058(15) 0.012(2) 0.0015(15) -0.0062(17) -0.0045(14)
O3 0.017(2) 0.0047(15) 0.008(2) 0.0009(14) -0.0052(17) -0.0018(14)
O4 0.0132(19) 0.0046(15) 0.008(2) 0.0002(14) -0.0057(16) -0.0009(13)
O5 0.014(2) 0.0070(16) 0.019(2) -0.0053(16) -0.0061(18) 0.0013(14)
O6 0.013(2) 0.0117(17) 0.017(2) -0.0057(17) -0.0031(18) 0.0005(15)
O7 0.015(2) 0.0165(18) 0.010(2) -0.0014(16) -0.0061(18) 0.0010(15)
O8 0.0103(19) 0.0142(17) 0.018(2) -0.0092(17) -0.0061(17) -0.0022(14)
O9 0.019(2) 0.0118(17) 0.010(2) 0.0002(16) -0.0096(18) 0.0003(15)
O10 0.0096(19) 0.0141(17) 0.012(2) -0.0034(16) -0.0043(17) 0.0008(15)
O11 0.0105(18) 0.0075(16) 0.011(2) -0.0016(15) -0.0037(16) -0.0003(14)
C1 0.004(2) 0.010(2) 0.013(3) -0.007(2) -0.002(2) 0.0022(18)
C2 0.007(2) 0.010(2) 0.009(3) -0.004(2) 0.000(2) -0.0017(19)
C3 0.017(3) 0.008(2) 0.010(3) 0.000(2) -0.010(2) 0.000(2)
OW1 0.016(2) 0.019(2) 0.026(3) -0.012(2) -0.006(2) -0.0007(18)
OW2 0.025(3) 0.016(2) 0.026(3) -0.002(2) -0.012(2) -0.0038(19)
OW3 0.020(2) 0.0175(19) 0.027(3) -0.0106(19) -0.011(2) 0.0015(17)
OW4 0.029(3) 0.018(2) 0.017(3) -0.0027(18) -0.002(2) -0.0078(18)
OW5 0.023(3) 0.033(2) 0.016(3) -0.006(2) -0.010(2) 0.008(2)
OW6 0.016(2) 0.020(2) 0.044(3) -0.022(2) -0.006(2) 0.0020(18)
loop_
_atom_type_symbol
_atom_type_description
_atom_type_scat_dispersion_real
_atom_type_scat_dispersion_imag
_atom_type_scat_source
C C 0.0033 0.0016 'International Tables Vol C Tables 4.2.6.8 and 6.1.1.4'
H H 0.0000 0.0000 'International Tables Vol C Tables 4.2.6.8 and 6.1.1.4'
O O 0.0106 0.0060 'International Tables Vol C Tables 4.2.6.8 and 6.1.1.4'
K K 0.2009 0.2494 'International Tables Vol C Tables 4.2.6.8 and 6.1.1.4'
Pu Pu -9.4100 4.3056 'International Tables Vol C Tables 4.2.6.8 and 6.1.1.4'
loop_
_geom_angle_atom_site_label_1
_geom_angle_atom_site_label_2
_geom_angle_atom_site_label_3
_geom_angle
_geom_angle_site_symmetry_1
_geom_angle_site_symmetry_3
O6 Pu1 O6 82.42(13) . 2_666
O6 Pu1 O7 37.15(13) . .
O6 Pu1 O7 71.48(13) 2_666 .
O6 Pu1 O7 71.61(13) . 2_666
O6 Pu1 O7 36.77(13) 2_666 2_666
O7 Pu1 O7 84.29(14) . 2_666
O6 Pu1 O5 76.36(12) . .
O6 Pu1 O5 145.63(13) 2_666 .
O7 Pu1 O5 75.29(13) . .
O7 Pu1 O5 146.78(11) 2_666 .
O6 Pu1 O3 111.61(13) . .
O6 Pu1 O3 79.51(13) 2_666 .
O7 Pu1 O3 74.66(12) . .
O7 Pu1 O3 116.22(13) 2_666 .
O5 Pu1 O3 83.56(13) . .
O6 Pu1 O2 74.77(13) . .
O6 Pu1 O2 115.80(13) 2_666 .
O7 Pu1 O2 111.51(12) . .
O7 Pu1 O2 79.03(13) 2_666 .
O5 Pu1 O2 84.38(13) . .
O3 Pu1 O2 164.48(12) . .
O6 Pu1 O4 155.09(13) . .
O6 Pu1 O4 75.01(11) 2_666 .
O7 Pu1 O4 122.73(13) . .
O7 Pu1 O4 95.37(12) 2_666 .
O5 Pu1 O4 117.68(11) . .
O3 Pu1 O4 54.33(12) . .
O2 Pu1 O4 124.67(12) . .
O6 Pu1 O11 127.17(12) . .
O6 Pu1 O11 149.56(11) 2_666 .
O7 Pu1 O11 126.07(13) . .
O7 Pu1 O11 148.95(13) 2_666 .
O5 Pu1 O11 53.96(11) . .
O3 Pu1 O11 82.10(12) . .
O2 Pu1 O11 82.92(12) . .
O4 Pu1 O11 74.56(11) . .
O6 Pu1 O1 122.51(13) . .
O6 Pu1 O1 96.63(13) 2_666 .
O7 Pu1 O1 155.99(12) . .
O7 Pu1 O1 74.48(12) 2_666 .
O5 Pu1 O1 117.54(13) . .
O3 Pu1 O1 124.79(11) . .
O2 Pu1 O1 53.99(11) . .
O4 Pu1 O1 71.32(12) . .
O11 Pu1 O1 74.47(12) . .
O6 Pu1 C2 98.63(14) . .
O6 Pu1 C2 106.95(14) 2_666 .
O7 Pu1 C2 135.62(13) . .
O7 Pu1 C2 74.07(14) 2_666 .
O5 Pu1 C2 102.76(14) . .
O3 Pu1 C2 149.72(12) . .
O2 Pu1 C2 27.27(12) . .
O4 Pu1 C2 97.91(13) . .
O11 Pu1 C2 78.29(13) . .
O1 Pu1 C2 26.76(12) . .
O6 Pu1 C1 136.07(14) . .
O6 Pu1 C1 75.28(13) 2_666 .
O7 Pu1 C1 99.27(14) . .
O7 Pu1 C1 106.98(14) 2_666 .
O5 Pu1 C1 102.03(14) . .
O3 Pu1 C1 27.72(13) . .
O2 Pu1 C1 149.15(13) . .
O4 Pu1 C1 26.61(13) . .
O11 Pu1 C1 77.14(13) . .
O1 Pu1 C1 97.59(14) . .
C2 Pu1 C1 123.79(14) . .
O8 K1 O1 91.08(11) 2_656 .
O8 K1 O4 80.72(11) 2_656 .
O1 K1 O4 62.39(11) . .
O8 K1 OW1 80.59(12) 2_656 .
O1 K1 OW1 168.69(13) . .
O4 K1 OW1 123.00(12) . .
O8 K1 O10 76.63(12) 2_656 2_756
O1 K1 O10 101.64(11) . 2_756
O4 K1 O10 152.05(12) . 2_756
OW1 K1 O10 69.10(12) . 2_756
O8 K1 O11 121.62(11) 2_656 2_756
O1 K1 O11 106.63(11) . 2_756
O4 K1 O11 156.50(11) . 2_756
OW1 K1 O11 71.98(11) . 2_756
O10 K1 O11 45.74(11) 2_756 2_756
O8 K1 O11 140.76(11) 2_656 .
O1 K1 O11 62.42(11) . .
O4 K1 O11 61.80(10) . .
OW1 K1 O11 128.60(12) . .
O10 K1 O11 133.85(11) 2_756 .
O11 K1 O11 94.77(10) 2_756 .
O8 K1 OW6 123.66(12) 2_656 2_656
O1 K1 OW6 113.99(11) . 2_656
O4 K1 OW6 69.97(11) . 2_656
OW1 K1 OW6 77.17(12) . 2_656
O10 K1 OW6 137.05(11) 2_756 2_656
O11 K1 OW6 99.27(12) 2_756 2_656
O11 K1 OW6 55.69(10) . 2_656
O8 K1 C3 97.02(14) 2_656 2_756
O1 K1 C3 113.40(13) . 2_756
O4 K1 C3 175.03(13) . 2_756
OW1 K1 C3 60.62(13) . 2_756
O10 K1 C3 23.63(12) 2_756 2_756
O11 K1 C3 24.80(12) 2_756 2_756
O11 K1 C3 119.34(13) . 2_756
OW6 K1 C3 114.84(13) 2_656 2_756
O8 K1 C1 20.01(11) 2_656 2_656
O1 K1 C1 107.06(11) . 2_656
O4 K1 C1 78.52(12) . 2_656
OW1 K1 C1 66.64(12) . 2_656
O10 K1 C1 85.48(12) 2_756 2_656
O11 K1 C1 124.93(11) 2_756 2_656
O11 K1 C1 139.55(12) . 2_656
OW6 K1 C1 105.06(13) 2_656 2_656
C3 K1 C1 100.88(13) 2_756 2_656
O8 K1 K3 46.71(7) 2_656 .
O1 K1 K3 50.18(8) . .
O4 K1 K3 46.02(8) . .
OW1 K1 K3 124.69(10) . .
O10 K1 K3 106.03(8) 2_756 .
O11 K1 K3 144.01(8) 2_756 .
O11 K1 K3 95.44(7) . .
OW6 K1 K3 114.92(9) 2_656 .
C3 K1 K3 129.52(11) 2_756 .
C1 K1 K3 58.06(8) 2_656 .
O8 K1 K3 80.51(9) 2_656 2_656
O1 K1 K3 128.03(9) . 2_656
O4 K1 K3 65.63(7) . 2_656
OW1 K1 K3 58.38(10) . 2_656
O10 K1 K3 125.23(8) 2_756 2_656
O11 K1 K3 121.45(8) 2_756 2_656
O11 K1 K3 93.31(8) . 2_656
OW6 K1 K3 43.87(8) 2_656 2_656
C3 K1 K3 118.51(9) 2_756 2_656
C1 K1 K3 61.29(10) 2_656 2_656
K3 K1 K3 92.27(4) . 2_656
O10 K2 O3 115.56(11) . 1_655
O10 K2 O2 129.82(12) . 2_766
O3 K2 O2 92.62(10) 1_655 2_766
O10 K2 OW1 69.77(12) . 2_756
O3 K2 OW1 85.73(12) 1_655 2_756
O2 K2 OW1 72.21(11) 2_766 2_756
O10 K2 OW4 74.01(12) . 2_765
O3 K2 OW4 142.04(12) 1_655 2_765
O2 K2 OW4 109.08(11) 2_766 2_765
OW1 K2 OW4 129.91(13) 2_756 2_765
O10 K2 OW5 138.42(14) . 2_865
O3 K2 OW5 84.97(12) 1_655 2_865
O2 K2 OW5 80.97(12) 2_766 2_865
OW1 K2 OW5 151.11(13) 2_756 2_865
OW4 K2 OW5 68.88(13) 2_765 2_865
O10 K2 O8 71.64(10) . 1_655
O3 K2 O8 44.01(9) 1_655 1_655
O2 K2 O8 124.89(11) 2_766 1_655
OW1 K2 O8 72.46(11) 2_756 1_655
OW4 K2 O8 126.03(11) 2_765 1_655
OW5 K2 O8 117.01(12) 2_865 1_655
O10 K2 C1 92.02(12) . 1_655
O3 K2 C1 24.74(11) 1_655 1_655
O2 K2 C1 103.75(12) 2_766 1_655
OW1 K2 C1 69.07(13) 2_756 1_655
OW4 K2 C1 145.91(13) 2_765 1_655
OW5 K2 C1 108.38(14) 2_865 1_655
O8 K2 C1 22.94(10) 1_655 1_655
O10 K2 C3 21.24(11) . .
O3 K2 C3 126.26(12) 1_655 .
O2 K2 C3 108.73(12) 2_766 .
OW1 K2 C3 57.48(13) 2_756 .
OW4 K2 C3 76.59(13) 2_765 .
OW5 K2 C3 145.37(14) 2_865 .
O8 K2 C3 85.36(11) 1_655 .
C1 K2 C3 101.54(13) 1_655 .
O10 K2 OW5 67.69(12) . .
O3 K2 OW5 72.15(11) 1_655 .
O2 K2 OW5 161.62(12) 2_766 .
OW1 K2 OW5 115.54(12) 2_756 .
OW4 K2 OW5 79.37(12) 2_765 .
OW5 K2 OW5 87.34(12) 2_865 .
O8 K2 OW5 49.48(11) 1_655 .
C1 K2 OW5 66.54(13) 1_655 .
C3 K2 OW5 88.92(13) . .
O10 K2 O5 41.90(9) . .
O3 K2 O5 144.53(11) 1_655 .
O2 K2 O5 91.18(10) 2_766 .
OW1 K2 O5 62.04(11) 2_756 .
OW4 K2 O5 67.88(11) 2_765 .
OW5 K2 O5 130.41(12) 2_865 .
O8 K2 O5 107.57(9) 1_655 .
C1 K2 O5 120.99(12) 1_655 .
C3 K2 O5 22.83(10) . .
OW5 K2 O5 107.20(11) . .
O10 K2 C2 141.40(12) . 2_766
O3 K2 C2 96.37(11) 1_655 2_766
O2 K2 C2 20.86(12) 2_766 2_766
OW1 K2 C2 92.97(12) 2_756 2_766
OW4 K2 C2 94.42(12) 2_765 2_766
OW5 K2 C2 61.06(13) 2_865 2_766
O8 K2 C2 137.29(12) 1_655 2_766
C1 K2 C2 114.37(13) 1_655 2_766
C3 K2 C2 120.85(12) . 2_766
OW5 K2 C2 147.58(13) . 2_766
O5 K2 C2 99.51(10) . 2_766
OW2 K3 OW6 108.22(15) . .
OW2 K3 O4 140.38(13) . .
OW6 K3 O4 109.73(13) . .
OW2 K3 O8 99.99(12) . 2_656
OW6 K3 O8 74.49(11) . 2_656
O4 K3 O8 79.74(11) . 2_656
OW2 K3 OW3 75.93(13) . .
OW6 K3 OW3 74.10(11) . .
O4 K3 OW3 125.53(12) . .
O8 K3 OW3 145.08(12) 2_656 .
OW2 K3 O1 80.65(13) . .
OW6 K3 O1 158.82(11) . .
O4 K3 O1 59.77(11) . .
O8 K3 O1 85.15(10) 2_656 .
OW3 K3 O1 127.08(10) . .
OW2 K3 O6 109.24(12) . 2_666
OW6 K3 O6 118.94(13) . 2_666
O4 K3 O6 60.31(10) . 2_666
O8 K3 O6 140.00(11) 2_656 2_666
OW3 K3 O6 70.56(11) . 2_666
O1 K3 O6 73.68(10) . 2_666
OW2 K3 O7 82.85(12) . 2_666
OW6 K3 O7 140.65(12) . 2_666
O4 K3 O7 75.07(10) . 2_666
O8 K3 O7 142.32(11) 2_656 2_666
OW3 K3 O7 72.34(11) . 2_666
O1 K3 O7 58.01(9) . 2_666
O6 K3 O7 28.28(10) 2_666 2_666
OW2 K3 C1 114.42(13) . 2_656
OW6 K3 C1 59.74(11) . 2_656
O4 K3 C1 76.50(11) . 2_656
O8 K3 C1 18.70(11) 2_656 2_656
OW3 K3 C1 133.76(12) . 2_656
O1 K3 C1 99.12(11) . 2_656
O6 K3 C1 133.89(13) 2_666 2_656
O7 K3 C1 150.08(12) 2_666 2_656
OW2 K3 K1 106.74(10) . .
OW6 K3 K1 113.76(9) . .
O4 K3 K1 46.37(8) . .
O8 K3 K1 45.15(8) 2_656 .
OW3 K3 K1 169.54(9) . .
O1 K3 K1 45.22(7) . .
O6 K3 K1 99.14(8) 2_666 .
O7 K3 K1 97.76(8) 2_666 .
C1 K3 K1 54.91(8) 2_656 .
OW2 K3 Pu1 107.64(10) . .
OW6 K3 Pu1 142.94(12) . .
O4 K3 Pu1 39.10(7) . .
O8 K3 Pu1 108.02(9) 2_656 .
OW3 K3 Pu1 106.18(9) . .
O1 K3 Pu1 39.60(7) . .
O6 K3 Pu1 37.54(7) 2_666 .
O7 K3 Pu1 38.10(7) 2_666 .
C1 K3 Pu1 112.00(9) 2_656 .
K1 K3 Pu1 63.36(3) . .
OW2 K3 K4 45.32(9) . 2_666
OW6 K3 K4 115.90(9) . 2_666
O4 K3 K4 122.00(7) . 2_666
O8 K3 K4 144.97(9) 2_656 2_666
OW3 K3 K4 46.29(8) . 2_666
O1 K3 K4 84.22(7) . 2_666
O6 K3 K4 67.05(8) 2_666 2_666
O7 K3 K4 46.94(8) 2_666 2_666
C1 K3 K4 158.97(10) 2_656 2_666
K1 K3 K4 128.75(4) . 2_666
Pu1 K3 K4 83.83(3) . 2_666
O10 K4 OW4 77.64(12) 2_765 .
O10 K4 OW2 83.39(13) 2_765 2_666
OW4 K4 OW2 154.19(15) . 2_666
O10 K4 OW3 118.43(13) 2_765 2_666
OW4 K4 OW3 130.16(13) . 2_666
OW2 K4 OW3 74.52(13) 2_666 2_666
O10 K4 O5 139.23(12) 2_765 .
OW4 K4 O5 77.81(12) . .
OW2 K4 O5 127.46(13) 2_666 .
OW3 K4 O5 59.42(11) 2_666 .
O10 K4 OW5 76.40(14) 2_765 2_765
OW4 K4 OW5 92.18(14) . 2_765
OW2 K4 OW5 66.21(14) 2_666 2_765
OW3 K4 OW5 136.14(12) 2_666 2_765
O5 K4 OW5 136.47(14) . 2_765
O10 K4 O7 159.19(12) 2_765 .
OW4 K4 O7 106.98(12) . .
OW2 K4 O7 85.17(13) 2_666 .
OW3 K4 O7 74.70(12) 2_666 .
O5 K4 O7 60.62(11) . .
OW5 K4 O7 83.10(13) 2_765 .
O10 K4 OW4 75.34(12) 2_765 2_765
OW4 K4 OW4 89.10(12) . 2_765
OW2 K4 OW4 102.94(12) 2_666 2_765
OW3 K4 OW4 55.94(11) 2_666 2_765
O5 K4 OW4 72.24(11) . 2_765
OW5 K4 OW4 150.73(14) 2_765 2_765
O7 K4 OW4 124.34(12) . 2_765
O10 K4 O3 122.67(10) 2_765 .
OW4 K4 O3 52.93(11) . .
OW2 K4 O3 129.46(12) 2_666 .
OW3 K4 O3 115.52(12) 2_666 .
O5 K4 O3 61.76(10) . .
OW5 K4 O3 78.30(13) 2_765 .
O7 K4 O3 54.84(9) . .
OW4 K4 O3 124.16(11) 2_765 .
O10 K4 K3 125.26(8) 2_765 2_666
OW4 K4 K3 156.94(10) . 2_666
OW2 K4 K3 44.06(10) 2_666 2_666
OW3 K4 K3 45.69(8) 2_666 2_666
O5 K4 K3 84.12(7) . 2_666
OW5 K4 K3 91.14(10) 2_765 2_666
O7 K4 K3 50.87(7) . 2_666
OW4 K4 K3 98.97(8) 2_765 2_666
O3 K4 K3 105.68(7) . 2_666
O10 K4 K2 43.53(8) 2_765 2_765
OW4 K4 K2 47.64(10) . 2_765
OW2 K4 K2 106.69(11) 2_666 2_765
OW3 K4 K2 159.93(10) 2_666 2_765
O5 K4 K2 125.35(7) . 2_765
OW5 K4 K2 56.83(10) 2_765 2_765
O7 K4 K2 125.26(9) . 2_765
OW4 K4 K2 105.16(9) 2_765 2_765
O3 K4 K2 79.71(7) . 2_765
K3 K4 K2 146.33(4) 2_666 2_765
O10 K4 Pu1 155.58(8) 2_765 .
OW4 K4 Pu1 78.08(10) . .
OW2 K4 Pu1 118.72(11) 2_666 .
OW3 K4 Pu1 79.96(9) 2_666 .
O5 K4 Pu1 34.62(8) . .
OW5 K4 Pu1 102.00(11) 2_765 .
O7 K4 Pu1 34.12(7) . .
OW4 K4 Pu1 106.86(9) 2_765 .
O3 K4 Pu1 35.69(7) . .
K3 K4 Pu1 78.91(3) 2_666 .
K2 K4 Pu1 114.98(4) 2_765 .
C2 O1 Pu1 94.1(3) . .
C2 O1 K1 133.3(3) . .
Pu1 O1 K1 102.00(13) . .
C2 O1 K3 139.4(3) . .
Pu1 O1 K3 90.27(12) . .
K1 O1 K3 84.60(10) . .
C2 O2 Pu1 95.8(3) . .
C2 O2 K2 108.6(3) . 2_766
Pu1 O2 K2 125.66(14) . 2_766
C1 O3 Pu1 95.8(3) . .
C1 O3 K2 93.5(3) . 1_455
Pu1 O3 K2 125.25(14) . 1_455
C1 O3 K4 163.9(3) . .
Pu1 O3 K4 90.53(10) . .
K2 O3 K4 94.90(10) 1_455 .
C1 O4 Pu1 95.1(3) . .
C1 O4 K3 136.3(3) . .
Pu1 O4 K3 95.39(11) . .
C1 O4 K1 131.3(3) . .
Pu1 O4 K1 101.17(13) . .
K3 O4 K1 87.61(11) . .
C3 O5 Pu1 97.5(3) . .
C3 O5 K4 121.7(3) . .
Pu1 O5 K4 102.70(13) . .
C3 O5 K2 74.6(3) . .
Pu1 O5 K2 149.45(16) . .
K4 O5 K2 106.51(12) . .
O7 O6 Pu1 72.81(19) . .
O7 O6 Pu1 72.7(2) . 2_666
Pu1 O6 Pu1 97.59(13) . 2_666
O7 O6 K3 77.6(2) . 2_666
Pu1 O6 K3 145.16(17) . 2_666
Pu1 O6 K3 90.71(11) 2_666 2_666
O6 O7 Pu1 70.04(19) . .
O6 O7 Pu1 70.5(2) . 2_666
Pu1 O7 Pu1 95.71(14) . 2_666
O6 O7 K4 123.0(3) . .
Pu1 O7 K4 102.37(12) . .
Pu1 O7 K4 160.35(17) 2_666 .
O6 O7 K3 74.12(19) . 2_666
Pu1 O7 K3 139.76(16) . 2_666
Pu1 O7 K3 89.01(10) 2_666 2_666
K4 O7 K3 82.19(10) . 2_666
C1 O8 K1 112.5(3) . 2_656
C1 O8 K3 116.1(3) . 2_656
K1 O8 K3 88.13(10) 2_656 2_656
C1 O8 K2 80.3(3) . 1_455
K1 O8 K2 88.98(10) 2_656 1_455
K3 O8 K2 163.14(15) 2_656 1_455
C3 O10 K4 128.0(3) . 2_765
C3 O10 K2 106.4(3) . .
K4 O10 K2 93.59(12) 2_765 .
C3 O10 K1 89.9(3) . 2_756
K4 O10 K1 136.21(14) 2_765 2_756
K2 O10 K1 95.49(12) . 2_756
C3 O11 Pu1 95.8(3) . .
C3 O11 K1 85.6(3) . 2_756
Pu1 O11 K1 141.98(15) . 2_756
C3 O11 K1 168.2(3) . .
Pu1 O11 K1 95.99(12) . .
K1 O11 K1 85.23(10) 2_756 .
O8 C1 O4 124.7(5) . .
O8 C1 O3 120.5(5) . .
O4 C1 O3 114.7(4) . .
O8 C1 Pu1 176.5(4) . .
O4 C1 Pu1 58.2(2) . .
O3 C1 Pu1 56.5(2) . .
O8 C1 K2 76.8(3) . 1_455
O4 C1 K2 133.0(3) . 1_455
O3 C1 K2 61.8(3) . 1_455
Pu1 C1 K2 99.83(13) . 1_455
O8 C1 K1 47.5(3) . 2_656
O4 C1 K1 89.1(3) . 2_656
O3 C1 K1 138.9(3) . 2_656
Pu1 C1 K1 132.89(18) . 2_656
K2 C1 K1 77.33(11) 1_455 2_656
O8 C1 K3 45.2(2) . 2_656
O4 C1 K3 91.8(3) . 2_656
O3 C1 K3 139.0(3) . 2_656
Pu1 C1 K3 138.11(18) . 2_656
K2 C1 K3 121.85(16) 1_455 2_656
K1 C1 K3 67.04(9) 2_656 2_656
O9 C2 O1 123.5(5) . .
O9 C2 O2 120.5(5) . .
O1 C2 O2 115.9(5) . .
O9 C2 Pu1 176.8(3) . .
O1 C2 Pu1 59.1(3) . .
O2 C2 Pu1 56.9(3) . .
O9 C2 K2 82.5(3) . 2_766
O1 C2 K2 139.9(3) . 2_766
O2 C2 K2 50.5(2) . 2_766
Pu1 C2 K2 94.32(14) . 2_766
O10 C3 O11 123.0(4) . .
O10 C3 O5 124.2(5) . .
O11 C3 O5 112.7(5) . .
O10 C3 Pu1 177.2(4) . .
O11 C3 Pu1 57.4(3) . .
O5 C3 Pu1 55.4(3) . .
O10 C3 K1 66.5(3) . 2_756
O11 C3 K1 69.6(3) . 2_756
O5 C3 K1 143.2(4) . 2_756
Pu1 C3 K1 115.67(18) . 2_756
O10 C3 K2 52.4(3) . .
O11 C3 K2 145.9(4) . .
O5 C3 K2 82.6(3) . .
Pu1 C3 K2 129.17(16) . .
K1 C3 K2 80.11(13) 2_756 .
K1 OW1 K2 93.91(13) . 2_756
K3 OW2 K4 90.63(14) . 2_666
K3 OW3 K4 88.02(12) . 2_666
K4 OW4 K2 88.59(12) . 2_765
K4 OW4 K4 90.90(12) . 2_765
K2 OW4 K4 111.63(14) 2_765 2_765
K4 OW5 K2 101.35(15) 2_765 2_865
K4 OW5 K2 77.85(11) 2_765 .
K2 OW5 K2 92.66(12) 2_865 .
K3 OW6 K1 86.97(13) . 2_656
loop_
_geom_bond_atom_site_label_1
_geom_bond_atom_site_label_2
_geom_bond_distance
_geom_bond_site_symmetry_2
Pu1 O6 2.313(3) .
Pu1 O6 2.341(4) 2_666
Pu1 O7 2.351(4) .
Pu1 O7 2.371(4) 2_666
Pu1 O5 2.385(4) .
Pu1 O3 2.389(4) .
Pu1 O2 2.397(4) .
Pu1 O4 2.434(3) .
Pu1 O11 2.434(3) .
Pu1 O1 2.449(4) .
Pu1 C2 2.846(6) .
Pu1 C1 2.850(5) .
K1 O8 2.712(4) 2_656
K1 O1 2.725(3) .
K1 O4 2.769(4) .
K1 OW1 2.775(4) .
K1 O10 2.840(4) 2_756
K1 O11 2.912(4) 2_756
K1 O11 2.962(4) .
K1 OW6 3.005(5) 2_656
K1 C3 3.098(5) 2_756
K1 C1 3.397(5) 2_656
K1 K3 3.8224(17) .
K1 K3 3.9665(18) 2_656
K2 O10 2.714(4) .
K2 O3 2.807(4) 1_655
K2 O2 2.842(4) 2_766
K2 OW1 2.851(5) 2_756
K2 OW4 2.907(5) 2_765
K2 OW5 2.974(5) 2_865
K2 O8 3.140(4) 1_655
K2 C1 3.180(5) 1_655
K2 C3 3.288(5) .
K2 OW5 3.368(5) .
K2 O5 3.382(4) .
K2 C2 3.488(5) 2_766
K3 OW2 2.722(5) .
K3 OW6 2.753(4) .
K3 O4 2.753(4) .
K3 O8 2.784(3) 2_656
K3 OW3 2.802(4) .
K3 O1 2.949(4) .
K3 O6 3.018(4) 2_666
K3 O7 3.064(4) 2_666
K3 C1 3.523(5) 2_656
K3 K4 3.9136(16) 2_666
K4 O10 2.682(4) 2_765
K4 OW4 2.722(4) .
K4 OW2 2.783(4) 2_666
K4 OW3 2.831(4) 2_666
K4 O5 2.846(4) .
K4 OW5 2.861(5) 2_765
K4 O7 2.886(4) .
K4 OW4 3.135(5) 2_765
K4 O3 3.304(4) .
K4 K3 3.9136(16) 2_666
K4 K2 3.9332(18) 2_765
O1 C2 1.285(6) .
O2 C2 1.311(6) .
O2 K2 2.842(4) 2_766
O3 C1 1.333(6) .
O3 K2 2.807(4) 1_455
O4 C1 1.282(6) .
O5 C3 1.323(5) .
O6 O7 1.486(5) .
O6 Pu1 2.341(4) 2_666
O6 K3 3.018(4) 2_666
O7 Pu1 2.371(4) 2_666
O7 K3 3.064(4) 2_666
O8 C1 1.257(6) .
O8 K1 2.711(4) 2_656
O8 K3 2.784(3) 2_656
O8 K2 3.140(4) 1_455
O9 C2 1.265(6) .
O10 C3 1.242(6) .
O10 K4 2.682(4) 2_765
O10 K1 2.840(4) 2_756
O11 C3 1.303(6) .
O11 K1 2.912(4) 2_756
C1 K2 3.180(5) 1_455
C1 K1 3.397(5) 2_656
C1 K3 3.523(5) 2_656
C2 K2 3.488(5) 2_766
C3 K1 3.098(5) 2_756
OW1 K2 2.851(5) 2_756
OW2 K4 2.783(4) 2_666
OW3 K4 2.831(4) 2_666
OW4 K2 2.907(5) 2_765
OW4 K4 3.135(5) 2_765
OW5 K4 2.861(5) 2_765
OW5 K2 2.974(5) 2_865
OW6 K1 3.005(5) 2_656
