#------------------------------------------------------------------------------
#$Date: 2025-08-21 04:34:05 +0300 (Thu, 21 Aug 2025) $
#$Revision: 301843 $
#$URL: file:///home/coder/svn-repositories/cod/cif/4/51/41/4514167.cif $
#------------------------------------------------------------------------------
#
# This file is available in the Crystallography Open Database (COD),
# http://www.crystallography.net/
#
# All data on this site have been placed in the public domain by the
# contributors.
#
data_4514167
loop_
_publ_author_name
'Laserna, Victor'
'Martin, Eddy'
'Escudero-Ad\'an, Eduardo C.'
'Kleij, Arjan W.'
_publ_section_title
;
 Substrate-Triggered Stereoselective Preparation of Highly Substituted
 Organic Carbonates
;
_journal_issue                   8
_journal_name_full               'ACS Catalysis'
_journal_page_first              5478
_journal_paper_doi               10.1021/acscatal.7b01748
_journal_volume                  7
_journal_year                    2017
_chemical_formula_sum            'C7 H10 O4'
_chemical_formula_weight         158.15
_space_group_IT_number           14
_space_group_name_Hall           '-P 2yn'
_symmetry_cell_setting           monoclinic
_symmetry_space_group_name_Hall  '-P 2yn'
_symmetry_space_group_name_H-M   'P 1 21/n 1'
_atom_sites_solution_hydrogens   geom
_audit_creation_method           SHELXL-2014/7
_cell_angle_alpha                90
_cell_angle_beta                 105.261(5)
_cell_angle_gamma                90
_cell_formula_units_Z            4
_cell_length_a                   6.5169(10)
_cell_length_b                   11.8049(18)
_cell_length_c                   9.5214(15)
_cell_measurement_reflns_used    2600
_cell_measurement_temperature    100(2)
_cell_measurement_theta_max      29.30
_cell_measurement_theta_min      2.81
_cell_volume                     706.66(19)
_computing_cell_refinement       'Bruker APEX2 v2011.4-0'
_computing_data_collection       'Bruker APEX2 v2011.4-0'
_computing_data_reduction        'Bruker SAINT V7.60A'
_computing_molecular_graphics    'Bruker SHELXTL'
_computing_publication_material  'Bruker SHELXTL'
_computing_structure_refinement  'SHELXL-2014 (Sheldrick, 2014)'
_computing_structure_solution    Sir2011
_diffrn_ambient_temperature      100(2)
_diffrn_detector_area_resol_mean 512
_diffrn_detector_type            '4K CCD area detector APEX II'
_diffrn_measured_fraction_theta_full 0.966
_diffrn_measured_fraction_theta_max 0.878
_diffrn_measurement_device_type  'APEX DUO Kappa 4-axis goniometer'
_diffrn_measurement_method
;
 Fullsphere data collection, phi and omega scans
;
_diffrn_measurement_specimen_support 'magnetic support with MicroMount'
_diffrn_radiation_monochromator  'Quazar MX Multilayer Optics'
_diffrn_radiation_type           MoK\a
_diffrn_radiation_wavelength     0.71073
_diffrn_reflns_av_R_equivalents  0.0365
_diffrn_reflns_av_unetI/netI     0.0333
_diffrn_reflns_Laue_measured_fraction_full 0.966
_diffrn_reflns_Laue_measured_fraction_max 0.878
_diffrn_reflns_limit_h_max       8
_diffrn_reflns_limit_h_min       -8
_diffrn_reflns_limit_k_max       16
_diffrn_reflns_limit_k_min       -16
_diffrn_reflns_limit_l_max       13
_diffrn_reflns_limit_l_min       -13
_diffrn_reflns_number            7627
_diffrn_reflns_point_group_measured_fraction_full 0.966
_diffrn_reflns_point_group_measured_fraction_max 0.878
_diffrn_reflns_theta_full        25.242
_diffrn_reflns_theta_max         29.842
_diffrn_reflns_theta_min         2.810
_diffrn_source                   'Microfocus source E025 IuS'
_diffrn_source_current           0.6
_diffrn_source_power             50
_diffrn_source_size              '0.2 mm x 0.2 mm fine focus'
_diffrn_source_type              'Bruker APEX DUO'
_exptl_absorpt_coefficient_mu    0.123
_exptl_absorpt_correction_T_max  0.988
_exptl_absorpt_correction_T_min  0.882
_exptl_absorpt_correction_type   empirical
_exptl_absorpt_process_details
; 
 SADABS Version 2008/1 Bruker-Nonius
 Blessing, Acta Cryst. (1995) A51 33-38
;
_exptl_crystal_colour            colourless
_exptl_crystal_density_diffrn    1.486
_exptl_crystal_description       block
_exptl_crystal_F_000             336
_exptl_crystal_size_max          0.40
_exptl_crystal_size_mid          0.15
_exptl_crystal_size_min          0.10
_refine_diff_density_max         0.328
_refine_diff_density_min         -0.243
_refine_diff_density_rms         0.053
_refine_ls_extinction_method     none
_refine_ls_goodness_of_fit_ref   1.113
_refine_ls_hydrogen_treatment    constr
_refine_ls_matrix_type           full
_refine_ls_number_parameters     101
_refine_ls_number_reflns         1781
_refine_ls_number_restraints     0
_refine_ls_restrained_S_all      1.113
_refine_ls_R_factor_all          0.0479
_refine_ls_R_factor_gt           0.0386
_refine_ls_shift/su_max          0.000
_refine_ls_shift/su_mean         0.000
_refine_ls_structure_factor_coef Fsqd
_refine_ls_weighting_details
'w=1/[\s^2^(Fo^2^)+(0.0445P)^2^+0.1980P] where P=(Fo^2^+2Fc^2^)/3'
_refine_ls_weighting_scheme      calc
_refine_ls_wR_factor_gt          0.0965
_refine_ls_wR_factor_ref         0.1005
_reflns_Friedel_coverage         0.000
_reflns_number_gt                1476
_reflns_number_total             1781
_reflns_threshold_expression     'I > 2\s(I)'
_cod_data_source_file            cs7b01748_si_003.cif
_cod_data_source_block           mo_vlab33_0m
_cod_depositor_comments
;
The following automatic conversions were performed:

'_symmetry_cell_setting' value 'Monoclinic' changed to 'monoclinic'
according to
/home/data/users/saulius/crontab/automatic-downloads/rss-feeds/ACS/lib/dictionaries/cif_core.dic
dictionary named 'cif_core.dic' version 2.4.2 from 2011-04-26.

Automatic conversion script
Id: cif_fix_values 4973 2017-02-22 13:04:09Z antanas 

 Adding full bibliography for 4514166--4514168.cif.
;
_cod_original_cell_volume        706.67(19)
_cod_original_sg_symbol_H-M      P2(1)/n
_cod_database_code               4514167
_shelx_shelxl_version_number     2014/7
_shelx_space_group_comment
;
The symmetry employed for this shelxl refinement is uniquely defined
by the following loop, which should always be used as a source of
symmetry information in preference to the above space-group names.
They are only intended as comments.
;
_shelx_estimated_absorpt_t_min   0.953
_shelx_estimated_absorpt_t_max   0.988
_shelx_res_file
;
    mo_vlab33_0m.res created by SHELXL-2014/7
TITL mo_vlab33_0m in P2(1)/n
CELL 0.71073   6.51690  11.80490   9.52140  90.0000 105.2606  90.0000
ZERR    4.00   0.00100   0.00180   0.00150   0.0000   0.0052   0.0000
LATT  1
SYMM 0.5-X, 0.5+Y, 0.5-Z
SFAC C H O
UNIT 28 40 16
LIST 4
TEMP -173.140
SIZE 0.10 0.15 0.40
ACTA
CONF
L.S. 16
BOND
FMAP 2
PLAN 5
WGHT    0.044500    0.198000
FVAR       0.35348
MOLE   1
O1    3    0.328757    0.500241    0.165043    11.00000    0.01955    0.01761 =
         0.02025   -0.00343    0.00484   -0.00066
O2    3    0.170817    0.443778   -0.063209    11.00000    0.01734    0.01543 =
         0.01603    0.00186    0.00462    0.00001
O3    3    0.193926    0.324715    0.121621    11.00000    0.01730    0.01539 =
         0.01339   -0.00023    0.00579   -0.00073
O4    3    0.501463    0.310458   -0.061523    11.00000    0.01253    0.02106 =
         0.02352   -0.00174    0.00544   -0.00370
AFIX 147
H4    2    0.551228    0.372518   -0.080543    11.00000   -1.50000
AFIX   0
C1    1    0.239290    0.427873    0.081496    11.00000    0.01183    0.01584 =
         0.01704    0.00087    0.00633    0.00293
C2    1    0.116224    0.332708   -0.129569    11.00000    0.01397    0.01626 =
         0.01392    0.00064    0.00365   -0.00221
AFIX  13
H2    2   -0.007902    0.338627   -0.217191    11.00000   -1.20000
AFIX   0
C3    1    0.311554    0.285050   -0.171903    11.00000    0.01557    0.02190 =
         0.01313   -0.00106    0.00603   -0.00440
AFIX  13
H3    2    0.320201    0.319479   -0.266136    11.00000   -1.20000
AFIX   0
C4    1    0.294356    0.157135   -0.188242    11.00000    0.01756    0.02276 =
         0.01834   -0.00636    0.00888   -0.00343
AFIX  23
H4A   2    0.420207    0.127412   -0.216040    11.00000   -1.20000
H4B   2    0.165986    0.137414   -0.266398    11.00000   -1.20000
AFIX   0
C5    1    0.280841    0.102841   -0.045186    11.00000    0.01679    0.01533 =
         0.02150   -0.00259    0.00779   -0.00011
AFIX  23
H5A   2    0.277249    0.019365   -0.055533    11.00000   -1.20000
H5B   2    0.408643    0.123255    0.033055    11.00000   -1.20000
AFIX   0
C6    1    0.081954    0.142796   -0.003789    11.00000    0.01775    0.01633 =
         0.01765   -0.00040    0.00895   -0.00104
AFIX  23
H6A   2   -0.044218    0.108049   -0.071398    11.00000   -1.20000
H6B   2    0.088192    0.115213    0.095440    11.00000   -1.20000
AFIX   0
C7    1    0.053364    0.269576   -0.007160    11.00000    0.01180    0.01754 =
         0.01330   -0.00041    0.00450   -0.00070
AFIX  13
H7    2   -0.097961    0.287630   -0.011071    11.00000   -1.20000
AFIX   0
HKLF 4
REM  mo_vlab33_0m in P2(1)/n
REM R1 =  0.0386 for    1476 Fo > 4sig(Fo)  and  0.0479 for all    1781 data
REM    101 parameters refined using      0 restraints
END
WGHT      0.0445      0.1980
REM Highest difference peak  0.328,  deepest hole -0.243,  1-sigma level  0.053
Q1    1   0.0765  0.2955 -0.0701  11.00000  0.05    0.33
Q2    1   0.2131  0.3040 -0.1404  11.00000  0.05    0.33
Q3    1   0.1837  0.1299 -0.0230  11.00000  0.05    0.28
Q4    1   0.2834  0.1377 -0.1196  11.00000  0.05    0.27
Q5    1   0.2979  0.2197 -0.1862  11.00000  0.05    0.27
;
_shelx_res_checksum              90420
_shelx_hkl_file
;
  -1   0   0   -0.43    0.04
   1   0   0   -0.40    0.04
   1   0   0   -0.31    0.05
   1   0   0   -0.43    0.04
  -1   0   0   -0.33    0.05
  -1   0   0   -0.43    0.04
  -2   0   0  288.22    9.36
   2   0   0  287.47    9.37
  -2   0   0  300.38    9.38
   2   0   0  295.60    9.39
  -2   0   0  282.40    9.45
  -3   0   0    0.15    0.11
  -3   0   0   -0.06    0.07
   3   0   0   -0.03    0.08
  -3   0   0    0.11    0.09
  -4   0   0   21.95    1.02
   4   0   0   21.55    1.03
   0  -1   0   -0.18    0.04
   0  -1   0   -0.18    0.02
   0  -1   0   -0.18    0.02
   0   1   0   -0.21    0.03
   0   1   0   -0.19    0.01
   0   1   0   -0.16    0.03
   1  -1   0    1.93    0.18
   1  -1   0    1.96    0.14
   1   1   0    1.76    0.22
  -1   1   0    1.68    0.18
  -1   1   0    1.97    0.13
  -1   1   0    1.62    0.13
  -2  -1   0  120.09    4.04
   2  -1   0  118.12    4.04
  -2  -1   0  122.87    4.18
   2  -1   0  121.51    4.01
  -2  -1   0  123.97    4.10
   2   1   0  119.03    4.19
  -2   1   0  124.97    4.00
  -2   1   0  125.26    4.07
  -2   1   0  119.25    4.06
  -3  -1   0   80.54    2.99
   3  -1   0   80.88    2.81
  -3  -1   0   80.35    2.88
   3  -1   0   78.75    2.83
  -3  -1   0   79.29    2.82
  -3   1   0   79.68    2.84
  -3   1   0   83.67    2.79
  -3   1   0   78.98    2.88
   4  -1   0   31.64    1.39
  -4  -1   0   32.34    1.37
  -4   1   0   33.28    1.35
   5  -1   0    9.65    0.67
   6  -1   0    1.15    0.35
   0  -2   0  125.27    3.93
   0  -2   0  123.59    4.14
   0  -2   0  128.23    3.99
   0   2   0  118.73    3.93
   0   2   0  127.89    4.01
   0   2   0  101.53    4.09
  -1  -2   0   45.97    1.78
   1  -2   0   49.18    1.75
   1  -2   0   49.19    1.64
   1  -2   0   49.78    1.79
   1   2   0   47.22    1.80
   1   2   0   49.43    1.69
  -1   2   0   50.51    1.75
  -1   2   0   49.62    1.83
  -1   2   0   50.79    1.67
   2  -2   0  225.84    7.38
  -2  -2   0  212.21    7.48
   2  -2   0  228.21    7.26
  -2   2   0  226.95    7.43
  -2   2   0  231.67    7.25
  -2   2   0  226.98    7.28
   2   2   0  225.81    7.54
  -3  -2   0    9.73    0.57
   3  -2   0   10.90    0.60
   3  -2   0   10.47    0.54
  -3  -2   0    9.60    0.68
  -3   2   0   10.34    0.51
  -3   2   0    9.69    0.62
  -3   2   0   10.52    0.57
   4  -2   0   13.70    0.74
   4  -2   0   14.47    0.81
  -4  -2   0   14.14    0.85
  -4   2   0   14.19    0.78
  -4   2   0   14.66    0.71
   5  -2   0   16.21    0.95
   6  -2   0    0.37    0.22
   7  -2   0    1.87    0.47
   0  -3   0   -0.29    0.05
   0  -3   0   -0.26    0.13
   0   3   0   -0.31    0.07
   0   3   0   -0.31    0.05
   0   3   0   -0.05    0.16
   1  -3   0    0.09    0.06
   1  -3   0    0.06    0.11
  -1  -3   0    0.00    0.06
   1  -3   0    0.10    0.09
  -1   3   0    0.01    0.11
   1   3   0    0.10    0.09
   1   3   0    0.06    0.08
  -1   3   0    0.10    0.10
   2  -3   0   23.92    1.02
   2  -3   0   23.86    1.05
   2  -3   0   22.95    0.88
  -2   3   0   23.30    0.82
  -2   3   0   22.82    0.88
   2   3   0   21.98    0.92
  -2   3   0   24.50    1.15
   2   3   0   22.05    1.12
   3  -3   0  224.85    7.55
   3  -3   0  222.99    7.39
  -3   3   0  227.75    7.36
  -3   3   0  232.89    7.70
  -3   3   0  227.21    7.38
   4  -3   0   31.82    1.42
   4  -3   0   31.82    1.30
  -4   3   0   31.58    1.31
  -4   3   0   30.86    1.24
   5  -3   0    2.90    0.47
   5  -3   0    2.23    0.35
   6  -3   0    3.05    0.51
   7  -3   0    7.42    0.87
   0  -4   0   33.75    1.25
   0  -4   0   32.86    1.59
   0   4   0   33.22    1.40
  -1  -4   0    1.88    0.28
   1  -4   0    2.89    0.31
   1  -4   0    2.22    0.37
   1  -4   0    1.83    0.27
   1   4   0    2.49    0.29
  -1   4   0    2.15    0.41
   1   4   0    2.22    0.31
   1   4   0    2.55    0.34
   2  -4   0    0.86    0.15
   2  -4   0    1.06    0.26
   2  -4   0    0.53    0.18
  -2   4   0    0.94    0.24
  -2   4   0    1.14    0.32
  -2   4   0    0.79    0.17
   2   4   0    0.87    0.18
   3  -4   0    2.44    0.26
   3  -4   0    2.90    0.40
  -3   4   0    2.30    0.17
  -3   4   0    2.47    0.26
   4  -4   0    2.91    0.34
   4  -4   0    3.21    0.46
  -4   4   0    2.86    0.30
  -4   4   0    3.35    0.33
   5  -4   0    1.21    0.26
   5  -4   0    0.45    0.25
   6  -4   0   27.77    1.48
   7  -4   0    0.89    0.37
   0  -5   0    0.24    0.10
   0  -5   0    0.51    0.25
   0   5   0    0.18    0.16
   1  -5   0   20.27    1.16
  -1  -5   0   17.79    1.23
   1  -5   0   19.81    1.00
   1  -5   0   20.72    0.96
   1   5   0   19.63    0.94
  -1   5   0   22.35    1.36
   2  -5   0    1.10    0.18
   2  -5   0    1.20    0.30
   2  -5   0    1.35    0.28
   2   5   0    1.09    0.25
   2   5   0    0.75    0.19
   3  -5   0    6.55    0.55
   3  -5   0    6.47    0.58
   3  -5   0    6.10    0.39
   3   5   0    6.69    0.47
  -3   5   0    6.20    0.45
   4  -5   0    5.73    0.63
   4  -5   0    6.15    0.43
  -4   5   0    6.40    0.32
  -4   5   0    6.06    0.44
   5  -5   0   55.81    2.38
   5  -5   0   56.30    2.15
   6  -5   0   10.85    0.90
   7  -5   0    3.18    0.62
   0  -6   0  193.44    6.39
   0  -6   0  193.49    7.02
   0   6   0  193.36    6.53
   1  -6   0  326.81    9.99
   1  -6   0  318.51   10.38
   1  -6   0  312.75   10.70
  -1  -6   0  307.77   10.33
  -1  -6   0  308.78   10.91
   1   6   0  300.13   10.46
   1   6   0  318.19   10.32
   2  -6   0    0.44    0.21
   2  -6   0    0.27    0.12
   2  -6   0    0.20    0.20
   2   6   0    0.16    0.15
  -2   6   0    0.10    0.14
   2   6   0    0.03    0.17
   3  -6   0    1.47    0.21
   3  -6   0    1.21    0.33
   3  -6   0    1.15    0.28
   3   6   0    0.94    0.32
   3   6   0    1.44    0.28
  -3   6   0    1.53    0.29
   4  -6   0    9.62    0.76
   4  -6   0    8.56    0.53
   4   6   0    8.99    0.75
   4   6   0   10.00    0.63
  -4   6   0    8.85    0.64
   5  -6   0    0.15    0.22
   5  -6   0    0.41    0.19
   6  -6   0   19.59    1.27
   7  -6   0    7.84    0.97
   0  -7   0    0.04    0.11
   0  -7   0    0.21    0.24
   0   7   0    0.52    0.22
   1  -7   0   17.97    1.25
  -1  -7   0   17.22    1.36
   1  -7   0   18.31    0.70
   1  -7   0   16.45    1.00
  -1   7   0   19.11    1.00
   1   7   0   18.13    0.98
  -2  -7   0   38.54    2.29
   2  -7   0   39.50    2.00
   2  -7   0   42.00    1.65
  -2   7   0   44.36    1.79
   2   7   0   42.93    2.55
   2   7   0   42.47    1.77
   3  -7   0   11.05    0.91
   3  -7   0   13.03    0.67
   3   7   0   13.68    0.80
   3   7   0   13.33    0.97
  -3   7   0   13.12    0.80
   4  -7   0   30.12    1.62
   4  -7   0   31.21    1.30
   4   7   0   32.66    1.43
   5  -7   0    2.38    0.49
   6  -7   0    0.11    0.26
   7  -7   0    1.82    0.61
   0  -8   0   45.69    2.42
   0  -8   0   44.38    1.73
   0   8   0   42.19    1.89
   1  -8   0    0.22    0.28
   1  -8   0    0.21    0.09
  -1  -8   0    0.64    0.41
   1  -8   0    0.05    0.20
  -1   8   0    0.25    0.22
   1   8   0    0.04    0.17
   2  -8   0    6.57    0.84
   2  -8   0    5.74    0.49
  -2  -8   0    6.15    1.02
   2   8   0    6.54    0.66
  -2   8   0    6.17    0.64
   3  -8   0    0.57    0.34
   3  -8   0    0.47    0.17
   3   8   0    0.49    0.25
  -3   8   0    0.96    0.30
   4  -8   0   13.91    1.06
   4  -8   0   13.89    0.75
   4   8   0   14.55    0.90
   5  -8   0    7.62    0.88
   5   8   0    8.59    0.69
   6  -8   0    7.56    0.92
   7  -8   0    2.23    0.65
   0  -9   0   -0.16    0.12
   0  -9   0   -0.21    0.27
   0   9   0    0.06    0.20
   1  -9   0   17.66    0.72
   1  -9   0   19.33    1.44
  -1  -9   0   16.16    1.48
   1  -9   0   18.94    1.17
  -1   9   0   16.07    1.03
   1   9   0   18.19    1.08
  -2  -9   0    0.62    0.51
   2  -9   0    1.98    0.37
   2  -9   0    1.01    0.46
   2   9   0    0.94    0.30
  -2   9   0    1.10    0.34
   3  -9   0  151.89    5.64
   3  -9   0  144.31    5.03
  -3  -9   0  143.43    6.20
  -3   9   0  148.47    5.25
   3   9   0  148.50    5.28
   4  -9   0   10.15    1.05
   4  -9   0   10.30    0.66
   4   9   0   11.36    0.83
   5  -9   0   18.16    1.31
   5   9   0   18.06    1.09
   6  -9   0    0.18    0.36
   0 -10   0   -0.26    0.36
   0  10   0    0.22    0.23
   1 -10   0   41.52    2.03
   1 -10   0   39.22    2.33
  -1 -10   0   39.02    2.50
  -1  10   0   38.31    1.88
   1  10   0   41.30    1.90
  -2 -10   0    0.04    0.48
   2 -10   0    0.15    0.37
   2 -10   0    0.22    0.22
   2  10   0    0.05    0.24
  -2  10   0    0.11    0.26
  -3 -10   0    0.74    0.68
   3 -10   0    2.57    0.38
   3 -10   0    2.60    0.65
   3  10   0    1.48    0.37
  -3  10   0    1.87    0.45
   4 -10   0    9.20    1.04
  -4 -10   0    9.41    1.52
   4  10   0   10.78    0.86
  -5 -10   0   -0.21    0.75
   5 -10   0    0.76    0.43
   5  10   0    0.27    0.31
   6 -10   0    6.58    0.96
   0 -11   0   -0.28    0.29
   0 -11   0    0.19    0.48
   0  11   0    0.23    0.29
   1 -11   0    6.47    0.90
   1 -11   0    5.07    1.00
  -1 -11   0    5.63    1.15
   1  11   0    5.11    0.69
  -1  11   0    4.29    0.66
   2 -11   0   27.56    1.89
  -2 -11   0   24.58    2.11
   2 -11   0   26.82    1.41
   2  11   0   27.25    1.51
  -2  11   0   27.19    1.51
   3 -11   0    7.71    0.62
  -3 -11   0    6.78    1.32
   3 -11   0    5.70    0.93
   3  11   0    4.76    0.67
  -3  11   0    5.54    0.74
  -4 -11   0    1.56    0.89
   4 -11   0    3.82    0.78
   4  11   0    4.34    0.63
  -5 -11   0    1.93    1.05
   5 -11   0    2.01    0.64
   5  11   0    1.62    0.45
   6 -11   0    0.11    0.46
   6  11   0    0.33    0.35
   0 -12   0   19.10    1.98
   0 -12   0   18.71    1.54
   0  12   0   21.47    1.36
   1 -12   0    8.42    1.06
   1 -12   0    5.59    1.10
  -1 -12   0    5.86    1.28
   1  12   0    6.50    0.84
  -1  12   0    6.54    0.82
   2 -12   0   13.01    1.59
  -2 -12   0   15.97    2.00
   2 -12   0   10.63    0.89
   2  12   0   10.39    1.08
  -2  12   0   11.89    1.01
   3 -12   0    4.95    0.97
  -3 -12   0    1.29    0.82
   3  12   0    4.37    0.70
   4 -12   0   -0.22    0.44
  -4 -12   0    1.04    0.81
   4  12   0    0.54    0.35
   5 -12   0    0.33    0.50
  -5 -12   0    1.50    1.09
   5  12   0    1.68    0.50
   0 -13   0    0.14    0.58
   0 -13   0    0.33    0.46
   0  13   0    0.15    0.34
   1 -13   0    5.73    1.13
   1 -13   0    4.14    0.76
  -1 -13   0    3.89    1.07
   1  13   0    2.29    0.55
  -1  13   0    2.79    0.60
   2 -13   0   -0.06    0.49
   2 -13   0   -0.02    0.30
  -2 -13   0   -0.31    0.65
   2  13   0   -0.36    0.30
  -2  13   0    0.03    0.37
  -3 -13   0   14.97    2.08
   3 -13   0   15.03    1.71
   3  13   0   16.07    1.23
  -4 -13   0    0.30    0.97
   4 -13   0    0.66    0.60
   4  13   0    1.11    0.51
  -5 -13   0    0.93    1.03
   0 -14   0    5.36    1.03
   0 -14   0    5.01    1.19
   0  14   0    4.38    0.76
  -1 -14   0    1.64    0.74
  -1 -14   0    2.42    0.97
   1 -14   0    2.90    0.96
   1 -14   0    2.62    0.70
  -1  14   0    0.83    0.52
   1  14   0    1.44    0.56
   2 -14   0    1.52    0.84
  -2 -14   0    3.14    1.22
  -2  14   0    2.05    0.64
   2  14   0    0.94    0.51
   3 -14   0   11.60    1.55
  -3 -14   0    8.86    1.67
   3  14   0   10.37    1.12
  -4 -14   0    0.95    0.96
   0 -15   0   -0.34    0.54
   0 -15   0    0.01    0.75
   0  15   0    0.08    0.46
   1 -15   0   23.74    1.70
  -1 -15   0   21.34    2.43
  -1 -15   0   24.69    2.13
   1 -15   0   26.23    2.36
   1  15   0   19.89    1.57
  -1  15   0   23.67    1.67
  -2 -15   0    1.91    1.03
   2  15   0    4.00    0.93
   0 -16   0    1.49    0.76
   0  16   0    1.15    0.65
  -1 -16   0    3.12    1.26
  -1  16   0    1.57    0.72
  -5   0   1   43.60    1.76
  -4   0   1   -0.02    0.10
  -4   0   1   -0.08    0.08
   4   0  -1    0.05    0.09
  -3   0   1   79.13    2.97
  -3   0   1   82.39    2.81
  -3   0   1   83.55    2.76
   3   0  -1   78.95    2.76
   1   0  -1   15.48    0.60
  -1   0   1   15.08    0.59
   0   0  -1   -0.83    0.02
   0   0   1   -0.77    0.02
   0   0  -1   -0.79    0.01
   0   0  -1   -0.77    0.03
   0   0   1   -0.79    0.03
   0   0   1   -0.79    0.02
   0   0   1   -0.82    0.02
   0   0  -1   -0.78    0.02
   1   0   1  199.80    6.66
  -1   0  -1  220.98    6.64
   1   0   1  205.75    6.66
  -1   0  -1  200.47    6.68
  -1   0  -1  204.89    6.66
   1   0   1  201.58    6.68
  -2   0  -1    0.01    0.08
  -2   0  -1    0.22    0.11
   2   0   1   -0.09    0.07
  -2   0  -1   -0.08    0.07
   2   0   1   -0.10    0.09
   2   0   1   -0.05    0.09
  -3   0  -1   37.93    1.52
   3   0   1   36.17    1.51
  -3   0  -1   35.35    1.48
   3   0   1   35.28    1.57
  -3   0  -1   37.32    1.49
   3   0   1   36.00    1.51
   4   0   1    0.10    0.12
   4   0   1    0.04    0.14
   4   0   1   -0.01    0.13
   5  -1  -1   37.04    1.53
  -5  -1   1   35.02    1.48
   4  -1  -1   11.92    0.64
  -4  -1   1   11.92    0.61
  -4   1   1   11.61    0.60
  -4   1   1   11.85    0.66
   3  -1  -1   44.73    1.62
  -3  -1   1   45.98    1.60
  -3  -1   1   41.44    1.82
  -3  -1   1   44.38    1.70
  -3   1   1   46.58    1.59
  -3   1   1   44.60    1.65
  -3   1   1   42.15    1.74
   2  -1  -1  272.62    8.86
  -2   1   1  280.18    8.92
   1  -1  -1  502.88   15.48
   1  -1  -1  487.30   15.45
   1   1  -1  495.86   15.42
  -1   1   1  483.78   15.50
  -1   1   1  451.56   15.43
   0  -1  -1  276.00    8.81
   0  -1  -1  282.57    8.75
   0  -1   1  271.84    8.78
   0  -1  -1  285.02    8.78
   0  -1   1  274.80    8.77
   0  -1   1  259.26    8.79
   0   1   1  276.99    8.75
   0   1  -1  274.23    8.77
   0   1   1  279.49    8.81
   0   1  -1  270.11    8.80
   0   1   1  277.09    8.78
  -1  -1  -1 1000.00   30.28
   1  -1   1  998.26   30.23
   1  -1   1  795.80   30.25
   1  -1   1  999.33   30.28
  -1  -1  -1  952.10   30.27
  -1  -1  -1  849.34   30.26
  -1   1  -1  997.81   30.28
   1   1   1  998.23   30.30
  -1   1  -1  996.51   30.22
   2  -1   1   15.37    0.74
   2  -1   1   15.15    0.71
  -2  -1  -1   14.21    0.71
   2  -1   1   15.14    0.69
  -2  -1  -1   15.06    0.75
  -2  -1  -1   14.67    0.73
   2   1   1   14.82    0.74
  -2   1  -1   14.96    0.72
  -2   1  -1   15.39    0.66
  -2   1  -1   14.61    0.67
   2   1   1   14.23    0.77
   3  -1   1   19.19    0.90
   3  -1   1   18.68    0.93
   3  -1   1   18.40    0.94
  -3  -1  -1   19.26    0.92
   3   1   1   16.39    0.98
  -3   1  -1   17.58    0.90
   3   1   1   16.95    0.92
  -3   1  -1   18.77    0.87
  -3   1  -1   19.91    0.88
   4  -1   1   13.64    0.79
   4  -1   1   12.98    0.81
   4   1   1   12.90    0.92
   5  -1   1   95.99    3.62
   6  -1   1   19.69    1.19
   6  -2  -1   24.80    1.24
  -5  -2   1    6.46    0.49
   5  -2  -1    5.93    0.50
  -5   2   1    6.71    0.45
   4  -2  -1  164.03    5.66
  -4  -2   1  170.51    5.62
  -4   2   1  170.75    5.78
  -4   2   1  163.45    5.75
  -4   2   1  172.76    5.54
  -3  -2   1    3.93    0.29
   3  -2  -1    3.74    0.31
  -3   2   1    4.09    0.34
  -3   2   1    3.74    0.23
  -3   2   1    4.41    0.39
   2  -2  -1  457.70   14.93
   2  -2  -1  469.19   14.91
   2   2  -1  467.48   14.85
  -2   2   1  465.92   15.02
  -1  -2   1   81.39    2.94
   1  -2  -1   86.40    2.91
   1  -2  -1   87.13    3.00
   1  -2  -1   78.77    2.74
  -1   2   1   88.13    2.73
  -1   2   1   84.38    3.01
   1   2  -1   85.30    2.82
   0  -2  -1   11.59    0.57
   0  -2   1   11.48    0.57
   0  -2   1   11.49    0.50
   0  -2  -1   12.36    0.48
   0  -2   1   11.92    0.55
   0   2  -1   10.27    0.56
   0   2  -1   12.12    0.60
   0   2  -1   11.53    0.50
   0   2   1   12.21    0.57
   0   2   1   13.03    0.50
  -1  -2  -1  184.99    6.02
   1  -2   1  189.94    5.91
   1  -2   1  175.55    6.07
   1  -2   1  184.86    6.00
  -1  -2  -1  183.31    6.08
  -1   2  -1  191.06    5.90
  -1   2  -1  180.32    6.10
   1   2   1  183.94    6.11
   1   2   1  184.87    6.05
  -1   2  -1  189.22    6.00
  -2  -2  -1    0.60    0.17
  -2  -2  -1    0.42    0.15
   2  -2   1    0.37    0.15
  -2  -2  -1    0.48    0.16
   2  -2   1    0.71    0.15
   2  -2   1    0.63    0.14
   2   2   1    0.67    0.22
  -2   2  -1    0.66    0.11
  -2   2  -1    0.50    0.17
  -2   2  -1    0.59    0.13
  -3  -2  -1   10.96    0.66
   3  -2   1   10.38    0.63
   3  -2   1   11.66    0.69
   3  -2   1   11.08    0.62
  -3   2  -1   11.06    0.59
   3   2   1   11.69    0.79
  -3   2  -1   12.55    0.59
   4  -2   1   25.21    1.23
   4  -2   1   24.42    1.15
   4   2   1   22.79    1.35
   5  -2   1   25.32    1.28
   5  -2   1   27.04    1.38
   6  -2   1    2.73    0.50
   7  -2   1    6.50    0.90
   6  -3  -1   20.33    1.13
   5  -3  -1    3.38    0.48
  -5   3   1    3.60    0.31
  -4  -3   1   11.95    0.66
   4  -3  -1   11.15    0.68
  -4   3   1   12.06    0.54
  -4   3   1   11.46    0.67
   3  -3  -1   83.79    2.95
  -3   3   1   84.59    3.14
  -3   3   1   79.26    2.85
  -2  -3   1  203.04    6.54
   2  -3  -1  203.74    6.69
   2  -3  -1  214.70    6.70
  -2   3   1  179.01    6.40
  -2   3   1  198.04    6.83
  -2   3   1  200.20    6.60
   2   3  -1  203.43    6.53
  -1  -3   1  296.60    9.97
   1  -3  -1  292.32   10.00
   1  -3  -1  313.75    9.89
   1  -3  -1  305.78    9.60
   1   3  -1  304.21    9.74
  -1   3   1  280.06   10.02
  -1   3   1  319.89    9.60
   0  -3  -1    9.01    0.54
   0  -3   1    8.17    0.52
   0  -3   1    9.77    0.58
   0  -3  -1    9.38    0.43
   0  -3   1    9.66    0.48
   0   3   1    9.57    0.46
   0   3   1    9.07    0.55
   0   3  -1    8.78    0.61
   0   3  -1    9.49    0.47
   1  -3   1  106.13    3.31
  -1  -3  -1  104.00    3.53
   1  -3   1  105.26    3.46
  -1  -3  -1  104.11    3.56
   1  -3   1  100.05    3.59
  -1   3  -1  100.89    3.52
  -1   3  -1  104.31    3.45
   1   3   1  101.92    3.60
   1   3   1  105.35    3.57
  -1   3  -1   99.06    3.65
  -1   3  -1  104.81    3.51
   2  -3   1    2.54    0.21
  -2  -3  -1    2.78    0.37
   2  -3   1    3.45    0.39
   2  -3   1    2.89    0.25
  -2   3  -1    3.35    0.42
  -2   3  -1    2.70    0.28
   2   3   1    3.39    0.45
  -2   3  -1    3.00    0.17
   3  -3   1    9.58    0.55
   3  -3   1    8.22    0.52
   3  -3   1    9.48    0.63
  -3   3  -1   10.52    0.47
  -3   3  -1    9.03    0.52
   3   3   1    9.11    0.73
   4  -3   1  108.28    4.13
   4  -3   1  116.28    4.02
   4   3   1  110.63    4.39
  -4   3  -1  119.66    3.91
   5  -3   1    5.48    0.60
   5  -3   1    4.68    0.63
   6  -3   1    0.10    0.25
   7  -3   1   10.54    0.94
   6  -4  -1    3.18    0.52
   5  -4  -1    0.08    0.16
  -5   4   1    0.12    0.15
   4  -4  -1   17.54    0.94
  -4   4   1   16.87    0.81
   3  -4  -1   14.73    0.86
   3  -4  -1   14.79    0.83
  -3   4   1   14.02    0.99
  -3   4   1   13.73    0.63
   3   4  -1   15.43    0.73
   2  -4  -1   14.22    0.79
   2  -4  -1   12.31    0.51
   2  -4  -1   12.17    0.78
  -2  -4   1   12.94    0.86
   2   4  -1   12.87    0.64
  -2   4   1   13.09    0.46
  -2   4   1   12.14    0.75
  -2   4   1   13.36    0.92
   1  -4  -1   16.64    1.02
   1  -4  -1   16.19    0.88
   1  -4  -1   17.79    0.62
  -1  -4   1   16.83    1.00
  -1   4   1   16.41    0.65
   1   4  -1   17.85    0.79
   0  -4  -1    5.25    0.44
   0  -4   1    5.08    0.43
   0  -4   1    5.89    0.51
   0  -4  -1    5.21    0.31
   0   4  -1    3.25    0.48
   0   4   1    4.89    0.43
   0   4   1    5.29    0.35
   0   4  -1    4.65    0.35
   1  -4   1   76.93    2.70
   1  -4   1   81.93    2.51
  -1  -4  -1   77.13    2.78
  -1   4  -1   66.95    2.94
  -1   4  -1   81.64    2.71
  -1   4  -1   79.98    2.84
   1   4   1   77.26    2.84
   1   4   1   77.05    2.84
   2  -4   1   53.93    1.94
   2  -4   1   50.53    2.10
   2   4   1   55.52    2.09
  -2   4  -1   52.51    1.98
  -2   4  -1   58.28    2.16
   2   4   1   50.88    2.19
   3  -4   1   13.98    0.82
   3  -4   1   12.52    0.67
  -3   4  -1   12.58    0.66
  -3   4  -1   13.52    0.53
   3   4   1   13.15    0.93
   4  -4   1    2.03    0.40
   4  -4   1    2.11    0.34
   4   4   1    2.57    0.53
  -4   4  -1    2.59    0.23
   5  -4   1    8.09    0.62
   5  -4   1    7.86    0.84
   6  -4   1    0.29    0.29
   6  -4   1    0.57    0.26
   7  -4   1    1.70    0.49
   6  -5  -1   28.27    1.48
   5  -5  -1   19.84    1.12
   4  -5  -1    1.51    0.32
   4   5  -1    2.17    0.33
  -4   5   1    1.93    0.23
   3  -5  -1   44.22    1.87
   3  -5  -1   42.39    1.88
   3   5  -1   41.74    1.67
   2  -5  -1    4.38    0.58
  -2  -5   1    4.13    0.61
   2  -5  -1    4.44    0.29
   2  -5  -1    4.09    0.51
   2   5  -1    4.75    0.38
  -1  -5   1    8.30    0.73
   1  -5  -1    7.53    0.60
   1  -5  -1    6.28    0.72
   1  -5  -1    7.30    0.32
   1   5  -1    7.44    0.50
  -1   5   1    7.17    0.38
  -1   5   1    7.94    0.66
   0  -5  -1  509.34   16.36
   0  -5   1  449.69   15.66
   0  -5   1  480.24   15.92
   0  -5  -1  514.82   15.65
   0  -5  -1  488.65   15.88
   0  -5   1  502.73   16.08
   0   5  -1  490.58   15.73
   0   5  -1  465.20   16.17
   0   5   1  496.34   15.73
   1  -5   1    0.05    0.15
   1  -5   1    0.00    0.09
   1  -5   1    0.02    0.04
  -1  -5  -1    0.06    0.11
  -1   5  -1    0.00    0.11
   1   5   1    0.11    0.13
   1   5   1    0.05    0.14
   2  -5   1   15.65    0.92
   2  -5   1   15.30    0.73
  -2   5  -1   15.17    0.83
  -2   5  -1   15.41    0.75
   2   5   1   16.09    0.91
   2   5   1   14.17    0.93
   3  -5   1    0.19    0.12
   3  -5   1   -0.12    0.12
  -3   5  -1    0.10    0.12
   3   5   1    0.00    0.14
   4  -5   1    8.31    0.72
   4  -5   1    8.14    0.56
  -4   5  -1    8.78    0.40
   5  -5   1   11.86    0.92
   5  -5   1   11.54    0.75
   6  -5   1    0.51    0.35
   7  -5   1   10.52    1.20
   6  -6  -1    8.53    0.77
   5  -6  -1   41.08    1.90
   4  -6  -1    3.34    0.56
   4  -6  -1    3.52    0.51
   4   6  -1    3.09    0.41
   3  -6  -1   18.74    0.78
   3  -6  -1   20.24    1.17
   3  -6  -1   19.61    1.15
   3   6  -1   18.94    0.96
  -2  -6   1   14.04    1.12
   2  -6  -1   16.17    0.99
   2  -6  -1   14.80    1.03
   2  -6  -1   14.63    0.71
   2   6  -1   14.93    0.81
   1  -6  -1    0.08    0.23
  -1  -6   1    0.33    0.24
   1  -6  -1   -0.01    0.14
  -1  -6   1   -0.03    0.12
   1  -6  -1    0.06    0.05
   1   6  -1    0.01    0.13
  -1   6   1    0.15    0.09
   0  -6   1   53.78    2.30
   0  -6   1   54.38    2.43
   0  -6  -1   56.49    2.26
   0  -6  -1   55.66    2.66
   0  -6   1   53.54    2.04
   0   6   1   53.38    2.09
   0   6  -1   58.39    2.13
   1  -6   1   48.13    2.11
   1  -6   1   46.75    1.86
   1  -6   1   46.30    1.62
  -1   6  -1   46.91    1.84
   1   6   1   46.36    1.96
   1   6   1   46.03    2.02
   2  -6   1   40.82    1.60
   2  -6   1   41.62    1.88
  -2   6  -1   41.41    1.65
   2   6   1   40.13    1.90
   3  -6   1    3.06    0.35
   3  -6   1    3.17    0.51
   3   6   1    2.10    0.48
  -3   6  -1    3.35    0.38
   3   6   1    3.48    0.42
   3   6   1    3.31    0.52
   4  -6   1    0.71    0.30
   4  -6   1    1.23    0.26
   5  -6   1    0.06    0.22
   5  -6   1    0.02    0.15
   6  -6   1    3.39    0.63
   7  -6   1   29.89    1.81
   6  -7  -1   -0.01    0.26
   5  -7  -1   56.31    2.49
   5   7  -1   57.80    2.31
   4  -7  -1    2.95    0.51
   4  -7  -1    1.80    0.42
   4   7  -1    2.50    0.39
   3  -7  -1    0.13    0.22
  -3  -7   1    0.07    0.34
   3  -7  -1    0.19    0.12
   3  -7  -1    0.08    0.23
   3   7  -1    0.14    0.17
  -2  -7   1   38.44    2.15
   2  -7  -1   39.84    2.02
   2  -7  -1   39.27    1.58
   2  -7  -1   38.41    1.86
   2   7  -1   40.43    1.69
   1  -7  -1   12.72    0.53
  -1  -7   1   12.71    1.07
   1  -7  -1   13.52    1.12
   1  -7  -1   13.29    0.90
   1   7  -1   12.43    0.76
  -1   7   1   11.40    0.62
   0  -7  -1  162.83    6.31
   0  -7  -1  171.41    5.44
   0  -7   1  144.68    5.44
   0  -7   1  170.05    6.06
   0  -7   1  155.42    5.81
   0  -7  -1  166.19    5.74
   0   7  -1  167.31    5.59
   0   7   1  162.24    5.57
   1  -7   1   21.54    1.31
   1  -7   1   21.51    0.83
   1  -7   1   21.28    1.09
   1   7   1   19.17    1.12
  -1   7  -1   21.18    1.06
   2  -7   1   17.93    0.89
   2  -7   1   18.96    1.17
  -2   7  -1   17.71    0.94
   2   7   1   18.91    1.02
   2   7   1   18.31    1.15
   2   7   1   15.73    1.09
   3  -7   1   -0.03    0.12
   3  -7   1    0.05    0.20
  -3   7  -1    0.11    0.18
   3   7   1    0.07    0.20
   3   7   1   -0.07    0.24
   4  -7   1   40.19    1.68
   4  -7   1   42.62    2.00
   4   7   1   39.85    1.72
   5  -7   1    0.06    0.24
   5  -7   1    0.08    0.16
   6  -7   1    8.64    1.00
   7  -7   1   -0.20    0.37
   6  -8  -1   14.21    1.12
   5  -8  -1   30.50    1.68
   5  -8  -1   28.09    1.61
   5   8  -1   29.20    1.45
   4  -8  -1   38.48    1.92
   4  -8  -1   40.42    1.95
  -4  -8   1   37.64    2.34
  -4   8   1   35.34    1.68
   4   8  -1   33.47    1.64
   3  -8  -1  175.89    5.81
  -3  -8   1  172.19    6.83
   3  -8  -1  177.49    6.45
   3  -8  -1  177.77    6.36
   3   8  -1  171.84    6.06
  -2  -8   1   17.43    1.43
   2  -8  -1   20.29    1.39
   2  -8  -1   18.90    0.98
   2  -8  -1   17.27    1.16
   2   8  -1   19.59    1.06
  -1  -8   1   12.41    1.35
   1  -8  -1   12.14    0.90
   1  -8  -1   13.32    1.17
   1  -8  -1   11.69    0.52
   1   8  -1   10.66    0.76
   0  -8   1   10.48    0.88
   0  -8  -1   10.33    0.59
   0  -8   1   10.99    1.19
   0  -8  -1   10.04    1.22
   0   8  -1   10.65    0.73
   0   8   1    8.47    0.65
   1  -8   1    0.16    0.20
  -1  -8  -1    0.03    0.35
   1  -8   1    0.26    0.26
   1  -8   1    0.19    0.11
   1   8   1   -0.16    0.14
  -1   8  -1    0.29    0.20
   2  -8   1    4.93    0.71
   2  -8   1    5.30    0.54
  -2   8  -1    5.45    0.59
   2   8   1    5.32    0.62
   3  -8   1   68.17    2.62
   3  -8   1   73.92    3.05
  -3   8  -1   71.23    2.71
   3   8   1   69.59    2.77
   4  -8   1   11.29    0.70
   4  -8   1    9.06    0.97
   4   8   1   10.74    0.78
   5  -8   1    0.08    0.31
   6  -8   1    0.17    0.34
   7  -8   1    0.21    0.47
   6  -9  -1    2.63    0.62
   6   9  -1    2.98    0.55
   5  -9  -1    4.59    0.73
  -5  -9   1    3.55    1.01
   5   9  -1    4.35    0.60
   4  -9  -1   -0.03    0.23
  -4  -9   1   -0.12    0.52
   4  -9  -1   -0.11    0.27
   4   9  -1    0.17    0.24
   3  -9  -1   28.19    1.21
   3  -9  -1   26.61    1.60
  -3  -9   1   30.19    2.09
   3  -9  -1   30.68    1.79
   3   9  -1   27.80    1.43
  -3   9   1   28.83    1.50
   2  -9  -1   27.93    1.79
  -2  -9   1   26.54    1.89
   2  -9  -1   27.24    1.55
   2  -9  -1   27.74    1.34
   2   9  -1   26.30    1.38
   1  -9  -1    0.18    0.09
  -1  -9   1    0.27    0.35
   1  -9  -1    0.21    0.37
   1   9  -1    0.61    0.28
   0  -9   1   38.03    2.18
   0  -9   1   38.89    1.61
   0  -9  -1   41.12    2.45
   0  -9   1   36.61    1.98
   0   9  -1   38.76    1.76
   1  -9   1   14.99    0.98
   1  -9   1   14.78    0.65
   1  -9   1   12.02    1.11
  -1  -9  -1   17.18    1.83
   1   9   1   15.30    1.01
  -1   9  -1   14.18    0.92
  -2  -9  -1   19.27    1.75
   2  -9   1   19.99    1.36
   2  -9   1   19.79    1.03
  -2   9  -1   19.67    1.11
   2   9   1   17.34    1.12
   3  -9   1   23.06    1.19
   3  -9   1   27.36    1.62
   3   9   1   27.28    1.38
  -3   9  -1   26.00    1.32
   4  -9   1    1.91    0.51
   4  -9   1    1.31    0.29
   4   9   1    1.44    0.37
   5  -9   1    0.46    0.35
   6  -9   1    0.33    0.39
   7  -9   1    0.39    0.51
   6 -10  -1   -0.30    0.36
   6  10  -1    0.05    0.32
   5 -10  -1   17.95    1.36
  -5 -10   1   17.20    2.01
   5  10  -1   17.57    1.16
   4 -10  -1   38.57    2.14
  -4 -10   1   41.38    2.65
   4  10  -1   37.56    1.84
   3 -10  -1    8.86    0.61
   3 -10  -1    9.82    1.17
  -3 -10   1    8.11    1.33
   3  10  -1   10.03    0.81
  -3  10   1   10.36    0.89
   2 -10  -1   61.33    2.50
   2 -10  -1   60.69    3.08
  -2 -10   1   60.29    3.23
  -2  10   1   61.48    2.63
   2  10  -1   59.35    2.56
   1 -10  -1    8.69    1.27
  -1 -10   1    9.85    1.33
   1 -10  -1    8.06    0.98
   1  10  -1    9.97    0.82
  -1  10   1   10.82    0.88
   0 -10   1    3.90    0.76
   0 -10   1    4.29    0.86
   0 -10  -1    5.11    1.04
   0  10   1    5.33    0.68
   0  10  -1    5.67    0.68
  -1 -10  -1  101.04    4.90
   1 -10   1  109.98    4.51
   1 -10   1  106.12    4.08
  -1  10  -1  105.93    3.99
   1  10   1  104.47    4.05
  -2 -10  -1    0.30    0.55
   2 -10   1    0.36    0.24
   2 -10   1    0.28    0.39
   2  10   1    0.60    0.33
  -2  10  -1    0.12    0.26
  -3 -10  -1    3.14    0.97
   3 -10   1    3.52    0.72
   3 -10   1    3.59    0.47
  -3  10  -1    2.95    0.51
   3  10   1    3.22    0.54
   4 -10   1    2.21    0.57
   4  10   1    2.85    0.51
   5 -10   1   -0.34    0.32
   5  10   1    0.41    0.30
   6 -10   1   -0.16    0.38
   6 -11  -1    0.45    0.51
   6  11  -1    1.00    0.46
  -5 -11   1    0.15    0.74
   5 -11  -1    0.60    0.45
   5  11  -1    0.39    0.35
  -4 -11   1    0.58    0.67
   4 -11  -1    0.51    0.42
   4  11  -1   -0.06    0.26
  -3 -11   1    1.13    0.67
   3 -11  -1    0.30    0.43
  -3  11   1    0.21    0.36
   3  11  -1    0.39    0.30
  -2 -11   1    0.29    0.55
   2 -11  -1    0.15    0.43
   2 -11  -1   -0.03    0.24
   2  11  -1    0.24    0.26
  -2  11   1   -0.60    0.25
   1 -11  -1   27.53    2.06
   1 -11  -1   27.56    1.68
  -1 -11   1   28.89    2.07
   1  11  -1   26.57    1.49
  -1  11   1   26.91    1.55
   0 -11  -1   11.00    1.60
   0 -11   1    8.34    1.18
   0 -11   1    7.04    0.97
   0  11   1    8.67    0.93
   0  11  -1    6.67    0.78
   1 -11   1    4.06    0.66
  -1 -11  -1    3.42    1.00
   1 -11   1    3.92    0.85
  -1  11  -1    3.09    0.55
   1  11   1    2.57    0.54
  -2 -11  -1    6.06    1.29
   2 -11   1    5.41    0.65
   2 -11   1    6.84    1.04
  -2  11  -1    5.29    0.70
   2  11   1    4.12    0.65
   3 -11   1    0.87    0.52
  -3 -11  -1    1.00    0.77
   3 -11   1    0.77    0.28
   3  11   1    0.56    0.35
  -4 -11  -1    0.11    0.84
   4 -11   1    0.07    0.41
   4  11   1    0.31    0.31
   5 -11   1    0.17    0.47
  -5 -11  -1    0.79    1.00
   5  11   1    1.12    0.41
   6 -11   1    0.39    0.53
   6 -12  -1   -0.18    0.48
  -5 -12   1    0.72    0.87
   5 -12  -1    0.92    0.56
   5  12  -1    1.12    0.47
  -4 -12   1    1.57    0.89
   4 -12  -1    0.85    0.52
   4  12  -1    0.83    0.39
   3 -12  -1    3.81    0.88
  -3 -12   1    3.71    1.09
  -3  12   1    2.28    0.59
   3  12  -1    3.16    0.61
  -2 -12   1    0.08    0.63
   2 -12  -1    0.85    0.36
   2 -12  -1    0.96    0.65
  -2  12   1    1.78    0.52
   2  12  -1    1.34    0.45
  -1 -12   1   13.69    1.62
  -1 -12   1   12.65    1.49
   1 -12  -1   14.08    1.84
   1 -12  -1   12.66    1.29
   1  12  -1   11.53    1.00
  -1  12   1   15.11    1.16
   0 -12  -1    0.61    0.62
   0 -12   1   -0.09    0.37
   0 -12   1    0.17    0.49
   0  12   1    0.32    0.35
   0  12  -1   -0.41    0.28
   1 -12   1    8.05    1.24
   1 -12   1    7.09    0.92
  -1 -12  -1    6.29    1.30
   1  12   1    5.06    0.78
  -1  12  -1    5.30    0.76
   2 -12   1    0.82    0.36
  -2 -12  -1    0.84    0.79
   2 -12   1    1.37    0.60
   2  12   1    1.18    0.42
  -2  12  -1    0.60    0.37
  -3 -12  -1    3.07    1.18
   3 -12   1    2.50    0.53
   3 -12   1    3.93    0.84
   3  12   1    3.41    0.62
  -4 -12  -1    1.08    1.03
   4 -12   1    2.02    0.68
   4  12   1    2.06    0.55
  -5 -12  -1    1.31    1.13
   5 -12   1    0.69    0.56
   5  12   1    0.84    0.41
   5 -13  -1    1.38    0.68
  -4 -13   1    2.57    1.02
   4 -13  -1    3.09    0.87
   4  13  -1    1.06    0.50
  -3 -13   1    0.15    0.69
   3 -13  -1    1.29    0.68
   3  13  -1    0.99    0.44
   2 -13  -1   21.08    1.50
  -2 -13   1   24.55    2.50
   2 -13  -1   22.13    1.92
   2  13  -1   20.19    1.36
  -2  13   1   17.81    1.38
  -1 -13   1    0.24    0.56
   1 -13  -1    0.34    0.47
  -1 -13   1   -0.12    0.48
   1 -13  -1   -0.48    0.46
   1  13  -1    0.20    0.35
  -1  13   1    0.15    0.39
   0 -13  -1    3.67    1.10
   0 -13   1    2.62    0.74
   0 -13   1    1.66    0.75
   0  13  -1    3.30    0.67
   0  13   1    2.82    0.62
   1 -13   1    0.14    0.53
   1 -13   1    0.22    0.35
  -1 -13  -1   -0.67    0.65
   1  13   1   -0.18    0.30
  -1  13  -1    0.14    0.36
  -2 -13  -1   -0.03    0.70
   2 -13   1    0.28    0.54
   2 -13   1    0.37    0.33
  -2  13  -1    0.12    0.42
   2  13   1    0.26    0.37
  -3 -13  -1    4.24    1.36
   3 -13   1    2.48    0.80
   3  13   1    1.73    0.54
   4 -13   1    1.37    0.69
  -4 -13  -1    3.55    1.31
   4  13   1    1.43    0.54
  -5 -13  -1    5.70    1.67
  -4 -14   1   -0.20    0.91
  -3 -14   1    6.05    1.38
   3 -14  -1    8.15    1.34
   3  14  -1    6.87    0.97
  -2 -14   1    4.28    1.09
   2 -14  -1    5.48    1.20
  -2 -14   1    4.82    1.25
  -2  14   1    4.65    0.79
   2  14  -1    4.88    0.79
  -1 -14   1    1.87    0.71
   1 -14  -1    1.48    0.87
   1 -14  -1    1.79    0.60
  -1 -14   1    1.40    0.81
  -1  14   1    0.91    0.52
   1  14  -1    0.97    0.46
   0 -14   1    1.95    0.70
   0 -14   1    3.10    1.07
   0 -14  -1    5.15    1.04
   0 -14  -1    1.32    0.89
   0  14   1    3.05    0.72
   0  14  -1    1.68    0.57
   1 -14   1    2.40    0.84
  -1 -14  -1    0.96    0.93
   1 -14   1    1.51    0.55
  -1  14  -1    0.98    0.49
   1  14   1    1.01    0.49
   2 -14   1   -0.50    0.49
  -2 -14  -1    0.32    0.91
   2 -14   1    0.31    0.58
   2  14   1    0.03    0.40
  -3 -14  -1    3.88    1.36
   3 -14   1    3.89    1.06
   3  14   1    1.71    0.69
  -3 -15   1    6.04    1.54
  -2 -15   1   16.49    2.13
  -2 -15   1   14.79    1.95
   2  15  -1   12.14    1.28
  -2  15   1   10.23    1.80
  -1 -15   1    0.00    0.67
   1 -15  -1    0.90    0.93
  -1 -15   1    0.70    0.81
   1  15  -1   -0.22    0.42
  -1  15   1    0.04    0.48
   0 -15  -1    0.83    0.69
   0 -15   1    1.49    0.76
   0 -15   1    2.25    0.73
   0 -15  -1    1.31    0.93
   0  15   1    0.25    0.48
   0  15  -1    1.21    0.56
   1 -15   1    0.57    0.80
   1 -15   1    0.13    0.48
  -1 -15  -1    0.72    0.95
   1  15   1    0.25    0.47
  -1  15  -1    0.32    0.52
  -1  16   1    4.76    0.96
   0 -16   1    0.81    0.66
   0 -16  -1   -0.10    0.69
   0  16  -1    0.32    0.53
  -1 -16  -1   19.12    2.56
  -5   0   2    0.04    0.15
  -4   0   2    0.32    0.13
   3   0  -2   -0.01    0.09
  -2   0   2   53.12    1.92
   2   0  -2   55.90    1.96
  -1   0   2   -0.11    0.04
  -1   0   2   -0.13    0.03
   1   0  -2   -0.07    0.05
  -1   0   2   -0.14    0.06
   1   0  -2   -0.08    0.06
   0   0   2  505.10   16.69
   0   0  -2  513.30   16.72
   0   0  -2  535.07   16.69
   0   0   2  533.61   16.73
   0   0  -2  498.71   16.65
   0   0   2  530.80   16.71
   0   0  -2  545.42   16.71
   0   0   2  534.64   16.66
   1   0   2   -0.25    0.06
  -1   0  -2   -0.31    0.04
  -1   0  -2   -0.27    0.06
   1   0   2   -0.28    0.08
  -1   0  -2   -0.27    0.06
   1   0   2   -0.25    0.05
  -2   0  -2  171.82    6.03
  -2   0  -2  180.87    6.01
   2   0   2  177.30    6.02
   2   0   2  179.06    6.06
  -2   0  -2  191.08    5.95
   2   0   2  178.62    6.02
   3   0   2    0.02    0.12
   3   0   2    0.02    0.11
   3   0   2   -0.04    0.10
   4   0   2   67.00    2.72
   4   0   2   63.15    2.60
   4   0   2   65.42    2.61
   5   0   2    0.12    0.21
   5   0   2   -0.09    0.14
  -5   1   2   43.70    1.67
  -4   1   2    3.34    0.27
  -3   1   2  459.11   14.67
   3   1  -2  462.19   14.80
  -2  -1   2  310.39    9.82
   2  -1  -2  304.90    9.88
   2   1  -2  297.57    9.84
  -2   1   2  305.90    9.84
   1  -1  -2  142.96    5.11
  -1  -1   2  152.62    5.14
   1  -1  -2  160.32    5.20
   1  -1  -2  161.09    5.04
  -1  -1   2  161.45    5.17
   1   1  -2  157.11    5.22
   1   1  -2  159.13    5.07
  -1   1   2  161.52    5.11
  -1   1   2  156.80    5.17
  -1   1   2  157.34    5.05
   1   1  -2  159.28    5.16
   0  -1   2  259.26    8.39
   0  -1   2  263.12    8.37
   0  -1   2  255.86    8.37
   0  -1   2  266.58    8.33
   0  -1  -2  258.46    8.40
   0  -1  -2  257.00    8.33
   0  -1  -2  266.62    8.38
   0   1  -2  267.77    8.38
   0   1   2  266.75    8.33
   0   1   2  266.83    8.40
   0   1  -2  244.10    8.36
   0   1  -2  251.83    8.38
   0   1   2  257.81    8.38
   1  -1   2  135.62    4.50
   1  -1   2  131.23    4.43
   1  -1   2  135.18    4.36
  -1  -1  -2  134.98    4.41
   1   1   2  129.88    4.48
  -1   1  -2  133.89    4.34
   1   1   2  134.11    4.45
  -1   1  -2  130.62    4.42
  -2  -1  -2   13.59    0.77
   2  -1   2   14.80    0.73
   2  -1   2   14.63    0.79
   2  -1   2   15.00    0.75
  -2  -1  -2   15.53    0.75
  -2  -1  -2   17.15    0.81
  -2   1  -2   14.88    0.66
  -2   1  -2   14.48    0.78
   2   1   2   15.82    0.82
   2   1   2   15.18    0.80
  -2   1  -2   16.02    0.75
   3  -1   2    4.46    0.54
   3  -1   2    3.81    0.47
   3  -1   2    4.10    0.46
  -3   1  -2    3.25    0.31
   3   1   2    4.31    0.53
   3   1   2    3.78    0.48
   4  -1   2    1.78    0.35
   4  -1   2    0.78    0.27
   4  -1   2    0.62    0.25
   4   1   2    1.04    0.32
   4   1   2    0.85    0.28
   5  -1   2    0.79    0.32
   5  -1   2    1.18    0.35
   5  -1   2    0.76    0.31
   5   1   2    1.92    0.49
   6  -1   2    1.02    0.37
   6  -2  -2    9.40    0.63
   5  -2  -2   33.30    1.38
  -5   2   2   33.10    1.56
   4  -2  -2  119.38    4.09
  -4   2   2  123.24    4.31
   3  -2  -2   83.04    2.83
   3  -2  -2   81.61    2.95
   3   2  -2   81.05    2.87
  -3   2   2   83.19    3.02
   2  -2  -2  747.41   22.72
   2  -2  -2  724.78   22.69
  -2  -2   2  696.17   22.58
   2   2  -2  733.91   22.63
  -2   2   2  715.30   22.64
  -2   2   2  641.23   22.54
  -1  -2   2    0.05    0.09
   1  -2  -2    0.08    0.05
  -1  -2   2   -0.01    0.06
   1  -2  -2    0.10    0.06
  -1  -2   2    0.13    0.07
   1  -2  -2    0.05    0.09
   1   2  -2   -0.02    0.07
  -1   2   2    0.03    0.07
  -1   2   2    0.27    0.07
   1   2  -2    0.08    0.11
  -1   2   2   -0.01    0.04
   0  -2  -2    4.81    0.27
   0  -2   2    5.28    0.29
   0  -2   2    4.49    0.32
   0  -2  -2    5.40    0.37
   0  -2   2    5.10    0.31
   0  -2   2    5.20    0.33
   0  -2  -2    5.81    0.33
   0   2  -2    5.16    0.35
   0   2   2    5.02    0.29
   0   2   2    5.23    0.32
   0   2   2    5.48    0.37
   0   2  -2    5.53    0.33
   1  -2   2    1.40    0.23
   1  -2   2    2.08    0.24
   1  -2   2    1.82    0.14
  -1   2  -2    1.64    0.20
  -1   2  -2    1.73    0.19
   1   2   2    2.04    0.25
   1   2   2    1.06    0.20
  -1   2  -2    1.71    0.14
   1   2   2    1.53    0.24
  -2  -2  -2    7.83    0.54
   2  -2   2    7.32    0.48
   2  -2   2    8.07    0.45
   2  -2   2    8.07    0.55
   2   2   2    7.91    0.57
  -2   2  -2    7.80    0.47
  -2   2  -2    8.64    0.63
  -2   2  -2    8.25    0.40
   2   2   2    7.64    0.54
   3  -2   2    1.28    0.25
   3  -2   2    1.06    0.26
   3  -2   2    0.80    0.21
  -3   2  -2    1.25    0.19
   3   2   2    0.93    0.25
   3   2   2    1.30    0.33
   4  -2   2  105.02    3.78
   4  -2   2  103.42    3.86
   4  -2   2   99.88    3.80
   4   2   2  103.94    4.05
   5  -2   2    5.44    0.70
   5  -2   2    5.97    0.69
   5   2   2    6.00    0.88
   6  -2   2    8.29    0.89
   6  -2   2    6.87    0.85
   6  -3  -2    2.54    0.41
   5  -3  -2    0.22    0.15
   4  -3  -2   25.44    1.19
   4  -3  -2   21.81    1.02
  -4   3   2   21.97    1.25
   3  -3  -2   37.60    1.49
   3  -3  -2   37.04    1.57
   3   3  -2   37.53    1.46
  -3   3   2   33.75    1.65
  -2  -3   2    3.86    0.41
   2  -3  -2    3.60    0.45
  -2  -3   2    3.15    0.31
   2  -3  -2    2.43    0.35
  -2   3   2    3.38    0.37
  -2   3   2    3.52    0.22
   2   3  -2    3.02    0.32
  -1  -3   2  111.27    4.07
  -1  -3   2  111.36    3.88
   1  -3  -2  122.06    3.81
   1  -3  -2  118.42    3.79
  -1  -3   2  112.19    3.96
   1  -3  -2  113.74    4.03
   1   3  -2  119.34    3.92
  -1   3   2  120.04    3.78
  -1   3   2  115.93    3.99
   1   3  -2  112.26    4.06
   0  -3  -2   -0.01    0.08
   0  -3  -2   -0.17    0.09
   0  -3   2   -0.08    0.11
   0  -3   2   -0.01    0.09
   0  -3   2    0.00    0.08
   0  -3  -2   -0.08    0.05
   0   3  -2   -0.16    0.10
   0   3  -2   -0.02    0.11
   0   3   2   -0.06    0.06
   0   3  -2    0.05    0.09
   0   3   2   -0.04    0.09
  -1  -3  -2  113.01    4.32
   1  -3   2  134.23    4.34
   1  -3   2  128.76    4.29
  -1  -3  -2  129.17    4.41
   1  -3   2  133.16    4.19
  -1   3  -2  128.04    4.21
   1   3   2  134.74    4.45
  -1   3  -2  128.51    4.36
  -1   3  -2  130.32    4.29
   1   3   2  131.92    4.41
   2  -3   2    5.73    0.35
   2  -3   2    5.91    0.42
   2  -3   2    6.65    0.51
   2   3   2    6.36    0.53
  -2   3  -2    5.84    0.30
  -2   3  -2    5.42    0.39
   3  -3   2   30.25    1.28
   3  -3   2   29.88    1.31
   3  -3   2   28.07    1.39
   3   3   2   28.32    1.51
  -3   3  -2   31.58    1.15
   4  -3   2    1.24    0.29
   4  -3   2    1.31    0.31
   4  -3   2    1.74    0.38
   4   3   2    1.46    0.40
   5  -3   2   15.03    1.06
   5  -3   2   15.63    0.98
   5   3   2   17.48    1.28
   6  -3   2   13.36    0.96
   6  -3   2   14.19    1.08
   7  -3   2    6.69    0.90
   6  -4  -2    6.74    0.59
   5  -4  -2   36.72    1.58
   4  -4  -2   46.79    1.88
   4  -4  -2   48.39    2.04
   4   4  -2   45.16    1.84
  -3  -4   2    9.45    0.73
   3  -4  -2    8.67    0.62
   3  -4  -2    8.95    0.67
   3   4  -2    8.48    0.55
  -3   4   2    8.76    0.78
  -3   4   2    8.58    0.43
   2  -4  -2    2.20    0.41
  -2  -4   2    2.19    0.38
   2  -4  -2    2.41    0.40
  -2   4   2    2.17    0.16
   2   4  -2    2.10    0.29
  -1  -4   2  135.62    4.64
  -1  -4   2  138.73    4.89
   1  -4  -2  138.00    5.09
  -1  -4   2  139.56    4.82
   1  -4  -2  140.95    4.86
   1  -4  -2  141.41    4.56
   1  -4  -2  138.63    4.49
  -1   4   2  141.78    4.52
   1   4  -2  137.51    4.65
   1   4  -2  127.33    4.90
  -1   4   2  138.03    4.77
   0  -4   2   20.94    0.94
   0  -4   2   21.46    1.05
   0  -4  -2   23.94    0.90
   0  -4   2   22.00    1.02
   0  -4  -2   22.95    1.10
   0  -4  -2   22.55    0.97
   0   4   2   21.98    0.94
   0   4   2   21.46    1.05
   0   4  -2   19.27    1.07
   0   4  -2   21.74    0.94
   1  -4   2    3.05    0.18
   1  -4   2    2.86    0.31
   1  -4   2    2.96    0.39
  -1  -4  -2    2.77    0.36
  -1  -4  -2    3.08    0.35
  -1  -4  -2    3.08    0.40
   1  -4   2    3.39    0.35
   1   4   2    3.60    0.44
  -1   4  -2    3.11    0.37
   1   4   2    3.05    0.39
  -1   4  -2    2.89    0.30
   2  -4   2   81.05    2.93
   2  -4   2   84.07    3.10
   2  -4   2   82.58    2.78
  -2   4  -2   84.38    2.75
   2   4   2   84.29    3.04
  -2   4  -2   82.46    2.98
   2   4   2   80.34    3.17
   3  -4   2   11.24    0.67
   3  -4   2   10.79    0.60
   3  -4   2   11.24    0.78
  -3   4  -2   11.49    0.50
   3   4   2   10.29    0.84
   4  -4   2   13.31    0.93
   4  -4   2   12.79    0.77
   4  -4   2   14.33    0.83
   4   4   2   11.86    1.01
  -4   4  -2   13.94    0.63
   5  -4   2   77.53    3.18
   5  -4   2   76.58    2.99
   5   4   2   74.65    3.43
   6  -4   2   10.09    0.82
   6  -4   2    9.78    1.07
   7  -4   2    0.59    0.42
   6  -5  -2   23.39    1.25
   5  -5  -2   36.26    1.63
   4  -5  -2   16.19    1.07
   4  -5  -2   17.43    0.97
   4   5  -2   16.78    0.90
  -4   5   2   15.95    0.70
   3  -5  -2   10.74    0.82
  -3  -5   2   10.24    0.87
   3  -5  -2   12.01    0.82
   3   5  -2   10.69    0.67
  -3   5   2   11.42    0.47
   2  -5  -2    3.61    0.57
   2  -5  -2    4.57    0.58
  -2  -5   2    4.16    0.57
   2   5  -2    4.71    0.41
  -2   5   2    4.72    0.25
   1  -5  -2   12.61    0.84
  -1  -5   2   13.34    0.89
  -1  -5   2   13.42    0.87
   1  -5  -2   12.40    1.02
   1  -5  -2   14.04    0.56
  -1   5   2   13.01    0.61
   1   5  -2   13.15    0.71
   1   5  -2   14.49    1.01
   0  -5   2    0.06    0.13
   0  -5  -2    0.05    0.07
   0  -5   2    0.16    0.14
   0  -5   2    0.40    0.19
   0  -5  -2    0.02    0.16
   0   5  -2    0.09    0.12
   0   5   2    0.06    0.14
   0   5   2   -0.03    0.06
   1  -5   2    5.04    0.57
   1  -5   2    5.11    0.44
   1  -5   2    5.56    0.27
  -1  -5  -2    3.70    0.48
   1  -5   2    4.63    0.39
   1   5   2    4.96    0.46
  -1   5  -2    5.43    0.40
   1   5   2    4.32    0.54
   2  -5   2   29.55    1.40
   2  -5   2   27.45    1.21
   2  -5   2   28.27    1.03
   2   5   2   29.54    1.38
  -2   5  -2   28.14    1.17
   2   5   2   27.12    1.43
   3  -5   2    9.59    0.63
   3  -5   2   11.42    0.80
   3  -5   2    9.31    0.52
  -3   5  -2   11.01    0.46
   3   5   2   10.74    0.87
   4  -5   2    0.23    0.24
   4  -5   2    0.02    0.12
   4   5   2   -0.08    0.21
  -4   5  -2    0.04    0.11
   5  -5   2   -0.23    0.22
   5  -5   2   -0.11    0.15
   5   5   2   -0.13    0.27
   6  -5   2    7.10    0.91
   6  -5   2    8.32    1.00
   7  -5   2   13.64    1.37
   6  -6  -2    8.42    0.74
   5  -6  -2    2.01    0.48
   5  -6  -2    4.15    0.56
  -5  -6   2    4.52    0.79
   5   6  -2    3.45    0.48
   4  -6  -2    8.01    0.70
  -4  -6   2    9.39    1.06
   4  -6  -2    8.35    0.90
   4   6  -2    8.13    0.63
  -4   6   2    8.29    0.46
  -4   6   2    8.11    0.36
   3  -6  -2    3.98    0.62
   3  -6  -2    2.96    0.55
  -3  -6   2    4.60    0.70
   3   6  -2    4.07    0.48
  -3   6   2    4.21    0.22
  -2  -6   2   32.33    1.70
   2  -6  -2   30.85    1.73
   2  -6  -2   29.90    1.16
   2  -6  -2   33.44    1.33
   2  -6  -2   31.59    1.61
   2   6  -2   32.77    1.41
  -2   6   2   34.23    1.19
  -1  -6   2    2.42    0.46
   1  -6  -2    2.25    0.55
   1  -6  -2    3.05    0.22
  -1  -6   2    2.51    0.51
   1  -6  -2    2.28    0.42
  -1   6   2    2.52    0.30
   1   6  -2    3.19    0.39
   0  -6   2   90.49    3.46
   0  -6  -2   90.15    3.42
   0  -6   2   82.25    3.31
   0  -6  -2   92.70    3.08
   0   6   2   86.54    3.20
   0   6  -2   90.04    3.20
  -1  -6  -2   44.30    1.91
   1  -6   2   46.44    1.80
   1  -6   2   44.24    1.53
   1  -6   2   44.81    1.98
  -1   6  -2   45.46    1.77
   1   6   2   41.57    1.89
   1   6   2   44.36    1.98
   2  -6   2   87.08    2.97
   2  -6   2   87.31    3.24
  -2   6  -2   84.99    2.94
   2   6   2   66.06    3.08
   2   6   2   80.65    3.26
   3  -6   2    5.89    0.68
   3  -6   2    5.02    0.52
   3   6   2    5.97    0.77
   4  -6   2    0.26    0.17
   4  -6   2    0.60    0.30
   4   6   2    0.21    0.27
   5  -6   2   28.86    1.63
   5  -6   2   27.31    1.39
   6  -6   2    6.52    0.92
   7  -6   2    0.79    0.48
   6  -7  -2    3.77    0.58
   5  -7  -2   17.99    1.15
  -5  -7   2   15.80    1.41
   5  -7  -2   19.05    1.31
   5   7  -2   17.49    1.05
   4  -7  -2   34.24    1.75
  -4  -7   2   35.37    2.03
   4  -7  -2   35.28    1.87
   4   7  -2   34.65    1.59
  -3  -7   2    3.15    0.64
   3  -7  -2    2.63    0.56
   3  -7  -2    3.16    0.57
   3   7  -2    3.99    0.50
  -2  -7   2   53.92    2.52
   2  -7  -2   52.87    2.40
   2  -7  -2   53.10    2.07
   2  -7  -2   52.61    2.58
   2  -7  -2   51.31    1.82
   2   7  -2   54.46    2.14
  -2   7   2   52.31    1.88
   1  -7  -2    3.83    0.61
   1  -7  -2    3.71    0.74
  -1  -7   2    3.04    0.59
  -1  -7   2    2.69    0.53
  -1   7   2    2.69    0.33
   1   7  -2    3.01    0.40
   0  -7   2    6.14    0.73
   0  -7   2    6.19    0.77
   0  -7  -2    4.98    0.63
   0  -7  -2    6.82    1.02
   0   7   2    5.23    0.48
   0   7  -2    4.98    0.52
   1  -7   2  138.83    4.73
   1  -7   2  134.68    4.97
   1  -7   2  135.39    4.38
  -1  -7  -2  134.56    4.85
  -1   7  -2  132.04    4.67
   1   7   2  129.08    4.85
   2  -7   2    8.82    0.78
   2  -7   2    9.52    0.62
   2   7   2    7.90    0.87
   2   7   2    8.16    0.88
  -2   7  -2    9.92    0.64
   3  -7   2   11.66    0.72
   3  -7   2   10.85    0.88
   3   7   2    8.46    1.02
  -3   7  -2   11.76    0.70
   4  -7   2    8.88    0.94
   4  -7   2    7.55    0.62
   4   7   2    9.65    1.14
   5  -7   2   13.70    0.90
   5  -7   2   14.28    1.12
   6  -7   2   -0.05    0.33
   7  -7   2    1.61    0.63
   6  -8  -2   49.64    2.42
   6  -8  -2   44.48    2.20
   6   8  -2   47.09    2.12
   5  -8  -2    4.22    0.62
  -5  -8   2    5.54    1.02
   5  -8  -2    5.40    0.83
   5   8  -2    5.68    0.67
   4  -8  -2    3.49    0.63
   4  -8  -2    2.75    0.60
  -4  -8   2    3.82    0.84
   4   8  -2    2.42    0.46
   3  -8  -2   54.22    2.55
  -3  -8   2   52.63    2.66
   3  -8  -2   48.53    2.42
   3   8  -2   50.66    2.15
   2  -8  -2    0.26    0.29
   2  -8  -2    0.27    0.10
  -2  -8   2   -0.28    0.27
   2  -8  -2    0.17    0.33
   2  -8  -2    0.15    0.18
   2   8  -2    0.25    0.21
  -2   8   2    0.04    0.12
  -1  -8   2   30.55    1.78
  -1  -8   2   35.36    1.83
   1  -8  -2   29.40    1.98
   1  -8  -2   29.03    1.64
   1   8  -2   29.93    1.44
  -1   8   2   31.00    1.35
   0  -8  -2   16.30    1.47
   0  -8   2   16.12    1.07
   0  -8  -2   16.48    1.09
   0  -8   2   14.43    0.85
   0  -8   2   17.97    1.22
   0   8  -2   15.56    0.91
   0   8   2   15.79    0.94
   1  -8   2    0.41    0.21
   1  -8   2    0.58    0.12
   1  -8   2    0.55    0.17
   1  -8   2    0.26    0.25
   1   8   2    0.73    0.27
  -1   8  -2    0.52    0.22
   2  -8   2    6.83    0.56
   2  -8   2    7.33    0.83
  -2   8  -2    7.56    0.61
   2   8   2    6.60    0.83
   3  -8   2    7.47    0.59
   3  -8   2    6.01    0.78
  -3   8  -2    7.37    0.62
   3   8   2    7.18    0.94
   3   8   2    7.52    0.76
   4  -8   2   15.19    1.15
   4  -8   2   14.25    0.90
   4   8   2   15.39    0.95
   5  -8   2    2.81    0.58
   6  -8   2    2.30    0.62
   7  -8   2    0.32    0.53
   6  -9  -2    0.64    0.47
   6  -9  -2    0.30    0.34
   6   9  -2    0.59    0.37
  -5  -9   2    0.77    0.66
   5  -9  -2    1.50    0.50
   5  -9  -2    0.99    0.41
   5   9  -2    1.10    0.38
   4  -9  -2    4.53    0.75
  -4  -9   2    3.65    0.88
   4  -9  -2    3.33    0.65
   4   9  -2    3.83    0.58
   3  -9  -2   13.64    0.70
  -3  -9   2   13.13    1.48
   3  -9  -2   14.16    1.26
   3  -9  -2   12.55    1.09
   3   9  -2   13.29    0.93
  -2  -9   2    2.41    0.68
   2  -9  -2    3.18    0.62
   2  -9  -2    3.11    0.27
   2  -9  -2    4.45    0.58
   2  -9  -2    4.43    0.85
   2   9  -2    2.01    0.42
  -2   9   2    2.31    0.29
   1  -9  -2   19.23    1.27
  -1  -9   2   15.73    1.27
   1  -9  -2   17.65    0.76
  -1  -9   2   16.60    1.33
   1  -9  -2   17.97    1.55
   1   9  -2   17.78    1.05
  -1   9   2   17.03    0.93
   0  -9  -2    0.37    0.28
   0  -9   2    0.96    0.37
   0  -9   2    0.72    0.38
   0  -9  -2    0.23    0.49
   0  -9   2    0.47    0.24
   0   9  -2    0.38    0.25
   0   9   2    0.15    0.19
   1  -9   2    9.60    0.46
   1  -9   2    7.90    0.71
   1  -9   2    9.03    1.05
   1  -9   2    9.17    0.53
  -1  -9  -2    8.49    1.30
  -1   9  -2   10.08    0.74
   1   9   2    7.69    0.84
   2  -9   2   39.05    1.70
   2  -9   2   39.70    2.05
  -2   9  -2   37.62    1.72
   2   9   2   36.66    1.99
   3  -9   2   13.36    0.83
   3  -9   2   11.56    1.05
   3   9   2   11.76    1.10
  -3   9  -2   11.93    0.85
   3   9   2   12.04    0.91
   4  -9   2    4.07    0.68
   4  -9   2    3.58    0.50
   4   9   2    3.36    0.52
   5  -9   2   20.56    1.48
   6  -9   2    4.60    0.87
   6 -10  -2    0.10    0.40
   6  10  -2    0.01    0.35
  -5 -10   2   13.37    1.68
   5 -10  -2    9.73    1.16
   5 -10  -2   10.66    1.16
   5  10  -2   13.56    1.02
  -4 -10   2   15.43    1.77
   4 -10  -2   16.50    1.33
   4 -10  -2   14.02    1.27
   4  10  -2   18.00    1.15
   3 -10  -2   13.54    1.17
   3 -10  -2   13.62    0.76
  -3 -10   2   17.13    1.74
   3 -10  -2   13.84    1.50
   3  10  -2   12.78    0.96
   2 -10  -2    2.05    0.46
   2 -10  -2    1.29    0.62
  -2 -10   2    0.71    0.50
   2 -10  -2    2.45    0.58
   2  10  -2    1.59    0.39
   1 -10  -2   11.45    1.00
  -1 -10   2   13.29    1.47
  -1 -10   2   10.14    1.19
   1 -10  -2   13.16    1.64
   1  10  -2   11.17    0.86
  -1  10   2    9.36    0.70
   0 -10   2    3.33    0.67
   0 -10   2    1.63    0.54
   0 -10  -2    2.33    0.77
   0  10   2    2.08    0.41
   0  10  -2    1.69    0.39
  -1 -10  -2   13.54    1.76
   1 -10   2   10.99    1.19
   1 -10   2   12.48    0.92
   1 -10   2   10.99    0.54
  -1  10  -2   12.67    0.89
   1  10   2   10.38    0.92
   2 -10   2    0.30    0.23
   2 -10   2    0.47    0.39
   2  10   2    0.24    0.31
   2  10   2    0.07    0.30
  -2  10  -2    0.61    0.31
   3 -10   2    1.21    0.48
   3 -10   2    0.52    0.27
   3  10   2    1.24    0.41
   4 -10   2   10.55    0.79
   4 -10   2    8.49    1.03
   4  10   2    8.19    0.86
   5 -10   2    3.60    0.73
   5  10   2    2.41    0.50
   6 -10   2    0.40    0.50
   6 -11  -2    3.32    0.74
   6  11  -2    4.14    0.78
   5 -11  -2    8.36    1.10
  -5 -11   2    7.18    1.31
   5  11  -2    7.95    0.94
   4 -11  -2   23.89    1.69
   4 -11  -2   28.02    1.85
  -4 -11   2   23.23    1.99
   4  11  -2   27.80    1.55
   3 -11  -2   27.46    1.75
  -3 -11   2   25.45    2.01
   3 -11  -2   27.14    1.94
   3  11  -2   26.73    1.51
   2 -11  -2   17.61    1.32
   2 -11  -2   13.01    1.58
   2 -11  -2   14.97    1.08
  -2 -11   2   12.97    1.52
   2  11  -2   15.94    1.09
   1 -11  -2   20.70    1.86
  -1 -11   2   19.76    1.62
  -1 -11   2   22.28    1.61
   1  11  -2   19.09    1.24
   0 -11  -2    1.88    0.83
   0 -11   2    1.72    0.51
   0 -11   2    2.05    0.67
   0  11  -2    2.30    0.49
  -1 -11  -2   55.27    3.46
   1 -11   2   58.96    2.92
   1 -11   2   59.52    2.57
   1  11   2   56.48    2.61
  -1  11  -2   56.35    2.49
  -2 -11  -2    0.27    0.68
   2 -11   2    0.94    0.54
   2 -11   2    0.56    0.29
   2  11   2    0.58    0.37
  -2  11  -2    0.20    0.30
   3 -11   2    0.44    0.43
  -3 -11  -2    0.81    0.81
   3 -11   2   -0.06    0.24
   3  11   2    0.27    0.33
   4 -11   2    5.41    0.90
   4  11   2    5.40    0.74
   5 -11   2    0.11    0.45
   5  11   2   -0.12    0.32
   6 -12  -2    1.32    0.62
   5 -12  -2    9.08    1.21
   5  12  -2   12.44    1.21
   4 -12  -2    0.27    0.52
  -4 -12   2   -0.04    0.66
   4  12  -2   -0.14    0.33
  -3 -12   2    7.73    1.38
   3 -12  -2    6.00    1.11
   3  12  -2    8.33    0.94
  -3  12   2    6.86    0.96
   2 -12  -2    4.62    1.04
  -2 -12   2    2.79    0.86
   2 -12  -2    3.45    0.63
  -2 -12   2    2.68    0.74
  -2  12   2    3.06    0.67
   2  12  -2    3.02    0.60
   1 -12  -2   35.03    2.61
  -1 -12   2   36.11    2.38
  -1 -12   2   38.68    2.32
   1  12  -2   40.22    1.94
  -1  12   2   34.15    1.97
   0 -12   2    5.07    0.98
   0 -12  -2    3.62    1.08
   0 -12   2    6.66    0.98
   0  12  -2    3.50    0.62
   0  12   2    4.27    0.74
   1 -12   2    1.53    0.62
   1 -12   2    0.95    0.40
  -1 -12  -2    0.89    0.78
  -1  12  -2    1.95    0.49
   1  12   2    1.55    0.49
   2 -12   2    1.78    0.42
  -2 -12  -2    1.32    0.89
   2 -12   2    0.76    0.53
   2  12   2    1.57    0.47
  -2  12  -2    1.55    0.49
   3 -12   2    3.12    0.74
   3 -12   2    3.93    0.58
  -3 -12  -2    2.07    1.03
   3  12   2    2.72    0.60
  -4 -12  -2    1.54    1.13
   4 -12   2    2.30    0.73
   4  12   2    1.11    0.47
  -5 -12  -2   -0.25    1.07
   5 -13  -2    0.89    0.71
   4 -13  -2    2.54    0.87
  -4 -13   2    0.95    0.85
   4  13  -2    2.11    0.58
  -3 -13   2    0.16    0.62
   3 -13  -2   -0.35    0.55
   3  13  -2   -0.19    0.32
  -3  13   2   -0.40    0.71
  -2 -13   2    0.64    0.60
  -2 -13   2    0.72    0.60
   2 -13  -2    1.40    0.79
   2  13  -2    0.86    0.41
  -2  13   2    1.16    0.54
   1 -13  -2   18.52    1.53
   1 -13  -2   17.93    2.19
  -1 -13   2   22.06    2.20
  -1 -13   2   18.95    1.65
   1  13  -2   18.45    1.31
  -1  13   2   16.85    1.36
   0 -13  -2    1.52    0.91
   0 -13   2    1.68    0.78
   0 -13   2    2.69    0.70
   0  13  -2    2.64    0.61
   0  13   2    2.19    0.60
   1 -13   2    0.21    0.51
  -1 -13  -2    0.42    0.80
   1 -13   2   -0.18    0.33
   1  13   2    0.06    0.33
  -1  13  -2    0.85    0.43
   2 -13   2   26.91    1.93
   2 -13   2   25.44    1.46
  -2 -13  -2   18.58    2.38
   2  13   2   24.23    1.59
   3 -13   2   12.36    1.42
  -3 -13  -2    9.78    1.85
   3  13   2   13.22    1.15
  -4 -13  -2    0.83    1.09
  -4 -14   2   -0.12    0.79
   4 -14  -2    1.27    0.92
   3 -14  -2    6.39    1.28
  -3 -14   2    5.21    1.24
  -3 -14   2    5.72    1.24
   3  14  -2    5.29    0.87
  -2 -14   2    0.42    0.72
   2 -14  -2    0.38    0.75
  -2 -14   2    0.23    0.60
  -2  14   2   -0.19    0.46
   2  14  -2    0.23    0.43
  -1 -14   2    1.02    0.73
   1 -14  -2    0.51    0.86
   1 -14  -2    1.66    0.70
  -1 -14   2    1.14    0.66
   1  14  -2    1.23    0.53
  -1  14   2    1.47    0.60
   0 -14  -2    0.02    0.80
   0 -14   2    0.67    0.51
   0 -14   2    0.94    0.70
   0  14   2    0.78    0.50
   0  14  -2   -0.09    0.42
   1 -14   2    2.02    0.62
  -1 -14  -2    4.20    1.27
   1 -14   2    2.48    0.85
   1  14   2    1.05    0.52
  -1  14  -2    2.45    0.62
   2 -14   2    5.72    0.81
   2 -14   2    4.58    1.04
  -2 -14  -2    9.10    1.92
   2  14   2    6.59    0.92
  -3 -14  -2   -0.21    0.96
  -3 -15   2    0.59    0.81
  -2 -15   2    0.59    0.75
  -2 -15   2    0.41    0.92
   2  15  -2   -0.39    0.46
  -2  15   2    0.15    0.57
   1 -15  -2    1.56    1.13
  -1 -15   2    3.42    1.12
  -1 -15   2    2.18    0.86
  -1  15   2    1.78    0.68
   1  15  -2    1.47    0.63
   0 -15   2    1.09    0.60
   0 -15  -2    0.38    0.99
   0 -15   2    0.38    0.68
   0  15   2    0.17    0.51
   0  15  -2   -0.05    0.49
   1 -15   2    3.10    0.74
   1  15   2    3.74    0.85
  -1  16   2    3.08    0.88
   0 -16   2    2.13    0.83
   0  16  -2    1.78    0.71
  -5   0   3   28.96    1.24
   4   0  -3    0.21    0.15
  -3   0   3  176.52    6.01
   3   0  -3  184.99    6.08
  -2   0   3   -0.07    0.05
   2   0  -3    0.00    0.09
  -2   0   3   -0.07    0.07
   1   0  -3  165.04    5.51
  -1   0   3  164.64    5.49
   1   0  -3  161.91    5.40
   1   0  -3  169.12    5.39
  -1   0   3  164.05    5.43
  -1   0   3  167.28    5.40
   0   0  -3   -0.01    0.05
   0   0   3    0.17    0.07
   0   0  -3    0.05    0.09
   0   0  -3    0.01    0.07
   0   0   3    0.29    0.10
   0   0  -3   -0.04    0.07
   0   0   3    0.02    0.08
   0   0   3    0.05    0.09
   1   0   3   42.45    1.71
   1   0   3   43.37    1.59
   1   0   3   40.86    1.66
  -1   0  -3   44.78    1.56
   2   0   3    0.01    0.10
   2   0   3    0.04    0.12
   2   0   3   -0.10    0.07
   3   0   3    7.41    0.61
   3   0   3    7.12    0.58
   3   0   3    7.65    0.64
   4   0   3   -0.08    0.17
   4   0   3   -0.07    0.16
   4   0   3    0.15    0.16
   5   0   3    5.21    0.69
   5   0   3    4.47    0.71
   4  -1  -3   29.23    1.32
   4   1  -3   29.86    1.30
   3  -1  -3    7.07    0.53
   3   1  -3    7.48    0.52
  -2  -1   3    2.49    0.29
   2  -1  -3    3.04    0.37
   2  -1  -3    2.18    0.23
   2   1  -3    2.69    0.33
  -2   1   3    2.24    0.16
  -2   1   3    2.40    0.27
  -1  -1   3  185.43    6.15
  -1  -1   3  188.76    6.07
   1  -1  -3  178.54    6.11
  -1  -1   3  190.94    6.12
   1  -1  -3  182.36    6.04
  -1  -1   3  181.81    6.14
   1  -1  -3  188.01    6.21
   1   1  -3  185.37    6.16
  -1   1   3  191.47    6.09
  -1   1   3  189.94    6.19
  -1   1   3  191.51    6.07
   1   1  -3  187.06    6.06
   1   1  -3  186.82    6.18
   0  -1  -3  179.61    6.02
   0  -1   3  177.99    5.98
   0  -1  -3  187.12    6.03
   0  -1   3  184.18    5.92
   0  -1   3  180.20    6.02
   0  -1  -3  185.86    5.99
   0   1   3  182.94    6.00
   0   1  -3  181.91    6.00
   0   1   3  179.04    6.00
   0   1   3  180.12    5.93
   0   1  -3  183.08    6.01
  -1  -1  -3   16.45    0.72
   1  -1   3   16.94    0.71
   1  -1   3   16.04    0.83
   1  -1   3   15.84    0.78
  -1   1  -3   16.76    0.77
   1   1   3   16.06    0.75
  -1   1  -3   16.74    0.69
   1   1   3   15.71    0.73
   1   1   3   15.88    0.81
  -1   1  -3   15.76    0.71
   2  -1   3   95.09    3.34
   2  -1   3   91.71    3.40
   2  -1   3   93.78    3.48
  -2   1  -3  100.60    3.26
   2   1   3   95.29    3.47
   2   1   3   95.77    3.45
   3  -1   3   94.48    3.51
   3  -1   3   89.66    3.41
   3  -1   3   96.43    3.44
   3   1   3   90.84    3.48
   3   1   3   92.03    3.52
   4  -1   3    0.66    0.26
   4  -1   3    0.48    0.25
   4  -1   3    0.67    0.26
   4   1   3    0.83    0.32
   4   1   3    0.28    0.20
   5  -1   3   80.78    3.30
   5  -1   3   79.87    3.24
   5  -1   3   76.04    3.30
   5   1   3   79.26    3.29
   5   1   3   83.06    3.47
   6  -1   3    0.57    0.29
   6   1   3    0.48    0.37
   5  -2  -3   29.21    1.40
   4  -2  -3   27.86    1.26
   4   2  -3   24.69    1.19
   3  -2  -3   11.20    0.69
   3   2  -3   11.26    0.66
   2  -2  -3   17.88    0.91
  -2  -2   3   18.98    0.95
   2   2  -3   19.21    0.89
  -2   2   3   18.89    0.80
  -1  -2   3   37.37    1.37
   1  -2  -3   38.96    1.34
  -1  -2   3   35.91    1.42
   1  -2  -3   36.84    1.36
  -1  -2   3   37.61    1.45
   1  -2  -3   37.23    1.51
  -1   2   3   38.70    1.35
   1   2  -3   37.67    1.46
  -1   2   3   36.55    1.47
   1   2  -3   36.34    1.40
   1   2  -3   31.12    1.48
  -1   2   3   38.19    1.35
   0  -2  -3    9.04    0.51
   0  -2   3    9.95    0.52
   0  -2   3    8.55    0.49
   0  -2  -3    9.69    0.57
   0  -2   3    9.50    0.53
   0  -2   3    9.69    0.46
   0   2  -3    8.84    0.48
   0   2   3    8.76    0.54
   0   2  -3    8.54    0.50
   0   2  -3    9.24    0.54
   0   2   3    9.21    0.52
   0   2   3    9.50    0.47
   1  -2   3   56.71    1.97
   1  -2   3   55.86    2.10
  -1  -2  -3   58.82    2.11
   1  -2   3   56.02    2.16
  -1  -2  -3   59.62    2.16
   1  -2   3   55.91    2.01
   1   2   3   57.58    2.12
  -1   2  -3   55.39    2.16
  -1   2  -3   53.90    2.07
   1   2   3   54.50    2.15
  -1   2  -3   58.48    1.98
   1   2   3   57.89    2.08
  -1   2  -3   57.82    2.03
   2  -2   3  220.03    7.42
   2  -2   3  223.52    7.22
   2  -2   3  210.91    7.31
   2   2   3  214.21    7.41
  -2   2  -3  225.49    7.13
   2   2   3  220.25    7.42
   3  -2   3   39.87    1.80
   3  -2   3   40.19    1.68
   3  -2   3   40.66    1.72
   3   2   3   38.83    1.84
   3   2   3   39.36    1.80
   4  -2   3    7.12    0.75
   4  -2   3    6.89    0.72
   4  -2   3    6.76    0.77
   4   2   3    9.16    0.99
   4   2   3    7.81    0.84
   5  -2   3    1.75    0.43
   5  -2   3    1.04    0.36
   5  -2   3    0.69    0.33
   5   2   3    0.81    0.38
   6  -2   3    7.50    0.94
   6  -2   3    8.22    0.95
   6   2   3    6.47    0.99
   5  -3  -3    2.09    0.41
   5   3  -3    2.15    0.38
   4  -3  -3    4.23    0.36
   4  -3  -3    4.72    0.58
   4   3  -3    3.75    0.46
   3  -3  -3   23.12    1.11
   3  -3  -3   23.31    1.19
   3   3  -3   25.83    1.13
  -3   3   3   24.48    1.02
   2  -3  -3    9.58    0.66
  -2  -3   3   10.06    0.53
   2  -3  -3   10.10    0.75
  -2  -3   3    9.75    0.70
  -2   3   3   11.20    0.50
   2   3  -3   10.66    0.61
   2   3  -3    8.69    0.62
   1  -3  -3  173.92    5.41
  -1  -3   3  169.67    5.49
   1  -3  -3  168.80    5.66
   1  -3  -3  148.91    5.38
  -1  -3   3  162.37    5.58
   1   3  -3  152.10    5.68
  -1   3   3  168.65    5.39
   1   3  -3  165.97    5.53
  -1   3   3  166.09    5.42
   1   3  -3  173.08    5.61
   0  -3   3    5.30    0.34
   0  -3  -3    5.14    0.45
   0  -3   3    5.66    0.39
   0  -3   3    5.88    0.43
   0  -3   3    5.88    0.41
   0  -3  -3    4.24    0.31
   0   3  -3    6.13    0.42
   0   3   3    6.12    0.46
   0   3   3    6.79    0.39
   0   3   3    7.69    0.46
   1  -3   3   16.10    0.73
   1  -3   3   15.87    0.85
   1  -3   3   16.46    0.67
  -1  -3  -3   16.91    0.87
   1  -3   3   15.58    0.79
  -1   3  -3   16.02    0.75
   1   3   3   15.70    0.82
   1   3   3   14.47    0.83
  -1   3  -3   15.72    0.69
   1   3   3   17.11    0.85
   2  -3   3    2.31    0.27
   2  -3   3    1.98    0.36
   2  -3   3    1.57    0.27
  -2   3  -3    2.56    0.21
   2   3   3    2.58    0.41
   2   3   3    1.80    0.33
   3  -3   3   13.73    0.82
   3  -3   3   15.92    0.96
   3  -3   3   12.70    0.75
  -3   3  -3   12.15    0.63
   3   3   3   16.87    0.99
   3   3   3   14.62    0.99
   4  -3   3   49.36    2.12
   4  -3   3   49.52    2.10
   4  -3   3   49.55    2.25
   4   3   3   50.61    2.40
   5  -3   3    6.41    0.75
   5  -3   3    7.16    0.90
   5  -3   3    7.31    0.80
   5   3   3    6.10    0.90
   6  -3   3    0.62    0.39
   6  -3   3    0.44    0.29
   7  -3   3    6.28    0.96
   6  -4  -3   13.55    0.80
   5  -4  -3   12.62    0.73
   5  -4  -3   12.57    0.93
   4  -4  -3  117.74    4.14
   4  -4  -3  123.49    4.39
  -4   4   3  111.76    4.00
   4   4  -3  119.32    4.18
   3  -4  -3   47.38    2.04
   3  -4  -3   49.92    2.10
  -3   4   3   48.60    1.74
   3   4  -3   47.91    1.94
  -2  -4   3    1.76    0.38
  -2  -4   3    2.44    0.33
   2  -4  -3    2.01    0.36
   2  -4  -3    1.83    0.24
   2  -4  -3    1.99    0.43
  -2   4   3    2.34    0.19
   2   4  -3    2.58    0.44
   2   4  -3    2.25    0.34
   1  -4  -3   14.04    0.87
  -1  -4   3   14.30    0.74
  -1  -4   3   14.99    0.79
  -1  -4   3   14.11    0.84
   1  -4  -3   15.43    0.69
  -1   4   3   13.05    0.81
  -1   4   3   15.80    0.66
   1   4  -3   15.26    0.78
   0  -4   3   10.91    0.68
   0  -4  -3   12.17    0.66
   0  -4  -3   11.84    0.56
   0  -4  -3    8.90    0.69
   0  -4   3   11.86    0.66
   0  -4   3   10.08    0.54
   0   4  -3   10.94    0.62
   0   4  -3   10.19    0.73
   0   4   3   11.19    0.60
   1  -4   3   59.23    2.02
   1  -4   3   58.77    2.15
   1  -4   3   60.27    2.22
  -1  -4  -3   57.04    2.30
   1  -4   3   59.36    2.31
   1   4   3   58.18    2.29
   1   4   3   61.11    2.29
  -1   4  -3   56.34    2.15
   2  -4   3  141.31    5.00
   2  -4   3  142.42    4.67
   2  -4   3  138.25    4.74
   2  -4   3  140.29    4.86
  -2   4  -3  145.99    4.65
   2   4   3  137.12    5.05
   2   4   3  139.19    4.87
   3  -4   3   25.34    1.15
   3  -4   3   26.85    1.27
   3  -4   3   26.18    1.39
  -3   4  -3   26.72    1.04
   3   4   3   25.26    1.45
   4  -4   3    5.76    0.75
   4  -4   3    5.28    0.58
   4  -4   3    6.85    0.59
   4   4   3    5.00    0.77
   5  -4   3    9.47    0.79
   5  -4   3   10.25    0.80
   5  -4   3   10.62    0.95
   5   4   3   10.31    1.25
   6  -4   3    9.27    1.10
   6  -4   3    7.60    0.89
   7  -4   3    1.61    0.56
   6  -5  -3    3.34    0.47
   5  -5  -3   14.46    1.07
   5  -5  -3   15.38    0.89
   5   5  -3   14.67    0.90
  -5   5   3   13.44    0.71
   4  -5  -3    1.37    0.39
   4  -5  -3    1.13    0.31
  -4  -5   3    1.49    0.39
   4   5  -3    1.30    0.30
  -4   5   3    1.70    0.22
   3  -5  -3   19.41    1.18
  -3  -5   3   19.86    1.09
   3  -5  -3   18.89    1.17
  -3   5   3   20.17    0.79
   3   5  -3   19.50    1.02
   2  -5  -3   93.90    3.60
   2  -5  -3  105.77    4.24
  -2  -5   3  109.31    3.91
   2  -5  -3  113.44    4.08
  -2  -5   3  106.58    4.12
   2   5  -3  112.94    3.83
  -2   5   3  111.80    3.58
  -1  -5   3  108.21    4.07
  -1  -5   3  109.66    3.99
   1  -5  -3  114.00    3.80
   1  -5  -3  111.98    4.15
  -1   5   3  114.46    3.76
   1   5  -3  106.54    4.19
   1   5  -3  110.00    3.90
   0  -5   3   24.65    1.10
   0  -5   3   27.90    1.27
   0  -5  -3   30.22    1.26
   0  -5  -3   26.49    1.37
   0  -5   3   27.52    1.21
   0  -5   3   27.76    1.32
   0   5   3   28.41    1.34
   0   5  -3   26.96    1.22
   0   5   3   29.85    1.23
   1  -5   3    5.23    0.44
   1  -5   3    4.18    0.50
  -1  -5  -3    4.42    0.54
   1  -5   3    5.74    0.31
   1   5   3    5.47    0.49
  -1   5  -3    5.73    0.45
   2  -5   3   34.44    1.45
   2  -5   3   37.62    1.67
   2  -5   3   36.77    1.29
   2  -5   3   33.84    1.48
   2   5   3   33.98    1.68
   2   5   3   34.64    1.57
  -2   5  -3   31.19    1.28
  -2   5  -3   34.14    1.41
   3  -5   3    0.47    0.20
   3  -5   3    0.26    0.22
   3  -5   3    0.60    0.17
   3   5   3    0.35    0.25
  -3   5  -3    0.43    0.12
   4  -5   3   38.82    1.79
   4  -5   3   40.48    1.69
   4  -5   3   41.72    2.01
   4   5   3   39.71    2.15
   5  -5   3   12.20    1.05
   5  -5   3   11.99    0.89
   5   5   3   13.35    1.24
   6  -5   3   23.67    1.39
   6  -5   3   22.71    1.56
   7  -5   3    0.60    0.51
   6  -6  -3   28.86    1.68
   6  -6  -3   26.07    1.37
   5  -6  -3    0.53    0.35
  -5  -6   3    0.80    0.40
   5  -6  -3    0.41    0.25
  -5   6   3    0.98    0.18
   5   6  -3    1.37    0.35
  -4  -6   3    2.24    0.51
   4  -6  -3    2.12    0.45
   4  -6  -3    1.97    0.48
  -4   6   3    2.40    0.23
   4   6  -3    2.57    0.43
   3  -6  -3   33.91    1.81
   3  -6  -3   34.49    1.81
  -3  -6   3   34.15    1.70
  -3   6   3   35.06    1.27
   3   6  -3   36.19    1.58
   2  -6  -3   65.41    3.04
  -2  -6   3   67.14    2.73
   2  -6  -3   68.03    2.35
  -2  -6   3   64.46    2.88
   2  -6  -3   69.46    2.87
  -2   6   3   67.86    2.33
   2   6  -3   64.75    2.57
   1  -6  -3    4.43    0.31
   1  -6  -3    5.31    0.68
  -1  -6   3    3.99    0.52
  -1  -6   3    4.77    0.64
   1  -6  -3    4.78    0.39
   1   6  -3    4.09    0.47
  -1   6   3    4.34    0.35
   0  -6   3   28.26    1.36
   0  -6   3   28.15    1.43
   0  -6  -3   29.78    1.51
   0   6  -3   30.90    1.33
   0   6   3   28.21    1.31
   1  -6   3   42.26    1.74
   1  -6   3   42.89    1.75
  -1  -6  -3   43.35    1.92
   1  -6   3   41.47    1.49
   1   6   3   39.27    1.86
   1   6   3   41.31    1.86
  -1   6  -3   41.95    1.71
   2  -6   3    4.82    0.51
   2  -6   3    5.77    0.66
  -2  -6  -3    6.56    0.67
   2  -6   3    6.06    0.33
  -2   6  -3    6.01    0.50
   2   6   3    5.67    0.70
   3  -6   3    1.09    0.28
   3  -6   3    1.22    0.39
   3  -6   3    1.24    0.21
   3   6   3    1.42    0.40
   4  -6   3    0.35    0.28
   4  -6   3    0.34    0.21
   4   6   3   -0.07    0.25
   5  -6   3    5.72    0.83
   5  -6   3    6.14    0.72
   5   6   3    6.24    1.02
   6  -6   3    0.74    0.44
   7  -6   3   20.24    1.60
   6  -7  -3    4.22    0.80
   6  -7  -3    3.18    0.53
   6   7  -3    3.53    0.59
  -5  -7   3   16.95    1.26
   5  -7  -3   15.60    1.24
   5  -7  -3   15.31    1.05
   5   7  -3   15.64    1.03
  -4  -7   3    0.46    0.37
   4  -7  -3    0.52    0.31
   4  -7  -3    0.64    0.33
   4   7  -3    0.47    0.27
  -4   7   3    0.68    0.13
   3  -7  -3   22.40    1.39
  -3  -7   3   20.78    1.33
   3  -7  -3   19.90    1.40
   3   7  -3   19.68    1.12
  -3   7   3   20.96    0.84
  -2  -7   3    2.73    0.55
   2  -7  -3    2.57    0.53
   2  -7  -3    3.38    0.72
   2  -7  -3    2.98    0.35
  -2  -7   3    4.18    0.70
   2   7  -3    2.78    0.44
  -2   7   3    2.78    0.31
   1  -7  -3   79.03    3.17
   1  -7  -3   72.55    2.59
   1  -7  -3   71.48    3.52
  -1  -7   3   74.74    3.06
  -1  -7   3   76.99    3.12
   1  -7  -3   78.89    2.90
  -1   7   3   72.11    2.73
   1   7  -3   72.93    2.84
   0  -7   3   70.74    2.94
   0  -7  -3   68.93    2.98
   0  -7   3   72.67    2.85
   0   7  -3   73.39    2.75
   0   7   3   72.70    2.78
   1  -7   3   19.14    0.77
   1  -7   3   19.82    1.19
   1  -7   3   19.44    1.03
  -1  -7  -3   19.49    1.17
   1   7   3   17.70    1.10
  -1   7  -3   18.46    1.00
   2  -7   3   35.05    1.26
   2  -7   3   37.06    1.59
  -2   7  -3   35.64    1.54
   2   7   3   33.82    1.80
   2   7   3   33.32    1.74
   3  -7   3   22.12    1.17
   3  -7   3   22.69    1.37
   3   7   3   21.37    1.45
   4  -7   3   19.00    1.29
   4  -7   3   17.23    1.06
   4   7   3   18.67    1.45
   5  -7   3    0.49    0.32
   5  -7   3   -0.11    0.20
   5   7   3    0.01    0.37
   6  -7   3    0.30    0.41
   7  -7   3    0.89    0.65
   7   8  -3    1.08    0.46
   6  -8  -3   28.20    1.57
   6  -8  -3   28.74    1.82
   6   8  -3   27.12    1.52
   5  -8  -3    7.82    1.07
   5  -8  -3    7.94    0.89
  -5  -8   3    7.04    1.03
   5   8  -3    7.62    0.84
   4  -8  -3    2.17    0.53
  -4  -8   3    3.89    0.78
   4  -8  -3    3.45    0.68
   4   8  -3    3.16    0.53
   3  -8  -3    8.12    1.08
   3  -8  -3    6.51    0.88
  -3  -8   3    8.93    1.08
  -3   8   3    7.80    0.45
   3   8  -3    8.94    0.73
   2  -8  -3  120.44    5.03
   2  -8  -3  112.69    4.64
   2  -8  -3  125.85    4.12
  -2  -8   3  116.18    4.76
  -2  -8   3  114.91    4.60
  -2   8   3  117.93    4.07
   2   8  -3  117.20    4.32
   1  -8  -3   19.68    1.32
  -1  -8   3   19.87    1.30
   1  -8  -3   21.09    1.69
  -1  -8   3   17.61    1.23
   1   8  -3   19.10    1.08
  -1   8   3   19.31    1.00
   0  -8   3   13.44    1.01
   0  -8   3   13.07    0.91
   0  -8  -3   11.35    0.98
   0   8  -3   12.10    0.81
   0   8   3   12.71    0.85
   1  -8   3   54.99    1.95
   1  -8   3   59.73    2.33
   1  -8   3   56.05    2.53
  -1  -8  -3   55.29    2.47
  -1   8  -3   55.56    2.27
   1   8   3   54.88    2.45
   2  -8   3   19.62    1.05
   2  -8   3   20.54    1.29
   2  -8   3   17.50    0.69
   2   8   3   14.67    1.16
  -2   8  -3   18.57    1.03
   3  -8   3   25.65    1.29
   3  -8   3   23.66    1.48
   3   8   3   23.63    1.59
   4  -8   3    1.00    0.42
   4  -8   3    1.54    0.37
   4   8   3    1.69    0.54
   4   8   3    1.18    0.37
   5  -8   3   12.12    0.93
   5  -8   3   11.05    1.22
   6  -8   3    6.31    1.02
   7  -9  -3    0.08    0.47
   7   9  -3    0.09    0.39
   6  -9  -3   53.83    2.61
   6  -9  -3   62.29    3.01
   6   9  -3   58.58    2.60
   5  -9  -3   19.83    1.53
   5  -9  -3   21.10    1.40
  -5  -9   3   16.61    1.68
   5   9  -3   19.50    1.26
   4  -9  -3   -0.19    0.31
   4  -9  -3   -0.03    0.31
  -4  -9   3    0.14    0.42
   4   9  -3    0.05    0.24
  -3  -9   3   19.07    1.41
   3  -9  -3   15.66    1.30
   3  -9  -3   17.26    1.46
   3   9  -3   19.02    1.14
   2  -9  -3   53.29    2.61
  -2  -9   3   53.54    2.60
   2  -9  -3   52.49    2.93
  -2  -9   3   50.83    2.67
  -2   9   3   50.34    2.02
   2   9  -3   54.38    2.28
  -1  -9   3   22.86    1.53
   1  -9  -3   24.05    1.56
   1  -9  -3   26.45    2.01
  -1  -9   3   24.94    1.55
   1   9  -3   24.23    1.31
  -1   9   3   24.91    1.24
   0  -9   3   11.19    1.00
   0  -9   3   10.07    0.85
   0  -9  -3   10.83    1.11
   0  -9  -3   10.52    1.46
   0   9  -3   10.79    0.80
   0   9   3   10.69    0.82
  -1  -9  -3    2.49    0.52
   1  -9   3    2.53    0.25
   1  -9   3    1.95    0.42
   1  -9   3    2.25    0.55
   1   9   3    1.62    0.44
  -1   9  -3    1.78    0.38
   2  -9   3   25.42    1.57
   2  -9   3   23.99    1.29
  -2   9  -3   26.43    1.34
   2   9   3   24.55    1.56
   3  -9   3    3.43    0.68
   3  -9   3    3.71    0.53
   3   9   3    2.52    0.60
   4  -9   3    4.15    0.57
   4  -9   3    3.49    0.70
   4   9   3    3.91    0.59
   4   9   3    3.88    0.86
   5  -9   3    4.52    0.79
   6  -9   3    0.42    0.52
   6 -10  -3    0.38    0.44
   6 -10  -3    0.30    0.43
   6  10  -3    0.66    0.43
   5 -10  -3    7.34    0.99
   5 -10  -3    8.72    1.20
   5  10  -3    6.86    0.83
   4 -10  -3    0.10    0.39
  -4 -10   3    0.45    0.48
   4 -10  -3    0.26    0.41
   4  10  -3    0.02    0.34
  -3 -10   3    0.41    0.45
   3 -10  -3    0.25    0.49
   3 -10  -3    0.00    0.30
   3  10  -3    0.17    0.28
  -2 -10   3    0.16    0.34
  -2 -10   3   -0.08    0.39
   2 -10  -3    0.23    0.48
   2 -10  -3    0.14    0.30
  -2  10   3    0.02    0.20
   2  10  -3    0.12    0.28
   1 -10  -3    1.98    0.76
  -1 -10   3    1.54    0.51
   1 -10  -3    1.91    0.52
  -1 -10   3    1.32    0.51
   1  10  -3    1.66    0.42
  -1  10   3    1.34    0.35
   0 -10  -3    0.06    0.29
   0 -10  -3    0.59    0.59
   0 -10   3    0.00    0.33
   0 -10   3    0.18    0.27
   0  10   3    0.03    0.22
   0  10  -3    0.00    0.26
   1 -10   3    5.19    0.67
   1 -10   3    4.44    0.79
  -1  10  -3    3.82    0.58
   1  10   3    5.25    0.75
   2 -10   3   48.23    2.43
   2 -10   3   47.49    2.10
  -2  10  -3   46.16    2.09
   2  10   3   46.91    2.42
   3 -10   3   16.17    1.02
   3 -10   3   14.66    1.25
   3  10   3   14.96    1.11
   3  10   3   13.04    1.42
   4 -10   3    6.66    0.74
   4 -10   3    7.53    1.03
   4  10   3    7.79    0.85
   5 -10   3    1.96    0.59
   6 -11  -3   -0.02    0.55
   5 -11  -3   -0.12    0.42
   5 -11  -3    0.65    0.49
   5  11  -3    0.69    0.44
   4 -11  -3    2.30    0.66
  -4 -11   3    3.26    0.83
   4 -11  -3    2.72    0.75
   4  11  -3    2.53    0.56
   3 -11  -3    0.59    0.45
  -3 -11   3   -0.14    0.40
  -3 -11   3    0.07    0.43
   3 -11  -3    0.02    0.44
   3  11  -3    0.12    0.30
  -2 -11   3   21.31    1.71
   2 -11  -3   21.29    1.40
   2 -11  -3   25.28    2.06
  -2 -11   3   25.50    1.80
   2 -11  -3   23.71    1.66
   2  11  -3   24.30    1.43
   1 -11  -3    0.26    0.62
  -1 -11   3    1.12    0.51
  -1 -11   3    0.89    0.44
   1 -11  -3    0.54    0.35
  -1  11   3    0.48    0.30
   1  11  -3    0.83    0.36
   0 -11   3   23.50    1.49
   0 -11   3   24.53    1.68
   0 -11  -3   20.23    2.22
   0  11  -3   25.55    1.42
   0  11   3   22.16    1.38
   1 -11   3   13.56    1.01
  -1 -11  -3   11.76    1.75
   1 -11   3   15.41    1.31
  -1  11  -3   13.40    1.01
   1  11   3   12.09    1.06
   2 -11   3    1.77    0.55
   2 -11   3    1.98    0.44
  -2  11  -3    1.42    0.43
   2  11   3    1.57    0.49
   3 -11   3    4.25    0.59
   3 -11   3    3.78    0.73
   3  11   3    4.47    0.70
   3  11   3    3.27    0.76
   4 -11   3    4.60    0.88
   4  11   3    5.74    0.78
   5 -11   3   -0.13    0.80
   5  11   3    0.02    0.37
   5 -12  -3   -0.32    0.43
   5 -12  -3    1.56    0.63
   5  12  -3    0.70    0.48
   4 -12  -3    4.38    0.86
  -4 -12   3    6.52    1.16
   4 -12  -3    9.09    1.33
   4  12  -3    5.97    0.88
  -3 -12   3    4.92    1.06
   3 -12  -3    4.32    0.90
  -3 -12   3    5.47    1.15
   3 -12  -3    5.08    1.10
   3  12  -3    2.89    0.62
   2 -12  -3   10.72    1.59
  -2 -12   3    8.06    1.23
  -2 -12   3    9.53    1.33
   2 -12  -3    7.37    1.04
   2  12  -3    7.77    0.91
  -1 -12   3    4.23    0.89
  -1 -12   3    2.59    0.73
   1 -12  -3    0.49    0.66
   1  12  -3    1.90    0.51
   0 -12   3    2.11    0.58
   0 -12   3    2.22    0.66
   0 -12  -3    2.31    0.92
   0  12   3    1.24    0.43
   0  12  -3    1.39    0.46
  -1 -12  -3   13.31    2.00
   1 -12   3   11.63    0.99
   1 -12   3   13.54    1.45
   1  12   3   11.95    1.09
  -1  12  -3   12.79    1.06
   2 -12   3   13.34    1.02
   2 -12   3   15.29    1.37
  -2 -12  -3   10.50    1.83
   2  12   3   12.74    1.13
  -3 -12  -3   15.21    2.29
   3 -12   3   11.78    0.97
   3 -12   3   13.42    1.46
   3  12   3   13.18    1.13
   4 -12   3    0.84    0.60
   4  12   3    2.31    0.57
   5 -13  -3    7.07    1.18
  -4 -13   3    0.77    0.70
  -4 -13   3    0.75    0.69
   4 -13  -3    0.23    0.58
   4  13  -3    0.95    0.53
  -3 -13   3    0.53    0.62
  -3 -13   3   -0.36    0.59
   3 -13  -3    0.09    0.63
   3  13  -3    0.06    0.39
  -2 -13   3    0.67    0.61
  -2 -13   3    0.59    0.60
   2 -13  -3    0.06    0.66
   2  13  -3    0.23    0.37
  -1 -13   3    7.70    1.12
   1 -13  -3    7.44    1.50
  -1 -13   3    8.08    1.26
   1  13  -3    6.58    0.89
   0 -13   3    1.04    0.59
   0 -13  -3    0.80    0.85
   0 -13   3    0.93    0.55
   0  13  -3    0.27    0.39
   1 -13   3   -0.66    0.42
   1 -13   3    0.03    0.33
  -1 -13  -3    0.61    0.82
  -1  13  -3    0.11    0.44
   1  13   3    0.01    0.40
   2 -13   3    0.30    0.37
   2 -13   3    0.01    0.51
  -2 -13  -3   -0.36    0.96
   2  13   3    0.29    0.43
   3 -13   3   18.53    1.67
  -3 -13  -3   17.55    2.48
   3  13   3   20.80    1.48
  -4 -14   3    0.90    1.05
   4 -14  -3    1.35    0.90
  -3 -14   3   32.18    2.60
   3 -14  -3   33.46    2.64
  -3 -14   3   35.64    2.56
   3  14  -3   36.23    2.05
  -2 -14   3    1.28    0.82
   2 -14  -3    0.93    0.82
  -2 -14   3    1.36    0.71
  -2  14   3    0.69    0.56
   2  14  -3    1.11    0.55
   1 -14  -3   31.65    2.78
  -1 -14   3   29.44    2.06
  -1 -14   3   33.44    2.32
   1  14  -3   29.31    1.85
  -1  14   3   29.73    1.96
   0 -14   3    4.02    0.95
   0 -14   3    4.73    0.89
   0 -14  -3    4.31    1.30
   0  14  -3    3.53    0.69
   0  14   3    3.40    0.77
  -1 -14  -3    7.26    1.60
   1 -14   3    7.07    0.94
   1 -14   3    8.68    1.28
   1  14   3    7.65    1.06
  -2 -14  -3    0.85    1.05
   2 -14   3    0.74    0.75
   2 -14   3    0.99    0.49
   2  14   3    1.71    0.68
  -3 -15   3    9.16    1.49
  -2 -15   3    1.48    0.80
   2  15  -3    1.86    0.74
  -2  15   3    0.05    0.57
  -1 -15   3    0.12    0.70
  -1 -15   3   -0.02    0.48
  -1  15   3    0.20    0.58
   1  15  -3   -0.03    0.52
   0 -15   3    1.59    0.64
   0  15  -3    1.85    0.67
   0  15   3    2.52    0.71
   1 -15   3    3.48    0.76
   0  16  -3    0.80    0.66
  -5   0   4    0.01    0.16
   5   0  -4   -0.03    0.18
  -4   0   4   10.03    0.61
   4   0  -4   11.90    0.76
  -3   0   4   -0.08    0.08
   3   0  -4   -0.13    0.11
   2   0  -4   82.09    2.87
  -2   0   4   77.81    2.87
  -2   0   4   83.21    2.77
   2   0  -4   78.15    2.94
  -1   0   4    0.02    0.07
  -1   0   4   -0.03    0.09
   1   0  -4    0.02    0.10
   1   0  -4   -0.01    0.06
   1   0  -4    0.02    0.06
  -1   0   4    0.11    0.09
   1   0  -4   -0.01    0.09
   0   0   4   36.92    1.36
   0   0   4   35.62    1.43
   0   0  -4   34.48    1.36
   0   0  -4   34.39    1.40
   0   0  -4   37.07    1.46
   0   0  -4   35.77    1.46
   0   0   4   35.41    1.43
   0   0   4   35.87    1.47
   1   0   4   -0.05    0.11
   1   0   4   -0.02    0.07
   1   0   4    0.38    0.16
   1   0   4   -0.05    0.11
   2   0   4  192.39    6.57
   2   0   4  198.05    6.67
   2   0   4  193.22    6.72
   3   0   4   -0.04    0.17
   3   0   4   -0.07    0.12
   3   0   4   -0.02    0.13
   4   0   4    0.04    0.19
   4   0   4    0.10    0.18
   4   0   4    0.09    0.21
   5   0   4    0.08    0.24
   5   0   4   -0.05    0.21
   6   0   4    4.74    0.86
   6   0   4    4.06    0.71
   6   1  -4   11.67    0.83
   5  -1  -4   76.18    2.95
   5   1  -4   74.89    2.91
   4  -1  -4   98.44    3.59
  -4  -1   4   99.05    3.57
   4   1  -4   93.38    3.54
   3  -1  -4   12.31    0.77
  -3  -1   4   13.39    0.70
   3   1  -4   11.17    0.73
  -3   1   4   12.21    0.54
   2  -1  -4   55.47    2.20
   2  -1  -4   54.70    1.96
  -2  -1   4   57.49    2.06
   2  -1  -4   56.84    2.00
  -2   1   4   56.70    2.08
   2   1  -4   55.03    2.17
  -2   1   4   56.96    1.97
  -1  -1   4   45.35    1.71
   1  -1  -4   44.41    1.70
  -1  -1   4   46.72    1.72
   1  -1  -4   46.49    1.83
   1  -1  -4   45.28    1.66
   1  -1  -4   44.55    1.71
  -1  -1   4   46.74    1.71
   1   1  -4   44.53    1.79
   1   1  -4   44.99    1.68
  -1   1   4   45.92    1.69
  -1   1   4   45.71    1.67
   0  -1  -4    4.15    0.34
   0  -1   4    3.27    0.40
   0  -1  -4    4.54    0.40
   0  -1   4    3.44    0.38
   0  -1   4    3.94    0.29
   0  -1  -4    3.60    0.41
   0  -1   4    3.41    0.37
   0   1   4    3.93    0.35
   0   1  -4    4.08    0.36
   0   1   4    4.21    0.43
   0   1  -4    3.92    0.41
   0   1  -4    3.61    0.32
   0   1   4    4.03    0.30
   1  -1   4   12.64    0.72
   1  -1   4   14.19    0.65
  -1  -1  -4   12.54    0.69
   1  -1   4   12.11    0.65
   1  -1   4   12.88    0.78
   1   1   4   13.13    0.68
   1   1   4   12.23    0.73
   1   1   4   12.74    0.68
  -1   1  -4   12.52    0.66
   2  -1   4  110.60    3.78
   2  -1   4  104.11    3.87
   2  -1   4  104.29    3.95
   2   1   4  106.56    3.86
   2   1   4  110.46    3.93
   3  -1   4   11.43    0.86
   3  -1   4   10.82    0.75
   3  -1   4   11.97    0.81
   3   1   4   12.03    0.84
   3   1   4   11.53    0.83
   4  -1   4   11.30    0.88
   4  -1   4   12.50    0.95
   4  -1   4   12.39    0.90
   4   1   4   11.44    0.93
   4   1   4   12.00    0.91
   5  -1   4   13.85    1.07
   5  -1   4   12.03    1.03
   5  -1   4   12.40    0.99
   5   1   4   13.71    1.14
   5   1   4   13.03    1.02
   6  -1   4    0.12    0.24
   6  -1   4    0.12    0.32
   6   1   4   -0.07    0.33
   5  -2  -4    2.42    0.44
   5   2  -4    2.74    0.45
   4  -2  -4   19.07    1.07
  -4  -2   4   18.44    1.10
   4   2  -4   20.29    1.06
  -3  -2   4   59.61    2.36
   3  -2  -4   59.60    2.39
   3   2  -4   60.10    2.34
  -3   2   4   60.44    2.24
   2  -2  -4    0.13    0.08
  -2  -2   4    0.08    0.12
   2  -2  -4    0.03    0.13
  -2   2   4    0.29    0.09
   2   2  -4    0.13    0.15
  -2   2   4    0.21    0.10
  -1  -2   4  348.75   11.34
   1  -2  -4  348.03   11.29
   1  -2  -4  346.90   11.24
   1  -2  -4  355.19   11.47
  -1  -2   4  349.06   11.31
  -1  -2   4  344.87   11.36
  -1  -2   4  355.45   11.35
  -1   2   4  350.36   11.29
   1   2  -4  350.26   11.41
  -1   2   4  346.99   11.25
  -1   2   4  349.50   11.42
   1   2  -4  347.69   11.44
   1   2  -4  347.44   11.31
   0  -2   4    9.99    0.58
   0  -2  -4   10.27    0.58
   0  -2   4   10.03    0.59
   0  -2  -4    9.86    0.64
   0  -2  -4    9.80    0.61
   0  -2   4    9.35    0.60
   0  -2   4    9.53    0.50
   0   2  -4   10.18    0.60
   0   2   4    8.96    0.57
   0   2   4    9.43    0.52
   0   2   4    8.97    0.59
   0   2  -4   10.11    0.61
   0   2  -4    9.16    0.53
   1  -2   4   60.09    2.08
   1  -2   4   59.27    2.23
   1  -2   4   58.49    2.12
   1  -2   4   58.24    2.30
  -1  -2  -4   57.56    2.21
  -1   2  -4   57.36    2.14
  -1   2  -4   57.22    2.08
   1   2   4   57.57    2.18
   1   2   4   58.37    2.20
   1   2   4   56.02    2.26
   2  -2   4   51.82    2.12
   2  -2   4   52.37    2.21
   2  -2   4   55.33    2.01
   2   2   4   51.75    2.19
   2   2   4   51.34    2.15
   3  -2   4   20.51    1.19
   3  -2   4   19.59    1.08
   3  -2   4   17.74    1.00
   3   2   4   18.19    1.12
   3   2   4   19.30    1.16
   4  -2   4    3.00    0.57
   4  -2   4    2.18    0.44
   4  -2   4    3.75    0.56
   4   2   4    2.08    0.48
   4   2   4    3.46    0.61
   5  -2   4    0.43    0.27
   5  -2   4    0.18    0.27
   5  -2   4    0.61    0.31
   5   2   4    0.81    0.38
   6  -2   4    2.50    0.58
   6  -2   4    3.05    0.70
   6  -2   4    2.59    0.61
   6   2   4    3.25    0.75
   6  -3  -4    0.51    0.30
   6   3  -4    0.90    0.32
   5  -3  -4   24.76    1.36
   5   3  -4   23.53    1.25
   4  -3  -4   20.14    1.15
  -4  -3   4   18.44    1.17
  -4   3   4   18.47    0.93
   4   3  -4   20.11    1.06
   3  -3  -4   96.87    3.65
  -3  -3   4  100.69    3.70
   3  -3  -4   91.82    3.56
  -3   3   4   97.93    3.38
   3   3  -4   99.28    3.55
  -2  -3   4   82.27    2.70
   2  -3  -4   79.26    2.60
   2  -3  -4   65.93    2.73
   2  -3  -4   79.14    3.00
  -2  -3   4   80.14    2.92
  -2   3   4   79.51    2.65
   2   3  -4   76.57    2.84
   2   3  -4   78.24    2.89
  -2   3   4   79.44    2.70
  -1  -3   4    0.33    0.15
  -1  -3   4    0.46    0.17
  -1  -3   4    0.25    0.16
   1  -3  -4    0.50    0.14
   1  -3  -4    0.41    0.22
  -1  -3   4    0.33    0.14
   1  -3  -4    0.21    0.11
   1   3  -4   -0.08    0.13
  -1   3   4    0.57    0.14
  -1   3   4    0.25    0.17
  -1   3   4    0.32    0.12
   1   3  -4    0.41    0.19
   0  -3  -4   20.50    1.10
   0  -3   4   21.87    1.05
   0  -3   4   22.70    0.94
   0  -3  -4   22.88    1.04
   0   3  -4   22.49    1.04
   0   3   4   22.61    0.99
   0   3   4   23.60    1.07
   1  -3   4  141.21    4.62
   1  -3   4  138.83    4.81
   1  -3   4  140.78    4.90
   1  -3   4  134.61    4.68
  -1  -3  -4  140.88    4.86
   1   3   4  140.01    4.82
  -1   3  -4  143.12    4.74
   1   3   4  133.63    4.87
  -1   3  -4  137.75    4.66
   1   3   4  138.03    4.79
   2  -3   4   15.97    0.91
   2  -3   4   16.86    0.79
   2  -3   4   16.60    1.01
   2   3   4   15.13    0.95
   2   3   4   15.56    0.97
   2   3   4   16.40    0.86
   3  -3   4   42.60    1.87
   3  -3   4   41.55    1.76
   3  -3   4   42.76    1.98
   3   3   4   41.20    2.00
   3   3   4   41.40    1.96
   4  -3   4    5.24    0.66
   4  -3   4    5.79    0.77
   4  -3   4    4.84    0.62
   4   3   4    5.47    0.79
   5  -3   4   11.26    1.19
   5  -3   4    9.36    0.84
   5  -3   4    9.96    0.85
   5   3   4    8.75    1.10
   6  -3   4   21.86    1.51
   6  -3   4   18.82    1.33
   6   3   4   21.64    1.65
   7  -3   4    2.47    0.71
   6  -4  -4    1.56    0.46
  -6   4   4    3.90    0.49
   6   4  -4    3.20    0.55
   5  -4  -4    6.73    0.82
  -5   4   4    5.11    0.45
   5   4  -4    5.77    0.67
   4  -4  -4    0.53    0.26
   4  -4  -4    0.15    0.19
  -4   4   4    0.33    0.13
   4   4  -4    0.29    0.21
   3  -4  -4    1.83    0.43
  -3  -4   4    1.47    0.38
   3  -4  -4    1.31    0.37
   3   4  -4    1.35    0.30
  -3   4   4    2.02    0.25
   2  -4  -4   21.20    0.82
   2  -4  -4   20.25    0.93
  -2  -4   4   20.36    1.12
  -2  -4   4   20.87    0.95
   2  -4  -4   19.10    1.13
  -2   4   4   20.76    0.87
   2   4  -4   21.78    1.06
  -1  -4   4  219.35    7.52
   1  -4  -4  227.13    7.76
  -1  -4   4  232.38    7.62
   1   4  -4  221.56    7.68
  -1   4   4  225.20    7.47
   1   4  -4  225.47    7.58
  -1   4   4  234.19    7.42
   0  -4  -4    2.86    0.47
   0  -4   4    2.02    0.33
   0  -4   4    2.05    0.25
   0  -4   4    2.27    0.31
   0  -4   4    2.37    0.35
   0   4   4    1.99    0.36
   0   4  -4    2.30    0.34
   0   4   4    2.59    0.36
   0   4   4    2.65    0.33
  -1  -4  -4    3.73    0.52
   1  -4   4    3.91    0.50
   1  -4   4    3.83    0.45
   1  -4   4    4.01    0.29
   1  -4   4    3.88    0.39
   1   4   4    4.17    0.49
   1   4   4    4.13    0.51
  -1   4  -4    4.74    0.47
   1   4   4    3.08    0.44
  -1   4  -4    3.66    0.32
   2  -4   4    1.26    0.20
   2  -4   4    1.16    0.27
   2  -4   4    0.67    0.28
   2   4   4    0.83    0.25
   2   4   4    0.92    0.29
   2   4   4    0.63    0.24
  -2   4  -4    0.79    0.17
   3  -4   4    3.20    0.51
   3  -4   4    3.44    0.50
   3  -4   4    4.75    0.51
   3   4   4    3.48    0.58
   4  -4   4    1.96    0.39
   4  -4   4    2.25    0.49
   4  -4   4    2.73    0.49
   4   4   4    3.56    0.66
   5  -4   4   39.48    1.89
   5  -4   4   39.27    1.95
   5  -4   4   40.30    2.12
   5   4   4   37.86    2.23
   6  -4   4   -0.13    0.28
   6  -4   4   -0.03    0.38
   6   4   4   -0.17    0.34
   7  -4   4    1.81    0.63
   6  -5  -4   12.49    1.25
   6   5  -4   10.62    0.86
  -6   5   4   10.46    0.69
   5  -5  -4    4.40    0.75
   5  -5  -4    3.70    0.47
  -5   5   4    4.41    0.38
   5   5  -4    2.85    0.49
   4  -5  -4   27.37    1.38
   4  -5  -4   26.69    1.52
  -4   5   4   28.19    1.12
   4   5  -4   24.71    1.32
   3  -5  -4   24.37    1.41
  -3  -5   4   24.35    1.47
  -3  -5   4   25.16    1.16
   3  -5  -4   27.68    1.52
  -3   5   4   25.95    1.03
   3   5  -4   24.66    1.26
   2  -5  -4    0.46    0.25
   2  -5  -4    0.58    0.35
   2  -5  -4    1.07    0.20
  -2  -5   4    1.17    0.26
  -2  -5   4    0.99    0.30
   2  -5  -4    1.15    0.17
   2   5  -4    1.20    0.40
  -2   5   4    1.18    0.19
   2   5  -4    1.21    0.29
  -1  -5   4   15.57    0.94
   1  -5  -4   17.57    0.84
   1  -5  -4   16.23    1.06
  -1  -5   4   17.83    0.94
  -1   5   4   17.30    0.81
   1   5  -4   16.89    0.93
   0  -5  -4   17.41    1.08
   0  -5   4   17.28    0.93
   0  -5   4   18.39    0.82
   0   5   4   16.59    0.88
   0   5  -4   16.40    0.91
   1  -5   4   27.93    1.34
  -1  -5  -4   27.51    1.36
   1  -5   4   26.16    1.01
   1  -5   4   26.43    1.23
  -1   5  -4   26.17    1.19
   1   5   4   19.71    1.21
   1   5   4   23.15    1.24
   2  -5   4   37.00    1.62
   2  -5   4   34.70    1.49
   2  -5   4   36.80    1.38
   2  -5   4   36.29    1.73
   2   5   4   33.99    1.73
  -2   5  -4   34.39    1.40
   2   5   4   36.45    1.65
   3  -5   4    2.65    0.36
   3  -5   4    2.14    0.40
   3  -5   4    2.09    0.47
   3   5   4    2.67    0.55
   4  -5   4    1.19    0.35
   4  -5   4    1.10    0.29
   4  -5   4    1.32    0.43
   4   5   4    0.89    0.43
   5  -5   4    0.59    0.38
   5  -5   4    0.64    0.32
   5   5   4    1.27    0.51
   6  -5   4   -0.02    0.33
   6  -5   4    0.43    0.32
   6   5   4    0.35    0.46
   7  -5   4    1.64    0.61
   6  -6  -4   20.29    1.48
   6   6  -4   19.77    1.24
   5  -6  -4    5.80    0.88
   5  -6  -4    4.98    0.59
  -5   6   4    5.38    0.39
   5   6  -4    5.45    0.69
  -4  -6   4    0.13    0.25
   4  -6  -4    0.52    0.34
   4  -6  -4    0.05    0.24
  -4   6   4    0.08    0.10
   4   6  -4    0.06    0.22
  -3  -6   4    8.95    0.69
   3  -6  -4    7.69    0.91
  -3  -6   4   10.12    1.08
   3  -6  -4    9.37    1.09
   3   6  -4    8.66    0.70
  -3   6   4    9.61    0.50
   2  -6  -4   40.11    2.08
  -2  -6   4   45.87    2.11
   2  -6  -4   42.37    2.36
   2  -6  -4   45.69    1.65
  -2  -6   4   43.98    1.89
   2   6  -4   44.36    1.90
  -2   6   4   43.42    1.65
  -1  -6   4    0.42    0.23
  -1  -6   4    0.25    0.22
   1  -6  -4    0.24    0.15
   1  -6  -4    0.10    0.20
  -1   6   4    0.43    0.15
   1   6  -4    0.17    0.19
   0  -6   4   68.63    2.81
   0  -6   4   70.36    2.74
   0  -6   4   73.33    2.56
   0  -6  -4   70.96    2.96
   0   6   4   67.66    2.69
   0   6  -4   73.47    2.73
   1  -6   4    0.70    0.28
   1  -6   4    0.92    0.29
   1  -6   4    0.99    0.27
  -1  -6  -4    0.98    0.34
   1  -6   4    0.96    0.17
   1   6   4    1.04    0.28
  -1   6  -4    1.13    0.27
   2  -6   4    0.34    0.11
  -2  -6  -4    0.69    0.27
   2  -6   4   -0.08    0.19
   2  -6   4    1.08    0.36
   2  -6   4    0.77    0.24
   2   6   4    0.91    0.33
   2   6   4    0.16    0.23
  -2   6  -4    0.75    0.29
   3  -6   4   79.33    2.82
   3  -6   4   76.61    3.06
   3  -6   4   78.28    3.27
   3   6   4   77.88    3.39
   4  -6   4    5.18    0.66
   4  -6   4    5.10    0.77
   4   6   4    4.84    0.87
   5  -6   4    1.97    0.55
   5  -6   4    1.53    0.40
   5   6   4    1.29    0.53
   6  -6   4    0.13    0.40
   6   6   4   -0.27    0.39
   7  -7  -4    3.65    0.81
   7   7  -4    3.99    0.67
   6  -7  -4    7.90    1.11
   6   7  -4    7.99    0.91
   5  -7  -4    1.12    0.37
   5  -7  -4    1.42    0.50
   5   7  -4    1.70    0.43
   4  -7  -4    0.86    0.40
   4  -7  -4    0.70    0.39
  -4  -7   4    1.45    0.43
  -4   7   4    1.27    0.19
   4   7  -4    0.78    0.32
  -3  -7   4   14.52    1.21
   3  -7  -4   13.39    1.39
  -3  -7   4   15.55    1.01
   3  -7  -4   13.89    1.15
   3   7  -4   15.23    0.99
  -3   7   4   15.16    0.70
   2  -7  -4    0.29    0.26
  -2  -7   4    0.31    0.27
   2  -7  -4    0.13    0.13
  -2  -7   4    0.55    0.28
   2  -7  -4    0.34    0.47
  -2   7   4    0.40    0.16
   2   7  -4    0.12    0.22
   1  -7  -4  105.12    4.23
  -1  -7   4  104.87    4.06
  -1  -7   4  112.14    4.07
  -1   7   4  109.02    3.82
   1   7  -4  103.75    3.93
   0  -7   4    2.65    0.44
   0  -7   4    3.19    0.36
   0  -7  -4    3.48    0.62
   0  -7   4    2.98    0.50
   0   7  -4    2.70    0.44
   0   7   4    3.53    0.49
   1  -7   4    4.08    0.29
   1  -7   4    3.47    0.53
   1  -7   4    3.12    0.46
  -1  -7  -4    3.12    0.58
   1   7   4    3.51    0.54
  -1   7  -4    3.43    0.48
   2  -7   4   73.25    2.54
   2  -7   4   75.98    3.10
   2  -7   4   73.90    2.88
   2  -7   4   68.61    2.97
  -2  -7  -4   70.31    2.96
  -2   7  -4   76.38    2.82
   2   7   4   74.83    3.16
   3  -7   4   16.18    0.91
   3  -7   4   17.38    1.22
   3  -7   4   17.14    1.06
   3   7   4   18.58    1.34
   4  -7   4    0.20    0.35
   4  -7   4    0.24    0.24
   4   7   4    0.37    0.39
   5  -7   4    7.52    0.86
   5  -7   4    8.16    1.06
   5   7   4    7.60    1.16
   6  -7   4   10.90    1.31
   7  -8  -4    8.72    1.29
   7   8  -4    9.29    1.05
   6  -8  -4    2.11    0.63
   6   8  -4    1.20    0.43
   5  -8  -4   14.26    1.10
   5  -8  -4   12.87    1.42
   5   8  -4   14.51    1.06
  -4  -8   4   17.63    1.23
   4  -8  -4   19.30    1.40
   4  -8  -4   16.90    1.36
  -4  -8   4   19.45    1.55
   4   8  -4   18.91    1.18
  -3  -8   4    1.88    0.56
   3  -8  -4    3.82    0.73
  -3  -8   4    3.13    0.60
   3  -8  -4    3.26    0.77
   3   8  -4    1.69    0.43
  -3   8   4    3.19    0.35
  -2  -8   4   14.75    1.06
   2  -8  -4   13.58    1.14
  -2  -8   4   12.98    1.10
   2  -8  -4   14.88    0.80
   2  -8  -4   14.24    1.60
  -2   8   4   13.44    0.76
   2   8  -4   13.95    0.97
  -1  -8   4   17.18    1.16
   1  -8  -4   14.70    1.66
  -1  -8   4   17.16    1.14
   1  -8  -4   17.66    1.27
  -1   8   4   16.56    0.95
   1   8  -4   17.23    1.06
   0  -8  -4   40.25    2.03
   0  -8   4   36.32    1.87
   0  -8   4   37.36    1.53
   0  -8   4   37.57    1.78
   0   8  -4   38.76    1.75
   0   8   4   35.02    1.73
   1  -8   4    0.40    0.13
   1  -8   4   -0.08    0.24
   1  -8   4    0.46    0.23
  -1  -8  -4    0.34    0.27
  -1   8  -4    0.00    0.22
   1   8   4    0.10    0.25
   2  -8   4   20.23    1.15
   2  -8   4   21.55    1.36
   2  -8   4   18.67    0.81
  -2  -8  -4   20.21    1.26
  -2   8  -4   20.80    1.14
   2   8   4   18.82    1.32
   3  -8   4   46.02    2.07
   3  -8   4   46.22    2.30
   3   8   4   44.16    2.40
   4  -8   4   16.44    1.11
   4  -8   4   18.80    1.38
   4   8   4   16.42    1.45
   5  -8   4    2.51    0.52
   5  -8   4    2.51    0.67
   5   8   4    2.75    0.77
   6  -8   4    4.97    1.07
   7  -9  -4    0.11    0.53
   7   9  -4   -0.13    0.47
   6  -9  -4    0.16    0.49
   6   9  -4    0.97    0.44
   5  -9  -4    0.55    0.49
   5  -9  -4    0.29    0.40
   5   9  -4    0.47    0.36
   4  -9  -4    0.48    0.49
  -4  -9   4    0.78    0.52
   4  -9  -4    1.32    0.52
  -4  -9   4    0.89    0.48
   4   9  -4    0.46    0.32
   3  -9  -4   51.96    2.66
  -3  -9   4   48.90    2.41
   3  -9  -4   49.76    2.81
  -3  -9   4   52.21    2.73
  -3   9   4   50.67    1.94
   3   9  -4   49.91    2.29
   2  -9  -4   -0.11    0.31
  -2  -9   4   -0.02    0.31
   2  -9  -4   -0.02    0.49
  -2  -9   4   -0.08    0.29
  -2   9   4    0.00    0.16
   2   9  -4    0.21    0.27
   1  -9  -4   85.68    4.38
  -1  -9   4   90.02    3.68
   1  -9  -4   86.91    3.83
  -1  -9   4   91.88    3.71
  -1   9   4   89.56    3.41
   1   9  -4   92.14    3.53
   0  -9  -4    2.72    0.59
   0  -9   4    2.73    0.51
   0  -9   4    2.99    0.63
   0  -9   4    3.12    0.39
   0   9  -4    2.76    0.47
   0   9   4    2.15    0.45
   1  -9   4    4.68    0.59
   1  -9   4    5.03    0.35
  -1  -9  -4    4.27    0.70
   1  -9   4    5.34    0.79
   1   9   4    4.90    0.71
  -1   9  -4    4.33    0.60
   2  -9   4   30.46    1.59
   2  -9   4   34.43    1.89
   2   9   4   31.24    1.87
  -2   9  -4   34.64    1.64
   3  -9   4    3.40    0.55
   3  -9   4    3.67    0.71
   3   9   4    3.32    0.71
   4  -9   4    3.14    0.68
   4  -9   4    2.51    0.51
   4   9   4    3.21    0.77
   5  -9   4    2.57    0.72
   5   9   4    2.00    0.74
   6 -10  -4    2.68    0.79
   6  10  -4    3.04    0.66
   5 -10  -4   14.22    1.27
  -5 -10   4   13.66    1.68
   5 -10  -4   11.25    1.45
   5  10  -4   13.71    1.13
   4 -10  -4   14.88    1.60
  -4 -10   4   14.68    1.69
  -4 -10   4   14.48    1.29
   4 -10  -4   12.63    1.44
   4  10  -4   15.46    1.16
   3 -10  -4   -0.01    0.34
  -3 -10   4    0.10    0.39
   3 -10  -4   -0.57    0.48
  -3 -10   4    0.23    0.41
   3  10  -4    0.03    0.29
  -2 -10   4   16.85    1.34
   2 -10  -4   11.36    1.32
  -2 -10   4   13.51    1.17
   2 -10  -4   13.22    1.69
   2  10  -4   13.04    1.05
  -2  10   4   14.24    0.87
  -1 -10   4   38.72    2.11
   1 -10  -4   35.43    2.65
  -1 -10   4   40.10    2.08
   1 -10  -4   36.70    2.18
   1  10  -4   41.59    1.96
  -1  10   4   39.13    1.83
   0 -10   4    4.34    0.68
   0 -10   4    4.75    0.80
   0 -10  -4    5.14    1.19
   0 -10   4    5.28    0.46
   0 -10  -4    5.67    0.86
   0  10  -4    4.41    0.65
   0  10   4    5.09    0.72
   1 -10   4    2.58    0.50
   1 -10   4    3.79    0.71
  -1 -10  -4    2.99    0.62
  -1  10  -4    2.41    0.52
   1  10   4    2.36    0.55
   2 -10   4   23.43    1.61
   2 -10   4   25.92    1.40
   2  10   4   22.97    1.61
   3 -10   4    0.17    0.27
   3 -10   4    0.23    0.37
   3  10   4    0.28    0.38
   4 -10   4   18.76    1.23
   4 -10   4   17.41    1.47
   4  10   4   19.60    1.27
   4  10   4   18.30    1.64
   5 -10   4    1.96    0.90
   5 -11  -4    0.22    0.48
   5 -11  -4   -0.16    0.50
  -5 -11   4   -0.14    0.55
   5  11  -4    0.01    0.40
  -4 -11   4    6.74    1.09
  -4 -11   4    6.37    1.17
   4 -11  -4    5.55    1.11
   4 -11  -4    3.84    0.87
   4  11  -4    6.24    0.90
   3 -11  -4    0.00    0.50
  -3 -11   4    0.04    0.44
   3 -11  -4   -0.08    0.37
  -3 -11   4    0.04    0.47
   3  11  -4    0.05    0.33
   2 -11  -4   -0.04    0.58
  -2 -11   4   -0.03    0.35
  -2 -11   4   -0.38    0.37
   2 -11  -4    0.07    0.37
   2  11  -4    0.09    0.32
  -1 -11   4    0.23    0.42
  -1 -11   4   -0.02    0.30
   1 -11  -4    0.27    0.61
   1 -11  -4    0.22    0.37
   1  11  -4    0.33    0.37
  -1  11   4   -0.07    0.27
   0 -11  -4    7.01    1.04
   0 -11  -4   10.07    1.75
   0 -11   4    9.32    1.03
   0 -11   4    6.76    0.88
   0 -11   4    9.64    1.19
   0  11   4    7.30    0.90
   0  11  -4    6.47    0.80
   1 -11   4    4.91    0.67
   1 -11   4    5.67    0.88
   1  11   4    4.34    0.77
  -1  11  -4    4.28    0.69
   2 -11   4    4.43    0.63
   2 -11   4    4.00    0.77
   2  11   4    5.31    0.90
   3 -11   4    0.66    0.51
   3 -11   4    1.30    0.41
   3  11   4    0.86    0.52
   4 -11   4   21.60    1.68
   4  11   4   20.31    1.38
   4  11   4   19.39    1.76
   5 -12  -4    1.17    0.75
   5 -12  -4    2.95    0.82
  -5 -12   4    1.91    0.92
   5  12  -4    1.47    0.66
   4 -12  -4    1.73    0.76
  -4 -12   4    0.35    0.61
  -4 -12   4    0.30    0.61
   4 -12  -4    0.78    0.50
   4  12  -4    0.19    0.45
  -3 -12   4    0.72    0.59
   3 -12  -4   -0.18    0.60
   3 -12  -4    0.53    0.49
  -3 -12   4    0.01    0.47
   3  12  -4   -0.25    0.34
  -2 -12   4   20.62    1.66
   2 -12  -4   20.48    1.66
  -2 -12   4   20.75    1.64
   2 -12  -4   20.01    2.34
   2  12  -4   21.49    1.46
  -1 -12   4   11.85    1.27
   1 -12  -4   13.65    2.00
   1 -12  -4    9.86    1.26
  -1 -12   4   10.84    1.31
   1  12  -4   10.94    1.12
   0 -12   4   19.64    1.55
   0 -12   4   18.42    1.33
   0 -12  -4   16.33    2.24
   0  12  -4   20.28    1.35
   0  12   4   17.21    1.29
   1 -12   4    1.43    0.56
   1 -12   4    2.40    0.53
  -1 -12  -4    3.25    1.14
   1  12   4    2.09    0.62
  -1  12  -4    1.88    0.56
   2 -12   4    1.73    0.49
   2 -12   4    1.69    0.67
   2  12   4    2.68    0.71
   3 -12   4    2.16    0.51
   3 -12   4    1.09    0.64
   3  12   4    1.70    0.55
   3  12   4    2.47    0.79
   5 -13  -4    4.86    1.07
  -4 -13   4   14.52    2.21
   4 -13  -4   10.96    1.59
   4 -13  -4    9.56    1.41
   4  13  -4    9.79    1.16
  -3 -13   4    0.04    0.51
  -3 -13   4   -0.08    0.51
   3 -13  -4    0.60    0.69
   3 -13  -4    0.93    0.62
   3  13  -4    0.21    0.46
   2 -13  -4   27.10    2.46
  -2 -13   4   25.19    1.90
  -2 -13   4   26.73    1.95
   2 -13  -4   24.46    1.88
   2  13  -4   25.49    1.69
  -1 -13   4    0.65    0.57
   1 -13  -4    0.93    0.94
  -1 -13   4    0.70    0.49
   1  13  -4    1.37    0.56
   0 -13   4    0.01    0.34
   0 -13   4   -0.07    0.51
   0 -13  -4    0.58    0.96
   0  13  -4    0.13    0.46
   1 -13   4    3.23    0.82
  -1 -13  -4    3.12    1.32
   1 -13   4    3.31    0.66
   1  13   4    4.60    0.86
  -2 -13  -4   11.01    1.91
   2 -13   4    8.72    0.97
   2 -13   4   10.51    1.33
   2  13   4    9.13    1.15
   2  13   4    8.32    1.19
   3 -13   4    0.01    0.57
   4 -14  -4   -0.22    1.00
   3 -14  -4   19.66    2.36
  -3 -14   4   21.48    1.86
   3  14  -4   14.83    1.52
   2 -14  -4    0.71    0.94
  -2 -14   4    0.57    0.58
  -2 -14   4    0.60    0.68
   2  14  -4    0.86    0.59
  -1 -14   4    0.65    0.67
  -1 -14   4    0.30    0.53
   1 -14  -4    0.22    0.84
   1  14  -4   -0.02    0.50
   0 -14  -4    3.46    1.21
   0 -14   4    0.60    0.66
   0 -14   4    1.85    0.62
   0  14  -4    1.87    0.65
   1 -14   4    0.77    0.47
   1 -14   4    0.91    0.62
  -1 -14  -4    1.89    1.23
   1  14   4    0.07    0.48
   2 -14   4    4.38    0.74
  -3 -15   4    7.72    1.37
  -2 -15   4   17.13    1.93
  -2  15   4   15.32    1.64
  -1  15   4    1.37    0.69
   1  15  -4    3.63    0.86
   0 -15   4   24.71    1.87
   0  15  -4   27.13    2.05
   1 -15   4    0.47    0.49
  -6   0   5    0.04    0.21
   6   0  -5    0.57    0.29
   5   0  -5   18.44    1.11
  -5   0   5   18.85    0.91
   4   0  -5   -0.03    0.15
  -4   0   5    0.02    0.11
  -3   0   5  409.84   12.71
  -3   0   5  369.17   12.88
   3   0  -5  402.32   13.00
  -2   0   5   -0.06    0.08
   2   0  -5    0.11    0.10
   2   0  -5    0.01    0.12
  -2   0   5    0.04    0.08
   2   0  -5    0.02    0.12
   1   0  -5   84.14    3.04
   1   0  -5   82.49    3.08
  -1   0   5   86.08    2.98
   1   0  -5   80.47    2.96
  -1   0   5   81.11    3.04
  -1   0   5   83.69    2.93
   0   0   5    0.05    0.13
   0   0   5    0.67    0.15
   0   0   5    1.03    0.26
   0   0   5    0.80    0.20
   0   0  -5    0.55    0.19
   1   0   5   77.70    2.98
   1   0   5   81.01    2.88
   1   0   5   78.25    2.85
   1   0   5   79.49    3.05
   2   0   5    0.02    0.11
   2   0   5    0.01    0.15
   2   0   5   -0.06    0.17
   3   0   5   95.15    3.64
   3   0   5   92.94    3.67
   3   0   5   95.62    3.76
   4   0   5    0.06    0.20
   4   0   5    0.00    0.19
   5   0   5   51.41    2.55
   5   0   5   51.16    2.48
   6   0   5    0.51    0.41
   6   0   5    0.06    0.27
   7   1  -5    1.31    0.40
  -6  -1   5    0.42    0.24
   6  -1  -5   -0.01    0.22
   6   1  -5    0.10    0.23
  -5  -1   5   28.73    1.38
   5  -1  -5   29.24    1.53
   5   1  -5   31.19    1.52
  -4  -1   5   -0.04    0.12
   4  -1  -5    0.24    0.21
   4   1  -5    0.27    0.21
  -4   1   5    0.14    0.14
   3  -1  -5   14.93    0.93
  -3  -1   5   14.39    0.75
   3   1  -5   14.45    0.90
  -3   1   5   15.10    0.68
  -3   1   5   15.29    0.83
  -2  -1   5   16.24    0.79
   2  -1  -5   14.78    0.73
  -2  -1   5   15.79    0.84
   2  -1  -5   16.93    0.95
   2   1  -5   14.77    0.70
   2   1  -5   16.41    0.98
   2   1  -5   15.26    0.90
  -2   1   5   15.54    0.74
  -2   1   5   16.96    0.81
  -1  -1   5    4.31    0.38
  -1  -1   5    4.35    0.36
  -1  -1   5    3.57    0.41
   1  -1  -5    3.95    0.34
   1  -1  -5    4.61    0.40
  -1  -1   5    4.53    0.54
   1  -1  -5    4.93    0.55
  -1   1   5    4.49    0.56
  -1   1   5    4.27    0.37
  -1   1   5    5.02    0.36
   1   1  -5    5.34    0.56
   0  -1   5   84.77    2.95
   0  -1  -5   85.11    3.12
   0  -1   5   86.91    3.09
   0  -1   5   83.97    3.12
   0   1   5   84.93    2.97
   0   1  -5   83.38    3.08
   0   1   5   80.19    3.06
  -1  -1  -5    3.28    0.43
   1  -1   5    3.06    0.49
   1  -1   5    3.47    0.41
   1  -1   5    3.03    0.41
   1  -1   5    3.58    0.32
  -1   1  -5    4.97    0.52
   1   1   5    3.18    0.45
   1   1   5    3.74    0.43
   1   1   5    3.42    0.38
   2  -1   5    9.58    0.72
   2  -1   5    9.29    0.76
   2  -1   5    9.07    0.62
   2   1   5   10.10    0.69
   2   1   5    9.44    0.73
   3  -1   5   64.84    2.64
   3  -1   5   65.26    2.71
   3  -1   5   67.18    2.81
   3   1   5   63.85    2.72
   3   1   5   64.29    2.74
   4  -1   5    5.86    0.79
   4  -1   5    6.45    0.77
   4  -1   5    7.80    0.96
   4   1   5    5.92    0.81
   4   1   5    6.69    0.85
   5  -1   5    2.61    0.64
   5  -1   5    1.97    0.52
   5  -1   5    1.88    0.50
   5   1   5    2.00    0.55
   5   1   5    2.21    0.55
   6  -1   5   10.02    1.20
   6  -1   5    9.57    1.17
   6   1   5    8.78    1.21
   6  -2  -5   33.58    1.72
  -6  -2   5   30.80    1.68
   6   2  -5   33.60    1.67
   5  -2  -5   37.20    1.79
  -5  -2   5   37.98    1.77
   5   2  -5   35.33    1.73
   4  -2  -5    3.20    0.53
  -4  -2   5    3.22    0.45
   4   2  -5    4.14    0.58
  -4   2   5    2.65    0.40
  -3  -2   5   12.49    0.73
   3  -2  -5   10.65    0.61
   3  -2  -5   11.65    0.82
  -3   2   5   11.94    0.55
  -3   2   5   11.72    0.68
   3   2  -5   11.83    0.80
  -2  -2   5    6.83    0.43
   2  -2  -5    5.28    0.37
   2  -2  -5    6.84    0.59
  -2  -2   5    6.73    0.48
  -2  -2   5    6.39    0.51
  -2   2   5    6.47    0.44
   2   2  -5    7.17    0.58
   2   2  -5    7.22    0.46
  -2   2   5    6.54    0.42
   1  -2  -5  204.74    6.91
  -1  -2   5  220.42    6.98
  -1  -2   5  206.37    6.99
   1  -2  -5  210.39    7.15
   1  -2  -5  210.30    7.01
  -1  -2   5  206.43    6.99
   1   2  -5  207.38    7.08
  -1   2   5  208.56    6.97
  -1   2   5  208.66    6.91
   1   2  -5  210.78    6.98
   0  -2   5    6.31    0.53
   0  -2   5    6.39    0.50
   0  -2  -5    6.23    0.55
   0  -2   5    7.17    0.44
   0   2   5    6.49    0.45
   0   2  -5    6.70    0.53
   0   2   5    5.72    0.49
   1  -2   5   12.22    0.82
   1  -2   5   12.44    0.65
   1  -2   5   12.53    0.78
  -1  -2  -5   12.23    0.77
   1  -2   5   12.08    0.70
  -1   2  -5   12.84    0.73
   1   2   5   12.25    0.80
   1   2   5   12.65    0.74
   1   2   5   12.17    0.75
   2  -2   5   58.00    2.42
   2  -2   5   59.27    2.52
   2  -2   5   58.93    2.27
   2   2   5   61.12    2.50
   2   2   5   59.15    2.43
   3  -2   5    8.42    0.73
   3  -2   5    8.82    0.68
   3  -2   5    8.40    0.92
   3   2   5    9.06    0.79
   3   2   5   10.11    0.83
   4  -2   5    0.27    0.31
   4  -2   5    0.26    0.26
   4  -2   5    0.23    0.22
   4   2   5    0.30    0.28
   4   2   5   -0.07    0.18
   5  -2   5    9.49    1.06
   5  -2   5    8.77    1.01
   5  -2   5    9.55    1.13
   5   2   5   11.15    1.20
   5   2   5   10.09    1.21
   6  -2   5   12.27    1.37
   6  -2   5    9.63    1.34
   6  -2   5   13.01    1.11
   6   2   5    7.65    1.13
   7  -2   5    2.98    0.73
   7  -3  -5    7.08    0.95
   7   3  -5    5.85    0.80
  -6  -3   5   14.15    1.13
   6  -3  -5   17.46    1.19
  -6   3   5   14.34    0.94
   6   3  -5   16.25    1.06
  -5  -3   5    5.47    0.74
   5  -3  -5    5.59    0.76
  -5   3   5    5.75    0.60
   5   3  -5    5.29    0.69
   4  -3  -5   28.58    1.51
  -4  -3   5   26.46    1.44
  -4   3   5   28.68    1.28
   4   3  -5   29.37    1.45
   3  -3  -5    8.11    0.72
   3  -3  -5    8.24    0.75
  -3  -3   5    8.14    0.64
  -3   3   5    9.13    0.54
   3   3  -5    7.67    0.65
  -2  -3   5    2.34    0.35
   2  -3  -5    2.30    0.24
  -2  -3   5    1.77    0.26
   2  -3  -5    1.34    0.33
  -2  -3   5    1.82    0.33
  -2   3   5    1.92    0.25
  -2   3   5    2.33    0.29
   2   3  -5    1.52    0.29
   2   3  -5    1.63    0.33
   1  -3  -5    3.92    0.35
  -1  -3   5    3.45    0.41
   1  -3  -5    3.02    0.49
  -1  -3   5    3.71    0.42
  -1  -3   5    4.41    0.38
   1   3  -5    4.32    0.50
  -1   3   5    3.78    0.42
  -1   3   5    3.63    0.31
   1   3  -5    3.54    0.45
   0  -3   5  132.88    4.47
   0  -3   5  131.65    4.62
   0  -3   5  131.12    4.66
   0  -3  -5  133.44    4.74
   0  -3   5  132.45    4.57
   0   3   5  128.88    4.65
   0   3   5  132.31    4.65
   0   3  -5  134.35    4.63
   0   3   5  130.71    4.53
   1  -3   5   32.02    1.49
   1  -3   5   33.65    1.40
   1  -3   5   33.05    1.32
  -1  -3  -5   33.06    1.53
   1  -3   5   33.39    1.58
   1   3   5   30.50    1.52
   1   3   5   32.12    1.46
  -1   3  -5   34.05    1.44
   1   3   5   32.61    1.47
   2  -3   5   10.47    0.62
   2  -3   5   10.71    0.76
   2  -3   5   10.54    0.83
   2   3   5    8.67    0.75
   2   3   5   10.17    0.77
   3  -3   5    0.16    0.16
   3  -3   5    0.14    0.26
   3  -3   5    0.06    0.17
   3   3   5    0.07    0.20
   3   3   5    0.11    0.23
   4  -3   5    4.79    0.68
   4  -3   5    5.64    0.83
   4  -3   5    5.20    0.66
   4   3   5    6.28    0.90
   4   3   5    5.11    0.76
   5  -3   5    0.95    0.42
   5  -3   5    0.62    0.36
   5  -3   5    0.41    0.32
   5   3   5    0.94    0.43
   6  -3   5    5.69    0.95
   6  -3   5    5.59    0.87
   6   3   5    4.25    0.87
   7  -4  -5    4.10    0.79
  -7  -4   5    3.37    0.76
   7   4  -5    3.80    0.68
  -6  -4   5   -0.05    0.32
   6  -4  -5    0.23    0.29
  -6   4   5    0.70    0.25
   6   4  -5    0.47    0.32
  -5  -4   5   10.48    1.11
   5  -4  -5    8.96    0.99
  -5   4   5    8.46    0.61
   5   4  -5    9.89    0.94
   4  -4  -5   79.14    3.32
   4  -4  -5   82.68    3.11
  -4  -4   5   80.89    3.32
   4   4  -5   80.93    3.18
  -4   4   5   81.95    2.93
   3  -4  -5    2.21    0.48
  -3  -4   5    2.29    0.45
   3  -4  -5    2.21    0.52
   3   4  -5    2.78    0.48
  -3   4   5    1.86    0.27
  -2  -4   5    0.31    0.18
   2  -4  -5    0.22    0.12
  -2  -4   5    0.13    0.14
   2  -4  -5    0.14    0.19
   2   4  -5   -0.02    0.22
   2   4  -5    0.37    0.22
  -2   4   5    0.16    0.11
  -2   4   5    0.46    0.14
   1  -4  -5    0.26    0.24
  -1  -4   5    0.49    0.18
   1  -4  -5    0.30    0.15
  -1  -4   5    0.39    0.19
  -1  -4   5    0.38    0.18
  -1   4   5    0.36    0.14
   1   4  -5    0.51    0.24
  -1   4   5    0.62    0.20
   0  -4   5   13.40    0.66
   0  -4  -5   13.74    0.90
   0  -4   5   10.70    0.73
   0  -4   5   11.80    0.78
   0   4  -5   10.07    0.72
   0   4   5   12.05    0.70
   0   4   5   11.49    0.75
   1  -4   5    6.16    0.41
   1  -4   5    6.68    0.56
  -1  -4  -5    6.50    0.72
   1  -4   5    6.34    0.69
   1   4   5    6.02    0.69
   1   4   5    6.11    0.54
  -1   4  -5    6.01    0.53
   2  -4   5   11.43    0.80
   2  -4   5   11.74    0.89
   2  -4   5   10.91    0.69
   2  -4   5   11.17    0.64
   2   4   5   12.07    0.87
   2   4   5   11.97    0.88
   2   4   5   10.41    0.78
   3  -4   5    8.44    0.95
   3  -4   5    8.16    0.62
   3  -4   5    8.66    0.73
   3   4   5    7.11    0.87
   3   4   5    8.46    0.96
   4  -4   5   36.02    1.82
   4  -4   5   37.76    2.00
   4  -4   5   33.99    1.69
   4   4   5   36.22    2.04
   5  -4   5    0.76    0.35
   5  -4   5    0.84    0.46
   5   4   5    0.95    0.49
   6  -4   5    2.39    0.60
   6  -4   5    1.65    0.57
   6   4   5    0.39    0.45
  -7  -5   5   16.56    1.49
   7  -5  -5   18.62    1.44
   7   5  -5   20.83    1.31
   6  -5  -5    4.53    0.79
  -6  -5   5    5.53    0.92
   6   5  -5    4.11    0.67
  -6   5   5    5.42    0.57
  -5  -5   5    3.36    0.68
   5  -5  -5    3.46    0.43
   5  -5  -5    2.54    0.57
  -5   5   5    3.67    0.42
   5   5  -5    3.21    0.56
   4  -5  -5    4.30    0.70
   4  -5  -5    3.62    0.59
  -4  -5   5    4.50    0.74
  -4   5   5    3.70    0.39
   4   5  -5    4.32    0.60
   3  -5  -5   -0.19    0.29
  -3  -5   5   -0.06    0.14
  -3  -5   5   -0.08    0.15
   3  -5  -5    0.05    0.22
   3   5  -5   -0.09    0.17
  -3   5   5    0.05    0.10
  -2  -5   5    1.83    0.32
  -2  -5   5    2.47    0.45
   2  -5  -5    1.86    0.45
  -2   5   5    2.21    0.29
   2   5  -5    2.19    0.40
  -1  -5   5    5.20    0.54
  -1  -5   5    4.57    0.43
   1  -5  -5    3.90    0.62
  -1  -5   5    4.11    0.51
  -1   5   5    4.63    0.38
   1   5  -5    4.44    0.53
   0  -5  -5    5.29    0.71
   0  -5   5    5.72    0.61
   0  -5   5    6.85    0.60
   0  -5   5    6.93    0.46
   0   5  -5    6.03    0.63
   0   5   5    6.48    0.56
   0   5   5    5.71    0.49
   1  -5   5   30.04    1.42
  -1  -5  -5   28.47    1.52
   1  -5   5   29.94    1.19
   1  -5   5   29.75    1.33
   1  -5   5   29.90    1.50
   1   5   5   27.28    1.42
   1   5   5   27.20    1.41
   1   5   5   28.29    1.46
  -1   5  -5   28.71    1.36
   2  -5   5   12.55    0.95
   2  -5   5   11.30    0.83
   2  -5   5   11.89    0.65
   2   5   5   11.49    0.90
   3  -5   5    8.64    0.74
   3  -5   5    8.25    0.60
   3  -5   5    6.31    0.84
   3   5   5    6.90    0.90
   4  -5   5    0.85    0.41
   4  -5   5    1.36    0.41
   4  -5   5    1.23    0.33
   4   5   5    0.99    0.45
   5  -5   5    0.32    0.33
   5  -5   5    1.01    0.47
   5   5   5    0.58    0.42
   6  -5   5    0.12    0.44
   6  -5   5    0.39    0.37
   6   5   5   -0.38    0.39
   8   6  -5    0.22    0.40
   7  -6  -5    0.72    0.50
  -7  -6   5    0.35    0.55
   7   6  -5    0.13    0.33
   6  -6  -5    1.02    0.47
  -6  -6   5    1.73    0.62
   6   6  -5    2.06    0.52
   5  -6  -5    1.46    0.38
  -5  -6   5    1.54    0.54
   5  -6  -5    1.13    0.44
   5   6  -5    1.21    0.39
  -5   6   5    1.23    0.24
  -4  -6   5   60.35    2.78
   4  -6  -5   54.25    2.69
   4  -6  -5   58.33    2.63
  -4   6   5   57.75    2.11
   4   6  -5   56.32    2.47
   3  -6  -5   43.68    2.27
  -3  -6   5   47.03    1.90
   3  -6  -5   46.60    2.45
  -3  -6   5   46.20    2.24
   3   6  -5   46.09    2.07
  -3   6   5   46.97    1.76
   2  -6  -5    0.00    0.13
  -2  -6   5   -0.12    0.18
   2  -6  -5   -0.19    0.18
  -2  -6   5   -0.04    0.18
  -2   6   5    0.26    0.14
   2   6  -5    0.04    0.19
  -1  -6   5   14.67    0.92
  -1  -6   5   15.63    0.95
  -1  -6   5   12.71    0.80
   1  -6  -5   14.64    1.09
   1   6  -5   15.17    0.94
  -1   6   5   14.47    0.80
   0  -6   5   33.99    1.59
   0  -6  -5   35.10    1.82
   0  -6   5   32.68    1.63
   0  -6   5   35.90    1.42
   0   6  -5   34.21    1.59
   0   6   5   32.60    1.54
  -1  -6  -5   -0.14    0.22
   1  -6   5    0.04    0.09
   1  -6   5    0.10    0.24
   1  -6   5   -0.12    0.16
  -1   6  -5   -0.09    0.19
   1   6   5   -0.11    0.14
  -2  -6  -5    4.74    0.68
   2  -6   5    4.62    0.37
   2  -6   5    4.97    0.70
   2  -6   5    3.86    0.55
  -2   6  -5    4.53    0.56
   2   6   5    5.97    0.78
   3  -6   5    2.49    0.55
   3  -6   5    2.02    0.43
   3  -6   5    2.39    0.35
   3   6   5    2.13    0.53
   4  -6   5   13.98    1.04
   4  -6   5   12.98    1.18
   4   6   5   14.26    1.26
   5  -6   5    1.82    0.51
   5  -6   5    2.52    0.68
   5   6   5    2.37    0.68
   6  -6   5    4.97    0.94
  -7  -7   5   17.17    1.87
   7  -7  -5   23.42    1.74
   7   7  -5   19.90    1.41
  -6  -7   5   10.66    1.37
   6  -7  -5    9.40    1.25
   6   7  -5   11.11    1.11
   5  -7  -5   10.60    0.91
  -5  -7   5   11.75    1.37
   5  -7  -5    8.84    1.20
   5   7  -5   10.00    1.04
  -4  -7   5    8.58    0.69
   4  -7  -5    9.67    1.13
   4  -7  -5    8.05    1.09
  -4  -7   5    9.83    1.22
  -4   7   5    8.62    0.52
   4   7  -5    8.37    0.89
   3  -7  -5   57.59    2.86
  -3  -7   5   62.74    2.84
   3  -7  -5   61.48    3.08
  -3  -7   5   61.06    2.47
   3   7  -5   60.24    2.59
  -3   7   5   61.71    2.25
   2  -7  -5   17.07    1.78
   2  -7  -5   19.56    1.38
  -2  -7   5   18.76    1.21
  -2  -7   5   17.69    1.08
   2  -7  -5   19.47    0.92
   2   7  -5   17.64    1.13
  -2   7   5   18.42    0.92
   1  -7  -5   35.20    1.94
  -1  -7   5   37.06    1.73
  -1  -7   5   36.35    1.73
  -1  -7   5   34.00    1.55
  -1   7   5   34.65    1.55
   1   7  -5   33.99    1.68
   0  -7   5    8.32    0.70
   0  -7  -5    9.14    1.05
   0  -7   5    8.00    0.54
   0  -7   5    9.04    0.78
   0   7  -5    8.37    0.73
   0   7   5    8.43    0.69
  -1  -7  -5    1.57    0.49
   1  -7   5    2.10    0.47
   1  -7   5    2.10    0.40
   1  -7   5    2.08    0.27
   1   7   5    1.59    0.40
  -1   7  -5    0.87    0.33
   2  -7   5   71.67    2.89
  -2  -7  -5   72.77    3.00
   2  -7   5   71.47    2.53
   2  -7   5   74.24    3.10
   2   7   5   65.10    3.05
  -2   7  -5   69.49    2.77
   3  -7   5   11.20    0.89
   3  -7   5   11.81    1.06
   3   7   5   11.02    1.21
   4  -7   5   24.26    1.66
   4  -7   5   25.94    1.49
   4   7   5   24.65    1.76
   5  -7   5    3.79    0.66
   5  -7   5    3.84    0.81
   5   7   5    4.25    0.90
  -7  -8   5    1.60    0.76
   7  -8  -5    1.82    0.72
   7   8  -5    0.95    0.47
   6  -8  -5    4.46    0.89
  -6  -8   5    3.73    0.88
   6   8  -5    5.52    0.84
   5  -8  -5    1.66    0.51
  -5  -8   5    1.84    0.68
   5  -8  -5    2.16    0.64
   5   8  -5    2.79    0.55
  -4  -8   5    2.85    0.50
   4  -8  -5    0.75    0.52
   4  -8  -5    1.53    0.54
  -4  -8   5    1.41    0.54
   4   8  -5    1.80    0.50
  -4   8   5    2.01    0.29
  -3  -8   5    5.87    0.72
  -3  -8   5    5.24    0.90
   3  -8  -5    6.97    1.05
   3  -8  -5    6.00    1.08
  -3   8   5    5.96    0.46
   3   8  -5    4.33    0.65
   2  -8  -5   70.63    3.31
  -2  -8   5   78.19    3.19
   2  -8  -5   69.41    3.69
  -2  -8   5   70.33    2.96
  -2   8   5   72.84    2.73
   2   8  -5   72.38    2.98
  -1  -8   5    0.43    0.30
  -1  -8   5    0.04    0.18
   1  -8  -5    0.30    0.33
  -1  -8   5    1.05    0.35
   1   8  -5    0.70    0.31
  -1   8   5    0.70    0.25
   0  -8   5   15.96    0.85
   0  -8   5   19.47    1.22
   0  -8  -5   17.34    1.30
   0  -8   5   15.22    1.03
   0   8   5   15.89    1.05
   0   8  -5   16.68    1.08
   1  -8   5    9.15    0.78
   1  -8   5    9.23    0.54
   1  -8   5   10.58    0.94
  -1  -8  -5    8.20    0.99
  -1   8  -5   11.18    0.86
   1   8   5   10.76    0.90
   2  -8   5    6.58    0.87
   2  -8   5    7.33    0.46
  -2  -8  -5    7.29    0.91
   2  -8   5    5.50    0.67
  -2   8  -5    5.73    1.04
   2   8   5    5.99    0.85
   3  -8   5    3.97    0.62
   3  -8   5    3.25    0.66
   3   8   5    3.43    0.71
   4  -8   5   29.03    1.87
   4  -8   5   29.20    1.64
   4   8   5   27.85    1.96
   5  -8   5    1.32    0.45
   5  -8   5    1.33    0.62
   5   8   5    0.59    0.54
  -7  -9   5    0.42    0.67
   6  -9  -5   -0.06    0.43
  -6  -9   5    0.43    0.60
   6   9  -5    0.29    0.42
   5  -9  -5   11.55    1.42
   5  -9  -5   16.04    1.32
  -5  -9   5   15.05    1.70
   5   9  -5   18.56    1.28
  -4  -9   5    7.92    1.16
   4  -9  -5    9.05    1.27
   4  -9  -5    7.57    1.15
  -4  -9   5    8.59    0.93
   4   9  -5    8.65    0.99
  -3  -9   5   11.34    1.27
   3  -9  -5   11.64    1.56
  -3  -9   5   11.02    1.05
   3  -9  -5    8.58    1.15
   3   9  -5    7.91    0.88
  -3   9   5    9.64    0.65
  -2  -9   5    5.58    0.86
  -2  -9   5    4.87    0.73
   2  -9  -5    4.16    0.81
   2  -9  -5    4.21    0.99
   2   9  -5    4.94    0.73
  -2   9   5    4.39    0.54
  -1  -9   5   42.30    2.08
  -1  -9   5   42.46    2.07
   1  -9  -5   39.00    2.74
   1  -9  -5   45.09    2.36
  -1  -9   5   38.73    1.78
  -1   9   5   41.23    1.89
   1   9  -5   39.89    1.98
   0  -9  -5  128.86    4.99
   0  -9   5  123.34    4.75
   0  -9   5  120.13    4.59
   0  -9   5  118.12    4.23
   0   9   5  117.53    4.60
   0   9  -5  124.71    4.60
   1  -9   5    1.17    0.22
   1  -9   5    1.72    0.50
   1  -9   5    1.64    0.42
  -1  -9  -5    0.89    0.43
  -1   9  -5    0.93    0.40
   1   9   5    0.47    0.34
   2  -9   5   14.15    1.19
   2  -9   5   12.30    0.96
   2   9   5   16.40    1.27
   3  -9   5    1.21    0.40
   3  -9   5    1.08    0.48
   3   9   5    0.31    0.40
   4  -9   5    6.22    0.84
   4  -9   5    7.38    1.10
   4   9   5    7.37    1.19
   6 -10  -5    6.28    1.18
  -6 -10   5    6.62    1.31
   6  10  -5    7.33    1.01
   5 -10  -5    0.22    0.48
  -5 -10   5    0.33    0.53
   5 -10  -5    1.11    0.61
   5  10  -5    0.16    0.40
  -4 -10   5    1.53    0.65
   4 -10  -5    0.89    0.56
   4 -10  -5    0.80    0.44
  -4 -10   5    0.93    0.49
   4  10  -5    1.27    0.47
  -3 -10   5    2.77    0.64
  -3 -10   5    1.81    0.60
   3 -10  -5    0.91    0.53
   3 -10  -5    2.73    0.92
   3  10  -5    1.42    0.47
   2 -10  -5   10.11    1.55
   2 -10  -5    5.42    0.96
  -2 -10   5   11.56    1.25
  -2 -10   5    9.14    1.05
   2  10  -5    8.92    0.97
  -2  10   5    9.55    0.75
  -1 -10   5    7.84    0.97
   1 -10  -5    7.67    1.09
   1 -10  -5    8.24    1.55
  -1 -10   5    7.35    0.97
  -1 -10   5    8.67    0.69
  -1  10   5    8.74    0.77
   1  10  -5    7.84    0.91
   0 -10   5    8.34    1.03
   0 -10  -5    7.64    1.06
   0 -10   5    7.73    0.57
   0 -10   5    8.53    0.93
   0  10  -5    8.25    0.90
   0  10   5    8.51    0.95
  -1 -10  -5    0.62    0.46
   1 -10   5    0.22    0.37
   1 -10   5    0.79    0.36
   1  10   5    0.14    0.29
  -1  10  -5    0.11    0.38
   2 -10   5    0.39    0.38
   2 -10   5    0.70    0.36
   2  10   5    1.08    0.47
   3 -10   5    1.46    0.45
   3 -10   5    1.29    0.55
   3  10   5    1.17    0.54
   4 -10   5    0.89    0.53
   4 -10   5    1.02    0.46
   4  10   5    1.29    0.66
   5 -11  -5   10.43    1.32
  -5 -11   5   12.41    1.66
   5 -11  -5   12.99    1.62
   5  11  -5   12.18    1.29
   4 -11  -5   10.13    1.41
   4 -11  -5   14.40    1.72
  -4 -11   5   12.02    1.57
   4  11  -5   10.98    1.18
  -3 -11   5    1.35    0.54
   3 -11  -5    1.28    0.85
   3 -11  -5    1.38    0.62
  -3 -11   5    0.47    0.45
   3  11  -5    1.23    0.49
   2 -11  -5    6.23    1.07
   2 -11  -5    8.24    1.50
  -2 -11   5    8.88    1.08
  -2 -11   5    8.65    1.14
   2  11  -5    7.87    0.97
  -1 -11   5    1.00    0.53
  -1 -11   5    2.13    0.60
  -1 -11   5    1.55    0.36
   1 -11  -5    1.95    0.64
   1 -11  -5    1.91    0.96
   1  11  -5    1.07    0.46
  -1  11   5    1.04    0.43
   0 -11  -5    4.85    0.88
   0 -11  -5    5.89    1.41
   0 -11   5    3.27    0.72
   0 -11   5    5.09    0.77
   0  11  -5    4.36    0.73
   0  11   5    4.01    0.69
   1 -11   5    9.29    0.96
  -1 -11  -5    5.65    0.91
   1 -11   5   11.17    1.23
   1  11   5    8.45    1.08
  -1  11  -5    8.59    0.99
   2 -11   5    5.63    0.94
   2 -11   5    5.28    0.74
   2  11   5    6.04    0.99
   3 -11   5    0.54    0.53
   3 -11   5    1.25    0.47
   3  11   5    1.88    0.66
   4 -11   5    0.56    0.45
   4  11   5    0.83    0.52
   5 -12  -5   -0.32    0.56
  -4 -12   5    1.85    0.74
   4 -12  -5    2.12    0.80
   4 -12  -5    1.46    0.81
   4  12  -5    1.94    0.62
   3 -12  -5    8.77    1.33
  -3 -12   5   10.03    1.38
  -3 -12   5   12.51    1.36
   3 -12  -5   11.52    1.74
   3  12  -5   11.36    1.22
  -2 -12   5    8.80    1.21
  -2 -12   5    8.89    1.15
   2 -12  -5    5.48    1.36
   2 -12  -5    7.53    1.21
   2  12  -5    5.66    0.90
  -1 -12   5    8.12    1.04
   1 -12  -5    8.84    1.72
   1 -12  -5    6.87    1.09
  -1 -12   5    7.21    1.09
   1  12  -5    4.74    0.78
   0 -12   5    0.41    0.37
   0 -12   5    0.12    0.46
   0 -12  -5    0.00    0.42
   0 -12  -5    0.49    0.90
   0  12  -5   -0.29    0.42
   0  12   5   -0.19    0.34
  -1 -12  -5    0.05    0.84
   1 -12   5    0.35    0.38
   1 -12   5   -0.33    0.44
   1  12   5    0.42    0.45
   2 -12   5    3.16    0.62
   2 -12   5    3.24    0.79
   2  12   5    4.06    0.83
   3 -12   5    0.60    0.40
   3  12   5    1.26    0.68
   5 -13  -5    1.00    0.80
   4 -13  -5    4.68    1.24
   3 -13  -5    0.70    0.88
  -3 -13   5    0.46    0.59
   3 -13  -5   -0.07    0.49
  -3 -13   5    0.25    0.53
   3  13  -5    0.48    0.54
   2 -13  -5   21.78    1.85
  -2 -13   5   20.41    1.67
  -2 -13   5   21.40    1.70
   2 -13  -5   22.34    2.54
   2  13  -5   20.16    1.57
   1 -13  -5   15.12    2.35
  -1 -13   5   10.62    1.25
   1 -13  -5    9.72    1.32
  -1 -13   5    9.73    1.31
   1  13  -5   12.15    1.26
   0 -13  -5   -0.46    0.97
   0 -13   5    0.27    0.39
   0 -13   5   -0.15    0.51
   0  13  -5    0.08    0.49
   1 -13   5    0.39    0.55
   1 -13   5    0.37    0.42
  -1 -13  -5    0.24    0.99
   1  13   5    0.82    0.57
   2 -13   5   -0.42    0.36
   2  13   5   -0.21    0.49
   3 -13   5    9.65    1.09
  -3 -14   5    9.08    1.33
   3 -14  -5    4.73    1.45
   2 -14  -5    0.57    0.99
   2 -14  -5    1.16    0.70
  -2 -14   5    1.26    0.70
   2  14  -5    0.66    0.61
   1 -14  -5    7.14    1.70
  -1 -14   5   11.08    1.34
  -1 -14   5    7.92    1.25
   1  14  -5    7.33    1.10
   0 -14   5   12.04    1.46
   0 -14   5    9.44    1.19
   1 -14   5    1.21    0.55
   2 -14   5    0.62    0.49
   2  14   5    0.07    0.56
   1  15  -5   11.84    1.40
   7   0  -6    0.00    0.31
   6   0  -6    4.93    0.71
   5   0  -6   -0.03    0.20
  -5   0   6    0.05    0.11
  -4   0   6   17.04    1.03
  -4   0   6   17.70    0.84
   4   0  -6   17.45    1.11
  -3   0   6    0.11    0.12
   3   0  -6   -0.16    0.16
  -3   0   6   -0.08    0.11
   2   0  -6    0.18    0.15
  -2   0   6    0.62    0.18
   2   0  -6    0.57    0.26
  -2   0   6    0.94    0.23
   1   0  -6   -0.12    0.12
  -1   0   6    0.02    0.08
  -1   0   6    0.19    0.12
   0   0   6   18.83    0.90
   0   0   6   17.35    0.99
   0   0   6   18.40    1.01
   0   0  -6   18.89    1.04
   1   0   6   -0.12    0.16
   1   0   6    0.07    0.11
   1   0   6    0.07    0.18
  -1   0  -6   -0.04    0.16
   1   0   6   -0.07    0.13
   2   0   6    0.51    0.21
   2   0   6    0.21    0.24
   2   0   6    0.71    0.28
   3   0   6   -0.03    0.18
   3   0   6   -0.12    0.16
   4   0   6   20.13    1.33
   4   0   6   18.34    1.29
   5   0   6   -0.10    0.26
   5   0   6   -0.03    0.29
   6   0   6    0.77    0.45
   6   0   6    0.73    0.47
   8   1  -6    7.70    1.01
   7  -1  -6    4.27    0.72
   7   1  -6    6.33    0.86
  -6  -1   6    4.41    0.53
   6  -1  -6    4.67    0.72
   6   1  -6    2.93    0.56
  -5  -1   6    0.79    0.24
   5  -1  -6    0.71    0.35
  -5   1   6    0.81    0.26
   5   1  -6    0.77    0.31
   4  -1  -6  217.07    7.52
  -4  -1   6  217.40    7.17
  -4   1   6  217.71    7.03
  -4   1   6  207.79    7.31
   4   1  -6  210.67    7.47
   3  -1  -6   62.29    2.67
   3  -1  -6   63.11    2.48
  -3  -1   6   64.64    2.41
  -3  -1   6   64.06    2.56
  -3   1   6   63.93    2.34
  -3   1   6   67.15    2.50
   3   1  -6   65.60    2.67
   2  -1  -6   14.77    0.95
   2  -1  -6   14.04    0.76
  -2  -1   6   14.58    0.79
  -2  -1   6   14.27    0.81
  -2   1   6   13.98    0.75
   2   1  -6   13.16    0.90
  -2   1   6   14.38    0.77
  -1  -1   6   11.89    0.73
  -1  -1   6   11.97    0.68
   1  -1  -6   12.94    0.86
  -1  -1   6   11.75    0.73
  -1   1   6   11.27    0.71
   1   1  -6   12.29    0.82
  -1   1   6   12.57    0.68
   0  -1   6  111.99    4.06
   0  -1   6  114.75    4.16
   0  -1  -6  115.09    4.15
   0  -1   6  107.76    4.08
   0  -1   6  116.14    3.96
   0   1   6  114.40    4.12
   0   1  -6  116.00    4.12
   0   1   6  114.42    4.10
   0   1   6  113.61    3.97
   1  -1   6    5.11    0.59
   1  -1   6    6.09    0.70
  -1  -1  -6    5.39    0.63
   1  -1   6    5.45    0.44
   1   1   6    4.81    0.45
  -1   1  -6    6.10    0.62
   1   1   6    4.58    0.58
   2  -1   6    4.40    0.52
   2  -1   6    3.84    0.57
   2  -1   6    2.39    0.51
   2   1   6    3.26    0.52
   2   1   6    3.33    0.50
   3  -1   6   31.71    1.62
   3  -1   6   30.24    1.68
   3  -1   6   35.40    1.84
   3   1   6   34.67    1.78
   3   1   6   33.06    1.71
   4  -1   6    1.93    0.50
   4  -1   6    2.96    0.64
   4  -1   6    1.57    0.44
   4   1   6    2.29    0.53
   4   1   6    2.19    0.53
   5  -1   6   10.47    1.21
   5  -1   6    6.43    0.93
   5   1   6    9.40    1.14
   5   1   6    9.62    1.14
   6  -1   6   10.96    1.34
   6  -1   6    6.12    0.98
   6   1   6    7.56    1.11
   6   1   6   10.86    1.34
   8  -2  -6    4.04    0.82
   8   2  -6    4.36    0.81
   7  -2  -6   10.51    1.16
   7   2  -6   11.57    1.14
  -7   2   6    9.08    0.83
  -6  -2   6   31.71    1.55
   6  -2  -6   32.05    1.74
   6   2  -6   31.70    1.68
  -6   2   6   29.30    1.56
  -5  -2   6   24.61    1.23
   5  -2  -6   23.49    1.39
   5   2  -6   22.58    1.34
  -5   2   6   20.72    1.19
   4  -2  -6   -0.22    0.17
  -4  -2   6   -0.08    0.13
   4   2  -6    0.10    0.20
  -4   2   6   -0.15    0.11
  -3  -2   6   38.79    1.81
  -3  -2   6   42.11    1.73
   3  -2  -6   40.26    1.94
  -3   2   6   42.63    1.60
  -3   2   6   41.55    1.71
   3   2  -6   42.78    1.92
  -2  -2   6    1.76    0.33
  -2  -2   6    1.97    0.32
   2  -2  -6    1.56    0.25
  -2  -2   6    1.67    0.30
   2  -2  -6    1.17    0.27
   2  -2  -6    1.68    0.40
   2   2  -6    1.19    0.26
  -2   2   6    1.63    0.28
  -2   2   6    1.60    0.26
   2   2  -6    1.61    0.36
   1  -2  -6   42.88    1.90
  -1  -2   6   42.13    1.75
  -1  -2   6   39.88    1.67
  -1  -2   6   42.16    1.76
  -1   2   6   40.00    1.64
   1   2  -6   42.41    1.84
  -1   2   6   41.79    1.73
   0  -2   6   20.23    1.14
   0  -2  -6   20.93    1.17
   0  -2   6   18.69    1.07
   0  -2   6   22.17    0.99
   0   2   6   21.52    1.02
   0   2   6   21.84    1.13
   0   2  -6   20.98    1.12
   1  -2   6   17.30    1.05
  -1  -2  -6   19.89    1.09
   1  -2   6   21.31    1.19
   1  -2   6   17.93    0.91
   1   2   6   17.72    1.08
   1   2   6   19.58    1.02
  -1   2  -6   18.82    1.02
   2  -2   6    7.44    0.81
   2  -2   6    8.61    0.61
   2  -2   6    9.45    0.82
   2  -2   6    8.03    0.60
   2   2   6    8.49    0.70
   2   2   6    6.59    0.76
   3  -2   6   33.05    1.80
   3  -2   6   31.85    1.69
   3  -2   6   33.13    1.60
   3   2   6   30.13    1.69
   3   2   6   33.25    1.76
   4  -2   6    0.65    0.39
   4  -2   6    0.89    0.36
   4  -2   6    1.26    0.39
   4   2   6    0.54    0.34
   4   2   6    1.24    0.45
   5  -2   6   26.38    1.71
   5  -2   6   26.15    1.61
   5  -2   6   22.93    1.54
   5   2   6   21.99    1.65
   5   2   6   22.47    1.57
   6  -2   6    0.49    0.45
   6   2   6    0.21    0.45
   8  -3  -6    2.26    0.67
   7  -3  -6    0.00    0.37
  -7   3   6    0.01    0.23
   7   3  -6   -0.14    0.30
   6  -3  -6    3.92    0.72
  -6  -3   6    3.05    0.57
   6   3  -6    3.11    0.59
  -6   3   6    3.85    0.55
   5  -3  -6   18.92    1.30
  -5  -3   6   20.27    1.18
   5   3  -6   18.88    1.23
  -5   3   6   20.22    1.08
  -4  -3   6    0.56    0.27
   4  -3  -6    0.41    0.29
  -4   3   6    0.56    0.20
   4   3  -6    0.90    0.33
  -3  -3   6    0.88    0.24
   3  -3  -6    0.57    0.17
   3  -3  -6    0.80    0.31
   3   3  -6    0.95    0.30
  -3   3   6    0.60    0.17
  -3   3   6    0.86    0.18
  -2  -3   6   38.48    1.70
   2  -3  -6   38.82    1.88
  -2  -3   6   39.95    1.61
   2  -3  -6   38.45    1.52
  -2  -3   6   39.22    1.68
  -2   3   6   38.39    1.57
  -2   3   6   41.08    1.60
   2   3  -6   37.84    1.65
   2   3  -6   37.77    1.78
   1  -3  -6   46.10    2.05
  -1  -3   6   43.45    1.84
  -1  -3   6   44.32    1.78
  -1  -3   6   46.00    1.87
   1   3  -6   42.19    1.90
  -1   3   6   43.81    1.82
  -1   3   6   41.18    1.72
   0  -3  -6    5.56    0.70
   0  -3   6    8.10    0.62
   0  -3   6    5.49    0.64
   0  -3   6    6.97    0.48
   0   3   6    6.82    0.60
   0   3   6    7.91    0.55
   0   3  -6    5.78    0.64
   1  -3   6    6.33    0.46
   1  -3   6    5.80    0.65
   1  -3   6    5.75    0.56
  -1  -3  -6    6.45    0.74
   1  -3   6    5.75    0.69
  -1   3  -6    7.71    0.61
   1   3   6    7.54    0.74
   1   3   6    6.95    0.58
   1   3   6    7.56    0.66
   2  -3   6    4.11    0.63
   2  -3   6    2.79    0.49
   2  -3   6    2.60    0.49
   2  -3   6    4.92    0.52
   2   3   6    3.50    0.58
   2   3   6    3.18    0.52
   2   3   6    3.75    0.60
   3  -3   6   10.50    0.78
   3  -3   6    9.45    1.05
   3  -3   6   12.36    0.93
   3   3   6   10.40    0.93
   3   3   6   10.56    0.92
   4  -3   6   -0.03    0.24
   4  -3   6    0.01    0.21
   4  -3   6   -0.23    0.26
   4   3   6    0.03    0.24
   4   3   6   -0.08    0.25
   5  -3   6   14.43    1.18
   5  -3   6   12.08    1.07
   5  -3   6   14.90    1.28
   5   3   6   14.33    1.33
   6  -3   6    0.03    0.37
   6  -3   6    1.11    0.56
   6   3   6    1.19    0.58
   8  -4  -6    0.26    0.45
   8   4  -6   -0.24    0.35
   7  -4  -6    3.66    0.77
   7   4  -6    4.81    0.77
   6  -4  -6    1.97    0.53
  -6  -4   6    4.06    0.71
  -6   4   6    5.12    0.60
   6   4  -6    3.52    0.65
   5  -4  -6    0.97    0.39
  -5  -4   6    1.33    0.40
  -5   4   6    0.87    0.26
   5   4  -6    0.65    0.33
   4  -4  -6    0.74    0.34
  -4  -4   6    1.03    0.33
   4  -4  -6    0.72    0.34
   4   4  -6    0.92    0.34
  -4   4   6    0.84    0.22
   3  -4  -6   13.50    1.05
  -3  -4   6   14.58    0.92
  -3   4   6   13.31    0.74
   3   4  -6   13.90    0.97
  -2  -4   6   14.04    0.81
   2  -4  -6   14.95    0.74
   2  -4  -6   13.92    1.04
  -2  -4   6   14.73    0.89
  -2  -4   6   14.99    0.90
   2   4  -6   14.45    0.95
  -2   4   6   14.42    0.76
  -2   4   6   14.40    0.78
  -1  -4   6    0.72    0.21
  -1  -4   6    1.23    0.29
  -1  -4   6    0.76    0.26
   1  -4  -6    0.80    0.32
  -1   4   6    1.87    0.30
  -1   4   6    0.91    0.26
   1   4  -6    0.76    0.30
   0  -4   6   31.14    1.54
   0  -4   6   32.08    1.51
   0  -4  -6   29.96    1.61
   0  -4   6   32.29    1.33
   0   4   6   31.23    1.42
   0   4  -6   29.62    1.48
   0   4   6   31.51    1.51
   1  -4   6   62.05    2.55
  -1  -4  -6   62.17    2.62
   1  -4   6   61.90    2.63
   1  -4   6   63.43    2.30
   1  -4   6   60.43    2.39
  -1   4  -6   62.33    2.47
   1   4   6   59.56    2.51
   1   4   6   58.28    2.58
   1   4   6   62.85    2.54
   2  -4   6    0.01    0.19
   2  -4   6    0.03    0.23
   2  -4   6    0.05    0.14
   2   4   6   -0.07    0.19
   2   4   6    0.05    0.19
   3  -4   6    0.38    0.26
   3  -4   6    0.00    0.25
   3  -4   6    0.50    0.23
   3   4   6    0.13    0.28
   3   4   6    0.61    0.31
   4  -4   6    0.02    0.24
   4  -4   6    0.20    0.33
   4  -4   6    0.08    0.22
   4   4   6   -0.05    0.26
   5  -4   6    0.77    0.50
   5  -4   6    0.79    0.37
   5   4   6    0.22    0.40
   6  -4   6    4.39    0.81
   8  -5  -6    3.71    0.93
   8   5  -6    3.38    0.81
   7  -5  -6    3.94    0.88
  -7  -5   6    4.35    0.85
   7   5  -6    1.76    0.52
  -6  -5   6    0.43    0.42
   6  -5  -6    1.26    0.51
  -6   5   6    0.90    0.27
   6   5  -6    0.68    0.43
   5  -5  -6    5.16    0.86
  -5  -5   6    5.74    0.85
  -5   5   6    6.61    0.51
   5   5  -6    6.58    0.84
   4  -5  -6    5.01    0.85
  -4  -5   6    7.51    0.89
   4  -5  -6    6.99    0.87
  -4   5   6    7.02    0.50
   4   5  -6    7.46    0.86
   3  -5  -6   89.49    3.99
  -3  -5   6   94.17    3.32
   3  -5  -6   97.96    3.88
  -3  -5   6   95.56    3.64
  -3   5   6   96.86    3.32
   3   5  -6   84.46    3.63
   3   5  -6   92.65    3.65
  -2  -5   6    3.41    0.44
  -2  -5   6    2.60    0.45
   2  -5  -6    2.87    0.60
  -2  -5   6    3.50    0.50
   2  -5  -6    2.91    0.34
   2   5  -6    3.14    0.51
  -2   5   6    3.46    0.39
  -2   5   6    3.29    0.40
  -1  -5   6    3.34    0.49
  -1  -5   6    4.50    0.50
  -1  -5   6    4.38    0.54
   1  -5  -6    3.16    0.57
  -1   5   6    3.35    0.42
   1   5  -6    3.35    0.51
  -1   5   6    3.14    0.45
   0  -5   6    0.19    0.14
   0  -5   6    0.10    0.18
   0  -5  -6    0.15    0.26
   0  -5   6   -0.04    0.23
   0   5   6    0.19    0.16
   0   5   6    0.33    0.19
   0   5  -6   -0.01    0.23
  -1  -5  -6   23.68    1.39
   1  -5   6   20.68    0.98
   1  -5   6   20.99    1.29
   1  -5   6   21.72    1.22
  -1   5  -6   22.72    1.20
   1   5   6   20.63    1.25
   1   5   6   21.06    1.21
   2  -5   6   15.78    1.03
  -2  -5  -6   13.48    1.02
   2  -5   6   13.75    1.08
   2  -5   6   13.71    0.77
   2   5   6   13.71    1.05
   2   5   6   13.89    1.05
   3  -5   6    4.44    0.64
   3  -5   6    4.68    0.55
   3  -5   6    3.25    0.69
   3   5   6    2.85    0.61
   4  -5   6   18.90    1.31
   4  -5   6   19.29    1.47
   4   5   6   20.93    1.56
   5  -5   6    0.02    0.29
   5  -5   6    0.54    0.45
   5   5   6    0.10    0.41
   6  -5   6    1.04    0.52
   7  -6  -6    1.34    0.61
  -7  -6   6    1.00    0.56
   7   6  -6    2.03    0.59
  -6  -6   6   14.76    1.31
   6  -6  -6   16.70    1.39
   6   6  -6   14.62    1.19
   5  -6  -6    0.00    0.31
  -5  -6   6   -0.16    0.29
   5  -6  -6    0.16    0.31
  -5   6   6    0.16    0.16
   5   6  -6    0.06    0.25
   4  -6  -6    0.47    0.37
   4  -6  -6    0.36    0.35
  -4  -6   6    0.61    0.34
   4   6  -6    0.95    0.37
  -4   6   6    0.69    0.20
  -3  -6   6   -0.03    0.19
   3  -6  -6    0.22    0.30
  -3  -6   6    0.44    0.30
   3  -6  -6   -0.21    0.39
   3   6  -6   -0.04    0.23
  -3   6   6    0.16    0.14
  -2  -6   6   25.68    1.36
  -2  -6   6   25.75    1.32
  -2  -6   6   27.69    1.46
   2  -6  -6   30.30    1.73
   2   6  -6   29.54    1.52
  -2   6   6   27.33    1.24
  -1  -6   6    0.03    0.23
  -1  -6   6    0.25    0.18
   1  -6  -6   -0.23    0.20
  -1  -6   6    0.11    0.19
   1   6  -6    0.09    0.23
  -1   6   6    0.04    0.14
   0  -6   6   28.00    1.49
   0  -6   6   28.19    1.24
   0  -6   6   29.47    1.47
   0  -6  -6   26.90    1.63
   0   6   6   27.36    1.40
   0   6  -6   27.53    1.45
   1  -6   6    0.33    0.16
  -1  -6  -6    0.61    0.41
   1  -6   6    0.78    0.29
   1  -6   6    0.46    0.35
   1   6   6    0.48    0.26
  -1   6  -6    0.69    0.32
   2  -6   6   48.32    2.20
   2  -6   6   47.59    1.88
   2  -6   6   49.33    2.36
   2   6   6   44.46    2.28
   3  -6   6   16.78    1.29
   3  -6   6   15.19    0.91
   3  -6   6   15.08    1.10
   3   6   6   15.39    1.26
   4  -6   6    7.37    0.93
   4  -6   6    8.17    1.09
   4   6   6    5.05    0.92
   5  -6   6    5.98    1.06
   5  -6   6    4.23    0.78
   5   6   6    3.22    0.81
   6  -6   6    3.38    1.20
   7  -7  -6    0.05    0.52
  -7  -7   6    0.66    0.57
   7   7  -6   -0.19    0.42
   6  -7  -6    3.66    0.85
  -6  -7   6    2.98    0.73
   6   7  -6    3.57    0.71
   5  -7  -6    5.82    0.78
   5  -7  -6    4.68    0.89
  -5  -7   6    4.57    0.86
   5   7  -6    5.64    0.83
  -4  -7   6    8.41    0.66
  -4  -7   6    8.44    1.06
   4  -7  -6    7.71    1.10
   4  -7  -6    8.55    1.14
  -4   7   6    9.05    0.57
   4   7  -6    8.36    0.98
  -3  -7   6    6.93    0.68
   3  -7  -6    8.24    1.26
   3  -7  -6    8.05    1.12
  -3  -7   6    5.42    0.82
   3   7  -6    6.63    0.81
  -3   7   6    6.07    0.49
  -2  -7   6    6.74    0.70
   2  -7  -6    4.98    0.85
  -2  -7   6    6.58    0.73
  -2  -7   6    5.46    0.73
   2   7  -6    7.35    0.82
  -2   7   6    6.55    0.53
   1  -7  -6    0.30    0.33
  -1  -7   6    0.43    0.22
  -1  -7   6    0.73    0.30
  -1  -7   6    0.13    0.27
   1   7  -6    0.11    0.26
  -1   7   6    0.25    0.19
   0  -7   6    7.91    0.87
   0  -7   6    8.77    0.76
   0  -7   6    9.48    0.60
   0  -7  -6    6.23    0.89
   0   7   6    9.18    0.75
   0   7  -6    9.87    0.82
   1  -7   6   25.85    1.14
   1  -7   6   23.76    1.39
  -1  -7  -6   26.47    1.62
   1  -7   6   26.69    1.55
   1   7   6   26.15    1.50
  -1   7  -6   27.39    1.43
   2  -7   6    0.77    0.21
   2  -7   6    1.33    0.40
   2  -7   6    0.92    0.42
   2   7   6    1.39    0.46
   3  -7   6   14.02    1.22
   3  -7   6   13.93    1.06
   3   7   6   11.19    1.29
   4  -7   6    2.20    0.67
   4  -7   6    1.97    0.53
   4   7   6    1.26    0.53
   5  -7   6    9.00    1.09
   5  -7   6    9.17    1.34
   5   7   6    8.05    1.63
  -7  -8   6    9.52    1.40
   6  -8  -6   18.69    1.63
  -6  -8   6   15.77    1.73
   6   8  -6   15.90    1.31
  -5  -8   6    7.46    1.11
   5  -8  -6    5.47    0.86
   5  -8  -6    5.73    1.04
   5   8  -6    5.24    0.82
  -4  -8   6    9.77    1.25
   4  -8  -6    8.59    1.23
  -4  -8   6   12.17    1.34
   4  -8  -6   10.60    1.41
  -4   8   6   10.22    0.65
   4   8  -6   11.04    1.15
   3  -8  -6    9.33    1.41
  -3  -8   6   10.17    1.14
   3  -8  -6    8.64    1.20
  -3  -8   6    8.43    0.84
  -3   8   6    7.61    0.59
   3   8  -6    9.89    1.02
  -2  -8   6    0.70    0.35
  -2  -8   6    0.77    0.36
   2  -8  -6    0.91    0.49
   2  -8  -6    0.60    0.63
  -2   8   6    1.11    0.29
   2   8  -6    0.91    0.39
  -1  -8   6   18.34    1.16
  -1  -8   6   15.29    0.93
   1  -8  -6   15.24    1.31
  -1  -8   6   15.86    1.09
   1   8  -6   15.92    1.14
  -1   8   6   14.74    0.97
   0  -8   6   85.03    3.41
   0  -8   6   87.67    3.10
   0  -8   6   85.92    3.50
   0  -8  -6   89.57    3.78
   0   8  -6   81.14    3.39
   0   8   6   80.90    3.39
   1  -8   6    9.17    0.93
  -1  -8  -6    8.25    1.06
   1  -8   6   10.27    0.60
   1  -8   6   10.01    1.06
  -1   8  -6   10.80    0.90
   1   8   6    9.83    0.90
   2  -8   6    3.59    0.68
   2  -8   6    5.41    0.69
   2   8   6    4.78    0.81
   3  -8   6    0.18    0.36
   3  -8   6   -0.02    0.26
   3   8   6   -0.02    0.32
   4  -8   6   11.55    1.41
   4  -8   6   12.94    1.10
   4   8   6   13.40    1.54
   5  -8   6    8.16    1.06
  -7  -9   6    2.72    1.00
  -6  -9   6    1.11    0.61
   6  -9  -6    0.25    0.51
   6   9  -6    0.62    0.47
   5  -9  -6    7.35    1.26
  -5  -9   6    9.65    1.36
   5  -9  -6    9.60    1.35
   5   9  -6    9.37    1.09
   4  -9  -6   -0.25    0.33
  -4  -9   6   -0.03    0.33
   4  -9  -6   -0.27    0.51
   4   9  -6    0.35    0.32
  -3  -9   6    0.49    0.36
   3  -9  -6    0.84    0.64
  -3  -9   6    0.42    0.32
   3  -9  -6    0.46    0.45
  -3   9   6    0.57    0.24
   3   9  -6    0.22    0.35
  -2  -9   6    6.02    0.87
  -2  -9   6    5.26    0.75
   2  -9  -6    4.91    1.20
   2  -9  -6    4.96    0.97
   2   9  -6    6.33    0.82
  -2   9   6    5.56    0.64
  -1  -9   6    6.86    0.83
  -1  -9   6    7.68    0.64
   1  -9  -6    6.03    1.00
  -1  -9   6    6.28    0.83
  -1   9   6    7.35    0.80
   1   9  -6    5.92    0.82
   0  -9   6    6.14    0.83
   0  -9   6    6.49    0.52
   0  -9   6    7.66    0.87
   0  -9  -6    4.05    0.82
   0   9  -6    6.35    0.81
   0   9   6    5.62    0.76
   1  -9   6    2.81    0.65
  -1  -9  -6    2.03    0.65
   1  -9   6    2.32    0.51
   1  -9   6    3.28    0.38
  -1   9  -6    2.48    0.56
   1   9   6    2.78    0.62
   2  -9   6    4.84    0.69
   2  -9   6    4.00    0.76
   2   9   6    3.62    0.72
   3  -9   6   24.88    1.76
   3  -9   6   25.62    1.56
   3   9   6   24.85    1.82
   4  -9   6    5.98    1.02
   4  -9   6    5.39    0.82
   4   9   6    6.71    1.12
  -6 -10   6   20.07    2.10
   5 -10  -6    0.69    0.57
  -5 -10   6    1.18    0.60
   5  10  -6    0.60    0.47
  -4 -10   6   11.77    1.39
   4 -10  -6   10.89    1.54
   4 -10  -6    9.58    1.37
   4  10  -6    9.03    1.08
   3 -10  -6    0.28    0.47
   3 -10  -6   -0.10    0.60
  -3 -10   6    0.67    0.43
  -3 -10   6    0.40    0.38
   3  10  -6    0.30    0.37
   2 -10  -6    5.73    1.31
   2 -10  -6    9.54    1.33
  -2 -10   6   11.44    1.21
  -2 -10   6   12.42    1.19
   2  10  -6   10.55    1.12
  -2  10   6   10.41    0.83
  -1 -10   6   25.44    1.32
   1 -10  -6   22.26    2.51
  -1 -10   6   26.63    1.63
   1 -10  -6   24.10    1.83
  -1 -10   6   26.56    1.58
   1  10  -6   26.38    1.61
  -1  10   6   24.79    1.45
   0 -10   6    0.18    0.20
   0 -10   6    0.32    0.38
   0 -10  -6   -0.21    0.42
   0 -10   6    0.69    0.33
   0  10   6    0.23    0.30
   0  10  -6    0.16    0.39
   1 -10   6    4.42    0.77
   1 -10   6    6.32    0.78
   1  10   6    7.09    0.95
   2 -10   6   17.65    1.47
   2 -10   6   18.44    1.28
   2  10   6   18.11    1.48
   3 -10   6   15.96    1.42
   3 -10   6   14.48    1.18
   3  10   6   15.09    1.63
   4 -10   6    0.20    0.39
   5 -11  -6    0.32    0.55
  -5 -11   6    0.07    0.48
   5  11  -6    0.12    0.41
   4 -11  -6    3.93    1.11
  -4 -11   6    3.43    0.83
   4 -11  -6    3.15    0.95
   4  11  -6    3.82    0.82
  -3 -11   6    2.12    0.61
   3 -11  -6    2.10    0.95
  -3 -11   6    1.72    0.62
   3 -11  -6    0.96    0.65
   3  11  -6    1.05    0.54
   2 -11  -6    2.13    1.01
  -2 -11   6    1.38    0.54
  -2 -11   6    1.64    0.55
   2 -11  -6    2.05    0.78
   2  11  -6    1.96    0.58
   1 -11  -6    2.36    0.85
  -1 -11   6    2.76    0.67
  -1 -11   6    2.47    0.60
  -1 -11   6    3.15    0.52
   1 -11  -6    2.57    1.17
  -1  11   6    2.69    0.59
   1  11  -6    3.28    0.68
   0 -11   6    0.32    0.41
   0 -11   6    0.72    0.37
   0 -11  -6   -0.02    0.46
   0  11   6    0.00    0.34
   0  11  -6    0.06    0.40
   1 -11   6    0.25    0.34
   1 -11   6   -0.36    0.41
   1  11   6    0.32    0.36
   2 -11   6    2.12    0.69
   2 -11   6    1.28    0.48
   2  11   6    1.57    0.60
   3 -11   6    0.03    0.38
   3  11   6   -0.08    0.45
   4 -11   6    2.47    0.67
   4 -12  -6    0.92    0.79
   4 -12  -6    0.72    0.68
  -4 -12   6    0.65    0.63
   4  12  -6    0.62    0.52
   3 -12  -6    7.48    1.47
  -3 -12   6    8.17    1.11
  -3 -12   6    9.84    1.33
   3 -12  -6    8.87    1.44
   3  12  -6    7.85    1.10
  -2 -12   6    1.93    0.64
  -2 -12   6    2.21    0.51
   2 -12  -6    1.99    1.05
  -2 -12   6    3.21    0.77
   2 -12  -6    2.95    0.88
   2  12  -6    1.77    0.57
   1 -12  -6    1.08    0.62
  -1 -12   6    1.71    0.68
   1 -12  -6    1.59    1.02
  -1 -12   6    2.70    0.66
   1  12  -6    0.94    0.55
   0 -12  -6    0.33    0.91
   0 -12   6    0.96    0.58
   0 -12  -6    0.31    0.63
   0 -12   6    0.77    0.39
   0  12   6    0.43    0.45
   0  12  -6    0.29    0.49
   1 -12   6   13.17    1.43
   1 -12   6   12.33    1.10
   1  12   6   10.39    1.27
   2 -12   6    0.35    0.59
   2 -12   6    0.84    0.49
   2  12   6    0.39    0.49
   3 -12   6    0.00    0.44
   4 -13  -6    0.27    0.81
   3 -13  -6    1.49    0.81
  -3 -13   6    0.75    0.79
   3 -13  -6   -0.36    0.94
   3  13  -6    0.98    0.61
  -2 -13   6    1.59    0.66
   2 -13  -6    0.52    0.63
  -2 -13   6   -0.11    0.52
   2 -13  -6    0.09    0.85
   2  13  -6    0.03    0.56
  -1 -13   6   -0.29    0.38
   1 -13  -6    1.03    0.99
  -1 -13   6    0.42    0.60
   1 -13  -6    0.27    0.59
   1  13  -6    0.27    0.55
   0 -13   6    0.07    0.56
   0 -13  -6   -0.98    0.84
   0 -13   6    0.52    0.43
   1 -13   6    3.38    0.71
   1 -13   6    2.58    1.21
   1  13   6    3.35    0.84
   2 -13   6    4.51    0.84
   2  13   6    6.45    1.12
  -2 -14   6    0.34    0.61
   2 -14  -6    0.40    0.66
   2  14  -6   -0.03    0.61
  -1 -14   6    0.65    0.65
   1 -14  -6    1.15    0.74
   1  14  -6    0.44    0.70
   8   0  -7    0.15    0.38
   7   0  -7   25.44    1.63
   6   0  -7   -0.18    0.26
  -6   0   7    0.08    0.21
  -5   0   7   23.26    1.07
   5   0  -7   23.62    1.45
  -5   0   7   23.46    1.34
   4   0  -7   -0.08    0.21
  -4   0   7   -0.03    0.16
  -4   0   7   -0.14    0.13
  -3   0   7  156.38    5.58
  -3   0   7  159.43    5.46
   3   0  -7  163.93    5.83
  -2   0   7    0.00    0.11
   2   0  -7    0.07    0.18
  -2   0   7   -0.04    0.13
   1   0  -7    2.66    0.51
  -1   0   7    1.97    0.37
  -1   0   7    1.87    0.30
   0   0   7    0.77    0.20
   0   0  -7    1.27    0.34
   0   0   7    1.59    0.34
  -1   0  -7  186.89    6.45
   1   0   7  181.83    6.37
   1   0   7  185.87    6.56
   1   0   7  185.16    6.36
   2   0   7    0.00    0.19
   2   0   7    0.12    0.17
   3   0   7    0.34    0.30
   3   0   7    0.22    0.25
   4   0   7    0.18    0.31
   4   0   7    0.24    0.27
   5   0   7    1.52    0.54
   5   0   7    0.54    0.42
   6   0   7   -0.16    0.45
   8  -1  -7    0.33    0.45
  -8   1   7    0.68    0.39
   8   1  -7    0.22    0.42
   7  -1  -7    0.16    0.35
  -7   1   7    1.25    0.41
   7   1  -7    1.03    0.47
   6  -1  -7   11.25    1.18
   6   1  -7   11.41    1.17
  -6   1   7    8.39    0.80
   5  -1  -7    2.25    0.57
  -5  -1   7    1.67    0.40
  -5  -1   7    1.69    0.32
   5   1  -7    1.39    0.43
  -5   1   7    1.25    0.35
   4  -1  -7   26.78    1.53
  -4  -1   7   25.14    1.37
  -4  -1   7   26.90    1.22
  -4   1   7   25.40    1.13
   4   1  -7   24.27    1.45
  -4   1   7   25.38    1.31
   3  -1  -7   41.60    2.07
  -3  -1   7   44.85    1.93
  -3  -1   7   43.02    1.81
  -3   1   7   42.88    1.76
   3   1  -7   45.34    2.09
  -3   1   7   45.93    1.87
  -2  -1   7   32.76    1.45
   2  -1  -7   32.96    1.66
  -2  -1   7   30.03    1.42
  -2   1   7   31.98    1.40
  -2   1   7   31.37    1.42
   2   1  -7   30.03    1.58
  -1  -1   7    1.47    0.35
  -1  -1   7    0.51    0.21
   1  -1  -7    0.58    0.29
  -1  -1   7    1.05    0.23
  -1   1   7    1.11    0.29
   1   1  -7    0.84    0.31
  -1   1   7    1.09    0.23
   0  -1  -7    2.95    0.52
   0  -1   7    3.04    0.52
   0  -1   7    3.49    0.41
   0  -1   7    3.04    0.50
   0   1   7    3.49    0.43
   0   1   7    3.23    0.50
   0   1  -7    4.44    0.62
   1  -1   7    9.58    0.74
   1  -1   7    9.64    0.85
   1  -1   7   10.23    0.82
  -1  -1  -7    9.16    0.79
   1  -1   7   10.77    0.69
   1   1   7    9.72    0.77
  -1   1  -7    9.30    0.76
   1   1   7   10.27    0.72
   1   1   7    9.60    0.80
   2  -1   7    7.06    0.62
   2  -1   7    5.54    0.74
   2  -1   7    7.37    0.92
   2   1   7    8.16    0.92
   2   1   7    7.86    0.69
   3  -1   7   11.04    0.89
   3  -1   7    9.28    1.09
   3  -1   7   12.82    1.02
   3   1   7    9.77    0.90
   3   1   7   10.81    1.13
   4  -1   7   28.79    1.73
   4  -1   7   27.54    1.65
   4   1   7   26.05    1.68
   4   1   7   26.98    1.71
   5  -1   7    3.66    0.73
   5  -1   7    3.85    0.80
   5   1   7    3.91    0.77
   5   1   7    3.70    0.81
   6   1   7    5.51    1.09
   8  -2  -7    0.33    0.45
   8   2  -7    0.10    0.39
  -8   2   7    0.29    0.33
   7  -2  -7   16.29    1.32
  -7   2   7   15.04    1.10
   7   2  -7   15.65    1.24
   6  -2  -7   -0.21    0.31
  -6  -2   7    0.24    0.25
  -6   2   7   -0.07    0.18
   6   2  -7    0.29    0.33
  -5  -2   7   23.71    1.22
   5  -2  -7   24.37    1.51
  -5   2   7   24.97    1.31
   5   2  -7   24.15    1.47
  -4  -2   7    2.53    0.48
   4  -2  -7    3.40    0.60
  -4  -2   7    2.95    0.43
  -4   2   7    3.23    0.36
   4   2  -7    1.94    0.46
  -4   2   7    2.37    0.41
  -3  -2   7    1.78    0.37
  -3  -2   7    1.05    0.28
   3  -2  -7    1.69    0.31
   3  -2  -7    1.33    0.43
  -3   2   7    1.41    0.27
  -3   2   7    1.77    0.33
   3   2  -7    1.92    0.46
  -2  -2   7    4.63    0.52
  -2  -2   7    3.66    0.48
   2  -2  -7    5.05    0.71
  -2  -2   7    4.67    0.54
  -2   2   7    4.42    0.50
   2   2  -7    4.73    0.67
  -2   2   7    4.23    0.47
  -1  -2   7   14.97    0.94
  -1  -2   7   15.78    0.85
   1  -2  -7   14.25    1.03
  -1  -2   7   15.03    0.93
  -1   2   7   15.63    0.92
   1   2  -7   14.53    1.00
  -1   2   7   16.99    0.87
   0  -2   7    0.66    0.30
   0  -2  -7    0.27    0.25
   0  -2   7    0.97    0.23
   0  -2   7    0.40    0.23
   0   2   7    0.61    0.21
   0   2  -7    0.64    0.29
   0   2   7    0.48    0.24
  -1  -2  -7  123.00    4.63
   1  -2   7  124.66    4.43
   1  -2   7  130.97    4.79
   1  -2   7  129.74    4.70
   1  -2   7  124.48    4.49
   1   2   7  125.53    4.70
  -1   2  -7  128.16    4.56
   1   2   7  121.53    4.54
   1   2   7  123.40    4.56
   2  -2   7    4.07    0.65
   2  -2   7    4.01    0.71
   2  -2   7    2.73    0.43
   2   2   7    2.76    0.57
   2   2   7    3.62    0.55
   3  -2   7    5.66    0.88
   3  -2   7    5.25    0.77
   3  -2   7    6.89    0.78
   3   2   7    6.11    0.81
   3   2   7    4.92    0.76
   4  -2   7    0.02    0.27
   4  -2   7   -0.09    0.28
   4  -2   7    0.14    0.26
   4   2   7   -0.08    0.27
   4   2   7    0.17    0.28
   5  -2   7    0.70    0.41
   5  -2   7    0.38    0.38
   5   2   7    1.51    0.55
   5   2   7    1.13    0.50
   8  -3  -7    1.13    0.61
   8   3  -7   -0.14    0.42
   7  -3  -7    0.40    0.40
  -7   3   7    0.18    0.27
   7   3  -7    0.53    0.42
  -6  -3   7   15.05    1.05
   6  -3  -7   14.07    1.46
   6   3  -7   16.88    1.25
  -6   3   7   17.79    1.06
   5  -3  -7    0.63    0.37
  -5  -3   7    1.17    0.33
   5   3  -7    0.56    0.36
  -5   3   7    1.08    0.30
  -4  -3   7    0.24    0.22
  -4  -3   7    0.09    0.18
   4  -3  -7   -0.02    0.25
  -4   3   7    0.45    0.20
   4   3  -7    0.27    0.28
   3  -3  -7    2.14    0.50
  -3  -3   7    3.38    0.52
  -3  -3   7    3.85    0.50
  -3   3   7    3.14    0.40
   3   3  -7    4.20    0.64
  -3   3   7    3.29    0.41
  -2  -3   7   17.71    1.02
  -2  -3   7   18.63    0.99
   2  -3  -7   20.10    1.26
  -2  -3   7   17.80    1.01
  -2   3   7   18.32    0.97
  -2   3   7   17.56    0.93
   2   3  -7   17.30    1.13
  -1  -3   7   33.73    1.46
  -1  -3   7   32.27    1.56
  -1  -3   7   32.69    1.56
   1  -3  -7   32.02    1.72
  -1   3   7   33.78    1.54
   1   3  -7   33.31    1.65
  -1   3   7   31.14    1.43
   0  -3   7    2.99    0.48
   0  -3   7    2.21    0.45
   0  -3  -7    3.31    0.59
   0  -3   7    3.47    0.40
   0   3   7    3.94    0.56
   0   3   7    3.53    0.47
   0   3  -7    3.21    0.54
   1  -3   7   43.96    1.78
   1  -3   7   44.56    2.03
  -1  -3  -7   42.89    2.02
   1  -3   7   42.53    2.08
   1   3   7   42.35    1.93
   1   3   7   42.44    2.03
  -1   3  -7   41.32    1.91
   2  -3   7   41.32    1.81
   2  -3   7   43.49    2.06
   2  -3   7   42.28    2.14
   2   3   7   42.09    2.03
   2   3   7   39.75    2.07
   3  -3   7    6.01    0.70
   3  -3   7    6.26    0.84
   3  -3   7    6.53    0.97
   3   3   7    6.39    0.89
   3   3   7    4.37    0.73
   4  -3   7    3.88    0.79
   4  -3   7    2.46    0.61
   4  -3   7    3.39    0.61
   4   3   7    3.39    0.73
   4   3   7    4.10    0.78
   5  -3   7    2.74    0.77
   5  -3   7    1.73    0.58
   5   3   7    2.00    0.68
   7  -4  -7    2.28    0.68
   7   4  -7    2.13    0.61
  -7   4   7    3.16    0.69
   6  -4  -7   11.96    1.32
  -6  -4   7   10.75    1.06
   6   4  -7   11.04    1.17
  -6   4   7   10.69    0.79
  -5  -4   7   -0.11    0.22
   5  -4  -7    0.59    0.37
  -5   4   7    0.00    0.16
   5   4  -7    0.08    0.29
  -4  -4   7    2.03    0.42
   4  -4  -7    1.02    0.43
   4  -4  -7    1.73    0.48
   4   4  -7    1.39    0.44
  -4   4   7    0.95    0.26
   3  -4  -7    5.97    0.87
  -3  -4   7    4.93    0.64
  -3  -4   7    6.88    0.72
  -3  -4   7    6.55    0.52
  -3   4   7    6.32    0.51
   3   4  -7    7.11    1.08
  -3   4   7    5.75    0.46
   3   4  -7    8.01    0.92
  -2  -4   7   17.84    1.08
  -2  -4   7   18.56    1.06
  -2  -4   7   18.85    1.03
   2  -4  -7   18.95    1.30
   2   4  -7   20.16    1.23
  -2   4   7   18.93    0.97
  -2   4   7   19.22    1.00
  -1  -4   7    5.35    0.48
  -1  -4   7    4.26    0.58
  -1  -4   7    4.53    0.56
   1  -4  -7    4.25    0.68
  -1   4   7    4.87    0.61
  -1   4   7    4.94    0.55
   1   4  -7    4.34    0.64
   0  -4   7    4.56    0.66
   0  -4   7    3.32    0.52
   0  -4   7    4.77    0.43
   0  -4  -7    5.43    0.79
   0   4   7    4.67    0.61
   0   4   7    4.96    0.58
   0   4  -7    4.27    0.61
   1  -4   7   28.68    1.52
  -1  -4  -7   29.00    1.59
   1  -4   7   26.71    1.25
   1  -4   7   27.68    1.57
  -1   4  -7   27.95    1.43
   1   4   7   28.43    1.56
   1   4   7   26.42    1.44
   2  -4   7   13.58    1.12
   2  -4   7   12.92    0.82
   2  -4   7   14.45    1.05
   2   4   7   12.74    1.00
   2   4   7   13.42    1.07
   3  -4   7   37.61    2.08
   3  -4   7   37.89    1.77
   3  -4   7   36.47    1.95
   3   4   7   33.38    1.97
   3   4   7   37.70    2.07
   4  -4   7   16.77    1.38
   4  -4   7   14.90    1.20
   4  -4   7   13.94    1.07
   4   4   7   11.62    1.34
   4   4   7   15.92    1.31
   5  -4   7   -0.09    0.34
   5  -4   7    0.22    0.44
   5   4   7   -0.18    0.38
   7  -5  -7    2.64    0.80
   7   5  -7    2.11    0.59
  -6  -5   7    0.97    0.42
   6  -5  -7    0.39    0.37
   6   5  -7    1.15    0.47
  -6   5   7    0.90    0.29
  -5  -5   7    2.64    0.58
   5  -5  -7    2.89    0.72
   5   5  -7    1.95    0.52
  -5   5   7    3.22    0.44
   4  -5  -7    7.19    1.05
  -4  -5   7    6.06    0.77
   4  -5  -7    5.17    0.84
  -4   5   7    5.25    0.48
   4   5  -7    4.67    0.73
  -3  -5   7    0.02    0.19
  -3  -5   7    0.15    0.21
  -3  -5   7    0.16    0.22
   3  -5  -7    0.05    0.26
  -3   5   7   -0.01    0.14
   3   5  -7   -0.19    0.27
  -2  -5   7   43.37    1.87
  -2  -5   7   43.79    1.96
   2  -5  -7   44.40    2.24
  -2  -5   7   40.11    1.88
  -2   5   7   42.40    1.77
  -2   5   7   42.20    1.79
   2   5  -7   43.47    2.07
  -1  -5   7   22.19    1.26
   1  -5  -7   21.08    1.44
  -1  -5   7   23.02    1.27
  -1  -5   7   22.64    1.13
  -1   5   7   22.44    1.15
   1   5  -7   21.24    1.31
  -1   5   7   23.83    1.24
   0  -5   7   25.37    1.44
   0  -5   7   25.02    1.17
   0  -5   7   25.25    1.38
   0  -5  -7   24.78    1.54
   0   5   7   24.27    1.38
   0   5   7   25.07    1.31
   0   5  -7   26.23    1.43
  -1  -5  -7   41.25    2.08
   1  -5   7   40.28    2.03
   1  -5   7   38.31    1.93
   1  -5   7   40.92    1.66
   1   5   7   40.09    1.93
   1   5   7   39.46    1.98
  -1   5  -7   37.98    1.85
   2  -5   7    8.63    1.02
   2  -5   7    9.23    0.65
   2  -5   7    7.78    0.89
   2   5   7    9.19    1.03
   2   5   7    8.88    1.04
   3  -5   7    0.03    0.35
   3  -5   7    0.10    0.19
   3  -5   7   -0.31    0.22
   3   5   7   -0.18    0.22
   4  -5   7    2.30    0.55
   4  -5   7    3.94    0.81
   4   5   7    3.83    0.83
   5  -5   7    2.29    0.64
   5   5   7    1.34    0.96
   7  -6  -7    1.06    0.63
  -7  -6   7    1.03    0.52
   7   6  -7    0.41    0.49
  -6  -6   7    5.82    0.89
   6  -6  -7    8.57    1.23
   6   6  -7    4.96    0.86
  -5  -6   7    0.13    0.33
   5  -6  -7    0.30    0.41
   5   6  -7    0.59    0.41
  -5   6   7    0.31    0.20
  -4  -6   7   27.41    1.63
   4  -6  -7   29.05    1.89
   4  -6  -7   31.21    1.92
  -4   6   7   30.74    1.36
   4   6  -7   30.53    1.72
  -3  -6   7    2.08    0.47
  -3  -6   7    2.28    0.40
  -3  -6   7    1.47    0.43
   3  -6  -7    2.29    0.62
   3   6  -7    1.85    0.52
  -3   6   7    2.09    0.34
  -2  -6   7    6.90    0.80
   2  -6  -7    6.33    0.95
  -2  -6   7    5.76    0.66
  -2  -6   7    6.69    0.73
  -2   6   7    5.65    0.51
   2   6  -7    4.91    0.72
  -1  -6   7   31.29    1.60
   1  -6  -7   32.15    1.86
  -1  -6   7   29.71    1.58
  -1  -6   7   30.58    1.43
  -1   6   7   31.63    1.49
   1   6  -7   29.54    1.63
   0  -6   7   48.26    2.13
   0  -6   7   42.24    1.80
   0  -6  -7   42.61    2.28
   0  -6   7   45.37    2.14
   0   6  -7   48.04    2.13
   0   6   7   44.09    2.02
   0   6   7   43.19    2.07
   1  -6   7    1.08    0.44
  -1  -6  -7    1.24    0.50
   1  -6   7    1.43    0.40
   1  -6   7    0.91    0.23
  -1   6  -7    1.35    0.43
   1   6   7    1.32    0.41
   2  -6   7    6.72    0.55
   2  -6   7    6.54    0.83
   2  -6   7    5.38    0.81
   2   6   7    7.49    0.95
   3  -6   7    6.51    0.97
   3  -6   7    7.37    0.91
   3   6   7    6.67    1.00
   4  -6   7    0.94    0.42
   4  -6   7    1.65    0.60
   4   6   7    1.79    0.64
   5  -6   7    0.62    0.45
  -7  -7   7   14.61    1.60
   6  -7  -7    0.46    0.54
  -6  -7   7    1.72    0.57
   6   7  -7    1.03    0.53
  -5  -7   7    3.27    0.69
   5  -7  -7    3.05    0.78
   5   7  -7    2.48    0.61
  -5   7   7    2.83    0.44
   4  -7  -7   34.46    2.13
   4  -7  -7   32.07    2.10
  -4  -7   7   32.65    1.85
  -4   7   7   35.19    1.48
   4   7  -7   30.86    1.84
  -3  -7   7   16.09    1.17
  -3  -7   7   15.33    1.09
   3  -7  -7   22.35    2.15
  -3  -7   7   16.78    1.02
   3  -7  -7   16.06    1.40
   3   7  -7   16.99    1.23
  -3   7   7   16.20    0.92
  -2  -7   7   42.81    2.10
  -2  -7   7   43.11    2.00
  -2  -7   7   42.80    2.00
   2  -7  -7   44.90    2.44
  -2   7   7   44.57    1.91
   2   7  -7   49.37    2.24
  -1  -7   7    0.20    0.28
   1  -7  -7    0.01    0.31
  -1  -7   7   -0.01    0.17
  -1  -7   7   -0.20    0.19
   1   7  -7    0.40    0.34
  -1   7   7   -0.04    0.15
   0  -7   7    9.75    0.87
   0  -7   7   11.14    0.70
   0  -7  -7   10.11    1.18
   0  -7   7   11.41    0.98
   0   7   7   11.46    0.89
   0   7  -7   10.79    0.95
  -1  -7  -7    1.01    0.48
   1  -7   7    0.80    0.39
   1  -7   7    1.79    0.30
   1  -7   7    1.99    0.46
   1   7   7    2.33    0.54
  -1   7  -7    1.97    0.51
   2  -7   7    5.30    0.85
   2  -7   7    5.31    0.76
   2  -7   7    4.18    0.49
   2   7   7    4.90    0.81
   3  -7   7    3.43    0.69
   3  -7   7    2.77    0.71
   3   7   7    4.18    0.83
   4  -7   7    7.25    0.99
   4  -7   7    5.76    1.05
   4   7   7    4.43    0.95
   5  -7   7    3.76    0.79
  -7  -8   7    0.71    0.55
  -6  -8   7    1.08    0.57
   6  -8  -7    1.10    0.64
   6   8  -7    1.22    0.59
   5  -8  -7   11.61    1.51
  -5  -8   7   13.95    1.24
   5   8  -7   13.67    1.21
   4  -8  -7    3.36    0.95
   4  -8  -7    4.93    1.01
  -4  -8   7    4.08    0.76
   4   8  -7    5.88    0.87
  -4   8   7    5.22    0.57
  -3  -8   7   11.44    1.01
   3  -8  -7   11.31    1.41
   3  -8  -7    9.01    1.48
  -3  -8   7    9.51    0.83
   3   8  -7   11.71    1.20
  -3   8   7   10.40    0.73
  -2  -8   7    0.54    0.29
  -2  -8   7    0.04    0.30
  -2  -8   7    0.13    0.29
   2  -8  -7    0.00    0.34
  -2   8   7    0.41    0.24
   2   8  -7    0.43    0.37
  -1  -8   7   10.25    0.89
   1  -8  -7    8.55    1.23
  -1  -8   7    9.55    0.72
  -1  -8   7   10.02    1.01
   1   8  -7   11.02    1.11
  -1   8   7    9.72    0.81
   0  -8   7    3.72    0.66
   0  -8   7    4.69    0.49
   0  -8  -7    5.23    0.92
   0  -8   7    4.66    0.69
   0   8  -7    4.53    0.71
   0   8   7    3.84    0.64
   1  -8   7   13.46    0.77
   1  -8   7   14.63    1.20
   1  -8   7   14.47    1.10
   1   8   7   13.53    1.11
   2  -8   7    0.25    0.34
   2  -8   7   -0.16    0.27
   2   8   7   -0.06    0.30
   3  -8   7    0.33    0.37
   3  -8   7    0.01    0.39
   3   8   7    0.63    0.46
   4  -8   7    7.14    1.02
  -6  -9   7   11.94    1.52
   5  -9  -7    8.05    1.35
  -5  -9   7    6.69    1.05
   5   9  -7    8.41    1.08
   4  -9  -7    0.75    0.57
   4  -9  -7    1.61    0.79
  -4  -9   7    0.54    0.40
   4   9  -7    1.04    0.51
  -3  -9   7    6.70    0.80
   3  -9  -7    7.64    1.45
   3  -9  -7    6.41    1.11
  -3  -9   7    8.14    1.02
  -3   9   7    6.95    0.63
   3   9  -7    7.36    0.98
   2  -9  -7    0.87    0.78
  -2  -9   7   -0.04    0.29
  -2  -9   7    0.14    0.24
   2  -9  -7   -0.10    0.41
  -2  -9   7    0.24    0.36
   2   9  -7    0.08    0.37
  -2   9   7    0.11    0.22
  -1  -9   7    4.86    0.76
   1  -9  -7    5.86    0.99
  -1  -9   7    6.73    0.84
  -1  -9   7    6.56    0.61
  -1   9   7    5.42    0.73
   1   9  -7    7.05    0.92
   0  -9   7   16.25    1.28
   0  -9   7   17.85    1.24
   0  -9   7   18.02    0.95
   0  -9  -7   13.52    1.52
   0   9  -7   17.30    1.29
   0   9   7   16.62    1.21
   1  -9   7    0.25    0.30
   1  -9   7   -0.25    0.29
   1   9   7    0.59    0.37
   2  -9   7   -0.09    0.39
   2  -9   7   -0.01    0.29
   2   9   7    0.05    0.34
   3  -9   7    0.19    0.51
   3  -9   7   -0.16    0.32
   3   9   7    0.05    0.48
   4  -9   7   12.47    1.34
   5 -10  -7    2.19    0.77
  -5 -10   7    2.84    0.77
   5  10  -7    2.06    0.67
   4 -10  -7    1.15    0.65
   4 -10  -7    0.81    0.80
  -4 -10   7    1.24    0.57
   4  10  -7    0.24    0.47
  -3 -10   7    1.21    0.52
   3 -10  -7    1.44    0.97
  -3 -10   7    1.31    0.53
   3 -10  -7    1.80    0.71
   3  10  -7    1.82    0.57
  -2 -10   7   -0.06    0.32
  -2 -10   7   -0.03    0.24
   2 -10  -7   -0.03    0.82
  -2 -10   7    0.48    0.44
   2 -10  -7    0.09    0.44
  -2  10   7    0.13    0.28
   2  10  -7    0.18    0.41
  -1 -10   7   -0.07    0.36
   1 -10  -7    0.96    0.50
  -1 -10   7    0.17    0.34
  -1 -10   7    0.08    0.24
  -1  10   7    0.15    0.29
   1  10  -7   -0.22    0.35
   0 -10   7    0.20    0.32
   0 -10  -7    0.32    0.50
   0 -10   7    0.04    0.41
   0  10   7   -0.02    0.28
   0  10  -7    0.01    0.43
   1 -10   7    1.75    0.57
   1 -10   7    1.23    0.48
   1  10   7    1.48    0.50
   2 -10   7    1.83    0.52
   2 -10   7    1.56    0.59
   2  10   7    1.64    0.60
   3 -10   7    0.44    0.41
   3  10   7    0.23    0.52
   4 -11  -7    0.05    0.75
  -4 -11   7   -0.20    0.43
   4 -11  -7    0.53    0.56
   4  11  -7   -0.30    0.48
  -3 -11   7    5.07    1.07
  -3 -11   7    5.50    0.98
   3 -11  -7    4.27    1.05
   3 -11  -7    4.10    1.22
   3  11  -7    4.37    0.87
   2 -11  -7   26.94    2.87
  -2 -11   7   28.73    1.62
  -2 -11   7   34.03    1.93
  -2 -11   7   29.93    1.83
   2 -11  -7   28.25    2.20
   2  11  -7   30.21    1.90
  -1 -11   7   -0.10    0.48
  -1 -11   7   -0.01    0.33
  -1 -11   7   -0.13    0.31
   1 -11  -7   -0.59    0.44
   1 -11  -7   -0.58    0.81
   1  11  -7    0.22    0.49
  -1  11   7   -0.10    0.32
   0 -11   7    4.83    0.86
   0 -11   7    4.54    0.75
   0 -11  -7    2.98    0.94
   0  11   7    4.99    0.84
   1 -11   7    1.78    0.66
   1 -11   7    1.90    0.57
   1  11   7    1.39    0.58
   2 -11   7    1.45    0.55
   2 -11   7    1.55    0.66
   2  11   7    1.27    0.60
   3 -11   7    6.62    1.23
   4 -12  -7    4.07    1.26
  -3 -12   7   -0.16    0.40
   3 -12  -7   -0.47    0.86
  -3 -12   7    0.06    0.36
   3 -12  -7    0.15    0.61
   3  12  -7   -0.13    0.47
  -2 -12   7   14.58    1.42
  -2 -12   7   13.34    1.42
   2 -12  -7   11.15    2.01
   2 -12  -7    9.72    1.50
  -2 -12   7   11.89    1.53
   2  12  -7   12.26    1.37
   1 -12  -7    1.88    1.29
   1 -12  -7    2.08    0.79
  -1 -12   7    2.40    0.66
  -1 -12   7    1.61    0.68
   1  12  -7    1.99    0.74
   0 -12   7    0.88    0.51
   0 -12   7    0.44    0.54
   0  12   7   -0.15    0.40
   1 -12   7   -0.12    0.43
   1 -12   7   -0.18    0.51
   1  12   7    0.36    0.52
   4 -13  -7    0.12    1.02
   3 -13  -7    1.41    1.12
   2 -13  -7    3.03    1.05
  -2 -13   7    1.80    0.75
   2 -13  -7    3.96    1.44
   2  13  -7    3.04    0.86
   1 -13  -7    3.19    1.07
  -1 -13   7    2.52    0.80
   1  13  -7    1.12    0.74
   0 -13   7    2.82    1.29
   1  13   7    3.29    0.84
  -2 -14   7   11.16    1.58
  -8   0   8    5.27    0.87
  -7   0   8    0.00    0.27
   7   0  -8   -0.19    0.38
  -6   0   8   31.44    1.74
   6   0  -8   33.76    1.95
  -5   0   8   -0.11    0.17
   5   0  -8    0.02    0.29
  -5   0   8    0.00    0.18
  -4   0   8   44.16    2.02
   4   0  -8   44.47    2.25
  -4   0   8   46.44    1.88
   3   0  -8    0.06    0.25
  -3   0   8   -0.02    0.18
  -3   0   8    0.30    0.18
  -2   0   8    4.58    0.52
  -2   0   8    4.37    0.56
   2   0  -8    5.82    0.79
  -1   0   8    0.08    0.15
   1   0  -8   -0.02    0.23
  -1   0   8   -0.06    0.18
   0   0  -8   12.39    0.98
   0   0   8   13.79    0.83
   0   0   8   13.06    0.95
  -1   0  -8    0.52    0.31
   1   0   8    0.04    0.14
   1   0   8   -0.04    0.21
   2   0   8   37.55    1.83
   2   0   8   36.98    1.97
   3   0   8    0.32    0.32
   3   0   8    0.00    0.21
   4   0   8   10.80    1.25
   4   0   8   13.97    1.19
   5   0   8    0.26    0.44
  -8  -1   8   13.12    1.22
  -8   1   8   15.62    1.24
  -7  -1   8   16.90    1.31
   7  -1  -8   20.61    1.52
  -7   1   8   18.51    1.28
   7   1  -8   18.95    1.46
   6  -1  -8   19.18    1.41
  -6  -1   8   14.45    1.14
  -6   1   8   16.02    1.13
   6   1  -8   19.05    1.38
  -5  -1   8    6.85    0.65
   5  -1  -8    8.04    1.09
  -5  -1   8    8.09    0.91
   5   1  -8    6.40    0.89
  -5   1   8    6.50    0.77
  -4  -1   8    0.13    0.20
   4  -1  -8   -0.14    0.28
  -4  -1   8    0.26    0.21
  -4   1   8    0.16    0.20
   4   1  -8    0.37    0.34
  -4   1   8    0.27    0.19
  -3  -1   8    8.25    0.66
  -3  -1   8    8.62    0.70
   3  -1  -8    7.85    0.97
  -3   1   8    8.89    0.65
  -3   1   8    9.60    0.69
   3   1  -8    7.24    0.90
   2  -1  -8   25.72    1.52
  -2  -1   8   23.13    1.26
  -2  -1   8   25.59    1.25
  -2   1   8   23.29    1.20
  -2   1   8   25.83    1.28
   2   1  -8   23.95    1.44
   1  -1  -8    2.93    0.57
  -1  -1   8    2.25    0.41
  -1  -1   8    3.00    0.41
  -1   1   8    3.03    0.52
  -1   1   8    2.90    0.41
   1   1  -8    3.11    0.57
   0  -1   8   23.83    1.38
   0  -1  -8   24.82    1.43
   0  -1   8   23.09    1.20
   0  -1   8   24.72    1.43
   0   1   8   26.28    1.41
   0   1   8   26.00    1.27
   0   1  -8   25.92    1.43
   1  -1   8    0.48    0.22
   1  -1   8    0.49    0.30
   1  -1   8    1.14    0.44
  -1  -1  -8    0.80    0.39
   1   1   8    0.83    0.33
   1   1   8    0.78    0.28
  -1   1  -8    0.81    0.38
   2  -1   8   62.69    2.89
   2  -1   8   62.10    2.61
   2  -1   8   59.67    2.78
   2   1   8   61.71    2.68
   2   1   8   62.74    2.83
   3  -1   8    1.23    0.44
   3  -1   8    0.98    0.35
   3   1   8    0.72    0.37
   3   1   8    0.75    0.36
   4  -1   8    1.93    0.53
   4  -1   8    1.29    0.49
   4   1   8    2.55    0.61
   4   1   8    2.78    0.70
   5  -1   8    0.44    0.46
   5   1   8    1.09    0.57
  -8   2   8    1.84    0.52
   7  -2  -8    0.47    0.48
  -7   2   8    0.91    0.40
   7   2  -8    1.02    0.49
  -6  -2   8    0.90    0.37
   6  -2  -8    0.83    0.48
  -6   2   8    0.78    0.33
   6   2  -8    0.52    0.38
  -5  -2   8    0.64    0.28
  -5  -2   8    0.27    0.26
   5  -2  -8    0.76    0.40
  -5   2   8    0.57    0.27
   5   2  -8    0.70    0.39
   4  -2  -8   41.85    2.21
  -4  -2   8   44.07    2.04
  -4  -2   8   41.61    1.85
   4   2  -8   41.55    2.16
  -4   2   8   43.19    1.88
  -4   2   8   42.58    1.73
  -3  -2   8   10.18    0.75
  -3  -2   8    8.37    0.73
   3  -2  -8   11.26    1.19
   3   2  -8    9.98    1.05
  -3   2   8    9.34    0.68
  -3   2   8   11.34    0.74
  -2  -2   8    0.85    0.26
  -2  -2   8    0.77    0.28
   2  -2  -8    0.36    0.31
  -2   2   8    0.75    0.29
  -2   2   8    0.61    0.22
   2   2  -8    0.60    0.34
  -1  -2   8    3.95    0.56
   1  -2  -8    5.87    0.83
  -1  -2   8    5.10    0.67
  -1  -2   8    4.68    0.52
  -1   2   8    4.91    0.65
   1   2  -8    5.42    0.72
  -1   2   8    4.94    0.55
   0  -2   8   33.87    1.53
   0  -2   8   35.91    1.79
   0  -2  -8   33.70    1.81
   0  -2   8   33.35    1.72
   0   2   8   36.05    1.62
   0   2   8   34.11    1.73
   0   2  -8   34.97    1.75
   1  -2   8    5.29    0.74
   1  -2   8    4.75    0.76
  -1  -2  -8    4.75    0.75
   1  -2   8    4.07    0.52
  -1   2  -8    4.94    0.70
   1   2   8    4.00    0.66
   1   2   8    6.06    0.73
   2  -2   8   12.51    1.04
   2  -2   8   13.60    0.92
   2  -2   8   13.64    1.14
   2   2   8   11.79    1.05
   2   2   8   12.51    0.99
   3  -2   8    0.10    0.35
   3  -2   8    0.11    0.25
   3  -2   8    0.27    0.36
   3   2   8    1.07    0.40
   3   2   8    0.52    0.36
   4  -2   8   -0.16    0.30
   4  -2   8    0.33    0.36
   4  -2   8    0.62    0.48
   4   2   8    0.29    0.33
   4   2   8    0.87    0.48
   5   2   8    0.43    0.47
   7  -3  -8    0.62    0.51
  -7   3   8    0.61    0.35
   7   3  -8    1.09    0.50
  -6  -3   8   16.70    1.11
   6  -3  -8   15.88    1.38
  -6   3   8   14.64    1.02
   6   3  -8   17.41    1.34
  -5  -3   8   29.47    1.45
  -5  -3   8   24.52    1.54
   5  -3  -8   26.32    1.74
   5   3  -8   28.93    1.71
  -5   3   8   26.87    1.38
  -4  -3   8   16.96    1.05
  -4  -3   8   17.48    1.15
   4  -3  -8   16.99    1.32
   4   3  -8   19.41    1.31
  -4   3   8   16.85    0.99
   3  -3  -8   -0.14    0.26
  -3  -3   8    0.10    0.19
  -3  -3   8    0.08    0.20
  -3   3   8   -0.01    0.15
  -3   3   8    0.23    0.20
   3   3  -8    0.18    0.30
  -2  -3   8   32.98    1.56
  -2  -3   8   32.74    1.55
  -2  -3   8   33.25    1.61
   2  -3  -8   31.43    1.83
   2   3  -8   33.32    1.77
  -2   3   8   33.98    1.50
  -2   3   8   30.94    1.52
  -1  -3   8    0.17    0.17
  -1  -3   8    0.15    0.25
   1  -3  -8    0.51    0.34
  -1  -3   8    0.24    0.22
  -1   3   8    0.92    0.32
  -1   3   8    0.38    0.19
   1   3  -8    0.13    0.26
   0  -3   8    0.80    0.25
   0  -3   8    0.64    0.30
   0  -3  -8    0.64    0.40
   0  -3   8    0.44    0.32
   0   3   8    0.57    0.32
   0   3  -8    1.06    0.39
   0   3   8    0.57    0.24
   1  -3   8   37.98    2.04
   1  -3   8   43.89    2.06
   1  -3   8   40.31    1.76
  -1  -3  -8   39.20    2.01
   1   3   8   38.50    2.00
   1   3   8   40.21    1.91
  -1   3  -8   39.26    1.93
   2  -3   8   -0.06    0.27
   2  -3   8   -0.33    0.22
   2  -3   8    0.27    0.20
   2   3   8    0.12    0.23
   2   3   8   -0.02    0.26
   3  -3   8    0.03    0.28
   3  -3   8    0.14    0.23
   3  -3   8    0.19    0.36
   3   3   8    0.11    0.29
   3   3   8   -0.02    0.27
   4  -3   8    0.14    0.35
   4  -3   8   -0.06    0.30
   4  -3   8   -0.52    0.36
   4   3   8    0.22    0.35
   4   3   8    0.41    0.37
   7  -4  -8    8.64    1.26
   7   4  -8    7.99    1.16
  -7   4   8    9.36    1.10
  -6  -4   8    5.52    0.75
   6  -4  -8    5.42    1.00
  -6   4   8    7.36    0.76
   6   4  -8    7.05    1.02
  -5  -4   8    9.09    0.82
  -5  -4   8    9.10    1.06
   5  -4  -8    9.11    1.19
   5   4  -8   11.66    1.22
  -5   4   8   10.62    0.76
   4  -4  -8   25.97    1.74
  -4  -4   8   24.75    1.49
   4  -4  -8   25.07    1.69
  -4  -4   8   28.73    1.46
   4   4  -8   27.73    1.66
  -4   4   8   27.30    1.32
   3  -4  -8    0.00    0.29
  -3  -4   8    0.12    0.26
  -3  -4   8   -0.01    0.20
  -3  -4   8    0.16    0.23
   3   4  -8    0.27    0.29
  -3   4   8    0.16    0.18
  -3   4   8    0.49    0.21
  -2  -4   8    0.58    0.26
  -2  -4   8    0.29    0.22
   2  -4  -8    0.21    0.29
  -2  -4   8    0.35    0.24
   2   4  -8    0.47    0.34
  -2   4   8    0.45    0.24
  -2   4   8    0.09    0.15
  -1  -4   8   43.78    2.10
  -1  -4   8   49.36    2.17
  -1  -4   8   47.22    1.97
   1  -4  -8   46.31    2.34
   1   4  -8   43.94    2.19
  -1   4   8   47.50    2.01
  -1   4   8   48.89    2.13
   0  -4  -8    2.39    0.61
   0  -4   8    2.63    0.38
   0  -4   8    2.31    0.48
   0  -4   8    2.64    0.55
   0   4   8    3.30    0.52
   0   4   8    3.93    0.63
   0   4  -8    3.81    0.65
   1  -4   8   39.73    1.73
   1  -4   8   40.54    2.10
   1  -4   8   39.33    2.00
   1   4   8   41.44    2.07
   1   4   8   37.83    1.92
   2  -4   8    0.76    0.39
   2  -4   8    1.97    0.38
   2  -4   8    1.08    0.41
   2   4   8    1.64    0.50
   2   4   8    1.75    0.46
   3  -4   8    2.44    0.59
   3  -4   8    2.62    0.69
   3  -4   8    1.47    0.40
   3   4   8    1.81    0.58
   3   4   8    3.12    0.70
   4  -4   8    4.08    0.83
   4  -4   8    3.34    0.82
   4   4   8    4.19    0.87
   4   4   8    1.41    0.58
   7  -5  -8    0.50    0.53
   7   5  -8    1.23    0.58
   6  -5  -8    0.81    0.57
  -6  -5   8    1.27    0.48
  -6   5   8    1.79    0.39
   6   5  -8    0.93    0.49
  -5  -5   8   13.04    1.03
   5  -5  -8   12.48    1.43
  -5   5   8   13.23    0.85
   5   5  -8   14.26    1.22
  -4  -5   8   33.19    1.84
   4  -5  -8   34.64    2.15
  -4  -5   8   36.49    1.82
   4  -5  -8   38.19    2.18
   4   5  -8   39.13    2.05
  -4   5   8   35.94    1.61
  -3  -5   8    3.95    0.60
  -3  -5   8    5.01    0.58
  -3  -5   8    6.17    0.74
   3  -5  -8    4.98    0.84
  -3   5   8    5.63    0.59
   3   5  -8    4.43    0.76
  -3   5   8    4.73    0.54
   2  -5  -8   53.96    2.66
  -2  -5   8   53.00    2.33
  -2  -5   8   54.11    2.25
  -2  -5   8   51.44    2.24
  -2   5   8   49.44    2.17
  -2   5   8   50.83    2.14
   2   5  -8   51.05    2.44
   1  -5  -8   34.02    1.96
  -1  -5   8   34.08    1.73
  -1  -5   8   35.19    1.75
  -1  -5   8   32.65    1.53
   1   5  -8   30.64    1.75
  -1   5   8   33.91    1.68
  -1   5   8   33.13    1.59
   0  -5   8    2.00    0.35
   0  -5   8    1.25    0.46
   0  -5   8    1.75    0.43
   0  -5  -8    2.67    0.63
   0   5   8    1.75    0.46
   0   5   8    2.53    0.46
   0   5  -8    2.72    0.57
   1  -5   8   35.36    1.56
   1  -5   8   36.20    1.95
   1  -5   8   32.75    1.81
   1   5   8   33.74    1.80
   1   5   8   33.55    1.86
   2  -5   8   18.88    1.44
   2  -5   8   21.84    1.41
   2  -5   8   17.31    1.06
   2   5   8   19.27    1.38
   2   5   8   19.88    1.41
   3  -5   8    3.98    0.76
   3  -5   8    2.74    0.52
   3  -5   8    4.56    0.87
   3   5   8    2.52    0.62
   3   5   8    5.19    0.86
   4  -5   8    3.19    0.72
   4  -5   8    2.24    0.70
   4   5   8    2.93    0.77
   6  -6  -8    4.15    0.95
  -6  -6   8    4.43    0.81
   6   6  -8    6.77    1.05
  -5  -6   8    0.61    0.39
   5  -6  -8   -0.22    0.37
  -5   6   8    0.26    0.21
   5   6  -8    0.63    0.45
  -4  -6   8    0.08    0.28
   4  -6  -8    0.20    0.38
  -4  -6   8   -0.02    0.25
   4  -6  -8   -0.08    0.52
   4   6  -8   -0.10    0.36
  -4   6   8    0.52    0.22
   3  -6  -8   26.51    1.86
  -3  -6   8   27.71    1.41
  -3  -6   8   28.73    1.56
  -3  -6   8   29.86    1.60
   3   6  -8   27.60    1.70
  -3   6   8   27.80    1.35
   2  -6  -8   51.91    2.74
  -2  -6   8   54.73    2.35
  -2  -6   8   54.14    2.43
  -2  -6   8   51.87    2.29
  -2   6   8   53.46    2.24
   2   6  -8   55.26    2.57
  -1  -6   8    6.95    0.82
  -1  -6   8    7.17    0.86
   1  -6  -8    6.94    1.03
  -1  -6   8    7.54    0.62
   1   6  -8    7.63    0.92
  -1   6   8    7.19    0.82
  -1   6   8    5.92    0.68
   0  -6   8    9.83    1.07
   0  -6  -8    9.71    1.22
   0  -6   8    7.75    0.89
   0  -6   8    9.56    0.68
   0   6  -8   10.91    1.11
   0   6   8   10.40    1.08
   0   6   8   10.14    0.84
   1  -6   8    5.86    0.87
   1  -6   8    5.46    0.81
   1  -6   8    7.71    0.60
   1   6   8    6.27    0.88
   1   6   8    8.47    0.96
   2  -6   8    1.00    0.52
   2  -6   8    0.60    0.38
   2  -6   8    1.26    0.32
   2   6   8    1.64    0.53
   3  -6   8    2.19    0.58
   3  -6   8    2.02    0.68
   3   6   8    2.65    0.69
   4  -6   8   16.95    1.40
   6  -7  -8    0.14    0.50
  -6  -7   8    0.00    0.39
   6   7  -8    0.26    0.46
  -5  -7   8   -0.23    0.29
   5  -7  -8    0.05    0.41
  -5   7   8   -0.02    0.19
   5   7  -8   -0.33    0.37
  -4  -7   8   11.26    1.14
   4  -7  -8    8.10    1.31
  -4  -7   8   10.65    0.97
   4  -7  -8   11.22    1.40
   4   7  -8   10.49    1.21
  -4   7   8    9.55    0.71
  -3  -7   8   21.31    1.30
  -3  -7   8   19.34    1.18
   3  -7  -8   19.22    1.60
  -3  -7   8   21.03    1.34
  -3   7   8   19.46    1.09
   3   7  -8   16.19    1.34
   2  -7  -8    3.52    0.81
  -2  -7   8    3.97    0.63
  -2  -7   8    3.32    0.61
  -2  -7   8    3.59    0.55
  -2   7   8    4.16    0.58
   2   7  -8    2.86    0.66
   1  -7  -8    2.95    0.76
  -1  -7   8    3.02    0.58
  -1  -7   8    3.58    0.60
  -1  -7   8    3.51    0.47
   1   7  -8    2.04    0.56
  -1   7   8    3.37    0.57
   0  -7   8    1.03    0.44
   0  -7  -8    0.54    0.53
   0  -7   8    0.26    0.35
   0  -7   8    0.75    0.27
   0   7   8    0.70    0.35
   0   7  -8    0.86    0.46
   1  -7   8   32.93    1.81
   1  -7   8   30.44    1.43
   1  -7   8   31.32    1.88
   1   7   8   31.14    1.81
   2  -7   8   -0.39    0.36
   2  -7   8    0.46    0.35
   2   7   8    0.22    0.33
   3  -7   8    1.42    0.62
   3  -7   8    2.10    0.57
   3   7   8    2.15    0.63
   4  -7   8   -0.07    0.39
  -7  -8   8    1.16    0.60
  -6  -8   8   -0.27    0.44
   5  -8  -8    3.86    0.94
  -5  -8   8    6.90    0.99
   5   8  -8    6.39    1.03
   4  -8  -8    4.41    0.98
  -4  -8   8    5.40    0.85
  -4  -8   8    5.82    0.88
   4  -8  -8    5.44    1.16
  -4   8   8    5.01    0.61
   4   8  -8    4.91    0.86
  -3  -8   8   14.88    1.07
  -3  -8   8   13.02    1.01
  -3  -8   8   12.29    1.09
   3  -8  -8   12.83    1.79
   3  -8  -8   12.63    1.57
   3   8  -8   14.79    1.42
  -3   8   8   13.20    0.90
   2  -8  -8    2.57    0.81
  -2  -8   8    3.00    0.53
  -2  -8   8    2.56    0.54
  -2  -8   8    3.28    0.61
  -2   8   8    2.49    0.49
   2   8  -8    2.75    0.65
  -1  -8   8    6.16    0.84
  -1  -8   8    4.98    0.58
  -1  -8   8    5.07    0.74
   1  -8  -8    3.87    0.91
  -1   8   8    5.42    0.75
   1   8  -8    4.33    0.78
   0  -8   8    7.29    0.61
   0  -8   8    5.69    0.82
   0  -8   8    6.64    0.92
   0  -8  -8    6.98    1.15
   0   8   8    5.99    0.84
   0   8  -8    8.34    1.04
   1  -8   8    5.38    0.96
   1  -8   8    5.19    0.76
   1  -8   8    6.69    0.56
   1   8   8    5.82    0.90
   2  -8   8   11.91    1.24
   2  -8   8   13.25    1.49
   2   8   8   11.88    1.34
   3  -8   8    1.97    0.71
   3  -8   8    1.31    0.52
   3   8   8    2.05    0.73
  -6  -9   8    0.14    0.50
   5  -9  -8    1.73    0.74
  -5  -9   8    1.49    0.57
   5   9  -8    1.68    0.63
   4  -9  -8    1.06    0.67
   4  -9  -8    0.45    0.72
  -4  -9   8    1.48    0.55
  -4  -9   8    0.58    0.37
   4   9  -8    1.02    0.58
   3  -9  -8   10.35    1.76
  -3  -9   8    9.34    1.08
  -3  -9   8    8.69    1.02
   3  -9  -8    8.93    1.39
   3   9  -8    9.50    1.18
  -3   9   8    9.29    0.80
  -2  -9   8   10.78    1.10
  -2  -9   8   11.19    0.90
  -2  -9   8   11.97    1.05
   2  -9  -8   11.93    1.58
  -2   9   8   11.49    0.93
   2   9  -8   12.05    1.32
  -1  -9   8   13.66    1.19
   1  -9  -8   13.08    1.60
  -1  -9   8   16.98    1.25
  -1  -9   8   15.51    0.97
  -1   9   8   14.11    1.11
   1   9  -8   16.01    1.32
   0  -9   8    1.14    0.54
   0  -9  -8    4.00    1.30
   0  -9   8    1.47    0.50
   0  -9   8    1.30    0.32
   0   9   8    1.91    0.54
   1  -9   8    2.34    0.65
   1  -9   8    1.27    0.47
   1   9   8    1.92    0.57
   2  -9   8    0.13    0.49
   2  -9   8    0.24    0.39
   2   9   8    0.15    0.42
   3  -9   8    0.61    0.51
  -5 -10   8    2.86    0.81
  -4 -10   8    0.21    0.35
   4 -10  -8   -0.63    0.86
  -4 -10   8    0.24    0.45
   4 -10  -8    0.24    0.58
   4  10  -8    0.49    0.53
  -3 -10   8    1.79    0.59
   3 -10  -8    1.02    0.93
   3 -10  -8    1.05    0.71
  -3 -10   8    1.27    0.44
   3  10  -8    1.25    0.62
   2 -10  -8    6.47    1.20
  -2 -10   8    7.61    0.97
  -2 -10   8    8.22    0.88
  -2 -10   8    8.85    1.06
   2 -10  -8    8.35    1.64
  -2  10   8    6.32    0.84
   2  10  -8    7.67    1.06
  -1 -10   8    4.76    0.83
  -1 -10   8    5.18    0.83
  -1 -10   8    7.40    0.68
   1 -10  -8    6.30    1.26
  -1  10   8    5.96    0.84
   1  10  -8    5.78    0.94
   0 -10   8    6.91    0.93
   0 -10   8    6.62    0.99
   0  10   8    6.86    0.99
   1 -10   8    2.31    0.72
   1 -10   8    2.44    0.60
   1  10   8    1.92    0.63
   2 -10   8    2.81    0.66
   2  10   8    4.01    0.92
   4 -11  -8    2.24    1.11
  -4 -11   8    3.54    0.79
   4  11  -8    3.46    1.02
  -3 -11   8    7.64    0.95
   3 -11  -8    7.90    1.71
  -3 -11   8    5.46    0.93
   3 -11  -8    4.66    1.18
   3  11  -8    6.34    1.10
  -2 -11   8    1.85    0.58
   2 -11  -8    0.90    1.00
  -2 -11   8    1.76    0.61
   2 -11  -8    0.96    0.72
  -2 -11   8    2.35    0.54
   2  11  -8    2.71    0.78
  -1 -11   8   16.55    1.39
  -1 -11   8   20.04    1.53
   1 -11  -8   19.93    2.13
   1  11  -8   17.80    1.57
  -1  11   8   18.22    1.39
   0 -11   8    0.01    0.41
   0 -11   8   -0.01    0.47
   0  11   8    0.67    0.47
   1 -11   8    0.95    0.60
   1 -11   8    0.38    0.61
   1  11   8    0.86    0.52
   3 -12  -8    6.28    1.47
  -3 -12   8    4.88    0.80
   3 -12  -8    4.53    1.40
   3  12  -8    5.21    1.03
   2 -12  -8    3.01    1.34
   2 -12  -8    3.31    1.09
  -2 -12   8    3.63    0.82
   2  12  -8    3.39    0.95
   1 -12  -8   10.33    1.87
   1 -12  -8   10.84    2.15
  -1 -12   8   10.48    1.27
   0 -12   8    2.89    0.80
   0  12   8    3.14    0.77
   1  12   8    4.72    1.41
   2 -13  -8    6.26    1.79
   2  13  -8    5.90    1.17
  -7   0   9    0.68    0.40
   7   0  -9    0.72    0.56
   6   0  -9   -0.47    0.35
  -6   0   9    0.14    0.26
   5   0  -9    1.24    0.52
  -5   0   9    2.39    0.49
  -4   0   9    0.03    0.20
   4   0  -9   -0.12    0.31
  -4   0   9   -0.21    0.19
  -3   0   9   17.38    1.06
  -3   0   9   18.08    1.07
   3   0  -9   17.67    1.33
  -2   0   9    0.10    0.21
   2   0  -9    0.13    0.28
  -2   0   9   -0.06    0.16
  -1   0   9   74.02    2.89
   1   0  -9   75.34    3.23
  -1   0   9   71.78    3.03
   0   0  -9   -0.07    0.29
   0   0   9    0.06    0.18
   0   0   9   -0.03    0.23
   1   0   9   49.10    2.39
   1   0   9   49.39    2.21
   2   0   9    0.18    0.23
   2   0   9    0.33    0.32
   3   0   9    0.25    0.28
   3   0   9    0.01    0.33
   4   0   9   -0.39    0.66
   4   0   9    0.17    0.40
  -7  -1   9    1.37    0.50
   7  -1  -9    0.62    0.53
   7   1  -9    0.80    0.57
  -7   1   9    1.45    0.49
   6  -1  -9    3.49    0.79
  -6  -1   9    5.39    0.78
  -6   1   9    5.17    0.72
   6   1  -9    4.69    0.88
  -5  -1   9    3.06    0.58
  -5  -1   9    3.95    0.57
   5  -1  -9    3.56    0.79
   5   1  -9    3.34    0.75
  -5   1   9    3.85    0.61
  -4  -1   9    1.36    0.38
   4  -1  -9    1.11    0.51
  -4  -1   9    1.00    0.32
  -4   1   9    0.96    0.31
   4   1  -9    0.43    0.39
  -4   1   9    0.72    0.30
   3  -1  -9   24.10    1.61
  -3  -1   9   25.83    1.35
  -3  -1   9   24.85    1.34
  -3   1   9   25.99    1.32
  -3   1   9   24.45    1.30
   3   1  -9   22.52    1.53
  -2  -1   9    0.15    0.17
   2  -1  -9    0.24    0.31
  -2  -1   9    0.23    0.24
   2   1  -9    0.12    0.30
  -2   1   9   -0.03    0.14
  -2   1   9    0.44    0.26
  -1  -1   9    6.82    0.61
  -1  -1   9    6.53    0.79
   1  -1  -9    7.02    0.95
   1   1  -9    6.93    0.92
  -1   1   9    5.93    0.75
  -1   1   9    7.11    0.61
   0  -1   9   11.84    0.98
   0  -1  -9   11.44    1.18
   0  -1   9   14.49    0.90
   0   1   9   13.91    0.91
   0   1  -9   11.83    1.03
   0   1   9   11.68    0.97
   1  -1   9    6.36    0.84
   1  -1   9    6.31    0.71
   1   1   9    6.32    0.86
   1   1   9    6.66    0.79
   2  -1   9    0.25    0.35
   2  -1   9    0.52    0.28
   2   1   9    0.02    0.27
   2   1   9    0.42    0.29
   3  -1   9    9.83    1.19
   3  -1   9    8.30    0.95
   3   1   9    9.65    1.18
   3   1   9    7.78    1.00
   4  -1   9    3.67    1.29
   4  -1   9    3.41    0.74
   4   1   9    2.94    0.73
  -8   2   9    9.89    1.12
  -7  -2   9    1.05    0.49
   7  -2  -9    2.21    0.76
   7   2  -9    1.34    0.58
  -7   2   9    1.66    0.50
  -6  -2   9   10.22    1.13
   6  -2  -9    9.10    1.23
   6   2  -9    7.73    1.09
  -6   2   9    8.25    0.89
  -5  -2   9   13.73    0.96
   5  -2  -9   16.87    1.38
  -5  -2   9   14.39    1.10
  -5   2   9   13.81    0.98
   5   2  -9   14.15    1.26
  -4  -2   9    1.31    0.39
   4  -2  -9    0.39    0.41
  -4  -2   9    0.92    0.32
  -4   2   9    0.96    0.40
  -4   2   9    1.07    0.31
   4   2  -9    1.01    0.49
  -3  -2   9   11.77    0.87
  -3  -2   9   11.67    0.87
   3  -2  -9   12.08    1.31
  -3   2   9   11.44    0.83
   3   2  -9   12.73    1.10
  -3   2   9   12.50    0.84
  -2  -2   9    1.98    0.46
   2  -2  -9    2.53    0.61
  -2  -2   9    2.50    0.42
  -2   2   9    2.77    0.51
  -2   2   9    3.07    0.47
   2   2  -9    3.27    0.64
   1  -2  -9   42.96    2.19
  -1  -2   9   41.06    1.99
  -1  -2   9   41.53    1.82
  -1  -2   9   39.47    1.97
  -1   2   9   41.12    1.84
   1   2  -9   39.86    2.07
  -1   2   9   40.76    1.97
   0  -2   9   -0.15    0.22
   0  -2  -9    0.07    0.36
   0  -2   9    0.34    0.21
   0  -2   9   -0.04    0.27
   0   2  -9    0.72    0.38
   0   2   9    0.18    0.21
   0   2   9    0.00    0.24
   1  -2   9    8.14    0.98
   1  -2   9    8.34    1.03
   1  -2   9    8.50    0.72
   1   2   9    7.95    0.98
   1   2   9    8.73    0.79
   2  -2   9    0.02    0.28
   2  -2   9    0.00    0.35
   2  -2   9    0.06    0.21
   2   2   9    0.06    0.29
   2   2   9    0.19    0.26
   3  -2   9    8.88    1.17
   3  -2   9    5.53    0.82
   3   2   9   10.00    1.19
   3   2   9    8.92    1.17
   4  -2   9   -0.11    0.39
   4   2   9   -0.39    0.33
  -7  -3   9    2.39    0.65
  -7   3   9    2.43    0.51
  -6  -3   9   23.31    1.57
   6  -3  -9   26.58    1.87
  -6   3   9   25.06    1.39
   6   3  -9   23.14    1.69
   5  -3  -9    4.57    0.91
  -5  -3   9    6.25    0.86
  -5  -3   9    3.37    0.56
  -5   3   9    4.41    0.58
   5   3  -9    4.94    0.87
  -4  -3   9   19.71    1.25
   4  -3  -9   18.19    1.48
  -4  -3   9   18.10    1.15
   4   3  -9   19.96    1.47
  -4   3   9   19.04    1.10
  -3  -3   9    1.50    0.36
   3  -3  -9    0.84    0.45
  -3  -3   9    1.00    0.34
   3   3  -9    1.30    0.49
  -3   3   9    1.68    0.34
  -3   3   9    1.52    0.36
  -2  -3   9   30.88    1.61
  -2  -3   9   31.08    1.52
  -2  -3   9   26.88    1.51
   2  -3  -9   33.18    1.92
  -2   3   9   32.04    1.58
   2   3  -9   28.23    1.73
  -2   3   9   31.56    1.49
  -1  -3   9   14.12    1.05
  -1  -3   9   13.01    1.01
   1  -3  -9   14.26    1.44
  -1  -3   9   13.48    0.88
  -1   3   9   14.29    1.02
  -1   3   9   12.90    0.90
   1   3  -9   12.09    1.06
   0  -3   9   12.50    0.84
   0  -3   9   14.61    1.13
   0  -3   9   11.07    0.98
   0  -3  -9   13.81    1.18
   0   3  -9   13.66    1.10
   0   3   9   14.88    0.99
   0   3   9   11.85    1.02
   1  -3   9    0.41    0.32
   1  -3   9    0.48    0.24
   1  -3   9    1.03    0.44
   1   3   9    0.86    0.41
   1   3   9    1.07    0.38
   2  -3   9   19.10    1.18
   2  -3   9   17.09    1.39
   2  -3   9   18.76    1.37
   2   3   9   17.68    1.37
   2   3   9   15.82    1.25
   3  -3   9    0.13    0.43
   3  -3   9    0.23    0.37
   3  -3   9   -0.14    0.25
   3   3   9    0.37    0.37
   3   3   9    0.49    0.42
   4  -3   9    0.08    0.42
  -7   4   9    0.03    0.36
  -6  -4   9    8.10    1.07
   6  -4  -9    7.03    1.16
  -6   4   9    8.32    0.75
   6   4  -9    8.71    1.17
  -5  -4   9    2.55    0.59
   5  -4  -9    0.86    0.54
  -5  -4   9    1.19    0.44
  -5   4   9    1.62    0.37
   5   4  -9    2.22    0.64
   4  -4  -9   66.06    3.20
  -4  -4   9   60.87    2.78
  -4  -4   9   62.19    2.70
  -4   4   9   65.30    2.59
   4   4  -9   64.03    3.01
  -3  -4   9    0.13    0.27
   3  -4  -9   -0.11    0.35
  -3  -4   9    0.34    0.27
  -3  -4   9   -0.25    0.23
  -3   4   9    0.02    0.18
   3   4  -9   -0.16    0.31
  -3   4   9   -0.04    0.21
  -2  -4   9   27.24    1.40
  -2  -4   9   24.77    1.42
  -2  -4   9   28.81    1.54
   2  -4  -9   26.11    1.76
  -2   4   9   27.06    1.37
  -2   4   9   26.40    1.43
   2   4  -9   25.85    1.64
  -1  -4   9    2.20    0.40
  -1  -4   9    1.91    0.46
   1  -4  -9    2.64    0.64
  -1  -4   9    2.32    0.55
  -1   4   9    1.40    0.41
  -1   4   9    2.58    0.46
   1   4  -9    1.23    0.46
   0  -4   9   -0.15    0.22
   0  -4   9   -0.18    0.31
   0  -4  -9    0.22    0.36
   0  -4   9    0.17    0.18
   0   4   9   -0.03    0.26
   0   4  -9   -0.09    0.33
   0   4   9   -0.12    0.17
   1  -4   9   -0.12    0.27
   1  -4   9   -0.23    0.34
   1  -4   9   -0.03    0.18
   1   4   9    0.32    0.32
   1   4   9    0.09    0.26
   2  -4   9    9.96    1.25
   2  -4   9   11.26    0.89
   2  -4   9   11.14    1.22
   2   4   9   12.51    1.39
   2   4   9   10.88    1.21
   3  -4   9   -0.07    0.33
   3  -4   9    0.14    0.45
   3  -4   9    0.32    0.33
   3   4   9   -0.20    0.36
   3   4   9   -0.08    0.34
  -6  -5   9    1.86    0.56
  -6  -5   9    1.41    0.48
   6  -5  -9    2.18    0.74
   6   5  -9    1.32    0.61
  -6   5   9    1.84    0.40
  -5  -5   9   10.37    1.03
   5  -5  -9   13.04    1.59
  -5  -5   9    9.00    1.09
   5   5  -9    8.19    1.12
  -5   5   9    9.50    0.75
  -4  -5   9   14.59    1.11
   4  -5  -9   16.10    1.71
  -4  -5   9   16.22    1.18
  -4   5   9   14.82    0.95
   4   5  -9   14.67    1.28
   3  -5  -9    1.37    0.56
  -3  -5   9    1.36    0.40
  -3  -5   9    2.34    0.49
  -3   5   9    1.41    0.33
   3   5  -9    1.33    0.53
  -2  -5   9    0.46    0.32
   2  -5  -9    0.73    0.47
  -2  -5   9    0.56    0.35
  -2  -5   9    0.37    0.25
  -2   5   9    0.31    0.23
   2   5  -9    0.53    0.44
  -2   5   9    0.72    0.32
  -1  -5   9   31.75    1.76
   1  -5  -9   32.66    2.02
  -1  -5   9   33.70    1.57
  -1  -5   9   30.54    1.73
  -1   5   9   34.31    1.76
  -1   5   9   32.34    1.64
   1   5  -9   33.17    1.87
   0  -5   9    8.08    0.67
   0  -5   9    7.08    0.90
   0  -5  -9    9.38    1.23
   0  -5   9    7.32    0.97
   0   5  -9    8.70    1.02
   0   5   9    8.19    0.89
   0   5   9    8.85    1.02
   1  -5   9    4.05    0.55
   1  -5   9    3.96    0.72
   1  -5   9    5.09    0.87
   1   5   9    4.90    0.74
   1   5   9    4.84    0.81
   2  -5   9    2.22    0.57
   2  -5   9    2.48    0.70
   2  -5   9    2.31    0.48
   2   5   9    2.36    0.63
   2   5   9    2.57    0.62
   3  -5   9    2.00    0.76
   3  -5   9    1.81    0.58
   3   5   9    2.26    0.64
   3   5   9    2.00    0.64
   6  -6  -9    0.54    0.58
  -6  -6   9    0.23    0.40
  -6  -6   9    0.54    0.43
   6   6  -9    0.57    0.51
  -5  -6   9   23.62    1.63
   5  -6  -9   29.19    2.09
  -5  -6   9   27.75    1.63
   5   6  -9   28.54    1.89
  -5   6   9   27.46    1.40
  -4  -6   9    1.60    0.47
  -4  -6   9    0.48    0.33
   4  -6  -9    0.10    0.38
  -4   6   9    0.94    0.31
   4   6  -9    0.61    0.49
   3  -6  -9   66.47    3.39
  -3  -6   9   70.67    3.01
  -3  -6   9   66.56    2.90
   3   6  -9   71.27    3.21
  -3   6   9   67.86    2.76
  -2  -6   9    4.66    0.73
  -2  -6   9    4.18    0.59
  -2  -6   9    4.73    0.74
   2  -6  -9    3.94    0.87
  -2   6   9    4.25    0.64
   2   6  -9    5.69    0.90
  -2   6   9    4.37    0.60
  -1  -6   9   43.63    2.17
  -1  -6   9   43.65    1.92
   1  -6  -9   43.00    2.48
  -1  -6   9   44.29    2.19
   1   6  -9   44.09    2.27
  -1   6   9   41.10    2.02
  -1   6   9   43.37    2.11
   0  -6   9   -0.02    0.19
   0  -6   9    0.32    0.39
   0  -6   9    0.24    0.33
   0   6   9    0.30    0.27
   0   6   9   -0.11    0.24
   1  -6   9    0.08    0.31
   1  -6   9   -0.15    0.35
   1  -6   9   -0.08    0.18
   1   6   9    0.04    0.30
   1   6   9    0.40    0.34
   2  -6   9    1.96    0.44
   2  -6   9    1.40    0.54
   2  -6   9    1.94    0.65
   2   6   9    1.61    0.56
   3  -6   9    0.38    0.43
  -6  -7   9   33.35    1.97
   5  -7  -9    0.24    0.55
  -5  -7   9    0.21    0.36
  -5  -7   9    0.03    0.33
   5   7  -9    0.05    0.46
  -5   7   9    0.54    0.30
  -4  -7   9    0.16    0.33
  -4  -7   9    0.05    0.30
   4  -7  -9   -0.06    0.42
   4   7  -9   -0.02    0.44
  -4   7   9   -0.02    0.21
  -3  -7   9    3.35    0.67
   3  -7  -9    2.27    0.78
  -3  -7   9    3.44    0.60
  -3   7   9    3.26    0.54
   3   7  -9    2.62    0.72
  -2  -7   9    3.12    0.52
  -2  -7   9    3.13    0.68
  -2  -7   9    2.17    0.53
   2  -7  -9    2.91    0.81
  -2   7   9    3.57    0.58
   2   7  -9    3.94    0.80
  -1  -7   9    5.69    0.62
  -1  -7   9    5.74    0.81
  -1  -7   9    5.78    0.88
   1  -7  -9    4.79    1.00
  -1   7   9    5.60    0.77
   1   7  -9    6.20    0.98
   0  -7   9    0.43    0.42
   0  -7   9    0.08    0.30
   0  -7   9    0.09    0.19
   0   7   9   -0.16    0.25
   1  -7   9    0.33    0.38
   1  -7   9    0.94    0.53
   1  -7   9    0.93    0.29
   1   7   9    0.66    0.40
   2  -7   9    3.16    0.85
   2  -7   9    4.81    0.84
   2   7   9    5.66    0.96
  -6  -8   9    0.51    0.50
  -5  -8   9    0.11    0.36
  -5  -8   9    0.01    0.40
   5  -8  -9   -0.45    0.49
   5   8  -9    0.33    0.49
   4  -8  -9    3.70    1.03
  -4  -8   9    2.27    0.61
  -4  -8   9    3.75    0.71
   4   8  -9    4.04    0.88
  -4   8   9    3.57    0.56
   3  -8  -9   10.09    1.48
  -3  -8   9   13.92    1.04
   3  -8  -9   12.46    1.85
  -3  -8   9   10.28    1.14
   3   8  -9   11.46    1.34
  -3   8   9   11.45    0.90
  -2  -8   9    7.64    0.82
   2  -8  -9    6.72    1.21
  -2  -8   9    7.83    0.99
  -2  -8   9    9.01    1.03
   2   8  -9   10.01    1.26
  -2   8   9    9.14    0.84
   1  -8  -9   -0.26    0.52
  -1  -8   9    0.12    0.23
  -1  -8   9    0.02    0.34
  -1  -8   9    0.67    0.47
  -1   8   9    0.59    0.36
   1   8  -9    0.17    0.48
   0  -8   9    0.81    0.52
   0  -8   9    1.76    0.53
   0  -8   9    1.27    0.34
   0   8   9    1.67    0.53
   1  -8   9    0.81    0.56
   1  -8   9    1.84    0.58
   1   8   9    1.74    0.58
   2  -8   9    0.41    0.55
   2  -8   9   -0.09    0.38
   2   8   9    0.18    0.44
  -5  -9   9    2.48    0.71
  -4  -9   9   20.69    1.46
  -4  -9   9   16.95    1.43
   4  -9  -9   19.89    2.20
   4   9  -9   22.38    1.74
  -3  -9   9    1.31    0.48
   3  -9  -9    0.79    0.94
   3  -9  -9    0.11    0.59
  -3  -9   9    1.23    0.47
   3   9  -9    0.79    0.64
  -3   9   9    0.64    0.35
  -2  -9   9    1.50    0.57
  -2  -9   9    0.88    0.43
  -2  -9   9    0.83    0.35
   2  -9  -9    0.76    0.67
   2   9  -9    1.48    0.65
  -2   9   9    1.23    0.42
  -1  -9   9    2.29    0.62
  -1  -9   9    1.57    0.60
   1  -9  -9    0.90    0.73
  -1  -9   9    1.40    0.38
   1   9  -9    1.22    0.65
  -1   9   9    0.53    0.39
   0  -9   9   -0.14    0.45
   0  -9   9    0.34    0.42
   0   9   9    0.49    0.40
   1  -9   9    0.45    0.45
   1  -9   9   -0.23    0.45
   1   9   9    0.73    0.50
   4 -10  -9    0.34    0.81
  -4 -10   9    0.03    0.35
   4  10  -9    0.10    0.56
   3 -10  -9    0.55    1.05
  -3 -10   9    1.28    0.53
   3 -10  -9    1.17    0.73
  -3 -10   9    0.33    0.37
   3  10  -9    0.44    0.60
  -2 -10   9    1.60    0.59
  -2 -10   9    1.78    0.47
  -2 -10   9    2.52    0.74
   2 -10  -9    1.51    0.74
  -2  10   9    0.96    0.44
   2  10  -9    1.88    0.76
  -1 -10   9    0.17    0.50
  -1 -10   9    0.00    0.40
  -1 -10   9    0.29    0.33
  -1  10   9    0.06    0.37
   0 -10   9    1.15    0.67
   0 -10   9    0.82    0.60
   0  10   9    0.59    0.49
   1  10   9    2.07    0.94
   3 -11  -9    0.43    0.70
   3 -11  -9    0.14    1.00
  -3 -11   9    0.32    0.41
   3  11  -9    1.11    0.70
  -2 -11   9    9.50    1.06
   2 -11  -9   12.16    2.14
   2 -11  -9   11.71    1.70
   2  11  -9   13.32    1.53
  -1 -11   9    4.63    0.95
  -1  11   9    3.80    0.81
   0 -11   9    1.91    0.84
   0  11   9    0.52    0.51
   2 -12  -9    4.13    1.19
   2  12  -9    5.40    1.12
  -1 -12   9   -0.02    1.00
  -7   0  10    0.25    0.45
  -6   0  10   22.09    1.43
   6   0 -10   21.15    1.75
  -5   0  10    0.15    0.25
   5   0 -10    0.15    0.48
   4   0 -10   11.29    1.37
  -4   0  10   12.72    0.92
  -4   0  10   11.55    0.90
  -3   0  10   -0.33    0.23
   3   0 -10   -0.03    0.34
  -3   0  10    0.06    0.21
   2   0 -10    2.68    0.68
  -2   0  10    2.63    0.45
  -2   0  10    2.91    0.58
  -1   0  10   -0.08    0.18
   1   0 -10   -0.31    0.33
  -1   0  10   -0.09    0.25
   0   0  10    0.84    0.39
   0   0  10    0.59    0.29
   1   0  10    0.00    0.22
   1   0  10   -0.03    0.32
   2   0  10    2.10    0.52
   2   0  10    0.79    0.49
   3   0  10   -0.12    0.34
  -7   1  10   10.72    1.12
  -6  -1  10    8.95    1.02
   6  -1 -10    9.34    1.35
  -6   1  10    8.50    0.93
   6   1 -10    8.44    1.20
   5  -1 -10   -0.11    0.40
  -5  -1  10    0.32    0.32
   5   1 -10   -0.12    0.40
  -5   1  10    0.28    0.26
   4  -1 -10   -0.18    0.34
  -4  -1  10    0.09    0.30
  -4  -1  10    0.11    0.24
   4   1 -10   -0.21    0.32
  -4   1  10    0.08    0.23
  -3  -1  10    0.87    0.32
  -3  -1  10    0.59    0.31
   3  -1 -10    0.58    0.41
  -3   1  10    0.81    0.31
  -3   1  10    0.79    0.34
   3   1 -10    0.85    0.45
  -2  -1  10   19.10    1.22
  -2  -1  10   19.18    1.12
   2  -1 -10   16.56    1.36
  -2   1  10   17.55    1.09
  -2   1  10   17.10    1.16
   2   1 -10   14.95    1.29
   1  -1 -10    0.72    0.46
  -1  -1  10    1.44    0.34
  -1  -1  10    1.00    0.39
  -1   1  10    1.09    0.41
   1   1 -10    1.09    0.49
  -1   1  10    0.75    0.29
   0  -1  10    7.51    0.96
   0  -1  10    7.27    0.79
   0   1  10    7.28    0.82
   0   1  10    7.24    0.94
   1  -1  10    0.08    0.31
   1  -1  10    0.33    0.25
   1   1  10    0.36    0.30
   1   1  10    0.09    0.31
   2  -1  10    0.33    0.31
   2  -1  10    1.11    0.54
   2   1  10    0.72    0.39
   2   1  10    0.61    0.44
   3  -1  10    0.08    0.35
   3   1  10    0.16    0.43
  -7   2  10    1.63    0.47
   6  -2 -10   -0.01    0.49
  -6  -2  10    0.41    0.38
  -6   2  10    0.47    0.35
   6   2 -10    0.20    0.45
   5  -2 -10   -0.05    0.42
  -5  -2  10    0.67    0.62
  -5  -2  10    0.63    0.34
  -5   2  10   -0.12    0.20
   5   2 -10    0.12    0.41
   4  -2 -10    0.46    0.46
  -4  -2  10    0.34    0.30
  -4  -2  10    0.98    0.35
   4   2 -10   -0.16    0.34
  -4   2  10    0.47    0.27
   3  -2 -10    0.17    0.38
  -3  -2  10    0.12    0.29
  -3  -2  10    0.17    0.25
  -3   2  10    0.09    0.25
   3   2 -10   -0.02    0.36
  -3   2  10   -0.08    0.16
  -2  -2  10   27.16    1.57
  -2  -2  10   28.63    1.47
   2  -2 -10   27.75    1.82
   2   2 -10   30.00    1.80
  -2   2  10   27.53    1.45
  -2   2  10   27.45    1.55
  -1  -2  10   -0.04    0.26
   1  -2 -10   -0.08    0.39
  -1  -2  10   -0.01    0.19
   1   2 -10   -0.14    0.35
  -1   2  10   -0.10    0.25
  -1   2  10    0.01    0.19
   0  -2  10   10.87    0.82
   0  -2  10    8.85    1.05
   0   2  10   11.99    1.24
   0   2  10    9.25    0.82
   1  -2  10    1.50    0.39
   1  -2  10    1.20    0.46
   1   2  10    1.40    0.43
   1   2  10    1.19    0.48
   2  -2  10    4.87    0.89
   2  -2  10    5.91    0.81
   2   2  10    6.07    1.01
   2   2  10    5.86    0.88
   3  -2  10   11.24    1.21
   3   2  10    9.87    1.23
  -7   3  10   11.71    1.00
  -6  -3  10    1.27    0.47
   6  -3 -10    1.45    0.76
  -6   3  10    1.88    0.45
   6   3 -10    1.66    0.65
  -5  -3  10   12.52    1.00
   5  -3 -10   10.49    1.43
  -5  -3  10   10.56    0.98
  -5   3  10   11.03    0.87
   5   3 -10   10.22    1.34
  -4  -3  10    5.38    0.74
  -4  -3  10    5.75    0.74
   4  -3 -10    4.05    0.89
  -4   3  10    4.40    0.59
   4   3 -10    3.53    0.77
  -3  -3  10    1.49    0.45
   3  -3 -10    2.05    0.65
  -3  -3  10    2.28    0.47
  -3   3  10    2.30    0.44
  -3   3  10    2.15    0.49
   3   3 -10    2.48    0.66
   2  -3 -10    8.41    1.22
  -2  -3  10    8.00    0.93
  -2  -3  10    9.75    0.79
  -2   3  10   10.36    0.79
   2   3 -10    7.52    1.03
  -2   3  10   10.25    0.88
  -1  -3  10    6.67    0.91
  -1  -3  10    7.26    0.68
   1  -3 -10    7.72    1.10
  -1  -3  10    6.35    0.85
  -1   3  10    6.16    0.85
  -1   3  10    8.34    0.88
   1   3 -10    7.62    1.00
   0  -3  10    3.22    0.51
   0  -3  10    3.45    0.74
   0  -3  10    1.92    0.55
   0   3  10    2.61    0.63
   0   3  10    3.27    0.59
   1  -3  10    2.79    0.75
   1  -3  10    2.35    0.48
   1  -3  10    1.85    0.55
   1   3  10    1.41    0.51
   1   3  10    1.22    0.41
   2  -3  10    0.85    0.37
   2  -3  10    0.69    0.42
   2  -3  10    0.40    0.47
   2   3  10    0.92    0.50
   2   3  10    0.71    0.41
   3  -3  10    7.07    0.95
  -6  -4  10    7.12    1.15
   6  -4 -10    4.60    1.07
   6   4 -10    5.68    1.05
  -6   4  10    5.44    0.71
  -5  -4  10    8.12    0.89
   5  -4 -10    6.09    1.11
  -5  -4  10    6.21    0.87
  -5   4  10    5.20    0.67
   5   4 -10    7.41    1.14
   4  -4 -10    1.72    0.66
  -4  -4  10    1.00    0.41
  -4  -4  10    0.96    0.43
   4   4 -10    0.47    0.44
  -4   4  10    0.70    0.32
  -3  -4  10    3.15    0.59
  -3  -4  10    3.57    0.58
   3  -4 -10    3.73    0.88
  -3   4  10    3.12    0.50
   3   4 -10    2.89    0.72
   2  -4 -10    5.27    0.99
  -2  -4  10    6.48    0.84
  -2  -4  10    5.78    0.67
  -2  -4  10    4.60    0.73
  -2   4  10    5.72    0.80
  -2   4  10    4.76    0.63
   2   4 -10    4.33    0.83
  -1  -4  10    1.58    0.50
   1  -4 -10    0.39    0.44
  -1  -4  10    1.52    0.52
  -1  -4  10    1.05    0.32
  -1   4  10    1.49    0.41
  -1   4  10    1.51    0.49
   1   4 -10    0.91    0.51
   0  -4  10    1.72    0.40
   0  -4  10    1.64    0.58
   0  -4  10    1.31    0.47
   0   4  10    1.69    0.53
   0   4  10    0.93    0.37
   1  -4  10   11.68    1.29
   1  -4  10   13.48    1.45
   1  -4  10   13.34    0.97
   1   4  10   11.95    1.08
   1   4  10   14.92    1.26
   2  -4  10   -0.02    0.26
   2  -4  10   -0.08    0.31
   2  -4  10    0.14    0.47
   2   4  10    0.45    0.42
   2   4  10   -0.26    0.29
   3  -4  10    0.39    0.46
  -6   5  10   -0.13    0.27
  -5  -5  10   15.57    1.21
  -5  -5  10   17.53    1.31
   5  -5 -10   14.78    1.74
  -5   5  10   17.37    1.10
   5   5 -10   18.97    1.58
   4  -5 -10   20.35    1.68
  -4  -5  10   19.64    1.32
  -4  -5  10   18.46    1.30
   4   5 -10   19.39    1.55
  -4   5  10   17.16    1.10
  -3  -5  10   12.11    0.95
   3  -5 -10    9.06    1.33
  -3  -5  10   11.07    1.10
  -3   5  10   11.03    0.84
   3   5 -10   10.94    1.30
  -2  -5  10    4.80    0.73
   2  -5 -10    4.64    0.98
  -2  -5  10    3.56    0.54
  -2  -5  10    4.56    0.74
  -2   5  10    4.28    0.62
  -2   5  10    3.91    0.68
   2   5 -10    3.80    0.79
  -1  -5  10   14.99    0.99
  -1  -5  10   16.05    1.24
   1  -5 -10   17.67    1.78
  -1  -5  10   12.87    1.17
  -1   5  10   15.30    1.18
  -1   5  10   16.08    1.12
   1   5 -10   15.12    1.32
   0  -5  10    0.42    0.35
   0  -5  10    0.57    0.27
   0  -5  10    0.25    0.44
   0   5  10    0.12    0.37
   0   5  10    0.16    0.28
   1  -5  10    4.50    0.61
   1  -5  10    2.93    0.65
   1  -5  10    4.15    0.90
   1   5  10    5.02    0.79
   1   5  10    3.43    0.75
   2  -5  10    0.23    0.31
   2  -5  10    0.48    0.44
   2  -5  10   -0.04    0.42
   2   5  10    0.27    0.44
   2   5  10    0.04    0.36
  -6  -6  10    4.51    1.05
  -5  -6  10   10.84    1.20
   5  -6 -10    9.73    1.55
  -5  -6  10    7.01    0.95
  -5   6  10   10.06    0.82
   5   6 -10   10.45    1.37
  -4  -6  10    3.08    0.66
   4  -6 -10    3.10    0.90
  -4  -6  10    4.01    0.71
   4   6 -10    5.19    0.93
  -4   6  10    5.01    0.63
  -3  -6  10   12.32    0.98
  -3  -6  10   11.48    1.16
   3  -6 -10    9.78    1.39
  -3   6  10   11.94    0.91
   3   6 -10   12.80    1.40
  -2  -6  10    3.36    0.66
   2  -6 -10    4.38    0.98
  -2  -6  10    7.08    0.92
  -2  -6  10    4.95    0.66
  -2   6  10    5.70    0.74
   2   6 -10    4.48    0.86
   1  -6 -10    0.14    0.51
  -1  -6  10    0.10    0.26
  -1  -6  10    0.68    0.42
  -1  -6  10    0.46    0.44
   1   6 -10    0.32    0.47
  -1   6  10    0.66    0.38
  -1   6  10    0.30    0.33
   0  -6  10   -0.25    0.32
   0  -6  10   -0.09    0.18
   0  -6  10    0.12    0.41
   0   6  10    0.17    0.33
   0   6  10   -0.04    0.29
   1  -6  10    2.31    0.74
   1  -6  10    2.46    0.64
   1  -6  10    2.63    0.50
   1   6  10    2.85    0.74
   1   6  10    1.94    0.58
   2  -6  10    5.38    1.64
  -6  -7  10   14.35    1.25
  -5  -7  10   41.06    2.23
   5  -7 -10   41.15    2.87
  -5   7  10   42.63    2.34
   5   7 -10   39.28    2.54
   4  -7 -10    3.13    0.94
  -4  -7  10    2.43    0.63
  -4  -7  10    2.81    0.63
   4   7 -10    2.37    0.77
  -4   7  10    2.39    0.52
   3  -7 -10    6.33    1.18
  -3  -7  10    9.26    1.05
  -3  -7  10    7.84    0.90
  -3   7  10    8.91    0.94
   3   7 -10    9.67    1.26
  -2  -7  10    0.83    0.46
  -2  -7  10    0.82    0.37
   2  -7 -10    0.65    0.62
  -2  -7  10    0.40    0.42
   2   7 -10    0.30    0.53
  -2   7  10    0.76    0.35
  -1  -7  10   21.34    1.49
  -1  -7  10   20.86    1.23
  -1  -7  10   22.44    1.57
  -1   7  10   20.66    1.40
   0  -7  10   10.83    1.24
   0  -7  10   12.48    0.88
   0  -7  10   11.77    1.38
   0   7  10    9.35    1.11
   1  -7  10    0.67    0.36
   1  -7  10    1.01    0.57
   1  -7  10    0.64    0.46
   1   7  10    0.51    0.47
  -5  -8  10   42.04    2.32
  -4  -8  10   -0.43    0.39
  -4  -8  10    0.33    0.40
   4  -8 -10    0.07    0.60
   4   8 -10   -0.47    0.51
  -4   8  10    0.34    0.31
  -3  -8  10    2.42    0.64
   3  -8 -10    3.70    1.05
  -3  -8  10    2.77    0.58
   3   8 -10    3.52    0.84
  -3   8  10    3.76    0.66
   2  -8 -10   10.32    1.62
  -2  -8  10    7.75    0.84
  -2  -8  10    8.38    1.08
  -2   8  10    7.95    0.94
   2   8 -10    9.39    1.32
  -1  -8  10   18.39    1.44
  -1  -8  10   15.35    1.06
  -1  -8  10   18.11    1.41
  -1   8  10   15.53    1.25
   0  -8  10    1.65    0.68
   0  -8  10    1.90    0.41
   0  -8  10    2.15    0.63
   0   8  10    1.44    0.54
   1  -8  10    2.08    0.77
   4   9 -10    5.41    1.49
   3  -9 -10    0.38    0.72
  -3  -9  10    0.66    0.44
  -3  -9  10    1.30    0.83
   3  -9 -10    0.25    1.39
   3   9 -10    0.82    0.66
  -3   9  10    0.89    0.41
  -2  -9  10    6.32    0.76
  -2  -9  10    7.61    1.31
   2  -9 -10    6.72    1.38
   2   9 -10    7.45    1.19
  -2   9  10    5.93    0.90
  -1  -9  10    3.17    0.56
  -1  -9  10    1.99    0.69
  -1   9  10    1.57    0.55
   0  -9  10    0.28    0.55
   0   9  10    2.09    0.67
   3 -10 -10    2.80    1.04
  -3 -10  10    2.40    0.60
   3  10 -10    1.42    0.80
  -2 -10  10    0.74    0.39
   2 -10 -10    0.83    0.79
   2  10 -10    2.02    0.96
  -2  10  10    1.21    0.54
  -1 -10  10   -0.33    0.57
  -1  10  10    0.54    0.47
  -6   0  11    0.12    0.45
  -5   0  11   22.50    1.41
   5   0 -11   22.92    1.88
  -4   0  11    0.18    0.28
   4   0 -11   -0.17    0.39
  -3   0  11   14.99    1.14
  -3   0  11   16.03    1.09
   3   0 -11   16.04    1.66
  -2   0  11   -0.18    0.27
   2   0 -11   -0.18    0.40
  -2   0  11   -0.04    0.24
  -1   0  11    1.67    0.48
  -1   0  11    1.89    0.45
   0   0  11   -0.10    0.23
   0   0  11   -0.08    0.32
   1   0  11    0.19    0.43
   1   0  11    0.04    0.29
   2   0  11   -0.06    0.34
  -6   1  11    0.12    0.34
   5  -1 -11    2.61    0.88
  -5  -1  11    2.62    0.56
   5   1 -11    1.18    0.66
  -5   1  11    3.16    0.57
  -4  -1  11    0.10    0.33
  -4  -1  11   -0.08    0.25
   4  -1 -11   -0.22    0.38
  -4   1  11    0.21    0.27
   4   1 -11   -0.21    0.41
   3  -1 -11   12.00    1.45
  -3  -1  11   10.26    1.09
  -3  -1  11   11.40    0.92
  -3   1  11   11.79    0.92
  -3   1  11   12.52    1.02
   3   1 -11   10.94    1.33
  -2  -1  11    0.06    0.25
   2  -1 -11    0.17    0.43
  -2  -1  11    0.22    0.31
  -2   1  11    0.38    0.34
   2   1 -11    0.35    0.45
  -2   1  11    0.07    0.21
  -1  -1  11    8.95    0.81
  -1  -1  11    9.18    1.09
  -1   1  11   11.26    1.22
  -1   1  11   10.43    0.88
   0  -1  11    0.06    0.26
   0  -1  11   -0.10    0.32
   0   1  11   -0.08    0.34
   0   1  11    0.04    0.22
   1  -1  11    0.97    0.54
   1  -1  11    0.21    0.30
   1   1  11    1.03    0.46
   1   1  11    0.47    0.33
   2   1  11   12.48    2.02
  -6   2  11    7.81    0.90
   5  -2 -11    3.59    0.96
  -5  -2  11    4.84    0.73
  -5   2  11    4.30    0.65
   5   2 -11    4.52    1.02
  -4  -2  11    0.13    0.30
   4  -2 -11   -0.27    0.41
  -4  -2  11    0.51    0.40
  -4   2  11    0.76    0.33
   4   2 -11    0.54    0.48
  -3  -2  11    0.10    0.32
   3  -2 -11   -0.04    0.46
  -3  -2  11    0.54    0.30
  -3   2  11    0.06    0.34
  -3   2  11   -0.02    0.24
   3   2 -11    0.24    0.43
  -2  -2  11    4.42    0.63
   2  -2 -11    6.11    1.10
  -2  -2  11    3.72    0.70
  -2   2  11    5.22    0.71
  -2   2  11    6.05    0.87
   2   2 -11    5.76    1.01
  -1  -2  11    8.20    0.75
  -1  -2  11    7.18    0.97
  -1   2  11    8.33    0.92
  -1   2  11    6.23    0.90
   0  -2  11   10.04    1.21
   0  -2  11   10.00    0.87
   0   2  11   11.33    0.98
   0   2  11   11.60    1.26
   1  -2  11    0.30    0.36
   1  -2  11    0.27    0.30
   1   2  11    0.48    0.46
   1   2  11   -0.04    0.28
   2  -2  11    9.34    1.10
  -6   3  11    0.78    0.39
   5  -3 -11    2.33    0.85
  -5  -3  11    2.36    0.55
  -5   3  11    2.02    0.48
   5   3 -11    3.34    0.89
   4  -3 -11    6.23    1.20
  -4  -3  11    6.71    0.82
  -4  -3  11    5.72    0.82
   4   3 -11    6.94    1.15
  -4   3  11    4.95    0.68
  -3  -3  11    0.02    0.24
   3  -3 -11    0.04    0.46
  -3  -3  11    0.11    0.34
  -3   3  11   -0.11    0.22
   3   3 -11   -0.11    0.39
   2  -3 -11    4.80    1.03
  -2  -3  11    2.27    0.56
  -2  -3  11    3.82    0.58
  -2   3  11    2.83    0.55
  -2   3  11    2.61    0.63
   2   3 -11    3.55    0.78
  -1  -3  11    7.37    1.00
  -1  -3  11    8.54    0.76
  -1   3  11    8.50    1.06
  -1   3  11    7.50    0.91
   0  -3  11   17.25    1.39
   0  -3  11   17.64    1.15
   0   3  11   17.19    1.38
   0   3  11   17.67    1.27
   1  -3  11    1.26    0.57
   1  -3  11    0.94    0.38
   1   3  11    0.56    0.45
   1   3  11    0.26    0.37
   2  -3  11    3.13    0.64
  -6   4  11    0.46    0.36
  -5  -4  11    0.05    0.44
   5  -4 -11    0.24    0.48
   5   4 -11   -0.22    0.49
  -5   4  11    0.08    0.26
  -4  -4  11   10.14    1.08
  -4  -4  11   12.35    1.05
   4  -4 -11   13.02    1.64
   4   4 -11   11.20    1.38
  -4   4  11   12.99    0.96
  -3  -4  11    0.81    0.43
  -3  -4  11    1.92    0.46
   3  -4 -11    1.37    0.65
   3   4 -11    0.63    0.49
  -3   4  11    2.45    0.49
  -2  -4  11   -0.14    0.31
   2  -4 -11    0.34    0.54
  -2  -4  11    0.21    0.28
  -2   4  11    0.23    0.38
  -2   4  11    0.12    0.27
   2   4 -11    0.56    0.52
  -1  -4  11    0.46    0.48
  -1  -4  11    0.05    0.31
  -1  -4  11   -0.08    0.23
  -1   4  11    0.08    0.24
  -1   4  11    0.01    0.33
   0  -4  11    5.46    0.93
   0  -4  11    4.70    0.64
   0  -4  11    4.36    0.92
   0   4  11    5.82    0.84
   0   4  11    4.27    0.83
   1  -4  11    0.04    0.50
   1  -4  11   -0.14    0.46
   1  -4  11    0.25    0.26
   1   4  11    0.21    0.43
   1   4  11   -0.09    0.38
   2  -4  11    3.03    0.64
  -6   5  11    1.58    0.47
   5  -5 -11    3.08    1.14
  -5  -5  11    3.39    0.74
  -5   5  11    3.98    0.62
   5   5 -11    3.80    1.09
   4  -5 -11   14.86    1.75
  -4  -5  11   12.23    1.22
   4   5 -11   11.14    1.40
  -4   5  11   11.42    0.94
  -3  -5  11   -0.19    0.28
   3  -5 -11   -0.42    0.48
  -3  -5  11    0.22    0.38
   3   5 -11   -0.14    0.46
  -3   5  11   -0.16    0.23
  -2  -5  11    3.33    0.70
  -2  -5  11    3.13    0.54
   2  -5 -11    5.47    1.13
  -2   5  11    3.60    0.63
   2   5 -11    2.66    0.73
  -1  -5  11    0.20    0.26
  -1  -5  11    0.15    0.38
  -1  -5  11    0.25    0.47
  -1   5  11    0.16    0.38
  -1   5  11   -0.13    0.26
   0  -5  11    1.73    0.43
   0  -5  11    0.97    0.52
   0  -5  11    0.88    0.59
   0   5  11    1.89    0.64
   0   5  11    1.68    0.55
   1  -5  11    3.49    0.88
   1  -5  11    2.49    0.55
   1   5  11    1.83    0.65
  -5  -6  11   -0.08    0.45
  -5   6  11    0.31    0.34
  -4  -6  11    9.93    1.27
   4  -6 -11   10.50    1.57
  -4  -6  11   10.26    1.15
   4   6 -11   10.45    1.39
  -4   6  11    9.92    0.89
  -3  -6  11    3.71    0.76
   3  -6 -11    2.55    0.90
  -3  -6  11    3.52    0.62
  -3   6  11    3.28    0.61
   3   6 -11    2.69    0.85
   2  -6 -11    0.83    0.63
  -2  -6  11    0.74    0.49
  -2  -6  11    0.84    0.35
  -2   6  11    0.93    0.44
   2   6 -11    1.45    0.68
  -1  -6  11    6.49    1.01
  -1  -6  11    5.62    0.72
  -1  -6  11    7.32    1.10
  -1   6  11    5.44    0.88
  -1   6  11    7.04    0.93
   0  -6  11    5.07    0.97
   0  -6  11    5.37    0.69
   0   6  11    5.22    1.05
   0   6  11    6.64    1.03
   1  -6  11    0.42    0.33
   1   6  11    0.21    0.47
  -4  -7  11    1.31    0.55
   4  -7 -11    1.30    0.76
  -4   7  11    1.27    0.45
   4   7 -11    1.49    0.74
  -3  -7  11    0.20    0.42
  -3  -7  11    0.51    0.37
   3  -7 -11   -0.06    0.68
   3   7 -11    0.54    0.59
  -3   7  11    0.28    0.33
   2  -7 -11    2.86    0.97
  -2  -7  11    3.86    0.63
  -2  -7  11    5.61    0.91
  -2   7  11    5.63    0.86
   2   7 -11    4.61    1.03
  -1  -7  11   -0.16    0.49
  -1  -7  11    0.37    0.32
  -1   7  11    0.15    0.33
   0  -7  11   19.50    1.21
   0  -7  11   18.78    1.62
  -4   8  11   22.34    1.43
   3  -8 -11    2.25    0.90
  -3   8  11    2.04    0.55
   3   8 -11    2.20    0.81
  -2  -8  11    0.27    0.34
  -2   8  11    0.02    0.33
  -1  -8  11    1.25    0.68
  -1  -8  11    0.80    0.38
   0  -8  11    2.52    1.16
   3   9 -11    0.48    0.79
  -3   9  11    0.74    0.45
  -2  -9  11    5.90    0.93
   4   0 -12   17.42    1.90
  -4   0  12   17.90    1.45
  -3   0  12   -0.10    0.25
  -3   0  12    0.11    0.35
   3   0 -12   -0.28    0.47
  -2   0  12   10.20    0.91
   2   0 -12    8.55    1.56
  -2   0  12   10.70    1.21
  -1   0  12    0.19    0.41
  -1   0  12   -0.26    0.26
   0   0  12    3.18    0.77
   4  -1 -12   14.23    1.67
   4   1 -12   12.48    1.61
  -4   1  12   14.38    1.21
  -3  -1  12    7.73    1.03
  -3  -1  12   10.10    0.91
   3  -1 -12    6.90    1.22
   3   1 -12    7.30    1.23
  -3   1  12   10.10    0.91
   2  -1 -12    3.57    1.32
  -2  -1  12    6.86    0.98
  -2  -1  12    4.75    0.69
  -2   1  12    5.65    0.76
  -2   1  12    3.71    0.77
   2   1 -12    4.68    1.49
  -1  -1  12    0.44    0.31
  -1  -1  12    0.25    0.40
  -1   1  12    0.03    0.28
  -1   1  12    0.05    0.41
   0  -1  12    0.14    0.28
   0  -1  12    0.01    0.41
   0   1  12    0.16    0.40
   4  -2 -12   -0.03    0.58
  -4  -2  12    0.07    0.56
   4   2 -12    0.44    0.54
  -4   2  12   -0.12    0.33
  -3  -2  12    1.26    0.52
   3  -2 -12    2.85    0.96
  -3  -2  12    1.28    0.45
   3   2 -12    1.87    0.73
  -3   2  12    2.51    0.56
  -2  -2  12    1.82    0.47
  -2  -2  12    2.58    0.65
  -2   2  12    2.75    0.59
  -2   2  12    2.28    0.62
  -1  -2  12    0.17    0.44
  -1  -2  12    0.07    0.26
  -1   2  12    0.26    0.44
  -1   2  12   -0.14    0.29
   0  -2  12    2.11    0.94
   0  -2  12    1.00    0.48
   0   2  12    1.58    0.66
   4  -3 -12    5.67    1.25
  -4  -3  12    3.88    0.77
  -4   3  12    3.33    0.74
   4   3 -12    3.81    0.97
  -3  -3  12    2.69    0.65
   3  -3 -12    2.77    0.95
  -3  -3  12    3.27    0.73
  -3   3  12    3.30    0.61
   3   3 -12    2.42    0.81
  -2  -3  12    4.79    0.69
  -2  -3  12    3.35    0.73
  -2   3  12    4.47    0.73
  -2   3  12    5.29    0.91
  -1  -3  12    0.53    0.47
  -1  -3  12    0.26    0.32
  -1   3  12    0.82    0.48
   0  -3  12    1.99    0.60
   0   3  12    2.25    0.70
  -4  -4  12   -0.22    0.44
   4  -4 -12    0.22    0.61
   4   4 -12    0.09    0.54
   3  -4 -12    2.57    0.85
  -3  -4  12    1.06    0.54
  -3   4  12    1.46    0.52
   3   4 -12    1.30    0.68
  -2  -4  12    4.32    0.82
  -2  -4  12    3.64    0.68
  -2   4  12    2.64    0.84
  -1  -4  12    1.41    0.43
  -1  -4  12    1.11    0.67
  -1   4  12    0.89    0.56
   0  -4  12   10.50    1.50
   0   4  12   11.58    1.42
   4  -5 -12   -0.12    0.66
  -4  -5  12   -0.05    0.40
   4   5 -12   -0.19    0.60
   3  -5 -12   10.77    1.63
  -3  -5  12    9.33    1.17
   3   5 -12   11.33    1.50
  -2  -5  12   10.96    1.86
  -1  -5  12    0.79    0.43
  -1  -5  12    1.00    0.83
  -1   5  12    0.30    0.48
   0  -5  12    1.23    0.68
   0   5  12    1.80    0.75
   3  -6 -12   21.55    2.30
   3   6 -12   17.22    1.85
   3  -7 -12    0.43    0.79
   3   7 -12    0.23    0.68
   3   0 -13    0.60    0.80
  -2   0  13    0.26    0.42
  -3  -1  13   34.50    2.14
   3   1 -13   32.52    3.71
  -2  -1  13    1.79    0.63
  -2   1  13    1.88    0.66
  -3  -2  13    3.49    0.76
   0   0   0    0.00    0.00
;
_shelx_hkl_checksum              95447
loop_
_space_group_symop_operation_xyz
'x, y, z'
'-x+1/2, y+1/2, -z+1/2'
'-x, -y, -z'
'x-1/2, -y-1/2, z-1/2'
loop_
_atom_site_label
_atom_site_type_symbol
_atom_site_fract_x
_atom_site_fract_y
_atom_site_fract_z
_atom_site_U_iso_or_equiv
_atom_site_adp_type
_atom_site_occupancy
_atom_site_site_symmetry_order
_atom_site_calc_flag
_atom_site_refinement_flags_posn
_atom_site_refinement_flags_adp
O1 O 0.32876(15) 0.50024(8) 0.16504(9) 0.0192(2) Uani 1 1 d . .
O2 O 0.17082(15) 0.44378(7) -0.06321(9) 0.0162(2) Uani 1 1 d . .
O3 O 0.19393(15) 0.32471(7) 0.12162(9) 0.0150(2) Uani 1 1 d . .
O4 O 0.50146(15) 0.31046(8) -0.06152(10) 0.0189(2) Uani 1 1 d . .
H4 H 0.5512 0.3725 -0.0805 0.028 Uiso 1 1 calc R U
C1 C 0.2393(2) 0.42787(10) 0.08150(13) 0.0144(3) Uani 1 1 d . .
C2 C 0.1162(2) 0.33271(10) -0.12957(13) 0.0147(3) Uani 1 1 d . .
H2 H -0.0079 0.3386 -0.2172 0.018 Uiso 1 1 calc R U
C3 C 0.3116(2) 0.28505(11) -0.17190(13) 0.0164(3) Uani 1 1 d . .
H3 H 0.3202 0.3195 -0.2661 0.020 Uiso 1 1 calc R U
C4 C 0.2944(2) 0.15713(11) -0.18824(13) 0.0188(3) Uani 1 1 d . .
H4A H 0.4202 0.1274 -0.2160 0.023 Uiso 1 1 calc R U
H4B H 0.1660 0.1374 -0.2664 0.023 Uiso 1 1 calc R U
C5 C 0.2808(2) 0.10284(11) -0.04519(14) 0.0174(3) Uani 1 1 d . .
H5A H 0.2772 0.0194 -0.0555 0.021 Uiso 1 1 calc R U
H5B H 0.4086 0.1233 0.0331 0.021 Uiso 1 1 calc R U
C6 C 0.0820(2) 0.14280(11) -0.00379(13) 0.0164(3) Uani 1 1 d . .
H6A H -0.0442 0.1080 -0.0714 0.020 Uiso 1 1 calc R U
H6B H 0.0882 0.1152 0.0954 0.020 Uiso 1 1 calc R U
C7 C 0.0534(2) 0.26958(10) -0.00716(12) 0.0140(3) Uani 1 1 d . .
H7 H -0.0980 0.2876 -0.0111 0.017 Uiso 1 1 calc R U
loop_
_atom_site_aniso_label
_atom_site_aniso_U_11
_atom_site_aniso_U_22
_atom_site_aniso_U_33
_atom_site_aniso_U_23
_atom_site_aniso_U_13
_atom_site_aniso_U_12
O1 0.0196(6) 0.0176(5) 0.0202(5) -0.0034(3) 0.0048(4) -0.0007(4)
O2 0.0173(6) 0.0154(5) 0.0160(4) 0.0019(3) 0.0046(4) 0.0000(4)
O3 0.0173(6) 0.0154(4) 0.0134(4) -0.0002(3) 0.0058(3) -0.0007(3)
O4 0.0125(6) 0.0211(5) 0.0235(5) -0.0017(4) 0.0054(4) -0.0037(4)
C1 0.0118(7) 0.0158(6) 0.0170(6) 0.0009(4) 0.0063(5) 0.0029(5)
C2 0.0140(7) 0.0163(6) 0.0139(5) 0.0006(4) 0.0037(5) -0.0022(5)
C3 0.0156(8) 0.0219(7) 0.0131(5) -0.0011(4) 0.0060(5) -0.0044(5)
C4 0.0176(8) 0.0228(7) 0.0183(6) -0.0064(5) 0.0089(5) -0.0034(5)
C5 0.0168(8) 0.0153(6) 0.0215(6) -0.0026(5) 0.0078(5) -0.0001(5)
C6 0.0177(8) 0.0163(6) 0.0177(6) -0.0004(4) 0.0089(5) -0.0010(5)
C7 0.0118(7) 0.0175(6) 0.0133(5) -0.0004(4) 0.0045(5) -0.0007(5)
loop_
_atom_type_symbol
_atom_type_description
_atom_type_scat_dispersion_real
_atom_type_scat_dispersion_imag
_atom_type_scat_source
C C 0.0033 0.0016 'International Tables Vol C Tables 4.2.6.8 and 6.1.1.4'
H H 0.0000 0.0000 'International Tables Vol C Tables 4.2.6.8 and 6.1.1.4'
O O 0.0106 0.0060 'International Tables Vol C Tables 4.2.6.8 and 6.1.1.4'
loop_
_geom_angle_atom_site_label_1
_geom_angle_atom_site_label_2
_geom_angle_atom_site_label_3
_geom_angle
C1 O2 C2 107.20(9)
C1 O3 C7 107.52(9)
O1 C1 O3 124.24(11)
O1 C1 O2 123.26(11)
O3 C1 O2 112.48(10)
O2 C2 C7 101.07(9)
O2 C2 C3 108.53(10)
C7 C2 C3 115.33(11)
O4 C3 C4 108.08(11)
O4 C3 C2 110.28(10)
C4 C3 C2 110.26(10)
C3 C4 C5 110.21(10)
C6 C5 C4 110.66(11)
C7 C6 C5 114.21(11)
O3 C7 C6 111.98(10)
O3 C7 C2 100.74(9)
C6 C7 C2 116.37(10)
loop_
_geom_bond_atom_site_label_1
_geom_bond_atom_site_label_2
_geom_bond_distance
O1 C1 1.2076(15)
O2 C1 1.3450(14)
O2 C2 1.4583(15)
O3 C1 1.3326(15)
O3 C7 1.4748(14)
O4 C3 1.4288(15)
C2 C7 1.5274(16)
C2 C3 1.5393(18)
C3 C4 1.5191(18)
C4 C5 1.5287(17)
C5 C6 1.5254(18)
C6 C7 1.5075(17)
loop_
_geom_torsion_atom_site_label_1
_geom_torsion_atom_site_label_2
_geom_torsion_atom_site_label_3
_geom_torsion_atom_site_label_4
_geom_torsion
C7 O3 C1 O1 170.28(12)
C7 O3 C1 O2 -8.59(14)
C2 O2 C1 O1 167.45(12)
C2 O2 C1 O3 -13.66(14)
C1 O2 C2 C7 28.59(12)
C1 O2 C2 C3 -93.10(11)
O2 C2 C3 O4 39.84(13)
C7 C2 C3 O4 -72.66(13)
O2 C2 C3 C4 159.11(9)
C7 C2 C3 C4 46.62(14)
O4 C3 C4 C5 60.99(14)
C2 C3 C4 C5 -59.62(14)
C3 C4 C5 C6 62.10(15)
C4 C5 C6 C7 -50.39(14)
C1 O3 C7 C6 149.92(10)
C1 O3 C7 C2 25.58(12)
C5 C6 C7 O3 -77.28(13)
C5 C6 C7 C2 37.84(15)
O2 C2 C7 O3 -31.72(11)
C3 C2 C7 O3 85.08(12)
O2 C2 C7 C6 -153.00(11)
C3 C2 C7 C6 -36.21(15)
loop_
_cod_related_entry_id
_cod_related_entry_database
_cod_related_entry_code
1 PubChem 139148577
