#------------------------------------------------------------------------------
#$Date: 2025-08-21 04:34:05 +0300 (Thu, 21 Aug 2025) $
#$Revision: 301843 $
#$URL: file:///home/coder/svn-repositories/cod/cif/4/51/41/4514168.cif $
#------------------------------------------------------------------------------
#
# This file is available in the Crystallography Open Database (COD),
# http://www.crystallography.net/
#
# All data on this site have been placed in the public domain by the
# contributors.
#
data_4514168
loop_
_publ_author_name
'Laserna, Victor'
'Martin, Eddy'
'Escudero-Ad\'an, Eduardo C.'
'Kleij, Arjan W.'
_publ_section_title
;
 Substrate-Triggered Stereoselective Preparation of Highly Substituted
 Organic Carbonates
;
_journal_issue                   8
_journal_name_full               'ACS Catalysis'
_journal_page_first              5478
_journal_paper_doi               10.1021/acscatal.7b01748
_journal_volume                  7
_journal_year                    2017
_chemical_formula_sum            'C7 H10 O4'
_chemical_formula_weight         158.15
_space_group_IT_number           14
_space_group_name_Hall           '-P 2yn'
_symmetry_cell_setting           monoclinic
_symmetry_space_group_name_Hall  '-P 2yn'
_symmetry_space_group_name_H-M   'P 1 21/n 1'
_atom_sites_solution_hydrogens   geom
_audit_creation_method           SHELXL-2014/7
_cell_angle_alpha                90
_cell_angle_beta                 96.2862(12)
_cell_angle_gamma                90
_cell_formula_units_Z            4
_cell_length_a                   8.3814(4)
_cell_length_b                   7.0296(3)
_cell_length_c                   12.3499(5)
_cell_measurement_reflns_used    5708
_cell_measurement_temperature    100(2)
_cell_measurement_theta_max      32.25
_cell_measurement_theta_min      2.80
_cell_volume                     723.26(5)
_computing_cell_refinement       'Bruker APEX2 v2011.4-0'
_computing_data_collection       'Bruker APEX2 v2011.4-0'
_computing_data_reduction        'Bruker SAINT V7.60A'
_computing_molecular_graphics    'Bruker SHELXTL'
_computing_publication_material  'Bruker SHELXTL'
_computing_structure_refinement  'SHELXL-2014 (Sheldrick, 2014)'
_computing_structure_solution    Sir2011
_diffrn_ambient_temperature      100(2)
_diffrn_detector_area_resol_mean 512
_diffrn_detector_type            '4K CCD area detector APEX II'
_diffrn_measured_fraction_theta_full 1.000
_diffrn_measured_fraction_theta_max 0.936
_diffrn_measurement_device_type  'APEX DUO Kappa 4-axis goniometer'
_diffrn_measurement_method
;
 Fullsphere data collection, phi and omega scans
;
_diffrn_measurement_specimen_support 'magnetic support with MicroMount'
_diffrn_radiation_monochromator  'Quazar MX Multilayer Optics'
_diffrn_radiation_type           MoK\a
_diffrn_radiation_wavelength     0.71073
_diffrn_reflns_av_R_equivalents  0.0286
_diffrn_reflns_av_unetI/netI     0.0213
_diffrn_reflns_Laue_measured_fraction_full 1.000
_diffrn_reflns_Laue_measured_fraction_max 0.936
_diffrn_reflns_limit_h_max       12
_diffrn_reflns_limit_h_min       -12
_diffrn_reflns_limit_k_max       10
_diffrn_reflns_limit_k_min       -7
_diffrn_reflns_limit_l_max       18
_diffrn_reflns_limit_l_min       -16
_diffrn_reflns_number            11223
_diffrn_reflns_point_group_measured_fraction_full 1.000
_diffrn_reflns_point_group_measured_fraction_max 0.936
_diffrn_reflns_theta_full        25.242
_diffrn_reflns_theta_max         32.538
_diffrn_reflns_theta_min         2.800
_diffrn_source                   'Microfocus source E025 IuS'
_diffrn_source_current           0.6
_diffrn_source_power             50
_diffrn_source_size              '0.2 mm x 0.2 mm fine focus'
_diffrn_source_type              'Bruker APEX DUO'
_exptl_absorpt_coefficient_mu    0.120
_exptl_absorpt_correction_T_max  0.976
_exptl_absorpt_correction_T_min  0.86
_exptl_absorpt_correction_type   empirical
_exptl_absorpt_process_details
; 
 SADABS Version 2008/1 Bruker-Nonius
 Blessing, Acta Cryst. (1995) A51 33-38
;
_exptl_crystal_colour            colourless
_exptl_crystal_density_diffrn    1.452
_exptl_crystal_description       block
_exptl_crystal_F_000             336
_exptl_crystal_size_max          0.40
_exptl_crystal_size_mid          0.20
_exptl_crystal_size_min          0.20
_refine_diff_density_max         0.330
_refine_diff_density_min         -0.371
_refine_diff_density_rms         0.090
_refine_ls_extinction_method     none
_refine_ls_goodness_of_fit_ref   1.103
_refine_ls_hydrogen_treatment    constr
_refine_ls_matrix_type           full
_refine_ls_number_parameters     101
_refine_ls_number_reflns         2462
_refine_ls_number_restraints     0
_refine_ls_restrained_S_all      1.103
_refine_ls_R_factor_all          0.0425
_refine_ls_R_factor_gt           0.0381
_refine_ls_shift/su_max          0.000
_refine_ls_shift/su_mean         0.000
_refine_ls_structure_factor_coef Fsqd
_refine_ls_weighting_details
'w=1/[\s^2^(Fo^2^)+(0.0544P)^2^+0.1917P] where P=(Fo^2^+2Fc^2^)/3'
_refine_ls_weighting_scheme      calc
_refine_ls_wR_factor_gt          0.0999
_refine_ls_wR_factor_ref         0.1034
_reflns_Friedel_coverage         0.000
_reflns_number_gt                2204
_reflns_number_total             2462
_reflns_threshold_expression     'I > 2\s(I)'
_cod_data_source_file            cs7b01748_si_002.cif
_cod_data_source_block           mo_vlab20A_0m
_cod_depositor_comments
;
The following automatic conversions were performed:

'_symmetry_cell_setting' value 'Monoclinic' changed to 'monoclinic'
according to
/home/data/users/saulius/crontab/automatic-downloads/rss-feeds/ACS/lib/dictionaries/cif_core.dic
dictionary named 'cif_core.dic' version 2.4.2 from 2011-04-26.

Automatic conversion script
Id: cif_fix_values 4973 2017-02-22 13:04:09Z antanas 

 Adding full bibliography for 4514166--4514168.cif.
;
_cod_original_sg_symbol_H-M      P2(1)/n
_cod_database_code               4514168
_shelx_shelxl_version_number     2014/7
_shelx_space_group_comment
;
The symmetry employed for this shelxl refinement is uniquely defined
by the following loop, which should always be used as a source of
symmetry information in preference to the above space-group names.
They are only intended as comments.
;
_shelx_estimated_absorpt_t_min   0.954
_shelx_estimated_absorpt_t_max   0.976
_shelx_res_file
;
    mo_vlab20A_0m.res created by SHELXL-2014/7
TITL mo_vlab20A_0m in P2(1)/n
CELL 0.71073   8.38140   7.02960  12.34990  90.0000  96.2862  90.0000
ZERR    4.00   0.00040   0.00030   0.00050   0.0000   0.0012   0.0000
LATT  1
SYMM 0.5-X, 0.5+Y, 0.5-Z
SFAC C H O
UNIT 28 40 16
LIST 4
TEMP -173.150
SIZE 0.20 0.20 0.40
ACTA
CONF
L.S. 16
BOND
FMAP 2
PLAN 5
WGHT    0.054400    0.191700
FVAR       0.28473
MOLE   1
O1    3    1.142275    0.319950   -0.012096    11.00000    0.02327    0.02227 =
         0.01239    0.00017    0.00567   -0.00646
O2    3    0.944699    0.186526    0.071391    11.00000    0.01447    0.01302 =
         0.00870    0.00058    0.00085   -0.00305
O3    3    1.102172    0.405744    0.158135    11.00000    0.01687    0.01411 =
         0.01151   -0.00168    0.00297   -0.00550
O4    3    0.911748   -0.156114    0.218832    11.00000    0.02569    0.00953 =
         0.01312   -0.00101    0.00539   -0.00487
AFIX 147
H4    2    0.912338   -0.182503    0.152540    11.00000   -1.50000
AFIX   0
C1    1    1.068902    0.305438    0.066131    11.00000    0.01477    0.01209 =
         0.01106    0.00102    0.00054   -0.00196
C2    1    0.908358    0.183544    0.184766    11.00000    0.01142    0.01052 =
         0.00852    0.00036    0.00158   -0.00040
AFIX  13
H2    2    0.790099    0.171688    0.188097    11.00000   -1.20000
AFIX   0
C3    1    0.967214    0.379780    0.223250    11.00000    0.01346    0.00946 =
         0.01151   -0.00034    0.00198   -0.00029
AFIX  13
H3    2    0.882295    0.476157    0.200645    11.00000   -1.20000
AFIX   0
C4    1    1.020290    0.401366    0.343794    11.00000    0.01816    0.01271 =
         0.01160   -0.00311    0.00129   -0.00012
AFIX  23
H4A   2    0.924504    0.422094    0.382629    11.00000   -1.20000
H4B   2    1.089359    0.515447    0.355132    11.00000   -1.20000
AFIX   0
C5    1    1.112280    0.228997    0.393089    11.00000    0.01557    0.01662 =
         0.01188   -0.00087   -0.00127   -0.00017
AFIX  23
H5A   2    1.131374    0.243584    0.473192    11.00000   -1.20000
H5B   2    1.217792    0.220730    0.364354    11.00000   -1.20000
AFIX   0
C6    1    1.016760    0.046650    0.365115    11.00000    0.01612    0.01367 =
         0.00991    0.00166    0.00146    0.00057
AFIX  23
H6A   2    1.073726   -0.063317    0.401463    11.00000   -1.20000
H6B   2    0.909871    0.056366    0.391758    11.00000   -1.20000
AFIX   0
C7    1    0.997084    0.016526    0.242647    11.00000    0.01310    0.00831 =
         0.01078    0.00078    0.00238   -0.00003
AFIX  13
H7    2    1.105762    0.005685    0.216902    11.00000   -1.20000
AFIX   0
HKLF 4
REM  mo_vlab20A_0m in P2(1)/n
REM R1 =  0.0381 for    2204 Fo > 4sig(Fo)  and  0.0425 for all    2462 data
REM    101 parameters refined using      0 restraints
END
WGHT      0.0544      0.1917
REM Highest difference peak  0.330,  deepest hole -0.371,  1-sigma level  0.090
Q1    1   0.9602  0.1041  0.2161  11.00000  0.05    0.33
Q2    1   1.0076  0.0321  0.3058  11.00000  0.05    0.32
Q3    1   0.9371  0.2797  0.2081  11.00000  0.05    0.30
Q4    1   0.9969  0.3873  0.2831  11.00000  0.05    0.29
Q5    1   1.0663  0.1346  0.3770  11.00000  0.05    0.25
;
_shelx_res_checksum              17192
_shelx_hkl_file
;
  -1   0   0   -1.48    0.01
   1   0   0   -1.50    0.01
  -2   0   0  994.86   25.71
   2   0   0 1000.00   25.69
  -3   0   0   -0.02    0.02
  -3   0   0    0.05    0.03
  -4   0   0   56.72    1.53
  -4   0   0   55.75    1.51
   6   0   0   33.89    0.92
  -6   0   0   36.70    1.06
  -6   0   0   35.86    1.02
  -6   0   0   34.61    1.02
  -8   0   0    4.43    0.24
  -9   0   0   -0.01    0.05
 -10   0   0    8.01    0.39
 -11   0   0    0.06    0.07
   0  -1   0   -0.12    0.01
   0  -1   0   -0.12    0.01
   0  -1   0   -0.13    0.00
   0  -1   0   -0.13    0.00
   0   1   0   -0.12    0.01
   0   1   0   -0.13    0.01
   0   1   0   -0.14    0.00
   0   1   0   -0.14    0.01
  -1  -1   0    9.32    0.28
   1  -1   0    8.73    0.25
   1  -1   0    9.21    0.26
  -1  -1   0    9.45    0.25
   1  -1   0    8.83    0.26
  -1  -1   0    8.73    0.27
   1  -1   0    8.52    0.26
  -1   1   0    9.05    0.26
   1   1   0    9.12    0.25
   1   1   0    9.27    0.27
  -1   1   0    9.51    0.25
  -1   1   0    9.12    0.26
   1   1   0    9.34    0.28
  -1   1   0    9.34    0.24
   1   1   0    8.88    0.28
  -1   1   0    9.21    0.26
   2  -1   0  249.34    5.93
   2  -1   0  242.46    5.92
  -2  -1   0  196.29    5.91
  -2  -1   0  243.45    5.94
   2   1   0  251.37    5.93
   2   1   0  253.04    5.92
  -2   1   0  212.46    5.94
  -2   1   0  246.91    5.93
  -2   1   0  198.91    5.96
  -3  -1   0   39.00    1.07
  -3  -1   0   38.92    1.06
   3  -1   0   38.26    1.03
   3  -1   0   37.62    1.02
  -3   1   0   39.19    1.03
  -3   1   0   38.98    1.07
   3   1   0   40.38    1.05
  -4  -1   0    0.68    0.08
  -4  -1   0    0.68    0.08
   4  -1   0    0.77    0.05
  -4  -1   0    0.70    0.08
   4   1   0    0.79    0.07
  -4   1   0    0.88    0.06
  -4   1   0    0.65    0.09
  -5  -1   0    9.17    0.34
  -5  -1   0    8.87    0.34
   5  -1   0    8.49    0.27
  -5  -1   0    8.61    0.34
  -5   1   0    8.48    0.35
  -5   1   0    9.26    0.31
   5   1   0    9.41    0.31
  -6  -1   0   49.25    1.39
   6  -1   0   46.12    1.28
  -6  -1   0   46.99    1.39
  -6  -1   0   49.93    1.40
  -6   1   0   51.41    1.35
  -6   1   0   48.67    1.41
   6   1   0   49.43    1.34
  -7  -1   0    0.02    0.04
  -7  -1   0   -0.08    0.03
  -7   1   0    0.02    0.04
  -7   1   0    0.02    0.03
   7   1   0    0.01    0.03
  -8  -1   0    3.13    0.22
  -8   1   0    3.22    0.19
  -9  -1   0    1.48    0.18
  -9   1   0    1.32    0.15
 -10  -1   0    1.17    0.17
 -10   1   0    0.87    0.13
 -11  -1   0    4.20    0.30
  11   1   0    3.91    0.31
 -11   1   0    4.15    0.27
 -12  -1   0    0.27    0.15
  12   1   0    0.47    0.16
   0  -2   0   88.64    2.23
   0  -2   0   82.90    2.29
   0  -2   0   86.42    2.27
   0  -2   0   90.74    2.27
   0   2   0   93.06    2.28
   0   2   0   84.67    2.29
   0   2   0   85.91    2.27
   0   2   0   88.76    2.23
   1  -2   0   62.97    1.73
  -1  -2   0   67.96    1.73
   1  -2   0   66.13    1.68
   1  -2   0   67.90    1.68
  -1  -2   0   65.98    1.72
  -1  -2   0   67.25    1.77
  -1  -2   0   66.10    1.67
   1  -2   0   66.21    1.69
   1  -2   0   63.20    1.70
  -1   2   0   64.37    1.69
   1   2   0   65.68    1.73
  -1   2   0   65.85    1.70
  -1   2   0   65.20    1.68
   1   2   0   66.35    1.73
   1   2   0   65.13    1.74
   1   2   0   65.00    1.67
  -1   2   0   62.91    1.73
   2  -2   0   18.95    0.57
   2  -2   0   18.59    0.53
  -2  -2   0   18.95    0.53
   2  -2   0   17.74    0.55
  -2  -2   0   19.17    0.58
   2  -2   0   20.45    0.53
  -2   2   0   19.26    0.52
  -2   2   0   18.97    0.53
   2   2   0   18.40    0.57
  -2   2   0   19.51    0.51
   2   2   0   19.80    0.57
  -2   2   0   18.64    0.55
   2   2   0   19.54    0.57
   2   2   0   18.83    0.53
   3  -2   0   53.04    1.36
  -3  -2   0   51.88    1.38
   3  -2   0   50.26    1.38
  -3   2   0   52.54    1.36
  -3   2   0   51.65    1.34
   3   2   0   51.52    1.41
  -3   2   0   52.23    1.36
   3   2   0   50.71    1.40
  -4  -2   0  116.36    2.95
  -4  -2   0  110.41    2.99
   4  -2   0  105.99    2.92
  -4   2   0  117.11    2.89
  -4   2   0  113.14    2.89
   4   2   0  114.44    2.97
  -5  -2   0    0.30    0.07
  -5  -2   0    0.35    0.07
  -5  -2   0    0.36    0.08
   5   2   0    0.34    0.06
  -5   2   0    0.37    0.05
  -6  -2   0   45.11    1.30
  -6  -2   0   42.19    1.25
  -6  -2   0   43.57    1.28
   6   2   0   43.05    1.24
  -6   2   0   44.20    1.19
  -7  -2   0    1.41    0.17
  -7  -2   0    1.28    0.15
   7   2   0    1.08    0.12
  -7   2   0    1.40    0.10
  -8  -2   0   13.67    0.54
  -8   2   0   13.57    0.45
   8   2   0   12.46    0.47
  -9  -2   0    0.63    0.13
   9   2   0    0.75    0.15
  -9   2   0    0.39    0.08
 -10  -2   0    5.74    0.35
  10   2   0    5.28    0.35
 -10   2   0    5.40    0.28
 -11  -2   0    1.16    0.19
  11   2   0    1.18    0.21
 -11   2   0    1.14    0.14
 -12  -2   0    0.88    0.21
  12   2   0    1.00    0.21
   0   3   0   -0.02    0.01
   0   3   0   -0.03    0.03
   0   3   0    0.20    0.05
   0   3   0   -0.05    0.02
  -1  -3   0    3.56    0.11
   1  -3   0    3.39    0.12
   1  -3   0    3.45    0.13
  -1   3   0    3.37    0.14
   1   3   0    3.52    0.17
   1   3   0    3.34    0.18
  -1   3   0    3.44    0.14
  -1   3   0    3.34    0.12
   1   3   0    3.25    0.12
   1   3   0    3.26    0.16
  -1   3   0    3.13    0.17
  -2  -3   0    0.86    0.05
   2  -3   0    0.70    0.06
   2   3   0    0.76    0.09
   2   3   0    0.74    0.09
  -2   3   0    0.81    0.06
   2   3   0    0.67    0.09
   2   3   0    0.81    0.05
  -2   3   0    0.80    0.06
  -2   3   0    0.80    0.06
  -2   3   0    0.63    0.08
  -3  -3   0    8.32    0.28
   3   3   0    8.38    0.34
   3   3   0    8.31    0.33
  -3   3   0    8.74    0.27
  -3   3   0    8.46    0.30
   3   3   0    8.41    0.28
   3   3   0    8.95    0.34
  -3   3   0    8.53    0.26
  -4  -3   0    9.41    0.32
  -4   3   0    9.57    0.31
  -4   3   0    9.09    0.28
   4   3   0    8.97    0.37
  -5  -3   0   57.05    1.56
  -5  -3   0   56.52    1.63
   5   3   0   56.72    1.63
   5   3   0   55.47    1.61
  -5   3   0   60.41    1.51
  -5   3   0   56.48    1.50
  -6   3   0    1.37    0.09
  -7  -3   0   50.58    1.47
  -7  -3   0   52.17    1.53
   7   3   0   50.65    1.54
  -7   3   0   52.28    1.39
   7   3   0   50.92    1.48
  -8  -3   0    0.99    0.16
  -8   3   0    0.73    0.09
   8   3   0    0.71    0.14
   8   3   0    0.70    0.12
  -9  -3   0    1.08    0.17
  -9   3   0    1.36    0.12
   9   3   0    1.04    0.18
 -10  -3   0    0.14    0.10
 -10   3   0    0.01    0.04
  10   3   0    0.00    0.08
 -11  -3   0    0.90    0.19
  11   3   0    0.57    0.16
 -11   3   0    0.77    0.12
   0  -4   0   25.09    0.65
   0  -4   0   23.82    0.65
   0   4   0   24.75    0.74
   0   4   0   24.19    0.73
   0   4   0   24.21    0.78
   0   4   0   25.24    0.66
   1  -4   0   10.52    0.31
   1  -4   0    9.94    0.30
   1  -4   0    9.72    0.28
   1   4   0   10.05    0.37
  -1   4   0    9.66    0.34
   1   4   0   10.02    0.36
   1   4   0    9.32    0.39
  -1   4   0    9.63    0.29
  -1   4   0   10.29    0.34
   1   4   0    9.41    0.29
  -1   4   0    9.84    0.39
  -2  -4   0    6.70    0.20
   2  -4   0    6.86    0.22
   2   4   0    6.62    0.29
   2   4   0    5.71    0.30
   2   4   0    6.41    0.23
  -2   4   0    6.72    0.24
   2   4   0    6.58    0.29
  -2   4   0    6.29    0.28
  -2   4   0    7.15    0.25
  -2   4   0    6.49    0.22
  -3  -4   0   10.37    0.32
   3   4   0   10.30    0.41
  -3   4   0   11.09    0.34
   3   4   0    9.78    0.42
  -3   4   0   11.15    0.34
   3   4   0   10.50    0.32
  -3   4   0   10.49    0.39
   3   4   0   10.56    0.42
  -4  -4   0    2.34    0.12
  -4  -4   0    2.25    0.17
   4   4   0    2.39    0.18
  -4   4   0    2.31    0.14
   4   4   0    2.27    0.18
  -4   4   0    2.16    0.11
  -4   4   0    2.35    0.12
  -5  -4   0    4.13    0.19
  -5  -4   0    3.64    0.24
  -5   4   0    3.94    0.16
  -5   4   0    4.12    0.19
   5   4   0    4.08    0.25
   5   4   0    3.98    0.25
  -6  -4   0    5.08    0.24
  -6  -4   0    4.74    0.28
  -6   4   0    5.00    0.19
   6   4   0    4.49    0.28
   6   4   0    4.79    0.29
  -6   4   0    5.14    0.20
  -7  -4   0    9.67    0.46
  -7   4   0   10.49    0.33
   7   4   0    9.75    0.47
   7   4   0    9.76    0.44
  -8  -4   0    1.79    0.22
   8   4   0    1.37    0.20
   8   4   0    1.40    0.18
  -8   4   0    1.60    0.11
  -9  -4   0    0.72    0.16
  -9   4   0    0.80    0.10
   9   4   0    0.41    0.14
 -10  -4   0    0.82    0.17
 -10   4   0    0.63    0.10
  10   4   0    0.62    0.17
  11   4   0    4.99    0.40
   0  -5   0    0.06    0.04
   0  -5   0    0.04    0.02
   0   5   0    0.01    0.04
   0   5   0    0.08    0.05
   0   5   0    0.06    0.04
   0   5   0    0.04    0.02
   1  -5   0  124.18    3.13
  -1  -5   0  118.68    3.20
   1  -5   0  121.84    3.10
   1   5   0  121.35    3.12
   1   5   0  124.88    3.23
  -1   5   0  126.07    3.11
   1   5   0  125.76    3.25
  -1   5   0  122.75    3.21
   1   5   0  116.74    3.28
  -1   5   0  116.47    3.27
  -1   5   0  117.62    3.19
  -2  -5   0    0.38    0.08
   2  -5   0    0.52    0.05
  -2   5   0    0.46    0.07
   2   5   0    0.48    0.10
   2   5   0    0.43    0.06
   2   5   0    0.33    0.08
   2   5   0    0.44    0.09
  -2   5   0    0.35    0.08
  -2   5   0    0.47    0.08
  -3  -5   0   33.33    1.01
   3   5   0   32.22    1.02
   3   5   0   32.30    0.92
  -3   5   0   33.23    0.92
   3   5   0   31.45    1.05
   3   5   0   33.94    1.03
  -3   5   0   32.68    0.93
  -3   5   0   32.07    1.00
  -4  -5   0    1.93    0.20
  -4   5   0    1.71    0.11
  -4   5   0    1.65    0.11
   4   5   0    1.98    0.20
   4   5   0    1.83    0.17
  -4   5   0    1.62    0.14
  -5  -5   0    0.07    0.06
   5   5   0    0.08    0.06
  -5   5   0    0.06    0.03
   5   5   0    0.00    0.06
  -5   5   0    0.11    0.04
  -5   5   0    0.06    0.04
  -6  -5   0    5.29    0.32
  -6   5   0    5.06    0.21
   6   5   0    5.28    0.32
   6   5   0    5.86    0.35
  -6   5   0    5.34    0.23
  -7  -5   0    0.04    0.08
   7   5   0    0.02    0.07
   7   5   0   -0.07    0.05
  -7   5   0    0.03    0.03
   8   5   0    1.43    0.21
   8   5   0    1.71    0.21
  -8   5   0    1.57    0.11
   9   5   0    9.89    0.54
  -9   5   0   10.78    0.37
  10   5   0    2.64    0.33
 -10   5   0    2.98    0.17
   0   6   0   23.27    0.62
   0   6   0   22.58    0.81
   0   6   0   22.45    0.76
   0   6   0   23.72    0.75
   1   6   0    3.20    0.22
   1   6   0    3.06    0.21
   1   6   0    3.38    0.25
  -1   6   0    3.32    0.20
  -1   6   0    3.33    0.24
  -1   6   0    3.21    0.13
   1   6   0    3.43    0.13
  -1   6   0    3.19    0.19
   2   6   0    3.45    0.15
  -2   6   0    3.74    0.19
   2   6   0    2.95    0.24
  -2   6   0    3.73    0.21
  -2   6   0    2.96    0.23
   2   6   0    3.56    0.23
   2   6   0    3.35    0.23
   3   6   0   11.71    0.53
   3   6   0   11.76    0.39
   3   6   0   12.41    0.51
  -3   6   0   11.53    0.48
   3   6   0   11.99    0.50
  -3   6   0   11.73    0.41
  -3   6   0   12.64    0.44
  -4   6   0    1.15    0.10
  -4   6   0    1.04    0.14
   4   6   0    1.15    0.18
  -4   6   0    1.30    0.13
   4   6   0    0.96    0.16
   4   6   0    1.03    0.12
   5   6   0    5.80    0.37
  -5   6   0    6.89    0.27
   5   6   0    7.18    0.30
  -5   6   0    6.52    0.27
  -5   6   0    6.30    0.30
   5   6   0    6.46    0.37
  -6   6   0    1.89    0.12
   6   6   0    1.68    0.22
   6   6   0    2.02    0.25
  -6   6   0    1.96    0.15
   7   6   0    1.19    0.19
  -7   6   0    1.67    0.11
   7   6   0    1.27    0.21
   8   6   0    3.32    0.28
   8   6   0    3.45    0.31
  -8   6   0    3.58    0.17
  -9   6   0    2.14    0.13
   9   6   0    1.93    0.29
 -10   6   0    1.17    0.11
   0   7   0    0.18    0.07
   0   7   0    0.20    0.08
   0   7   0    0.15    0.06
   1   7   0    2.85    0.25
  -1   7   0    3.14    0.22
   1   7   0    2.90    0.21
  -1   7   0    3.03    0.20
  -1   7   0    3.03    0.24
   1   7   0    2.90    0.22
   2   7   0    1.21    0.20
   2   7   0    1.82    0.21
   2   7   0    1.21    0.17
  -2   7   0    1.20    0.18
  -2   7   0    1.41    0.14
  -2   7   0    1.35    0.15
   3   7   0    0.19    0.10
  -3   7   0    0.18    0.08
   3   7   0    0.15    0.08
   3   7   0    0.05    0.06
  -3   7   0    0.16    0.06
  -3   7   0    0.16    0.06
  -4   7   0    1.98    0.16
  -4   7   0    2.19    0.19
   4   7   0    2.27    0.26
   4   7   0    1.58    0.22
   5   7   0    0.34    0.12
  -5   7   0    0.36    0.10
  -5   7   0    0.35    0.08
   5   7   0    0.34    0.13
  -6   7   0    0.99    0.11
   6   7   0    0.79    0.17
   6   7   0    0.96    0.19
  -6   7   0    1.00    0.14
   7   7   0    0.31    0.13
  -7   7   0    0.45    0.07
   7   7   0    0.28    0.13
   8   7   0    6.01    0.42
  -8   7   0    6.42    0.23
   8   7   0    5.53    0.41
   0   8   0   10.62    0.45
   0   8   0    9.48    0.51
   0   8   0    9.63    0.45
  -1   8   0    1.40    0.17
   1   8   0    1.07    0.16
   1   8   0    1.04    0.19
  -1   8   0    1.04    0.14
   1   8   0    1.05    0.17
  -1   8   0    1.20    0.20
  -2   8   0    0.59    0.12
  -2   8   0    0.43    0.13
  -2   8   0    0.66    0.11
   2   8   0    0.59    0.14
   2   8   0    0.43    0.14
   2   8   0    0.81    0.15
   3   8   0    6.29    0.43
   3   8   0    6.59    0.39
  -3   8   0    6.98    0.40
  -3   8   0    6.75    0.33
  -4   8   0    5.20    0.33
  -4   8   0    4.96    0.27
   4   8   0    5.15    0.38
   4   8   0    4.99    0.35
  -5   8   0    3.38    0.25
   5   8   0    3.08    0.35
  -5   8   0    3.38    0.21
   5   8   0    3.36    0.29
   6   8   0    7.68    0.49
  -6   8   0    8.01    0.32
   6   8   0    8.20    0.49
   7   8   0    0.01    0.11
  -7   8   0   -0.02    0.04
   7   8   0   -0.02    0.11
   8   8   0    6.82    0.47
   0   9   0    0.05    0.07
   0   9   0    0.02    0.09
   0   9   0    0.05    0.07
  -1   9   0   14.76    0.69
   1   9   0   14.12    0.69
  -1   9   0   14.33    0.60
   1   9   0   14.34    0.62
   1   9   0   15.32    0.61
  -2   9   0    0.07    0.09
  -2   9   0    0.06    0.07
   2   9   0   -0.03    0.08
   2   9   0   -0.01    0.08
  -3   9   0    7.05    0.35
   3   9   0    6.77    0.41
   3   9   0    6.29    0.45
  -3   9   0    6.94    0.42
  -4   9   0    0.28    0.09
   4   9   0    0.27    0.15
   4   9   0    0.39    0.15
  -4   9   0    0.16    0.10
   5   9   0   -0.01    0.09
  -5   9   0   -0.01    0.06
  -5   9   0    0.10    0.09
   5   9   0   -0.01    0.11
   0  10   0    9.63    0.58
  -1  10   0    4.28    0.51
  -1  10   0    4.86    0.40
  -2  10   0    3.57    0.34
   2  10   0    3.85    0.32
   3  10   0   11.37    0.59
  -3  10   0   11.62    0.67
 -12   0   1   -0.02    0.12
 -11   0   1    0.31    0.10
 -10   0   1   -0.03    0.06
  -9   0   1    3.16    0.22
  -9   0   1    3.03    0.25
  -8   0   1   -0.02    0.04
  -8   0   1   -0.01    0.05
  -7   0   1   21.39    0.69
  -7   0   1   21.41    0.72
  -7   0   1   20.16    0.67
  -6   0   1    0.04    0.04
  -6   0   1   -0.04    0.03
  -6   0   1    0.03    0.04
  -5   0   1  115.95    2.96
  -5   0   1  109.39    2.99
  -4   0   1   -0.05    0.02
  -4   0   1   -0.05    0.02
  -3   0   1  105.07    2.73
  -3   0   1  104.39    2.70
  -2   0   1   -0.24    0.02
  -2   0   1   -0.23    0.01
   2   0  -1   -0.24    0.01
   2   0  -1   -0.25    0.01
  -2   0   1   -0.23    0.02
  -1   0   1  118.86    2.90
   1   0  -1  110.06    2.90
  -1   0   1  113.81    2.90
  -1   0   1  110.09    2.90
   0   0   1   -0.19    0.00
   0   0   1   -0.18    0.01
   0   0  -1   -0.19    0.00
   0   0  -1   -0.19    0.00
   0   0  -1   -0.19    0.00
   0   0   1   -0.19    0.00
  -1   0  -1  148.52    3.95
   1   0   1  148.53    3.94
   1   0   1  159.44    4.05
   1   0   1  164.57    4.00
  -1   0  -1  152.88    4.05
  -2   0  -1    0.01    0.01
   2   0   1   -0.03    0.01
   2   0   1    0.01    0.01
   2   0   1    0.03    0.01
  -3   0  -1    1.19    0.08
   3   0   1    1.30    0.05
  -4   0  -1    0.00    0.02
   4   0   1    0.03    0.01
   5   0   1    8.10    0.25
  -5   0  -1    8.34    0.31
   6   0   1    0.01    0.02
   6   0   1    0.00    0.01
  -6   0  -1    0.17    0.05
  -7   0  -1    5.39    0.26
   7   0   1    5.51    0.18
  -8   0  -1    0.05    0.05
  -9   0  -1   23.79    0.80
 -10   0  -1    0.01    0.06
 -11   0  -1    7.92    0.40
  11   0   1    7.63    0.42
 -12  -1   1    0.25    0.13
  12   1  -1    0.29    0.14
 -11  -1   1    3.60    0.27
 -11   1   1    3.23    0.23
 -10  -1   1    1.20    0.18
 -10   1   1    0.83    0.13
  -9  -1   1    1.68    0.19
  -9  -1   1    1.58    0.20
  -9   1   1    1.69    0.15
  -8  -1   1    3.84    0.24
  -8  -1   1    3.75    0.25
  -8   1   1    3.76    0.21
  -8   1   1    3.65    0.25
   8   1  -1    3.60    0.20
  -7  -1   1    0.76    0.12
  -7  -1   1    1.12    0.15
  -7   1   1    1.51    0.11
  -7   1   1    1.09    0.15
  -7   1   1    1.29    0.13
   7   1  -1    1.11    0.10
  -6  -1   1    1.98    0.15
  -6  -1   1    1.94    0.16
  -6  -1   1    1.65    0.14
  -6   1   1    2.31    0.13
  -6   1   1    1.98    0.16
  -6   1   1    1.89    0.12
  -5  -1   1   25.20    0.77
  -5  -1   1   24.39    0.77
  -5   1   1   25.00    0.78
  -5   1   1   26.07    0.72
   4  -1  -1    0.93    0.06
  -4  -1   1    1.14    0.11
  -4  -1   1    1.17    0.10
   3  -1  -1   19.08    0.56
  -3  -1   1   20.62    0.60
  -3  -1   1   21.40    0.61
   3   1  -1   20.44    0.60
  -3   1   1   21.24    0.60
  -3   1   1   20.31    0.60
   2  -1  -1   78.50    2.01
   2  -1  -1   71.23    1.99
   2  -1  -1   78.51    1.99
   2  -1  -1   73.24    2.01
  -2  -1   1   78.64    2.01
  -2  -1   1   77.66    2.03
   2   1  -1   76.90    2.01
  -2   1   1   77.50    2.01
  -2   1   1   79.23    1.98
   2   1  -1   78.13    2.00
  -2   1   1   78.57    1.99
   2   1  -1   78.16    2.02
  -2   1   1   78.91    2.02
  -1  -1   1  163.59    4.19
   1  -1  -1  165.66    4.23
   1  -1  -1  171.64    4.19
   1  -1  -1  169.31    4.19
   1  -1  -1  149.19    4.23
  -1   1   1  176.98    4.19
  -1   1   1  169.97    4.27
   1   1  -1  158.44    4.18
   1   1  -1  167.53    4.18
   1   1  -1  164.68    4.21
  -1   1   1  154.51    4.35
   0  -1   1   43.23    1.17
   0  -1  -1   44.21    1.16
   0  -1  -1   43.18    1.16
   0  -1  -1   44.30    1.16
   0  -1  -1   44.47    1.14
   0  -1  -1   43.35    1.18
   0  -1   1   47.22    1.18
   0   1   1   45.15    1.17
   0   1   1   45.35    1.16
   0   1   1   45.82    1.15
   0   1   1   45.09    1.16
   0   1  -1   44.78    1.18
   0   1  -1   44.61    1.17
   1  -1   1  288.90    6.85
  -1  -1  -1  265.68    6.90
  -1  -1  -1  280.17    6.88
  -1  -1  -1  266.96    6.80
   1  -1   1  253.56    6.72
  -1   1  -1  252.56    6.83
   1   1   1  266.56    6.76
  -1   1  -1  248.04    6.72
   1   1   1  267.83    6.75
   1   1   1  252.58    6.85
   1   1   1  268.22    6.89
  -1   1  -1  250.23    6.82
  -2  -1  -1   77.94    1.98
   2  -1   1   75.76    1.97
   2  -1   1   76.05    1.93
  -2  -1  -1   75.13    1.96
   2  -1   1   73.88    1.94
   2   1   1   74.66    1.96
   2   1   1   75.66    1.98
  -2   1  -1   76.89    1.95
  -2   1  -1   74.64    1.93
   2   1   1   76.40    1.96
  -3  -1  -1   14.38    0.47
  -3  -1  -1   14.75    0.46
   3  -1   1   14.86    0.42
  -3   1  -1   15.48    0.44
   3   1   1   15.28    0.45
  -3   1  -1   17.06    0.40
  -4  -1  -1   59.26    1.57
  -4  -1  -1   58.00    1.57
   4  -1   1   57.08    1.49
   4   1   1   57.10    1.53
  -4   1  -1   58.64    1.54
   5  -1   1   25.29    0.70
  -5  -1  -1   28.29    0.81
  -5  -1  -1   27.09    0.80
  -5   1  -1   26.03    0.76
   5   1   1   27.23    0.75
  -6  -1  -1    4.68    0.24
  -6  -1  -1    4.94    0.25
   6  -1   1    4.57    0.15
  -6   1  -1    5.03    0.22
   6   1   1    4.81    0.19
  -7  -1  -1    2.85    0.19
   7   1   1    2.65    0.14
  -7   1  -1    2.71    0.16
  -8  -1  -1   23.90    0.79
  -8   1  -1   23.30    0.75
  -9  -1  -1    0.53    0.12
  -9   1  -1    0.41    0.09
   9   1   1    0.63    0.13
 -10  -1  -1    2.94    0.24
 -10   1  -1    3.19    0.22
  10   1   1    3.16    0.26
 -11  -1  -1    2.04    0.24
 -11   1  -1    2.56    0.21
  11   1   1    2.21    0.27
  12   1   1    0.08    0.13
 -12  -2   1    0.18    0.13
  12   2  -1    0.13    0.13
 -11  -2   1    0.55    0.14
 -11   2   1    0.50    0.10
  11   2  -1    0.63    0.16
 -10  -2   1    1.15    0.19
 -10   2   1    1.04    0.13
  -9  -2   1    3.43    0.25
  -9  -2   1    2.94    0.24
  -9   2   1    3.34    0.19
  -8  -2   1    0.45    0.11
  -8  -2   1    0.22    0.08
   8   2  -1    0.56    0.10
  -8   2   1    0.54    0.08
  -7  -2   1    1.12    0.15
  -7  -2   1    1.39    0.16
  -7   2   1    1.19    0.10
   7   2  -1    1.29    0.14
  -7   2   1    1.17    0.16
  -7   2   1    1.13    0.11
  -6  -2   1    1.32    0.15
  -6  -2   1    1.00    0.14
  -6   2   1    1.17    0.08
  -6   2   1    1.04    0.13
   6   2  -1    1.30    0.12
  -5  -2   1    4.51    0.24
  -5  -2   1    4.58    0.22
  -5   2   1    4.65    0.17
  -5   2   1    4.53    0.23
   5   2  -1    4.67    0.22
  -4  -2   1   34.51    1.01
  -4  -2   1   36.26    1.05
  -4   2   1   34.73    1.03
   4   2  -1   35.88    1.03
  -4   2   1   35.18    0.94
  -4   2   1   38.82    0.96
  -3  -2   1    5.96    0.22
   3   2  -1    5.84    0.24
  -3   2   1    6.25    0.23
  -3   2   1    5.87    0.20
  -3   2   1    5.81    0.23
  -3   2   1    5.98    0.21
   3   2  -1    5.90    0.24
  -3   2   1    5.82    0.17
   2  -2  -1   30.58    0.81
   2  -2  -1   29.63    0.82
  -2  -2   1   29.59    0.86
   2  -2  -1   29.98    0.82
  -2  -2   1   29.90    0.81
  -2   2   1   28.90    0.82
   2   2  -1   29.91    0.85
  -2   2   1   30.15    0.82
   2   2  -1   29.16    0.85
  -2   2   1   30.84    0.81
  -2   2   1   29.56    0.82
   2   2  -1   30.68    0.81
  -1  -2   1   67.29    1.72
   1  -2  -1   69.43    1.70
   1  -2  -1   66.79    1.72
   1  -2  -1   63.21    1.76
   1  -2  -1   65.40    1.72
   1  -2  -1   66.82    1.69
  -1  -2   1   67.65    1.77
  -1   2   1   69.21    1.72
   1   2  -1   67.11    1.78
  -1   2   1   67.48    1.72
   1   2  -1   64.45    1.71
  -1   2   1   68.70    1.73
  -1   2   1   61.26    1.75
  -1   2   1   67.53    1.74
   1   2  -1   66.05    1.77
   1   2  -1   68.01    1.75
   0  -2  -1  147.53    3.79
   0  -2  -1  134.76    3.74
   0  -2   1  150.55    3.78
   0  -2  -1  151.10    3.76
   0  -2  -1  144.94    3.77
   0  -2   1  153.22    3.79
   0  -2   1  149.23    3.81
   0   2   1  150.97    3.78
   0   2  -1  149.59    3.78
   0   2   1  151.66    3.80
   0   2  -1  142.29    3.81
   0   2   1  152.03    3.77
   0   2   1  145.11    3.81
   0   2  -1  148.10    3.80
   1  -2   1  173.47    4.90
   1  -2   1  208.51    4.96
  -1  -2  -1  200.18    4.95
  -1  -2  -1  210.71    4.95
   1  -2   1  160.88    4.90
  -1  -2  -1  195.96    4.99
   1   2   1  214.38    4.96
   1   2   1  213.01    4.95
   1   2   1  201.74    4.92
  -1   2  -1  201.26    4.96
   1   2   1  172.57    4.89
   1   2   1  198.99    4.97
  -1   2  -1  164.60    4.90
   2  -2   1  268.93    7.48
   2  -2   1  347.66    7.48
   2  -2   1  276.43    7.49
  -2  -2  -1  347.62    7.53
  -2   2  -1  265.37    7.56
  -2   2  -1  261.24    7.50
   2   2   1  280.13    7.52
  -2   2  -1  292.31    7.55
   2   2   1  311.35    7.47
  -3  -2  -1   87.06    2.31
   3  -2   1   84.46    2.26
  -3  -2  -1   84.43    2.31
   3  -2   1   86.29    2.24
  -3  -2  -1   86.11    2.27
  -3   2  -1   89.17    2.25
  -3   2  -1   86.06    2.25
   3   2   1   88.60    2.30
   3   2   1   92.34    2.32
   3   2   1   86.64    2.30
  -4  -2  -1    2.29    0.15
   4  -2   1    2.27    0.11
  -4  -2  -1    2.40    0.15
  -4  -2  -1    2.59    0.14
   4   2   1    2.26    0.14
  -4   2  -1    2.82    0.10
   4   2   1    2.55    0.16
  -4   2  -1    2.46    0.11
  -5  -2  -1   11.32    0.43
   5  -2   1   11.26    0.35
  -5  -2  -1   11.79    0.43
   5   2   1   11.42    0.40
   5   2   1   11.14    0.43
  -5   2  -1   11.57    0.36
  -6  -2  -1   10.95    0.43
   6  -2   1   10.30    0.33
  -6  -2  -1   10.06    0.43
   6   2   1   12.08    0.45
   6   2   1   10.88    0.39
  -6   2  -1   10.67    0.36
  -7  -2  -1    0.54    0.10
   7   2   1    0.67    0.09
   7   2   1    0.68    0.12
  -7   2  -1    0.89    0.10
  -8  -2  -1    0.14    0.07
  -8   2  -1    0.05    0.04
   8   2   1    0.11    0.07
  -9  -2  -1   11.14    0.49
  -9   2  -1   10.57    0.41
   9   2   1   10.42    0.49
 -10  -2  -1    0.06    0.07
 -10   2  -1    0.02    0.05
  10   2   1   -0.08    0.07
 -11  -2  -1    0.27    0.11
 -11   2  -1    0.26    0.09
  11   2   1    0.49    0.14
  12   2   1    1.84    0.26
 -11  -3   1    0.04    0.10
 -11   3   1   -0.05    0.04
  11   3  -1    0.11    0.11
 -10  -3   1    6.63    0.40
  10   3  -1    6.45    0.41
 -10   3   1    6.78    0.29
  -9  -3   1    9.95    0.45
  -9  -3   1    8.98    0.46
  -9   3   1    9.38    0.35
   9   3  -1    9.20    0.47
  -8  -3   1    2.54    0.22
  -8  -3   1    2.81    0.21
  -8   3   1    2.58    0.14
   8   3  -1    2.46    0.20
   8   3  -1    2.95    0.24
  -7  -3   1   38.46    1.21
  -7  -3   1   38.00    1.16
  -7   3   1   39.65    1.05
   7   3  -1   37.89    1.17
  -6  -3   1    1.41    0.15
  -6   3   1    1.38    0.08
   6   3  -1    1.22    0.15
  -5  -3   1   17.47    0.57
  -5   3   1   19.36    0.52
  -5   3   1   17.51    0.49
  -5   3   1   17.66    0.60
   5   3  -1   17.15    0.61
  -4  -3   1    2.09    0.13
  -4   3   1    2.15    0.08
  -4   3   1    2.04    0.11
   4   3  -1    1.93    0.15
   4   3  -1    2.39    0.16
  -4   3   1    1.98    0.11
  -4   3   1    2.38    0.15
  -3  -3   1    3.73    0.16
  -3   3   1    3.79    0.17
   3   3  -1    3.18    0.19
  -3   3   1    3.17    0.16
  -3   3   1    3.85    0.16
  -3   3   1    3.55    0.17
  -3   3   1    3.65    0.12
   3   3  -1    3.77    0.19
   3   3  -1    3.83    0.20
  -2  -3   1   23.59    0.65
   2  -3  -1   24.13    0.68
   2   3  -1   23.75    0.65
  -2   3   1   23.98    0.64
   2   3  -1   23.84    0.73
   2   3  -1   22.86    0.70
  -2   3   1   24.18    0.67
  -2   3   1   23.27    0.67
  -2   3   1   21.64    0.69
   2   3  -1   24.01    0.72
   1  -3  -1   22.38    0.62
  -1  -3   1   23.11    0.61
   1  -3  -1   22.77    0.62
   1  -3  -1   22.37    0.60
   1   3  -1   23.71    0.69
  -1   3   1   23.53    0.63
  -1   3   1   21.90    0.63
   1   3  -1   23.08    0.66
  -1   3   1   21.71    0.68
  -1   3   1   21.98    0.65
   1   3  -1   21.79    0.70
   0  -3  -1    0.62    0.06
   0  -3  -1    0.52    0.04
   0   3   1    0.55    0.08
   0   3  -1    0.44    0.06
   0   3  -1    0.45    0.05
   0   3   1    0.42    0.06
   0   3   1    0.58    0.06
   0   3  -1    0.42    0.07
   0   3   1    0.53    0.04
  -1  -3  -1  131.49    3.44
   1  -3   1  135.89    3.38
   1  -3   1  136.24    3.42
  -1   3  -1  135.24    3.44
   1   3   1  134.30    3.47
   1   3   1  130.84    3.46
  -1   3  -1  130.10    3.41
  -1   3  -1  133.47    3.48
   1   3   1  131.62    3.49
   1   3   1  132.41    3.41
   2  -3   1  211.79    5.30
   2  -3   1  205.72    5.30
  -2  -3  -1  210.71    5.36
  -2   3  -1  205.84    5.29
  -2   3  -1  205.37    5.31
   2   3   1  209.07    5.38
   2   3   1  211.38    5.28
   2   3   1  206.94    5.39
   2   3   1  207.92    5.36
  -2   3  -1  205.53    5.36
  -3  -3  -1   90.37    2.51
   3  -3   1  102.17    2.44
  -3   3  -1   94.76    2.43
  -3   3  -1   97.40    2.44
  -3   3  -1   88.90    2.48
   3   3   1   92.05    2.53
   3   3   1   95.86    2.45
   3   3   1   93.87    2.53
  -4  -3  -1  126.88    3.44
   4   3   1  129.66    3.44
  -4   3  -1  130.13    3.37
   4   3   1  133.73    3.47
  -4   3  -1  131.32    3.35
  -5  -3  -1    7.70    0.34
  -5   3  -1    7.83    0.26
  -5   3  -1    7.84    0.25
   5   3   1    7.59    0.33
   5   3   1    7.88    0.35
  -6  -3  -1    1.59    0.17
   6   3   1    1.49    0.14
   6   3   1    1.93    0.17
  -6   3  -1    1.98    0.11
  -7  -3  -1    1.04    0.15
   7   3   1    1.15    0.16
   7   3   1    1.01    0.13
  -7   3  -1    1.10    0.10
  -8  -3  -1   21.22    0.77
  -8   3  -1   21.50    0.66
   8   3   1   20.39    0.78
  -9  -3  -1    0.20    0.10
   9   3   1    0.11    0.09
  -9   3  -1    0.11    0.05
 -10  -3  -1    1.95    0.24
  10   3   1    2.17    0.27
 -10   3  -1    2.00    0.16
 -11  -3  -1    0.71    0.17
 -11   3  -1    0.68    0.12
  11   3   1    0.38    0.14
 -11  -4   1    0.08    0.12
  11   4  -1    0.03    0.11
 -11   4   1    0.04    0.05
 -10  -4   1    0.63    0.16
 -10   4   1    0.39    0.07
  10   4  -1    0.26    0.13
  -9  -4   1    1.99    0.25
  -9   4   1    1.81    0.12
   9   4  -1    2.20    0.26
  -8  -4   1    0.41    0.12
  -8  -4   1    0.44    0.10
   8   4  -1    0.57    0.12
  -8   4   1    0.53    0.07
   8   4  -1    0.67    0.14
  -8   4   1    0.67    0.08
  -7  -4   1    0.01    0.05
  -7  -4   1   -0.04    0.06
   7   4  -1   -0.02    0.05
  -7   4   1    0.04    0.02
   7   4  -1    0.04    0.06
  -6  -4   1    1.95    0.14
  -6  -4   1    1.84    0.20
  -6   4   1    2.03    0.11
  -6   4   1    1.81    0.09
   6   4  -1    1.52    0.18
   6   4  -1    2.09    0.18
  -5  -4   1   19.30    0.59
  -5   4   1   18.74    0.52
   5   4  -1   18.57    0.67
  -5   4   1   18.74    0.58
   5   4  -1   18.60    0.67
  -5   4   1   18.81    0.58
  -4  -4   1    0.02    0.03
   4   4  -1    0.07    0.05
   4   4  -1    0.06    0.05
  -4   4   1    0.02    0.02
  -4   4   1    0.03    0.03
  -4   4   1    0.02    0.03
   4   4  -1    0.07    0.05
  -3  -4   1   27.20    0.75
  -3   4   1   25.86    0.81
  -3   4   1   26.66    0.77
  -3   4   1   27.17    0.77
   3   4  -1   25.97    0.86
   3   4  -1   25.88    0.84
   3   4  -1   26.90    0.84
   3   4  -1   28.57    0.77
  -3   4   1   27.00    0.74
  -2  -4   1   53.65    1.37
  -2   4   1   53.96    1.40
   2   4  -1   52.37    1.36
  -2   4   1   51.60    1.41
   2   4  -1   51.97    1.46
   2   4  -1   52.74    1.48
   2   4  -1   47.09    1.49
  -2   4   1   51.63    1.46
  -2   4   1   53.26    1.39
  -1  -4   1    2.07    0.09
   1  -4  -1    1.96    0.09
   1  -4  -1    1.78    0.09
   1   4  -1    1.98    0.14
  -1   4   1    2.46    0.16
   1   4  -1    1.89    0.15
  -1   4   1    2.00    0.12
   1   4  -1    1.86    0.08
   1   4  -1    1.99    0.13
  -1   4   1    1.92    0.10
  -1   4   1    2.08    0.12
   0  -4  -1    8.13    0.28
   0  -4   1    8.21    0.26
   0   4   1    8.54    0.31
   0   4   1    8.71    0.35
   0   4  -1    8.07    0.30
   0   4  -1    7.90    0.32
   0   4   1    8.32    0.26
   0   4  -1    8.27    0.35
   0   4   1    8.56    0.32
  -1  -4  -1   31.86    0.91
   1   4   1   32.30    0.94
   1   4   1   31.18    0.87
   1   4   1   31.71    0.98
  -1   4  -1   30.53    0.96
   1   4   1   31.85    0.94
  -1   4  -1   34.31    0.90
  -1   4  -1   33.09    0.93
  -2  -4  -1   73.21    1.96
   2  -4   1   73.62    1.87
  -2   4  -1   70.75    1.98
  -2   4  -1   71.29    1.93
   2   4   1   72.46    1.99
   2   4   1   72.65    1.91
  -2   4  -1   73.72    1.90
   2   4   1   70.22    2.01
   2   4   1   73.79    1.98
  -3  -4  -1    0.36    0.07
   3   4   1    0.38    0.09
  -3   4  -1    0.31    0.07
   3   4   1    0.86    0.12
  -3   4  -1    0.26    0.05
   3   4   1    0.34    0.04
  -3   4  -1    0.34    0.05
  -4  -4  -1   32.77    0.99
  -4   4  -1   33.56    0.89
  -4   4  -1   31.39    0.94
   4   4   1   32.45    1.01
  -4   4  -1   32.65    0.90
   4   4   1   31.37    1.00
  -5  -4  -1    1.23    0.16
   5   4   1    1.02    0.14
  -5   4  -1    1.47    0.09
  -5   4  -1    1.19    0.10
   5   4   1    1.16    0.15
  -6  -4  -1    7.07    0.35
   6   4   1    6.38    0.33
  -6   4  -1    6.84    0.25
   6   4   1    6.64    0.36
  -6   4  -1    7.74    0.26
  -7  -4  -1    0.44    0.12
  -7   4  -1    0.39    0.06
   7   4   1    0.36    0.09
   7   4   1    0.33    0.10
  -8  -4  -1    1.08    0.18
   8   4   1    0.87    0.17
   8   4   1    1.11    0.19
  -8   4  -1    0.99    0.11
  -9  -4  -1    1.59    0.22
   9   4   1    1.88    0.25
  -9   4  -1    2.37    0.15
 -10  -4  -1    1.27    0.22
 -10   4  -1    1.23    0.14
  10   4   1    1.24    0.23
  11   4   1    0.04    0.13
  10   5  -1    3.99    0.34
 -10   5   1    3.71    0.18
   9   5  -1   11.96    0.59
  -9   5   1   11.52    0.37
  -8   5   1    2.89    0.13
   8   5  -1    2.21    0.27
   8   5  -1    2.65    0.25
  -7  -5   1    0.11    0.06
  -7  -5   1    0.08    0.09
   7   5  -1    0.34    0.12
  -7   5   1    0.04    0.03
  -7   5   1    0.05    0.04
   7   5  -1    0.01    0.07
  -6  -5   1   26.12    0.90
  -6  -5   1   25.18    0.77
  -6   5   1   25.89    0.76
   6   5  -1   24.98    0.89
   6   5  -1   24.90    0.90
  -6   5   1   25.07    0.70
  -5  -5   1    8.16    0.41
  -5  -5   1    9.05    0.32
   5   5  -1    9.16    0.43
  -5   5   1    8.75    0.29
  -5   5   1    8.83    0.33
   5   5  -1    8.58    0.43
  -5   5   1    8.93    0.35
  -4  -5   1    3.34    0.15
  -4   5   1    3.50    0.20
  -4   5   1    3.25    0.15
   4   5  -1    3.23    0.23
   4   5  -1    3.05    0.24
  -4   5   1    3.57    0.17
   4   5  -1    3.60    0.24
  -3  -5   1    1.78    0.09
  -3   5   1    1.61    0.14
  -3   5   1    1.81    0.11
   3   5  -1    2.00    0.17
  -3   5   1    1.97    0.13
   3   5  -1    1.88    0.11
  -3   5   1    2.00    0.12
   3   5  -1    1.96    0.16
   3   5  -1    2.00    0.18
  -2  -5   1    1.10    0.06
   2   5  -1    0.81    0.11
  -2   5   1    0.85    0.12
  -2   5   1    0.86    0.09
   2   5  -1    1.15    0.07
   2   5  -1    0.74    0.12
  -2   5   1    1.00    0.08
   2   5  -1    0.97    0.14
  -2   5   1    1.05    0.11
   1  -5  -1   40.76    1.05
   1  -5  -1   39.35    1.02
  -1  -5   1   38.70    1.01
  -1   5   1   39.05    1.04
  -1   5   1   37.55    1.10
   1   5  -1   38.69    1.00
  -1   5   1   37.50    1.16
  -1   5   1   39.32    1.10
   1   5  -1   36.95    1.14
   1   5  -1   37.02    1.11
   1   5  -1   36.36    1.18
   0  -5   1    0.81    0.06
   0  -5  -1    0.80    0.09
   0   5  -1    0.80    0.13
   0   5   1    0.82    0.13
   0   5   1    0.89    0.11
   0   5   1    0.79    0.10
   0   5  -1    0.83    0.11
   0   5   1    0.82    0.07
   0   5  -1    0.88    0.10
  -1  -5  -1    5.32    0.24
  -1   5  -1    5.94    0.23
   1   5   1    5.56    0.26
   1   5   1    5.34    0.20
  -1   5  -1    5.15    0.25
  -1   5  -1    5.15    0.28
   1   5   1    4.98    0.29
   1   5   1    5.00    0.26
   2  -5   1    2.42    0.09
  -2  -5  -1    2.23    0.16
   2   5   1    2.23    0.17
   2   5   1    2.57    0.13
  -2   5  -1    2.10    0.15
   2   5   1    2.39    0.19
   2   5   1    2.35    0.18
  -2   5  -1    2.28    0.18
  -2   5  -1    2.30    0.13
  -3  -5  -1    0.56    0.10
  -3   5  -1    0.50    0.06
   3   5   1    0.52    0.10
  -3   5  -1    0.68    0.09
   3   5   1    0.49    0.07
  -3   5  -1    0.49    0.09
   3   5   1    0.62    0.12
  -4  -5  -1    9.87    0.41
  -4   5  -1    9.12    0.30
  -4   5  -1    9.49    0.34
   4   5   1    8.84    0.35
   4   5   1    9.08    0.42
  -4   5  -1    8.67    0.37
   4   5   1    9.12    0.42
  -5  -5  -1    0.79    0.13
   5   5   1    0.71    0.13
   5   5   1    0.69    0.13
  -5   5  -1    0.74    0.10
  -5   5  -1    0.87    0.09
  -6  -5  -1    0.23    0.09
   6   5   1    0.15    0.08
  -6   5  -1    0.25    0.06
   6   5   1    0.12    0.07
  -6   5  -1    0.25    0.06
   7   5   1    3.37    0.25
  -7   5  -1    3.15    0.17
   7   5   1    3.44    0.27
   8   5   1    0.88    0.16
  -8   5  -1    0.90    0.11
   8   5   1    1.03    0.19
   9   5   1    0.98    0.20
  -9   5  -1    1.11    0.12
  10   5   1    0.94    0.20
 -10   5  -1    1.09    0.13
   9   6  -1    0.12    0.10
   8   6  -1    7.87    0.46
   8   6  -1    8.92    0.51
   7   6  -1    5.95    0.38
   7   6  -1    5.32    0.36
  -6   6   1    5.13    0.25
   6   6  -1    5.46    0.35
   6   6  -1    4.99    0.34
  -6   6   1    5.00    0.20
   5   6  -1    5.81    0.34
  -5   6   1    4.86    0.21
   5   6  -1    4.99    0.33
  -5   6   1    5.29    0.24
  -5   6   1    4.99    0.27
   4   6  -1   19.04    0.76
   4   6  -1   19.62    0.60
  -4   6   1   19.33    0.62
   4   6  -1   19.59    0.73
   4   6  -1   18.88    0.72
  -4   6   1   19.41    0.68
  -4   6   1   20.30    0.60
   3   6  -1   36.58    1.13
   3   6  -1   36.13    0.99
  -3   6   1   37.56    1.04
   3   6  -1   34.95    1.13
  -3   6   1   34.27    1.11
   3   6  -1   35.08    1.18
  -3   6   1   35.79    1.04
  -2   6   1   92.77    2.64
  -2   6   1   96.52    2.56
  -2   6   1   97.33    2.56
  -2   6   1   97.99    2.49
   2   6  -1   95.77    2.62
   2   6  -1   97.11    2.47
   2   6  -1   93.48    2.64
   2   6  -1   93.75    2.70
  -1   6   1    2.21    0.19
  -1   6   1    2.12    0.16
  -1   6   1    1.97    0.11
   1   6  -1    2.16    0.20
   1   6  -1    1.78    0.16
  -1   6   1    2.14    0.16
   1   6  -1    2.22    0.18
   0  -6   1   79.34    1.98
   0   6   1   81.37    2.12
   0   6   1   73.32    2.10
   0   6  -1   74.38    2.19
   0   6  -1   75.20    2.13
   0   6  -1   73.84    2.09
   0   6   1   77.64    2.00
   0   6   1   76.27    2.19
   1  -6   1   87.23    2.29
  -1   6  -1   86.73    2.46
  -1   6  -1   88.38    2.35
  -1   6  -1   88.35    2.40
   1   6   1   86.75    2.48
   1   6   1   90.86    2.42
   1   6   1   87.75    2.29
   1   6   1   84.98    2.41
   2   6   1    1.57    0.18
   2   6   1    1.37    0.19
   2   6   1    1.43    0.16
   2   6   1    1.78    0.11
  -2   6  -1    1.50    0.16
  -2   6  -1    1.86    0.12
  -2   6  -1    1.58    0.18
  -3   6  -1   34.91    1.03
   3   6   1   35.40    1.12
   3   6   1   32.28    1.13
  -3   6  -1   34.60    1.09
   3   6   1   34.72    0.99
  -3   6  -1   36.40    0.98
   4   6   1    2.28    0.22
  -4   6  -1    2.46    0.16
  -4   6  -1    2.93    0.15
  -4   6  -1    2.30    0.19
   4   6   1    2.55    0.16
   4   6   1    2.93    0.23
  -5   6  -1    0.17    0.06
   5   6   1    0.22    0.09
   5   6   1    0.35    0.08
   5   6   1    0.19    0.10
  -5   6  -1    0.17    0.06
   6   6   1    0.37    0.09
  -6   6  -1    0.38    0.07
  -6   6  -1    0.32    0.08
   6   6   1    0.16    0.09
   6   6   1    0.16    0.09
   7   6   1    4.21    0.32
  -7   6  -1    4.10    0.21
   7   6   1    4.07    0.31
   8   6   1    1.62    0.25
  -8   6  -1    1.46    0.14
   8   6   1    1.84    0.25
   9   6   1    3.28    0.37
  -9   6  -1    3.46    0.19
   8   7  -1    0.83    0.20
   8   7  -1    1.28    0.23
   7   7  -1    0.00    0.08
   7   7  -1    0.09    0.10
   6   7  -1    0.15    0.11
  -6   7   1    0.24    0.08
   6   7  -1    0.22    0.11
  -6   7   1    0.12    0.05
  -5   7   1    8.34    0.39
  -5   7   1    8.67    0.32
   5   7  -1    8.30    0.45
   5   7  -1    8.01    0.47
  -4   7   1    0.38    0.10
   4   7  -1    0.76    0.15
  -4   7   1    0.52    0.09
   4   7  -1    0.51    0.12
   4   7  -1    0.45    0.13
  -4   7   1    0.58    0.10
  -3   7   1    1.19    0.13
   3   7  -1    1.10    0.17
   3   7  -1    1.15    0.17
  -3   7   1    1.03    0.16
   3   7  -1    0.90    0.18
  -3   7   1    1.06    0.13
   2   7  -1    0.03    0.07
  -2   7   1    0.16    0.08
  -2   7   1    0.09    0.06
   2   7  -1   -0.03    0.05
   2   7  -1    0.06    0.06
  -2   7   1    0.00    0.04
  -1   7   1    2.80    0.20
   1   7  -1    2.72    0.22
  -1   7   1    2.79    0.24
   1   7  -1    2.53    0.24
  -1   7   1    2.97    0.20
   1   7  -1    2.50    0.20
   0   7  -1    5.25    0.30
   0   7   1    5.37    0.29
   0   7  -1    5.47    0.28
   0   7   1    5.23    0.28
   0   7   1    5.23    0.33
   0   7  -1    5.15    0.34
   1   7   1    0.08    0.06
  -1   7  -1    0.13    0.07
   1   7   1    0.15    0.08
  -1   7  -1    0.04    0.07
   1   7   1    0.00    0.07
  -1   7  -1    0.04    0.05
   2   7   1    0.57    0.12
   2   7   1    0.67    0.13
  -2   7  -1    0.71    0.12
  -2   7  -1    0.70    0.10
  -2   7  -1    0.66    0.13
   2   7   1    0.50    0.12
   3   7   1    0.93    0.16
   3   7   1    0.56    0.14
  -3   7  -1    0.65    0.11
  -3   7  -1    0.64    0.13
   4   7   1    3.70    0.30
  -4   7  -1    3.51    0.22
  -4   7  -1    3.74    0.26
   4   7   1    3.32    0.27
  -5   7  -1    0.38    0.10
  -5   7  -1    0.43    0.09
   5   7   1    0.60    0.15
   5   7   1    0.69    0.15
   6   7   1    3.72    0.31
  -6   7  -1    3.65    0.21
   6   7   1    4.07    0.32
   7   7   1    0.11    0.11
   7   7   1    0.08    0.10
  -7   7  -1    0.14    0.06
  -8   7  -1    0.13    0.06
   8   7   1    0.23    0.14
   8   8  -1   11.52    0.63
   7   8  -1    0.37    0.15
   7   8  -1    0.43    0.17
  -6   8   1   13.74    0.43
  -6   8   1   13.76    0.55
   6   8  -1   12.82    0.67
   6   8  -1   13.70    0.67
   5   8  -1    1.65    0.25
   5   8  -1    1.50    0.25
  -5   8   1    1.95    0.14
  -5   8   1    1.76    0.21
  -4   8   1    5.57    0.27
  -4   8   1    5.64    0.34
   4   8  -1    5.34    0.36
   4   8  -1    4.59    0.38
  -3   8   1    3.16    0.20
   3   8  -1    2.31    0.25
  -3   8   1    2.96    0.32
   3   8  -1    2.87    0.33
  -3   8   1    2.65    0.24
   3   8  -1    2.45    0.27
   2   8  -1    2.09    0.23
  -2   8   1    2.46    0.27
  -2   8   1    2.26    0.18
  -2   8   1    2.68    0.19
   2   8  -1    1.67    0.25
   2   8  -1    1.77    0.22
   1   8  -1    6.30    0.41
  -1   8   1    6.11    0.32
   1   8  -1    6.23    0.33
  -1   8   1    5.73    0.32
   1   8  -1    5.71    0.35
  -1   8   1    5.91    0.38
   0   8   1    6.89    0.36
   0   8   1    7.09    0.36
   0   8  -1    6.39    0.33
   0   8   1    6.55    0.41
   0   8  -1    6.89    0.42
   0   8  -1    7.24    0.38
  -1   8  -1   16.28    0.70
  -1   8  -1   17.14    0.65
   1   8   1   16.52    0.65
   1   8   1   15.75    0.71
   1   8   1   16.67    0.65
  -1   8  -1   17.26    0.60
   2   8   1   16.99    0.68
  -2   8  -1   16.50    0.70
   2   8   1   15.83    0.72
  -2   8  -1   17.46    0.65
  -3   8  -1    0.09    0.07
   3   8   1    0.03    0.09
   3   8   1   -0.07    0.07
  -3   8  -1   -0.04    0.06
   4   8   1   11.06    0.56
  -4   8  -1   12.14    0.48
   4   8   1   11.12    0.59
  -4   8  -1   11.67    0.53
  -5   8  -1    8.55    0.43
   5   8   1    9.35    0.51
   5   8   1    8.72    0.51
  -5   8  -1    9.66    0.40
   6   8   1    1.08    0.22
   6   8   1    0.75    0.18
  -6   8  -1    0.96    0.13
   7   8   1   11.85    0.65
  -7   8  -1   12.10    0.44
   7   8   1   10.81    0.60
  -5   9   1    5.92    0.36
   5   9  -1    5.58    0.44
   5   9  -1    6.54    0.44
  -4   9   1    8.28    0.36
   4   9  -1    9.42    0.50
   4   9  -1    8.02    0.53
  -4   9   1    8.42    0.46
   3   9  -1    3.00    0.31
  -3   9   1    3.48    0.29
   3   9  -1    3.01    0.32
  -3   9   1    3.30    0.23
   3   9  -1    3.46    0.38
  -2   9   1    3.63    0.25
   2   9  -1    3.64    0.28
  -2   9   1    3.43    0.30
   2   9  -1    3.57    0.33
   2   9  -1    3.29    0.29
   1   9  -1    0.16    0.11
  -1   9   1    0.35    0.10
   1   9  -1    0.22    0.11
  -1   9   1    0.58    0.13
  -1   9   1    0.43    0.15
   1   9  -1    0.35    0.11
   0   9   1    0.20    0.12
   0   9   1    0.28    0.11
   0   9  -1    0.24    0.12
   0   9  -1    0.39    0.12
  -1   9  -1    5.28    0.39
   1   9   1    5.14    0.33
   1   9   1    5.03    0.39
  -1   9  -1    4.97    0.32
  -2   9  -1    3.30    0.26
   2   9   1    2.77    0.32
   2   9   1    3.20    0.28
  -2   9  -1    3.08    0.34
  -3   9  -1    0.71    0.17
  -3   9  -1    0.59    0.13
   3   9   1    0.55    0.17
   3   9   1    0.64    0.16
   4   9   1    0.04    0.09
  -4   9  -1    0.16    0.10
  -4   9  -1    0.01    0.07
   4   9   1    0.06    0.10
   5   9   1   18.63    0.84
   5   9   1   17.56    0.81
  -5   9  -1   19.20    0.67
   4  10  -1    0.78    0.29
   3  10  -1    2.10    0.27
  -2  10   1    0.99    0.23
   1  10  -1    9.36    0.82
  -1  10   1    8.88    0.54
   1  10  -1    9.76    0.51
   0  10  -1    0.25    0.14
   0  10  -1    0.01    0.09
   0  10   1    0.07    0.12
  -1  10  -1    2.53    0.33
   1  10   1    2.39    0.28
  -2  10  -1    1.91    0.28
   2  10   1    2.24    0.28
  -3  10  -1    1.47    0.24
   3  10   1    1.40    0.24
 -12   0   2   12.79    0.77
 -11   0   2    0.07    0.07
 -10   0   2   58.08    1.67
 -10   0   2   55.14    1.74
  -9   0   2    0.00    0.06
  -9   0   2    0.01    0.05
  -8   0   2   25.95    0.82
  -8   0   2   25.36    0.88
  -7   0   2    0.03    0.05
  -7   0   2   -0.01    0.05
  -6   0   2    9.64    0.37
  -6   0   2    9.59    0.39
  -5   0   2    0.17    0.05
  -5   0   2   -0.04    0.03
  -4   0   2  163.15    4.11
  -4   0   2  154.94    4.13
  -3   0   2   -0.08    0.02
   3   0  -2   -0.04    0.02
  -3   0   2   -0.06    0.02
  -3   0   2   -0.06    0.02
   2   0  -2  404.19   10.75
  -2   0   2  422.33   10.64
  -2   0   2  422.83   10.55
  -2   0   2  414.90   10.71
   1   0  -2    0.00    0.01
  -1   0   2    0.01    0.01
  -1   0   2    0.02    0.01
   1   0  -2    0.03    0.01
   1   0  -2    0.01    0.01
  -1   0   2   -0.01    0.01
  -1   0   2    0.00    0.01
   1   0  -2   -0.01    0.01
   0   0   2  122.27    3.19
   0   0  -2  120.95    3.19
   0   0   2  122.14    3.21
   0   0  -2  118.30    3.18
   0   0  -2  146.38    3.19
   0   0   2  121.11    3.19
  -1   0  -2    0.01    0.01
   1   0   2   -0.01    0.01
  -1   0  -2    0.15    0.02
  -1   0  -2    0.03    0.01
  -2   0  -2    3.25    0.13
   2   0   2    3.12    0.12
   2   0   2    3.29    0.13
  -2   0  -2    3.02    0.09
   3   0   2    0.00    0.02
  -3   0  -2    0.00    0.02
  -4   0  -2    0.51    0.07
  -5   0  -2    0.04    0.03
  -6   0  -2   22.60    0.70
  -7   0  -2   -0.03    0.03
  -8   0  -2    0.11    0.06
  -9   0  -2   -0.01    0.05
   9   0   2    0.05    0.06
  10   0   2    5.27    0.32
 -10   0  -2    4.73    0.29
 -11   0  -2   -0.02    0.07
 -12  -1   2    0.62    0.16
 -11  -1   2    4.63    0.31
 -11   1   2    4.80    0.28
 -10  -1   2    4.05    0.30
 -10  -1   2    3.88    0.27
 -10   1   2    3.80    0.24
  -9  -1   2    0.20    0.09
  -9  -1   2   -0.01    0.05
  -9   1   2    0.11    0.08
  -9   1   2    0.09    0.05
  -8  -1   2   33.33    1.05
  -8  -1   2   31.93    1.06
  -8   1   2   32.16    0.98
   8   1  -2   34.87    1.00
  -8   1   2   32.84    1.07
  -7  -1   2    0.45    0.11
  -7   1   2    0.69    0.12
  -7   1   2    0.47    0.08
  -7   1   2    0.64    0.10
  -6  -1   2    4.56    0.25
  -6  -1   2    4.58    0.25
  -6   1   2    4.32    0.25
  -6   1   2    4.90    0.21
  -5  -1   2    3.71    0.20
  -5  -1   2    3.58    0.20
  -5   1   2    3.54    0.20
  -5   1   2    3.50    0.16
  -4  -1   2   11.85    0.41
  -4  -1   2   11.61    0.41
  -4   1   2   11.56    0.41
   4   1  -2   11.55    0.39
  -4   1   2   12.61    0.41
  -4   1   2   11.68    0.36
  -3  -1   2   45.43    1.27
  -3  -1   2   47.53    1.27
  -3   1   2   45.95    1.27
  -3   1   2   46.66    1.27
  -3   1   2   47.18    1.22
   3   1  -2   46.52    1.27
   2  -1  -2    0.52    0.06
   2  -1  -2    0.67    0.05
   2  -1  -2    0.58    0.04
  -2  -1   2    0.46    0.06
   2  -1  -2    0.60    0.05
  -2  -1   2    0.47    0.05
  -2  -1   2    0.52    0.05
   2   1  -2    0.62    0.06
  -2   1   2    0.59    0.03
  -2   1   2    0.49    0.05
  -2   1   2    0.57    0.06
   2   1  -2    0.59    0.06
   2   1  -2    0.59    0.07
  -2   1   2    0.67    0.04
  -1  -1   2  115.51    2.90
   1  -1  -2  111.01    2.91
   1  -1  -2  114.47    2.92
  -1  -1   2  115.30    2.92
   1  -1  -2  117.31    2.89
   1  -1  -2  118.08    2.91
   1  -1  -2  109.99    2.91
  -1  -1   2  107.28    2.93
  -1   1   2  117.82    2.92
   1   1  -2  113.03    2.90
   1   1  -2  113.30    2.92
  -1   1   2  110.64    2.90
  -1   1   2  116.22    2.92
  -1   1   2  117.69    2.89
  -1   1   2  112.70    2.91
   1   1  -2  109.32    2.93
   0  -1   2   12.26    0.35
   0  -1   2   11.92    0.35
   0  -1  -2   11.40    0.35
   0  -1   2   12.17    0.33
   0  -1  -2   12.85    0.34
   0  -1  -2   12.21    0.34
   0  -1  -2   12.14    0.36
   0   1   2   12.14    0.34
   0   1   2   12.42    0.34
   0   1   2   12.72    0.36
   0   1   2   12.23    0.35
   0   1  -2   12.01    0.33
   0   1   2   12.46    0.35
   0   1  -2   12.10    0.36
  -1  -1  -2    4.81    0.17
  -1  -1  -2    5.13    0.18
  -1  -1  -2    4.78    0.17
   1  -1   2    5.30    0.16
   1   1   2    4.88    0.17
  -1   1  -2    5.32    0.17
   1   1   2    4.59    0.17
   1   1   2    4.81    0.17
   1   1   2    4.55    0.16
  -1   1  -2    4.88    0.16
  -2  -1  -2   70.40    1.82
  -2  -1  -2   66.98    1.80
  -2  -1  -2   68.47    1.84
  -2   1  -2   71.04    1.80
   2   1   2   70.44    1.83
   2   1   2   67.91    1.80
  -2   1  -2   69.35    1.78
   2   1   2   70.60    1.83
  -3  -1  -2   89.94    2.40
  -3  -1  -2   95.41    2.37
   3   1   2   95.18    2.41
   3   1   2   87.47    2.36
  -3   1  -2   90.44    2.38
  -4  -1  -2   15.88    0.50
  -4   1  -2   15.85    0.47
   4   1   2   15.24    0.45
   4   1   2   15.64    0.50
  -5  -1  -2    5.81    0.25
   5   1   2    5.40    0.25
   5   1   2    5.11    0.19
  -5   1  -2    5.27    0.22
  -6  -1  -2   33.26    1.00
   6   1   2   34.14    1.01
  -6   1  -2   33.71    0.97
   6   1   2   33.17    0.91
  -7  -1  -2   11.61    0.46
  -7   1  -2   12.39    0.44
   7   1   2   12.63    0.48
  -8  -1  -2    4.80    0.28
   8   1   2    5.25    0.29
  -8   1  -2    4.92    0.25
  -9  -1  -2    9.68    0.44
   9   1   2    9.60    0.45
  -9   1  -2   10.61    0.42
 -10  -1  -2    0.38    0.11
  10   1   2    0.04    0.08
 -10   1  -2    0.06    0.07
 -11  -1  -2    2.85    0.28
 -11   1  -2    2.68    0.22
  11   1   2    2.32    0.27
 -12  -2   2    0.16    0.18
  12   2  -2    0.01    0.09
 -11  -2   2    3.50    0.29
 -11   2   2    3.70    0.23
 -10  -2   2    0.00    0.07
 -10  -2   2    0.05    0.07
 -10   2   2   -0.04    0.04
  -9  -2   2    0.11    0.07
  -9  -2   2    0.22    0.10
  -9   2   2    0.12    0.08
  -9   2   2    0.12    0.05
  -8  -2   2   22.64    0.77
  -8  -2   2   21.93    0.78
  -8   2   2   21.87    0.79
  -8   2   2   21.74    0.67
   8   2  -2   21.61    0.73
  -7  -2   2    6.80    0.33
  -7   2   2    6.37    0.33
   7   2  -2    6.60    0.31
  -7   2   2    6.62    0.26
  -7   2   2    6.69    0.27
  -6  -2   2   37.60    1.15
  -6  -2   2   38.42    1.12
   6   2  -2   39.47    1.12
  -6   2   2   35.96    1.02
  -6   2   2   37.07    1.13
  -6   2   2   36.45    1.03
  -5  -2   2   40.24    1.21
  -5  -2   2   40.25    1.18
   5   2  -2   43.26    1.20
  -5   2   2   42.01    1.10
  -5   2   2   40.12    1.20
  -4  -2   2    3.00    0.18
  -4  -2   2    3.12    0.17
  -4   2   2    3.44    0.12
   4   2  -2    3.33    0.18
  -4   2   2    3.06    0.17
  -4   2   2    3.45    0.18
   4   2  -2    3.54    0.19
  -4   2   2    3.64    0.14
  -3  -2   2  129.85    3.28
  -3  -2   2  125.57    3.32
  -3   2   2  124.45    3.28
  -3   2   2  123.54    3.29
   3   2  -2  132.13    3.32
   3   2  -2  123.03    3.31
  -3   2   2  123.98    3.26
  -3   2   2  127.22    3.24
  -2  -2   2    7.77    0.26
   2  -2  -2    7.20    0.26
   2   2  -2    7.70    0.25
  -2   2   2    7.88    0.26
   2   2  -2    8.17    0.30
  -2   2   2    7.68    0.26
   2   2  -2    8.05    0.26
  -2   2   2    7.94    0.26
  -2   2   2    7.71    0.27
   2   2  -2    7.89    0.29
   1  -2  -2   13.23    0.35
   1  -2  -2   13.19    0.38
   1  -2  -2   13.42    0.37
  -1  -2   2   12.91    0.38
  -1   2   2   12.89    0.39
  -1   2   2   13.16    0.39
  -1   2   2   12.43    0.40
   1   2  -2   12.28    0.41
  -1   2   2   13.04    0.36
   1   2  -2   12.98    0.36
  -1   2   2   13.34    0.37
   1   2  -2   12.81    0.38
   0  -2  -2  201.22    5.00
   0  -2   2  212.31    5.05
   0  -2  -2  198.07    4.99
   0  -2  -2  182.13    4.97
   0  -2   2  167.64    4.96
   0   2   2  209.21    5.03
   0   2   2  195.48    5.03
   0   2  -2  205.01    5.05
   0   2   2  204.58    5.00
   0   2  -2  198.68    4.99
   0   2   2  197.22    5.00
   0   2  -2  204.52    5.03
   0   2   2  178.07    4.97
  -1  -2  -2   93.08    2.36
   1  -2   2   95.65    2.37
   1   2   2   85.95    2.37
  -1   2  -2   92.63    2.36
  -1   2  -2   87.70    2.37
  -1   2  -2   90.86    2.31
   1   2   2   89.49    2.35
   1   2   2   89.23    2.36
   1   2   2   91.98    2.38
   2  -2   2  231.50    5.60
   2  -2   2  188.02    5.54
  -2  -2  -2  224.93    5.62
  -2   2  -2  219.74    5.59
  -2   2  -2  219.51    5.60
   2   2   2  226.81    5.63
   2   2   2  225.82    5.57
   2   2   2  214.96    5.62
   2   2   2  222.22    5.64
   3  -2   2   24.29    0.63
   3  -2   2   24.77    0.67
  -3  -2  -2   23.22    0.71
  -3   2  -2   23.78    0.67
  -3   2  -2   23.22    0.66
   3   2   2   24.55    0.73
   3   2   2   23.80    0.70
   4  -2   2    9.29    0.28
   4  -2   2    9.50    0.27
  -4  -2  -2    8.73    0.34
  -4   2  -2    8.84    0.26
   4   2   2    8.61    0.35
   4   2   2    8.52    0.31
  -4   2  -2    8.75    0.29
  -5  -2  -2    2.78    0.18
   5  -2   2    3.29    0.12
  -5   2  -2    3.01    0.15
   5   2   2    2.94    0.16
   5   2   2    3.12    0.19
  -6  -2  -2   -0.02    0.04
   6   2   2    0.04    0.03
   6   2   2    0.00    0.04
  -6   2  -2    0.04    0.03
  -7  -2  -2    3.17    0.21
  -7   2  -2    2.97    0.17
   7   2   2    2.64    0.15
   7   2   2    2.87    0.21
  -8  -2  -2    2.33    0.20
   8   2   2    2.35    0.21
  -8   2  -2    2.36    0.16
  -9  -2  -2    8.53    0.42
   9   2   2    8.79    0.44
  -9   2  -2    8.41    0.36
 -10  -2  -2    0.75    0.15
 -10   2  -2    1.03    0.14
  10   2   2    0.96    0.18
 -11  -2  -2    0.05    0.09
 -11   2  -2    0.00    0.06
  11   2   2    0.03    0.09
  12   2   2    0.19    0.15
 -11  -3   2    0.72    0.18
 -11   3   2    0.73    0.11
  11   3  -2    1.01    0.20
 -10  -3   2    0.55    0.14
 -10  -3   2    0.31    0.12
  10   3  -2    0.40    0.14
 -10   3   2    0.23    0.06
  -9  -3   2   13.64    0.59
  -9  -3   2   13.22    0.56
  -9   3   2   13.92    0.45
  -8  -3   2    0.07    0.06
  -8  -3   2    0.28    0.10
  -8   3   2    0.23    0.05
  -8   3   2    0.25    0.06
   8   3  -2    0.17    0.07
  -7  -3   2   20.31    0.73
  -7   3   2   22.89    0.77
  -7   3   2   21.85    0.62
  -7   3   2   22.10    0.64
   7   3  -2   21.94    0.75
  -6  -3   2   31.45    0.96
  -6   3   2   29.58    0.97
   6   3  -2   31.67    0.99
  -6   3   2   32.03    0.85
  -6   3   2   31.13    0.84
  -5  -3   2   21.36    0.66
  -5   3   2   20.93    0.56
   5   3  -2   19.39    0.68
  -5   3   2   20.64    0.68
   5   3  -2   20.69    0.70
  -5   3   2   22.35    0.61
  -4  -3   2   48.55    1.31
  -4   3   2   46.23    1.32
   4   3  -2   46.06    1.36
   4   3  -2   46.80    1.35
  -4   3   2   47.20    1.27
  -4   3   2   47.92    1.29
  -4   3   2   46.50    1.31
  -3  -3   2    0.72    0.08
  -3   3   2    0.65    0.08
   3   3  -2    0.74    0.10
  -3   3   2    0.66    0.08
   3   3  -2    0.73    0.11
  -3   3   2    0.57    0.08
  -3   3   2    0.61    0.07
  -2  -3   2    0.02    0.02
  -2   3   2    0.02    0.02
  -2   3   2    0.04    0.02
   2   3  -2   -0.01    0.03
  -2   3   2    0.03    0.03
   2   3  -2    0.04    0.03
   2   3  -2    0.02    0.03
   2   3  -2    0.02    0.02
  -2   3   2    0.02    0.01
  -2   3   2    0.00    0.02
   2   3  -2    0.00    0.02
   1  -3  -2   69.79    1.80
   1  -3  -2   72.31    1.82
  -1  -3   2   71.68    1.83
   1   3  -2   68.72    1.91
  -1   3   2   71.04    1.83
  -1   3   2   68.47    1.86
  -1   3   2   71.59    1.82
   1   3  -2   69.56    1.80
   1   3  -2   69.75    1.90
   1   3  -2   69.97    1.86
  -1   3   2   70.75    1.84
  -1   3   2   67.39    1.88
   0  -3   2   -0.06    0.02
   0  -3  -2    0.22    0.04
   0  -3  -2   -0.02    0.03
   0  -3  -2   -0.06    0.01
   0   3   2   -0.08    0.02
   0   3  -2   -0.04    0.02
   0   3   2   -0.06    0.02
   0   3   2    0.00    0.01
   0   3   2   -0.07    0.02
   0   3  -2   -0.03    0.03
   0   3   2   -0.04    0.03
   0   3  -2   -0.03    0.03
   1  -3   2   23.28    0.63
   1  -3   2   24.03    0.60
  -1  -3  -2   23.11    0.67
   1   3   2   23.19    0.70
  -1   3  -2   23.53    0.68
   1   3   2   22.76    0.71
  -1   3  -2   23.71    0.63
   1   3   2   22.97    0.65
  -1   3  -2   22.23    0.70
   2  -3   2  102.99    2.61
   2  -3   2  101.03    2.60
  -2  -3  -2  102.43    2.67
   2   3   2   99.75    2.69
  -2   3  -2   95.87    2.67
   2   3   2  102.24    2.59
   2   3   2  103.64    2.70
  -2   3  -2  102.65    2.64
  -2   3  -2  102.04    2.59
   2   3   2  101.45    2.65
   3  -3   2  316.59    8.02
  -3  -3  -2  316.37    8.12
  -3   3  -2  313.43    8.08
  -3   3  -2  314.17    8.06
   3   3   2  314.45    8.14
   3   3   2  320.47    8.13
   3   3   2  320.69    8.05
  -4  -3  -2   54.23    1.50
   4  -3   2   52.71    1.39
  -4   3  -2   52.03    1.42
   4   3   2   52.52    1.49
  -4   3  -2   53.26    1.42
   4   3   2   54.12    1.52
  -5  -3  -2   99.72    2.69
   5   3   2   98.97    2.66
   5   3   2   97.98    2.71
  -5   3  -2  100.43    2.60
  -5   3  -2   99.71    2.56
  -6  -3  -2    0.02    0.04
  -6   3  -2    0.04    0.03
   6   3   2    0.09    0.05
   6   3   2   -0.04    0.04
  -7  -3  -2    0.08    0.07
   7   3   2    0.23    0.09
  -7   3  -2    0.23    0.06
   7   3   2    0.21    0.07
  -8  -3  -2    9.71    0.45
   8   3   2    9.80    0.47
  -8   3  -2    9.34    0.36
  -9  -3  -2    7.68    0.41
  -9   3  -2    7.02    0.32
   9   3   2    7.38    0.42
 -10  -3  -2    2.52    0.28
 -10   3  -2    2.69    0.19
  10   3   2    1.93    0.25
 -11  -3  -2    3.81    0.32
  11   3   2    3.68    0.38
 -11   3  -2    4.48    0.26
 -11  -4   2    0.79    0.19
 -11   4   2    1.01    0.11
  11   4  -2    0.74    0.22
 -10  -4   2    0.31    0.13
  10   4  -2    0.25    0.13
 -10   4   2    0.45    0.07
  -9  -4   2    0.49    0.14
  -9  -4   2    0.32    0.10
   9   4  -2    0.36    0.18
  -9   4   2    0.59    0.07
   9   4  -2    0.45    0.13
  -8  -4   2    0.41    0.12
  -8  -4   2    0.35    0.10
   8   4  -2    0.32    0.10
   8   4  -2    0.58    0.14
  -8   4   2    0.29    0.06
  -8   4   2    0.31    0.05
  -7  -4   2    0.30    0.08
  -7   4   2    0.22    0.03
  -7   4   2    0.24    0.04
   7   4  -2    0.12    0.07
   7   4  -2    0.02    0.06
  -6  -4   2    0.02    0.04
  -6   4   2    0.05    0.04
  -6   4   2    0.07    0.02
   6   4  -2   -0.01    0.04
   6   4  -2    0.16    0.08
  -5  -4   2    0.19    0.06
   5   4  -2    0.02    0.05
  -5   4   2    0.06    0.04
   5   4  -2    0.13    0.06
   5   4  -2    0.00    0.05
  -5   4   2    0.02    0.04
  -5   4   2    0.19    0.05
  -4  -4   2    3.09    0.17
   4   4  -2    3.21    0.22
   4   4  -2    3.47    0.22
   4   4  -2    3.47    0.22
  -4   4   2    3.38    0.18
  -4   4   2    3.36    0.17
  -4   4   2    3.20    0.18
  -4   4   2    3.67    0.19
  -3  -4   2   51.17    1.39
  -3   4   2   52.22    1.35
   3   4  -2   51.19    1.47
  -3   4   2   50.18    1.40
  -3   4   2   52.80    1.42
   3   4  -2   50.02    1.48
   3   4  -2   52.55    1.51
  -3   4   2   52.10    1.41
  -3   4   2   51.73    1.44
  -2  -4   2    0.84    0.07
  -2   4   2    0.85    0.07
   2   4  -2    0.71    0.11
   2   4  -2    0.77    0.12
  -2   4   2    0.89    0.10
   2   4  -2    0.82    0.10
   2   4  -2    0.87    0.06
   2   4  -2    0.84    0.08
  -2   4   2    0.98    0.10
  -2   4   2    0.95    0.09
   1  -4  -2   92.92    2.38
  -1  -4   2   93.29    2.40
   1   4  -2   89.73    2.44
   1   4  -2   92.59    2.49
  -1   4   2   92.13    2.45
  -1   4   2   94.47    2.41
  -1   4   2   93.01    2.42
   1   4  -2   89.96    2.34
  -1   4   2   91.19    2.49
   1   4  -2   94.23    2.35
   1   4  -2   92.05    2.52
   0  -4  -2   24.32    0.69
   0  -4   2   25.06    0.69
   0   4   2   24.15    0.74
   0   4   2   23.94    0.72
   0   4   2   25.45    0.70
   0   4  -2   24.66    0.76
   0   4   2   24.99    0.78
   0   4  -2   24.12    0.78
   0   4  -2   24.47    0.71
  -1  -4  -2    0.72    0.08
   1   4   2    1.01    0.12
  -1   4  -2    0.58    0.10
  -1   4  -2    0.85    0.07
   1   4   2    0.87    0.11
   1   4   2    0.92    0.07
  -1   4  -2    0.95    0.11
   2  -4   2   22.77    0.61
   2  -4   2   23.12    0.63
  -2  -4  -2   22.07    0.69
   2   4   2   22.77    0.66
  -2   4  -2   22.96    0.68
  -2   4  -2   22.68    0.62
   2   4   2   21.90    0.73
  -2   4  -2   21.85    0.71
   2   4   2   22.30    0.72
   3  -4   2   26.25    0.74
  -3  -4  -2   27.30    0.83
   3   4   2   27.20    0.80
   3   4   2   27.62    0.86
   3   4   2   26.10    0.85
  -3   4  -2   26.56    0.82
  -3   4  -2   27.98    0.79
   3   4   2   27.10    0.73
  -3   4  -2   27.70    0.73
   4  -4   2    5.19    0.19
  -4  -4  -2    5.04    0.26
   4   4   2    4.88    0.28
  -4   4  -2    4.82    0.21
  -4   4  -2    5.18    0.23
   4   4   2    5.02    0.27
  -5  -4  -2    2.29    0.18
   5   4   2    2.32    0.19
   5   4   2    2.46    0.18
  -5   4  -2    2.44    0.14
  -5   4  -2    2.24    0.13
  -6  -4  -2   31.91    1.03
   6   4   2   32.37    1.07
   6   4   2   30.88    1.01
  -6   4  -2   33.90    0.89
  -6   4  -2   32.41    0.93
  -7  -4  -2    1.14    0.17
   7   4   2    0.88    0.16
   7   4   2    1.08    0.14
  -7   4  -2    0.93    0.10
  -8  -4  -2    9.23    0.47
  -8   4  -2   10.48    0.38
   8   4   2    9.93    0.50
  -9  -4  -2    0.14    0.11
   9   4   2    0.06    0.09
  -9   4  -2    0.05    0.05
 -10   4  -2   -0.02    0.05
  10   4   2    0.03    0.10
  11   4   2    2.32    0.49
  10   5  -2    0.72    0.19
   9   5  -2    3.15    0.38
   9   5  -2    3.06    0.34
  -8  -5   2    0.59    0.15
   8   5  -2    0.76    0.16
   8   5  -2    0.69    0.16
  -7  -5   2   13.94    0.63
  -7  -5   2   15.15    0.55
   7   5  -2   16.39    0.66
   7   5  -2   15.70    0.65
  -6  -5   2    0.48    0.09
  -6   5   2    0.48    0.08
   6   5  -2    0.32    0.10
   6   5  -2    0.50    0.12
  -5  -5   2   18.31    0.57
   5   5  -2   16.82    0.66
  -5   5   2   18.19    0.49
  -5   5   2   17.87    0.58
  -5   5   2   17.26    0.57
   5   5  -2   16.93    0.68
   5   5  -2   17.42    0.66
  -4  -5   2    8.22    0.30
  -4   5   2    8.36    0.27
  -4   5   2    8.76    0.33
   4   5  -2    8.30    0.41
  -4   5   2    8.71    0.32
   4   5  -2    7.97    0.38
   4   5  -2    8.25    0.39
  -4   5   2    8.77    0.35
  -3  -5   2   17.18    0.52
   3   5  -2   18.23    0.62
   3   5  -2   17.02    0.66
  -3   5   2   17.43    0.55
  -3   5   2   16.92    0.52
  -3   5   2   17.80    0.60
   3   5  -2   17.01    0.63
  -3   5   2   17.24    0.56
  -2  -5   2   10.28    0.33
   2   5  -2   10.31    0.31
   2   5  -2   10.92    0.41
  -2   5   2   10.86    0.43
  -2   5   2   10.94    0.36
   2   5  -2    9.97    0.43
  -2   5   2   10.01    0.35
   2   5  -2   10.28    0.31
  -2   5   2   10.38    0.38
   2   5  -2   10.10    0.45
   1  -5  -2   87.00    2.16
  -1  -5   2   83.47    2.19
  -1   5   2   78.99    2.31
   1   5  -2   86.30    2.27
  -1   5   2   83.78    2.21
   1   5  -2   83.78    2.32
  -1   5   2   86.31    2.28
   1   5  -2   81.16    2.35
  -1   5   2   86.17    2.25
   0  -5  -2   15.98    0.50
   0  -5   2   16.58    0.49
   0   5   2   16.62    0.50
   0   5   2   15.87    0.59
   0   5   2   16.69    0.54
   0   5  -2   16.27    0.53
   0   5   2   16.91    0.56
   0   5  -2   15.75    0.60
   0   5  -2   16.39    0.58
  -1  -5  -2   39.26    1.10
   1   5   2   39.68    1.07
   1   5   2   38.43    1.19
  -1   5  -2   37.95    1.18
   1   5   2   38.49    1.15
  -1   5  -2   40.55    1.15
  -1   5  -2   38.08    1.08
  -2  -5  -2    4.44    0.23
  -2   5  -2    4.60    0.18
   2   5   2    4.70    0.20
  -2   5  -2    4.31    0.25
   2   5   2    4.14    0.26
   2   5   2    4.54    0.25
  -2   5  -2    4.64    0.23
  -3  -5  -2    5.62    0.28
  -3   5  -2    5.46    0.28
   3   5   2    5.54    0.24
  -3   5  -2    5.81    0.26
   3   5   2    5.95    0.32
  -3   5  -2    5.95    0.21
   3   5   2    5.48    0.30
  -4  -5  -2    0.07    0.05
  -4   5  -2    0.00    0.02
   4   5   2    0.00    0.04
   4   5   2   -0.02    0.05
  -4   5  -2    0.02    0.04
   4   5   2    0.02    0.06
  -4   5  -2   -0.03    0.03
  -5  -5  -2   14.62    0.56
  -5   5  -2   14.38    0.48
   5   5   2   14.20    0.57
   5   5   2   13.87    0.58
  -5   5  -2   14.51    0.50
   5   5   2   15.32    0.53
  -6   5  -2    1.03    0.11
   6   5   2    1.03    0.17
  -6   5  -2    0.94    0.10
   6   5   2    1.08    0.16
   7   5   2    0.30    0.10
   7   5   2    0.34    0.12
  -7   5  -2    0.31    0.07
   8   5   2    6.51    0.41
  -8   5  -2    5.70    0.27
  -9   5  -2    1.32    0.14
   9   5   2    1.39    0.23
 -10   5  -2    1.48    0.16
  10   5   2    1.69    0.27
   9   6  -2    1.20    0.22
   8   6  -2    2.53    0.30
   8   6  -2    2.20    0.27
   7   6  -2    1.31    0.21
  -7   6   2    1.42    0.12
   7   6  -2    1.31    0.21
   6   6  -2    2.94    0.27
  -6   6   2    3.05    0.19
   6   6  -2    3.40    0.28
  -6   6   2    3.22    0.19
   5   6  -2    5.75    0.34
  -5   6   2    5.37    0.28
  -5   6   2    5.96    0.27
   5   6  -2    5.50    0.34
   5   6  -2    5.71    0.36
  -5   6   2    5.47    0.20
  -4   6   2    6.39    0.28
   4   6  -2    6.08    0.34
   4   6  -2    6.32    0.35
   4   6  -2    5.94    0.37
  -4   6   2    6.60    0.32
  -4   6   2    6.14    0.27
  -4   6   2    6.17    0.24
   3   6  -2    1.84    0.20
   3   6  -2    1.52    0.20
  -3   6   2    1.69    0.12
  -3   6   2    1.42    0.17
  -3   6   2    1.66    0.12
   3   6  -2    1.68    0.20
  -3   6   2    1.63    0.13
   3   6  -2    1.50    0.11
  -2  -6   2   14.42    0.46
  -2   6   2   15.30    0.52
  -2   6   2   14.65    0.47
   2   6  -2   14.45    0.54
   2   6  -2   13.91    0.57
  -2   6   2   14.59    0.49
  -2   6   2   14.63    0.57
   2   6  -2   14.00    0.61
  -1  -6   2    0.04    0.03
  -1   6   2    0.02    0.04
  -1   6   2   -0.01    0.03
   1   6  -2    0.04    0.06
   1   6  -2    0.01    0.04
   1   6  -2   -0.03    0.04
  -1   6   2    0.03    0.05
  -1   6   2   -0.02    0.04
   0  -6   2    0.08    0.03
   0   6   2    0.00    0.03
   0   6  -2   -0.02    0.04
   0   6   2   -0.01    0.04
   0   6  -2    0.05    0.07
   0   6  -2    0.02    0.05
   0   6   2    0.05    0.05
   0   6   2   -0.03    0.05
   1  -6   2    2.34    0.13
  -1   6  -2    2.14    0.20
  -1   6  -2    2.91    0.16
   1   6   2    2.57    0.19
  -1   6  -2    2.36    0.19
   1   6   2    2.31    0.21
   1   6   2    2.52    0.14
  -2   6  -2    5.26    0.22
   2   6   2    5.40    0.23
   2   6   2    5.39    0.30
   2   6   2    5.26    0.32
  -2   6  -2    5.21    0.30
  -2   6  -2    5.23    0.27
  -3   6  -2    3.01    0.14
  -3   6  -2    2.83    0.21
   3   6   2    2.74    0.23
   3   6   2    3.05    0.17
   3   6   2    3.28    0.24
  -3   6  -2    2.84    0.19
  -4   6  -2    2.37    0.17
   4   6   2    1.93    0.23
   4   6   2    2.18    0.16
   4   6   2    1.65    0.21
  -4   6  -2    2.01    0.17
   5   6   2    1.71    0.22
  -5   6  -2    1.85    0.16
  -5   6  -2    1.83    0.15
   5   6   2    1.83    0.18
   5   6   2    1.76    0.22
   6   6   2   -0.01    0.07
  -6   6  -2   -0.01    0.04
   6   6   2    0.08    0.08
   6   6   2   -0.03    0.06
  -7   6  -2    3.27    0.20
   7   6   2    2.96    0.32
   7   6   2    3.44    0.27
   7   6   2    3.17    0.24
   8   6   2    7.65    0.47
   8   6   2    7.17    0.39
  -8   6  -2    7.56    0.33
   9   6   2    0.35    0.15
  -9   6  -2    0.45    0.09
   9   6   2    0.60    0.15
  10   6   2   15.57    0.76
   8   7  -2    0.49    0.16
   8   7  -2    0.39    0.15
   7   7  -2    1.44    0.23
   7   7  -2    1.24    0.22
   6   7  -2    0.94    0.17
   6   7  -2    1.12    0.21
  -6   7   2    1.03    0.14
  -5   7   2    2.34    0.13
   5   7  -2    2.38    0.26
  -5   7   2    2.57    0.20
  -5   7   2    2.48    0.18
   5   7  -2    2.38    0.27
   5   7  -2    1.97    0.26
   4   7  -2    2.38    0.25
  -4   7   2    1.94    0.13
   4   7  -2    1.74    0.22
  -4   7   2    2.18    0.20
  -4   7   2    1.89    0.15
   4   7  -2    2.06    0.27
   3   7  -2    4.87    0.35
   3   7  -2    5.51    0.34
   3   7  -2    5.30    0.32
  -3   7   2    5.48    0.27
  -3   7   2    5.14    0.31
  -3   7   2    5.35    0.25
  -2   7   2    0.09    0.06
  -2   7   2    0.05    0.06
   2   7  -2    0.18    0.08
  -2   7   2   -0.02    0.04
   2   7  -2    0.07    0.07
   2   7  -2    0.02    0.07
   1   7  -2    0.17    0.09
   1   7  -2    0.29    0.09
  -1   7   2    0.21    0.07
  -1   7   2    0.16    0.07
   1   7  -2    0.24    0.10
  -1   7   2    0.65    0.14
   0   7   2    2.53    0.23
   0   7  -2    2.96    0.20
   0   7  -2    2.92    0.26
   0   7   2    3.12    0.22
   0   7  -2    3.73    0.25
   1   7   2   13.91    0.61
  -1   7  -2   13.93    0.60
  -1   7  -2   14.32    0.50
  -1   7  -2   14.12    0.56
   1   7   2   13.84    0.56
   2   7   2    6.97    0.40
  -2   7  -2    6.95    0.35
   2   7   2    7.14    0.37
  -2   7  -2    6.51    0.38
  -2   7  -2    6.93    0.29
   3   7   2    9.74    0.47
   3   7   2    9.68    0.48
  -3   7  -2    8.91    0.44
  -3   7  -2    8.86    0.40
   4   7   2    1.82    0.23
   4   7   2    2.06    0.25
  -4   7  -2    2.15    0.18
  -4   7  -2    2.12    0.20
   5   7   2    0.12    0.09
  -5   7  -2    0.04    0.05
  -5   7  -2    0.00    0.05
   5   7   2   -0.07    0.06
   6   7   2   14.06    0.64
  -6   7  -2   14.51    0.52
   6   7   2   13.21    0.64
  -7   7  -2    0.23    0.08
   7   7   2    0.21    0.11
   7   7   2    0.08    0.10
  -8   7  -2    5.83    0.29
   8   7   2    5.71    0.42
   8   8  -2    0.03    0.12
   7   8  -2    5.26    0.41
   7   8  -2    4.71    0.40
   6   8  -2    1.97    0.29
   6   8  -2    1.91    0.27
  -6   8   2    1.95    0.21
  -5   8   2    9.47    0.45
   5   8  -2    9.63    0.56
   5   8  -2    9.53    0.52
   4   8  -2    0.61    0.15
   4   8  -2    0.57    0.15
  -4   8   2    0.54    0.13
   4   8  -2    0.47    0.14
  -3   8   2    0.09    0.07
   3   8  -2    0.11    0.09
   3   8  -2    0.19    0.12
  -3   8   2    0.09    0.08
   3   8  -2   -0.05    0.06
   2   8  -2    4.10    0.34
   2   8  -2    3.68    0.29
  -2   8   2    4.05    0.25
  -2   8   2    3.83    0.30
   2   8  -2    3.94    0.27
   1   8  -2    2.23    0.25
   1   8  -2    2.52    0.30
  -1   8   2    2.21    0.20
  -1   8   2    2.01    0.24
   1   8  -2    2.22    0.22
   0   8  -2   16.47    0.74
   0   8  -2   18.50    0.71
   0   8   2   17.76    0.67
   0   8   2   18.20    0.74
   0   8  -2   17.01    0.62
   1   8   2    1.91    0.26
   1   8   2    1.84    0.21
  -1   8  -2    2.40    0.28
  -1   8  -2    2.45    0.26
   2   8   2   10.60    0.51
  -2   8  -2   10.40    0.53
   2   8   2   10.15    0.53
  -2   8  -2   11.43    0.49
  -3   8  -2   20.27    0.79
   3   8   2   19.79    0.83
   3   8   2   20.39    0.80
  -3   8  -2   21.01    0.75
  -4   8  -2    3.89    0.28
   4   8   2    3.80    0.31
  -4   8  -2    3.66    0.25
   4   8   2    3.69    0.32
  -5   8  -2    7.28    0.40
   5   8   2    8.09    0.48
   5   8   2    7.78    0.46
  -5   8  -2    8.10    0.38
   6   8   2    3.66    0.32
  -6   8  -2    3.31    0.23
   6   8   2    2.71    0.33
  -7   8  -2   -0.02    0.07
   7   8   2    0.02    0.12
   5   9  -2    0.30    0.13
   5   9  -2    0.30    0.16
  -5   9   2    0.19    0.11
   4   9  -2    2.66    0.35
  -4   9   2    2.91    0.26
   4   9  -2    2.33    0.30
   4   9  -2    3.03    0.33
   3   9  -2    0.16    0.10
   3   9  -2    0.01    0.09
   3   9  -2   -0.02    0.09
  -3   9   2    0.15    0.09
   2   9  -2    0.11    0.09
  -2   9   2    0.12    0.09
  -2   9   2    0.18    0.12
   2   9  -2    0.30    0.14
   2   9  -2    0.12    0.09
   1   9  -2    5.59    0.37
  -1   9   2    6.41    0.41
   1   9  -2    5.47    0.41
  -1   9   2    5.55    0.33
   0   9   2   12.66    0.63
   0   9  -2   12.77    0.59
   0   9   2   13.21    0.57
   0   9  -2   13.64    0.66
   1   9   2    6.90    0.45
   1   9   2    8.16    0.44
  -1   9  -2    7.52    0.46
  -1   9  -2    7.88    0.43
  -2   9  -2    7.15    0.45
   2   9   2    7.16    0.47
  -2   9  -2    7.91    0.42
   2   9   2    8.20    0.45
   3   9   2    1.77    0.27
   3   9   2    1.36    0.22
  -3   9  -2    1.71    0.21
  -3   9  -2    1.76    0.25
  -4   9  -2    3.90    0.31
  -4   9  -2    4.75    0.30
   4   9   2    4.42    0.37
   4   9   2    4.44    0.36
  -5   9  -2   16.82    0.84
   5   9   2   15.67    0.76
   5   9   2   17.21    0.78
   4  10  -2    0.33    0.15
   3  10  -2   -0.01    0.10
   2  10  -2    0.64    0.17
   1  10  -2    5.13    0.37
   0  10  -2    0.32    0.17
   0  10   2    0.19    0.17
   0  10  -2    0.12    0.10
  -1  10  -2    1.44    0.27
   1  10   2    1.51    0.23
  -2  10  -2    1.64    0.26
   2  10   2    2.32    0.29
  -3  10  -2    0.14    0.13
 -11   0   3    0.24    0.10
 -11   0   3    0.37    0.13
 -10   0   3   -0.05    0.06
 -10   0   3   -0.05    0.08
  -9   0   3    6.25    0.37
  -9   0   3    6.03    0.31
  -8   0   3    0.00    0.07
  -7   0   3   12.69    0.48
  -7   0   3   12.74    0.51
  -6   0   3    0.02    0.04
  -6   0   3    0.01    0.04
  -5   0   3  136.36    3.61
  -5   0   3  136.64    3.57
  -4   0   3    0.00    0.03
  -4   0   3   -0.06    0.02
   4   0  -3    0.00    0.02
  -4   0   3   -0.04    0.02
  -3   0   3  197.18    4.99
  -3   0   3  193.22    5.01
   3   0  -3  193.64    4.97
  -3   0   3  193.92    5.00
   2   0  -3   -0.16    0.02
  -2   0   3   -0.15    0.02
  -2   0   3   -0.14    0.02
   1   0  -3   99.39    2.55
  -1   0   3  101.51    2.56
   1   0  -3   99.50    2.56
  -1   0   3   99.98    2.56
   1   0  -3   99.11    2.56
  -1   0   3   96.26    2.57
  -1   0   3   97.28    2.55
   0   0  -3    0.02    0.01
   0   0   3    0.01    0.02
   0   0  -3    0.04    0.01
   0   0   3    0.02    0.01
   0   0   3    0.11    0.02
   0   0  -3    0.02    0.01
   0   0   3    0.04    0.01
  -1   0  -3   40.63    1.08
  -1   0  -3   43.11    1.07
   1   0   3   42.11    1.08
   1   0   3   40.73    1.10
  -1   0  -3   41.56    1.10
   1   0   3   40.11    1.10
   2   0   3    0.08    0.03
   2   0   3    0.04    0.02
  -2   0  -3    0.02    0.02
  -2   0  -3   -0.01    0.01
  -2   0  -3    0.00    0.01
   3   0   3   40.91    1.10
  -3   0  -3   40.40    1.11
  -4   0  -3    0.00    0.02
   4   0   3   -0.03    0.01
  -5   0  -3   28.28    0.83
   5   0   3   28.32    0.83
  -6   0  -3    0.02    0.04
   6   0   3    0.04    0.04
  -7   0  -3   50.50    1.45
   7   0   3   51.30    1.46
  -8   0  -3   -0.03    0.04
   8   0   3    0.02    0.05
   9   0   3    1.21    0.16
  -9   0  -3    1.02    0.15
  10   0   3    0.03    0.08
 -10   0  -3    0.09    0.08
 -11   0  -3   23.56    0.85
 -11  -1   3    0.06    0.10
 -11  -1   3    0.09    0.09
 -11   1   3    0.18    0.08
 -10  -1   3    0.61    0.15
 -10  -1   3    0.51    0.12
 -10   1   3    0.48    0.11
 -10   1   3    0.39    0.13
  -9  -1   3    9.17    0.45
  -9  -1   3    8.50    0.41
   9   1  -3    8.53    0.52
  -9   1   3    8.57    0.37
  -9   1   3    8.70    0.45
  -8  -1   3    0.45    0.12
  -8   1   3    0.25    0.07
  -8   1   3    0.33    0.10
  -7  -1   3   37.16    1.15
  -7   1   3   36.15    1.15
  -7   1   3   37.26    1.08
  -6  -1   3    8.40    0.36
  -6  -1   3    7.67    0.35
  -6   1   3    8.21    0.31
  -6   1   3    7.55    0.35
  -5  -1   3   22.41    0.70
  -5  -1   3   22.20    0.70
  -5   1   3   20.76    0.69
  -5   1   3   21.79    0.64
   5   1  -3   22.25    0.67
  -5   1   3   21.85    0.71
  -4  -1   3    2.16    0.14
  -4  -1   3    2.35    0.15
   4   1  -3    2.19    0.13
  -4   1   3    2.33    0.14
  -4   1   3    2.07    0.14
  -4   1   3    2.14    0.11
  -3  -1   3    0.02    0.03
  -3  -1   3    0.07    0.03
  -3  -1   3    0.03    0.03
  -3   1   3    0.05    0.03
  -3   1   3   -0.03    0.02
   3   1  -3    0.05    0.03
  -3   1   3    0.03    0.02
  -3   1   3    0.03    0.02
  -2  -1   3    0.60    0.07
   2  -1  -3    0.92    0.05
  -2  -1   3    0.87    0.06
  -2  -1   3    0.89    0.07
   2   1  -3    0.77    0.06
  -2   1   3    0.79    0.06
  -2   1   3    0.91    0.07
  -2   1   3    0.88    0.05
   2   1  -3    0.87    0.07
  -2   1   3    0.78    0.07
   1  -1  -3   70.22    1.93
  -1  -1   3   77.07    1.92
  -1  -1   3   73.67    1.94
  -1  -1   3   74.48    1.94
   1  -1  -3   72.15    1.93
   1  -1  -3   74.96    1.91
   1   1  -3   74.30    1.92
   1   1  -3   72.98    1.93
  -1   1   3   76.28    1.91
  -1   1   3   74.78    1.93
  -1   1   3   75.23    1.93
  -1   1   3   75.36    1.91
   1   1  -3   74.18    1.95
  -1   1   3   72.90    1.94
   0  -1  -3    0.52    0.04
   0  -1   3    0.40    0.05
   0  -1  -3    0.59    0.05
   0  -1   3    0.49    0.06
   0  -1  -3    0.45    0.05
   0  -1   3    0.58    0.04
   0  -1  -3    0.43    0.04
   0  -1  -3    0.47    0.04
   0   1   3    0.40    0.05
   0   1   3    0.52    0.05
   0   1   3    0.49    0.04
   0   1  -3    0.54    0.04
   0   1   3    0.54    0.04
   0   1  -3    0.58    0.03
   0   1   3    0.50    0.04
   0   1  -3    0.66    0.05
  -1  -1  -3  270.38    6.87
   1  -1   3  266.10    6.87
   1  -1   3  274.38    6.91
  -1  -1  -3  246.37    6.92
  -1  -1  -3  281.02    6.89
   1  -1   3  266.17    6.90
   1   1   3  269.77    6.88
   1   1   3  267.34    6.88
   1   1   3  259.91    7.06
  -1   1  -3  267.72    6.88
   1   1   3  298.56    6.89
  -1   1  -3  276.12    6.88
  -2  -1  -3    3.01    0.13
  -2  -1  -3    3.14    0.14
   2  -1   3    3.34    0.11
   2   1   3    3.10    0.15
   2   1   3    3.18    0.12
   2   1   3    3.34    0.15
  -2   1  -3    3.54    0.12
  -2   1  -3    3.28    0.14
  -3  -1  -3    4.29    0.16
  -3  -1  -3    4.23    0.19
   3  -1   3    4.32    0.15
   3   1   3    4.41    0.15
   3   1   3    4.50    0.19
  -3   1  -3    4.64    0.18
  -3   1  -3    4.26    0.13
   4  -1   3    5.91    0.21
  -4  -1  -3    6.20    0.20
  -4  -1  -3    5.99    0.25
   4   1   3    5.75    0.19
  -4   1  -3    6.12    0.23
   4   1   3    5.97    0.25
  -5  -1  -3   44.92    1.30
   5   1   3   44.59    1.21
   5   1   3   48.22    1.32
  -5   1  -3   47.16    1.28
  -6  -1  -3    2.05    0.15
   6   1   3    1.67    0.07
   6   1   3    1.84    0.15
  -6   1  -3    1.72    0.13
   7  -1   3    6.45    0.28
  -7  -1  -3    5.98    0.30
   7   1   3    6.46    0.31
  -7   1  -3    6.42    0.29
   8  -1   3    1.88    0.16
  -8  -1  -3    1.73    0.19
   8   1   3    1.83    0.20
  -8   1  -3    2.10    0.16
   9  -1   3    1.21    0.15
  -9  -1  -3    1.58    0.19
   9   1   3    1.43    0.19
  -9   1  -3    1.58    0.17
 -10  -1  -3    0.20    0.09
  10   1   3    0.05    0.08
 -10   1  -3    0.21    0.09
 -11  -1  -3    0.41    0.13
 -11   1  -3    0.41    0.11
 -11  -2   3    2.43    0.27
 -11  -2   3    1.91    0.25
 -11   2   3    2.09    0.17
 -10  -2   3    0.02    0.07
 -10  -2   3    0.03    0.08
 -10   2   3    0.00    0.04
 -10   2   3    0.05    0.09
  -9  -2   3    7.95    0.41
  -9  -2   3    7.86    0.41
  -9   2   3    8.37    0.33
  -9   2   3    7.94    0.42
   9   2  -3    7.66    0.37
  -8  -2   3   13.45    0.55
  -8   2   3   13.21    0.45
  -8   2   3   13.81    0.56
   8   2  -3   13.05    0.52
  -7  -2   3    9.77    0.42
  -7   2   3    8.20    0.40
  -7   2   3    8.90    0.34
  -7   2   3    9.17    0.32
   7   2  -3    9.15    0.39
  -6  -2   3    2.33    0.17
  -6  -2   3    2.56    0.20
  -6   2   3    2.78    0.20
  -6   2   3    2.69    0.14
  -5  -2   3   15.75    0.56
  -5  -2   3   14.43    0.52
  -5   2   3   15.75    0.45
   5   2  -3   15.30    0.52
  -5   2   3   14.57    0.53
  -5   2   3   14.99    0.52
  -4  -2   3    0.06    0.04
  -4  -2   3    0.15    0.06
   4   2  -3    0.03    0.03
  -4   2   3    0.02    0.03
  -4   2   3    0.05    0.04
  -4   2   3   -0.01    0.03
  -4   2   3    0.08    0.02
  -3  -2   3   12.25    0.41
  -3  -2   3   12.15    0.43
   3   2  -3   12.12    0.43
  -3   2   3   12.68    0.40
  -3   2   3   12.12    0.37
  -3   2   3   12.31    0.34
  -3   2   3   12.67    0.41
  -3   2   3   11.85    0.41
  -2  -2   3   50.44    1.34
  -2  -2   3   52.59    1.40
  -2  -2   3   50.46    1.37
   2   2  -3   49.37    1.40
  -2   2   3   51.93    1.31
  -2   2   3   51.00    1.37
  -2   2   3   50.16    1.36
  -2   2   3   50.20    1.35
  -2   2   3   51.08    1.37
   2   2  -3   50.52    1.34
   1  -2  -3    7.84    0.25
  -1  -2   3    7.98    0.29
  -1  -2   3    8.57    0.24
   1  -2  -3    7.94    0.23
  -1  -2   3    7.97    0.27
   1   2  -3    7.86    0.24
   1   2  -3    8.10    0.29
  -1   2   3    7.67    0.27
  -1   2   3    7.75    0.25
  -1   2   3    7.50    0.27
  -1   2   3    7.84    0.27
  -1   2   3    8.09    0.24
   0  -2  -3  105.41    2.63
   0  -2   3  103.36    2.60
   0  -2  -3  103.86    2.61
   0  -2   3  100.20    2.65
   0   2   3   96.58    2.65
   0   2   3  100.49    2.66
   0   2   3  105.39    2.62
   0   2  -3  110.03    2.69
   0   2   3  100.38    2.65
   0   2   3   99.89    2.64
   0   2  -3  101.85    2.67
   0   2  -3   98.59    2.60
   1  -2   3   10.30    0.30
  -1  -2  -3    9.91    0.32
  -1   2  -3   10.31    0.34
  -1   2  -3   10.67    0.34
  -1   2  -3   10.15    0.27
   1   2   3   10.37    0.34
   1   2   3   10.39    0.33
   1   2   3    9.98    0.34
   1   2   3   10.29    0.35
  -2  -2  -3   15.42    0.47
   2   2   3   14.78    0.46
   2   2   3   15.04    0.47
  -2   2  -3   15.20    0.45
  -2   2  -3   14.32    0.45
   2   2   3   15.18    0.48
   2   2   3   14.54    0.46
  -3  -2  -3   56.96    1.58
   3  -2   3   60.16    1.49
   3  -2   3   58.02    1.49
   3   2   3   59.13    1.60
   3   2   3   58.62    1.56
  -3   2  -3   56.85    1.53
  -3   2  -3   58.42    1.55
  -4  -2  -3    0.09    0.04
   4  -2   3    0.08    0.02
   4   2   3    0.11    0.04
  -4   2  -3    0.01    0.02
  -4   2  -3    0.01    0.02
   4   2   3    0.03    0.03
  -5  -2  -3    0.56    0.09
   5   2   3    0.42    0.08
   5   2   3    0.47    0.07
  -5   2  -3    0.52    0.07
  -6  -2  -3    6.42    0.31
  -6   2  -3    6.66    0.27
   6   2   3    6.27    0.24
   6   2   3    6.74    0.32
  -7  -2  -3   16.34    0.61
  -7   2  -3   16.86    0.56
   7   2   3   17.73    0.64
  -8  -2  -3   19.31    0.70
   8   2   3   18.63    0.71
  -8   2  -3   19.17    0.64
  -9  -2  -3    1.93    0.22
  -9   2  -3    2.06    0.17
   9   2   3    2.11    0.24
 -10  -2  -3    3.85    0.29
 -10   2  -3    3.94    0.25
  10   2   3    4.23    0.32
 -11  -2  -3    1.52    0.22
 -11   2  -3    1.26    0.17
  11   2   3    1.36    0.22
 -11  -3   3   -0.01    0.09
 -11  -3   3    0.01    0.10
 -11   3   3   -0.02    0.05
 -10  -3   3    1.10    0.19
 -10  -3   3    1.02    0.18
 -10   3   3    1.12    0.12
  -9  -3   3    6.82    0.40
  -9  -3   3    7.04    0.38
   9   3  -3    6.56    0.36
  -9   3   3    7.24    0.40
  -9   3   3    6.87    0.27
  -8  -3   3   17.39    0.66
  -8   3   3   17.51    0.55
  -8   3   3   17.61    0.53
  -8   3   3   18.00    0.68
   8   3  -3   16.95    0.66
  -7  -3   3   21.52    0.74
  -7   3   3   21.90    0.76
   7   3  -3   21.04    0.75
  -7   3   3   20.57    0.60
  -7   3   3   21.47    0.62
  -6  -3   3   28.11    0.90
  -6   3   3   28.29    0.77
   6   3  -3   28.59    0.92
   6   3  -3   29.35    0.94
  -6   3   3   28.86    0.92
  -6   3   3   29.78    0.79
  -5  -3   3    5.72    0.27
   5   3  -3    5.69    0.29
  -5   3   3    5.73    0.27
   5   3  -3    5.72    0.30
  -5   3   3    5.90    0.25
  -5   3   3    5.68    0.28
  -5   3   3    6.44    0.23
  -5   3   3    5.66    0.18
  -4  -3   3    0.12    0.05
  -4   3   3   -0.06    0.02
  -4   3   3    0.03    0.03
  -4   3   3    0.01    0.03
   4   3  -3    0.00    0.04
   4   3  -3    0.06    0.05
  -4   3   3    0.02    0.03
  -3  -3   3   12.71    0.42
  -3   3   3   12.15    0.34
   3   3  -3   12.99    0.47
  -3   3   3   12.39    0.41
  -3   3   3   12.31    0.42
  -3   3   3   13.11    0.43
  -3   3   3   12.32    0.41
   3   3  -3   12.62    0.47
  -2  -3   3    0.19    0.05
  -2   3   3    0.12    0.04
  -2   3   3    0.24    0.05
  -2   3   3    0.21    0.05
   2   3  -3    0.08    0.05
   2   3  -3    0.13    0.03
  -2   3   3    0.18    0.03
  -2   3   3    0.14    0.04
   2   3  -3    0.18    0.06
   1  -3  -3    0.23    0.04
   1  -3  -3    0.26    0.03
  -1  -3   3    0.27    0.05
   1   3  -3    0.16    0.03
  -1   3   3    0.18    0.05
  -1   3   3    0.28    0.06
  -1   3   3    0.13    0.05
  -1   3   3    0.21    0.04
   1   3  -3    0.18    0.06
   1   3  -3    0.24    0.07
  -1   3   3    0.23    0.04
   0  -3  -3  115.58    2.92
   0  -3   3  111.88    2.94
   0   3   3  114.53    2.89
   0   3   3  113.66    2.94
   0   3   3  115.30    2.98
   0   3  -3  111.87    2.92
   0   3  -3  113.90    2.99
   0   3   3  112.59    2.94
   0   3   3  111.09    2.98
   0   3  -3  113.05    3.00
  -1  -3  -3   98.20    2.54
   1  -3   3   96.43    2.47
   1   3   3   95.31    2.58
   1   3   3   99.19    2.48
  -1   3  -3   96.12    2.49
   1   3   3   97.04    2.54
  -1   3  -3   94.59    2.58
   1   3   3   97.13    2.56
   1   3   3   98.15    2.58
  -1   3  -3   98.89    2.56
  -2  -3  -3    9.83    0.35
   2   3   3   10.10    0.37
  -2   3  -3   10.05    0.34
  -2   3  -3    9.81    0.35
   2   3   3    9.90    0.30
  -2   3  -3   10.32    0.27
   2   3   3   10.66    0.38
   2   3   3    9.44    0.34
   2   3   3    9.66    0.36
  -3  -3  -3   33.07    0.94
   3   3   3   31.32    0.92
   3   3   3   31.97    0.94
  -3   3  -3   31.21    0.90
  -3   3  -3   31.52    0.91
   3   3   3   32.65    0.97
   4  -3   3   52.08    1.33
  -4  -3  -3   49.72    1.45
  -4   3  -3   52.67    1.40
   4   3   3   49.67    1.43
  -4   3  -3   51.94    1.38
   4   3   3   52.36    1.48
  -5  -3  -3   11.35    0.44
   5  -3   3   11.04    0.34
  -5   3  -3   10.81    0.38
   5   3   3   11.48    0.41
   5   3   3   11.04    0.45
  -5   3  -3   11.04    0.33
  -6  -3  -3   36.49    1.11
   6   3   3   35.53    1.13
   6   3   3   34.97    1.04
  -6   3  -3   36.74    1.03
  -7  -3  -3   32.45    1.06
   7   3   3   32.24    0.97
  -7   3  -3   33.94    0.98
   7   3   3   34.85    1.10
  -8  -3  -3    7.30    0.38
   8   3   3    6.97    0.39
  -8   3  -3    6.84    0.31
  -9  -3  -3   12.00    0.54
  -9   3  -3   12.07    0.46
   9   3   3   11.33    0.55
 -10  -3  -3    0.22    0.11
  10   3   3    0.09    0.09
 -10   3  -3    0.17    0.08
 -11  -3  -3    1.84    0.25
  11   3   3    2.19    0.29
 -11  -4   3    1.17    0.22
 -11   4   3    0.89    0.10
 -10  -4   3    0.06    0.10
 -10  -4   3   -0.03    0.07
 -10   4   3    0.01    0.04
  10   4  -3   -0.02    0.09
  -9  -4   3    0.77    0.15
  -9  -4   3    1.09    0.20
   9   4  -3    0.64    0.15
   9   4  -3    0.85    0.16
  -9   4   3    0.96    0.08
  -8  -4   3    1.40    0.18
   8   4  -3    1.12    0.18
  -8   4   3    1.36    0.09
  -8   4   3    1.30    0.07
  -7  -4   3    6.64    0.33
  -7   4   3    6.40    0.34
   7   4  -3    6.33    0.36
  -6  -4   3    3.99    0.23
   6   4  -3    3.78    0.26
  -6   4   3    3.77    0.24
   6   4  -3    3.69    0.25
  -6   4   3    4.25    0.19
  -5  -4   3   28.66    0.87
  -5   4   3   29.97    0.84
   5   4  -3   27.33    0.94
  -5   4   3   29.18    0.86
  -5   4   3   28.86    0.89
   5   4  -3   28.53    0.93
  -5   4   3   27.65    0.88
  -4  -4   3    0.02    0.04
   4   4  -3    0.05    0.05
  -4   4   3    0.00    0.03
   4   4  -3   -0.01    0.04
  -4   4   3   -0.02    0.03
  -4   4   3    0.04    0.04
  -4   4   3    0.03    0.04
  -3  -4   3    9.36    0.33
   3   4  -3    9.63    0.40
  -3   4   3    9.01    0.33
   3   4  -3    9.29    0.37
  -3   4   3    8.85    0.34
   3   4  -3    8.99    0.40
  -3   4   3    9.28    0.35
  -3   4   3    8.92    0.34
  -2  -4   3   65.66    1.71
  -2   4   3   63.18    1.76
   2   4  -3   62.96    1.82
  -2   4   3   63.92    1.73
   2   4  -3   64.56    1.81
   2   4  -3   64.28    1.67
  -2   4   3   63.63    1.70
   2   4  -3   64.35    1.76
  -2   4   3   64.47    1.74
   1  -4  -3   11.61    0.33
  -1  -4   3   11.88    0.37
  -1   4   3   11.29    0.42
   1   4  -3   11.06    0.45
   1   4  -3   11.04    0.39
  -1   4   3   11.63    0.34
   1   4  -3   11.21    0.43
  -1   4   3   11.80    0.38
  -1   4   3   10.54    0.40
   0  -4  -3   33.30    0.89
   0  -4   3   32.41    0.91
   0   4  -3   31.65    0.90
   0   4   3   31.32    0.97
   0   4  -3   33.23    0.97
   0   4   3   32.40    0.91
   0   4  -3   32.88    1.00
   0   4   3   32.05    0.96
  -1  -4  -3   15.41    0.48
  -1   4  -3   15.70    0.54
  -1   4  -3   15.05    0.45
   1   4   3   14.82    0.54
   1   4   3   15.78    0.53
  -1   4  -3   15.58    0.52
   1   4   3   15.21    0.48
  -2  -4  -3   10.27    0.37
   2  -4   3   10.30    0.30
  -2   4  -3   10.07    0.29
   2   4   3   10.29    0.36
  -2   4  -3    9.87    0.39
  -2   4  -3   10.79    0.38
   2   4   3    9.85    0.40
   2   4   3   10.15    0.40
  -3  -4  -3    0.14    0.05
   3  -4   3    0.14    0.02
   3   4   3    0.05    0.04
   3   4   3    0.07    0.05
  -3   4  -3    0.12    0.05
  -3   4  -3    0.07    0.04
   3   4   3    0.14    0.06
   3   4   3    0.08    0.03
  -4  -4  -3    5.92    0.28
   4  -4   3    5.30    0.17
   4   4   3    5.74    0.26
   4   4   3    5.37    0.28
  -4   4  -3    5.65    0.25
   4   4   3    5.73    0.30
  -4   4  -3    5.64    0.24
  -5  -4  -3    1.68    0.18
   5   4   3    1.75    0.20
  -5   4  -3    1.75    0.12
   5   4   3    1.57    0.17
  -5   4  -3    1.49    0.11
  -6  -4  -3    0.00    0.06
  -6   4  -3    0.03    0.04
   6   4   3    0.11    0.06
   6   4   3    0.04    0.07
  -7  -4  -3    0.08    0.08
   7   4   3    0.14    0.07
  -7   4  -3    0.08    0.05
   7   4   3    0.21    0.10
  -8  -4  -3    0.36    0.12
   8   4   3    0.51    0.12
  -8   4  -3    0.46    0.09
   9   4   3    0.82    0.18
  -9   4  -3    1.05    0.13
  10   4   3    0.18    0.12
 -10   4  -3    0.18    0.08
  10   5  -3    2.56    0.33
   9   5  -3    0.62    0.16
   9   5  -3    0.70    0.16
  -8  -5   3   -0.01    0.10
  -8  -5   3    0.05    0.07
   8   5  -3    0.01    0.07
   8   5  -3    0.10    0.10
  -7  -5   3    2.29    0.18
   7   5  -3    1.87    0.23
   7   5  -3    2.12    0.25
  -6  -5   3    0.71    0.11
  -6   5   3    0.79    0.11
  -6   5   3    0.73    0.09
   6   5  -3    0.80    0.15
   6   5  -3    0.74    0.15
  -5  -5   3    0.16    0.06
   5   5  -3    0.24    0.09
  -5   5   3    0.19    0.06
  -5   5   3    0.12    0.05
   5   5  -3    0.21    0.09
  -5   5   3    0.23    0.07
   5   5  -3    0.20    0.08
  -4  -5   3   12.92    0.44
  -4   5   3   12.58    0.46
  -4   5   3   12.54    0.46
   4   5  -3   13.20    0.51
  -4   5   3   12.44    0.45
   4   5  -3   12.65    0.53
   4   5  -3   12.77    0.55
  -3  -5   3    0.84    0.09
   3   5  -3    0.67    0.13
  -3   5   3    0.84    0.10
  -3   5   3    0.75    0.11
  -3   5   3    0.77    0.10
   3   5  -3    0.74    0.11
   3   5  -3    0.85    0.14
  -2  -5   3    0.01    0.03
   2   5  -3    0.03    0.04
  -2   5   3    0.04    0.05
   2   5  -3   -0.05    0.04
   2   5  -3   -0.04    0.04
  -2   5   3   -0.01    0.04
   2   5  -3    0.03    0.02
  -2   5   3   -0.02    0.03
   1  -5  -3    0.08    0.02
  -1  -5   3    0.13    0.04
  -1   5   3    0.08    0.04
  -1   5   3    0.08    0.05
  -1   5   3    0.15    0.06
   1   5  -3    0.00    0.04
   1   5  -3    0.17    0.07
   1   5  -3    0.19    0.06
   0  -5   3   34.27    0.98
   0  -5  -3   35.38    0.98
   0   5   3   37.14    1.06
   0   5   3   34.72    1.08
   0   5  -3   34.65    1.07
   0   5  -3   34.55    1.00
   0   5   3   35.10    0.99
   0   5  -3   35.88    1.11
  -1  -5  -3    3.55    0.18
   1   5   3    3.29    0.16
   1   5   3    3.19    0.21
  -1   5  -3    3.32    0.15
  -1   5  -3    3.27    0.20
   1   5   3    3.15    0.21
  -1   5  -3    3.18    0.22
  -2  -5  -3    0.03    0.04
  -2   5  -3   -0.03    0.02
   2   5   3    0.00    0.05
   2   5   3   -0.02    0.04
  -2   5  -3   -0.01    0.03
   2   5   3   -0.01    0.03
  -2   5  -3    0.23    0.07
  -3  -5  -3    0.45    0.09
  -3   5  -3    0.37    0.08
  -3   5  -3    0.56    0.05
   3   5   3    0.50    0.08
  -3   5  -3    0.53    0.10
   3   5   3    0.37    0.09
   3   5   3    0.58    0.12
  -4  -5  -3   47.81    1.44
   4   5   3   48.09    1.47
  -4   5  -3   50.24    1.40
   4   5   3   50.45    1.41
  -4   5  -3   48.41    1.41
   4   5   3   50.85    1.50
   5   5   3    3.85    0.23
  -5   5  -3    3.29    0.19
   5   5   3    3.77    0.27
  -5   5  -3    3.57    0.20
   5   5   3    3.40    0.24
  -6   5  -3   20.53    0.66
   6   5   3   20.53    0.79
   6   5   3   20.21    0.73
   6   5   3   21.35    0.73
   7   5   3    4.31    0.32
   7   5   3    4.27    0.27
  -7   5  -3    4.02    0.22
   8   5   3    0.07    0.09
  -8   5  -3    0.02    0.05
   9   5   3    2.05    0.28
  -9   5  -3    1.56    0.17
  10   5   3    9.24    0.55
   9   6  -3    6.66    0.45
   9   6  -3    6.58    0.44
   8   6  -3    0.06    0.09
   8   6  -3   -0.04    0.08
  -7   6   3    0.00    0.05
   7   6  -3    0.06    0.08
   7   6  -3    0.08    0.09
   6   6  -3    2.10    0.27
  -6   6   3    2.07    0.16
   6   6  -3    1.92    0.24
  -6   6   3    1.97    0.16
  -5   6   3    0.88    0.12
  -5   6   3    0.91    0.13
  -5   6   3    0.81    0.11
   5   6  -3    0.63    0.14
   5   6  -3    0.76    0.16
   5   6  -3    0.82    0.17
   4   6  -3    8.12    0.41
  -4   6   3    7.53    0.33
  -4   6   3    7.80    0.35
  -4   6   3    7.43    0.32
   4   6  -3    7.24    0.42
   4   6  -3    7.77    0.39
  -3  -6   3    6.77    0.27
  -3   6   3    7.51    0.30
   3   6  -3    6.79    0.37
   3   6  -3    7.76    0.36
  -3   6   3    7.19    0.31
  -3   6   3    7.05    0.35
   3   6  -3    7.00    0.40
  -2  -6   3    1.76    0.12
   2   6  -3    1.88    0.22
  -2   6   3    1.97    0.13
  -2   6   3    1.92    0.16
   2   6  -3    1.60    0.17
   2   6  -3    1.74    0.20
  -2   6   3    1.90    0.18
  -1  -6   3    1.32    0.10
   1   6  -3    1.22    0.17
  -1   6   3    1.30    0.12
  -1   6   3    1.07    0.13
   1   6  -3    0.85    0.15
   1   6  -3    1.45    0.15
  -1   6   3    1.40    0.17
   0  -6   3    1.28    0.10
   0   6  -3    1.61    0.13
   0   6  -3    1.20    0.15
   0   6  -3    1.25    0.18
   0   6   3    1.48    0.11
   1  -6   3    0.24    0.06
   1   6   3    0.32    0.09
   1   6   3    0.19    0.05
  -1   6  -3    0.26    0.08
  -1   6  -3    0.31    0.09
   1   6   3    0.07    0.07
  -1   6  -3    0.38    0.07
  -2   6  -3    2.03    0.12
  -2   6  -3    1.96    0.18
   2   6   3    1.99    0.19
   2   6   3    2.14    0.19
  -2   6  -3    1.89    0.17
   2   6   3    1.80    0.13
  -3   6  -3    6.60    0.32
  -3   6  -3    6.58    0.34
   3   6   3    6.75    0.29
   3   6   3    6.63    0.36
   3   6   3    7.06    0.37
   4   6   3    0.38    0.11
   4   6   3    0.22    0.09
  -4   6  -3    0.40    0.09
   4   6   3    0.39    0.08
  -4   6  -3    0.30    0.09
  -5   6  -3    1.36    0.15
   5   6   3    1.54    0.17
   5   6   3    1.59    0.22
  -5   6  -3    1.46    0.16
   5   6   3    1.29    0.18
  -6   6  -3    3.08    0.21
   6   6   3    3.66    0.27
   6   6   3    3.51    0.29
   6   6   3    3.30    0.23
   7   6   3    2.17    0.25
   7   6   3    1.81    0.21
   7   6   3    1.75    0.25
  -7   6  -3    1.86    0.18
   8   6   3    0.79    0.16
   8   6   3    0.90    0.20
  -8   6  -3    0.69    0.12
   9   6   3    0.84    0.17
   9   6   3    0.49    0.17
  -9   6  -3    0.88    0.13
   9   7  -3    4.08    0.37
   8   7  -3    3.18    0.36
   8   7  -3    3.87    0.40
   7   7  -3   -0.03    0.09
  -7   7   3    0.15    0.07
   7   7  -3   -0.01    0.09
   6   7  -3    3.02    0.34
   6   7  -3    2.99    0.31
  -6   7   3    2.56    0.20
   5   7  -3    2.94    0.33
  -5   7   3    3.53    0.22
  -5   7   3    3.58    0.24
   5   7  -3    3.06    0.31
   5   7  -3    3.36    0.28
  -4   7   3    8.49    0.36
   4   7  -3    7.18    0.46
  -4   7   3    8.35    0.40
   4   7  -3    8.56    0.45
   4   7  -3    8.76    0.44
   3   7  -3    0.24    0.11
  -3   7   3    0.12    0.08
   3   7  -3    0.17    0.10
  -3   7   3    0.23    0.08
   3   7  -3    0.19    0.09
  -2   7   3    0.32    0.09
   2   7  -3    0.45    0.13
   2   7  -3    0.20    0.09
   2   7  -3    0.32    0.09
  -2   7   3    0.33    0.10
   1   7  -3    0.14    0.09
   1   7  -3    0.09    0.06
   1   7  -3    0.14    0.07
  -1   7   3    0.08    0.06
  -1   7   3    0.01    0.07
   0   7  -3    3.11    0.19
   0   7   3    2.86    0.22
   0   7   3    3.19    0.25
   0   7  -3    2.98    0.24
   0   7  -3    2.93    0.26
   1   7   3   24.61    0.88
  -1   7  -3   22.98    0.72
  -1   7  -3   24.06    0.83
   1   7   3   22.94    0.82
  -1   7  -3   23.33    0.87
  -2   7  -3    2.43    0.20
   2   7   3    2.16    0.25
   2   7   3    1.94    0.22
   2   7   3    1.86    0.18
  -2   7  -3    1.49    0.20
   3   7   3   17.71    0.70
   3   7   3   16.36    0.70
   3   7   3   17.53    0.59
  -3   7  -3   17.84    0.65
  -3   7  -3   17.62    0.68
   4   7   3   -0.03    0.06
  -4   7  -3    0.15    0.08
   4   7   3   -0.02    0.05
   4   7   3    0.01    0.07
  -4   7  -3   -0.06    0.05
   5   7   3    3.41    0.28
   5   7   3    3.87    0.24
   5   7   3    3.61    0.30
  -5   7  -3    3.31    0.23
  -5   7  -3    3.72    0.25
   6   7   3    0.74    0.14
  -6   7  -3    0.56    0.12
   6   7   3    0.36    0.13
   6   7   3    0.43    0.14
   7   7   3   24.06    0.95
  -7   7  -3   23.30    0.78
   7   7   3   21.90    0.87
   8   7   3    0.22    0.16
  -8   7  -3    0.20    0.09
   7   8  -3    0.09    0.12
   7   8  -3    0.09    0.12
   6   8  -3   17.48    0.77
   6   8  -3   16.14    0.79
  -6   8   3   18.09    0.65
   5   8  -3    1.00    0.20
  -5   8   3    0.78    0.14
   5   8  -3    0.69    0.17
  -4   8   3    0.13    0.08
   4   8  -3    0.26    0.11
   4   8  -3    0.33    0.13
  -4   8   3    0.30    0.11
   4   8  -3    0.27    0.13
  -3   8   3    0.30    0.11
   3   8  -3    0.29    0.13
   3   8  -3    0.09    0.08
   3   8  -3    0.33    0.12
  -3   8   3    0.41    0.10
   2   8  -3    6.81    0.36
   2   8  -3    6.31    0.39
  -2   8   3    7.40    0.35
   2   8  -3    6.49    0.43
  -2   8   3    6.25    0.38
  -1   8   3    0.58    0.14
  -1   8   3    0.54    0.12
   1   8  -3    0.54    0.14
   1   8  -3    0.73    0.13
   1   8  -3    0.70    0.17
   0   8   3    0.27    0.10
   0   8  -3    0.38    0.13
   0   8   3    0.56    0.14
   0   8  -3    0.47    0.13
   1   8   3    3.69    0.28
   1   8   3    3.36    0.29
  -1   8  -3    3.81    0.29
  -1   8  -3    4.02    0.32
   2   8   3    4.45    0.33
   2   8   3    3.96    0.30
  -2   8  -3    3.91    0.31
  -2   8  -3    4.19    0.29
   3   8   3    1.42    0.21
  -3   8  -3    1.89    0.23
  -3   8  -3    2.06    0.23
   3   8   3    2.03    0.27
   4   8   3    1.20    0.21
  -4   8  -3    0.91    0.15
  -4   8  -3    0.97    0.17
   4   8   3    1.12    0.21
   5   8   3    4.65    0.35
   5   8   3    4.80    0.37
  -5   8  -3    3.83    0.27
  -6   8  -3    1.43    0.19
   6   8   3    1.37    0.23
   6   8   3    1.18    0.23
   7   8   3    6.79    0.45
  -6   9   3    8.97    0.44
   6   9  -3    8.96    0.62
   5   9  -3    2.56    0.35
   5   9  -3    2.89    0.32
  -5   9   3    2.04    0.24
   4   9  -3   19.14    0.83
  -4   9   3   19.64    0.77
   4   9  -3   19.06    0.79
   4   9  -3   19.60    0.89
   3   9  -3    3.93    0.33
   3   9  -3    4.05    0.31
   3   9  -3    3.72    0.36
  -3   9   3    3.74    0.30
   2   9  -3    1.84    0.26
  -2   9   3    1.55    0.22
  -2   9   3    2.03    0.22
   2   9  -3    2.11    0.30
  -1   9   3    3.13    0.25
  -1   9   3    3.51    0.30
   1   9  -3    3.15    0.33
   1   9  -3    3.15    0.36
   0   9   3    3.53    0.31
   0   9   3    3.48    0.27
   0   9  -3    3.22    0.33
   0   9  -3    3.79    0.34
  -1   9  -3    9.07    0.48
   1   9   3    9.11    0.52
   1   9   3    9.07    0.47
  -1   9  -3    8.57    0.51
   2   9   3   -0.04    0.08
  -2   9  -3    0.12    0.10
   2   9   3   -0.05    0.08
  -2   9  -3   -0.03    0.07
  -3   9  -3    8.68    0.49
   3   9   3    8.79    0.52
   3   9   3    9.92    0.52
  -3   9  -3    9.25    0.47
  -4   9  -3    5.31    0.34
  -4   9  -3    5.11    0.36
   4   9   3    4.75    0.39
   4   9   3    5.31    0.39
   5   9   3    0.56    0.18
   3  10  -3    0.04    0.11
   2  10  -3    0.30    0.14
   1  10  -3    0.45    0.15
   0  10   3    0.01    0.10
   0  10  -3    0.01    0.14
  -1  10  -3   -0.03    0.11
   1  10   3    0.08    0.11
   2  10   3    0.00    0.10
  -2  10  -3   -0.05    0.12
  -3  10  -3    0.64    0.20
 -11   0   4    0.03    0.07
 -11   0   4   -0.07    0.08
 -10   0   4    6.61    0.35
 -10   0   4    6.66    0.41
  -9   0   4    0.09    0.08
  -8   0   4    0.32    0.10
  -7   0   4    0.07    0.06
  -7   0   4    0.03    0.05
  -6   0   4   47.30    1.37
  -6   0   4   48.64    1.41
  -5   0   4   -0.01    0.03
  -5   0   4    0.00    0.03
  -5   0   4    0.00    0.04
  -4   0   4   10.68    0.39
   4   0  -4   10.19    0.34
  -4   0   4    9.84    0.37
  -4   0   4   10.20    0.36
  -3   0   4   -0.08    0.02
  -3   0   4   -0.07    0.02
   3   0  -4   -0.05    0.02
  -3   0   4   -0.01    0.03
  -2   0   4    2.91    0.13
  -2   0   4    2.95    0.15
   2   0  -4    2.72    0.13
  -2   0   4    3.09    0.14
  -2   0   4    2.98    0.15
  -1   0   4   -0.05    0.02
   1   0  -4    0.01    0.02
  -1   0   4   -0.04    0.01
  -1   0   4   -0.05    0.02
  -1   0   4   -0.06    0.01
   1   0  -4   -0.05    0.02
   0   0  -4    2.92    0.12
   0   0  -4    2.64    0.11
   0   0   4    2.85    0.12
   0   0   4    2.58    0.11
   0   0   4    2.85    0.12
   0   0   4    2.51    0.12
  -1   0  -4   -0.05    0.01
   1   0   4   -0.04    0.01
  -1   0  -4   -0.05    0.02
   1   0   4   -0.04    0.02
  -1   0  -4    0.00    0.02
   1   0   4   -0.06    0.01
  -2   0  -4   14.44    0.43
  -2   0  -4   15.01    0.41
   2   0   4   15.11    0.46
  -2   0  -4   14.86    0.46
   2   0   4   15.33    0.44
  -3   0  -4   -0.06    0.02
   3   0   4   -0.07    0.02
  -3   0  -4   -0.05    0.01
  -4   0  -4   16.08    0.52
   4   0   4   16.33    0.51
  -5   0  -4    0.06    0.04
   5   0   4    0.03    0.03
   6   0   4    0.13    0.05
  -6   0  -4    0.05    0.05
  -7   0  -4   -0.02    0.04
   7   0   4    0.03    0.05
   8   0   4    0.09    0.07
  -8   0  -4    0.14    0.06
   9   0   4   -0.03    0.06
  -9   0  -4   -0.01    0.05
 -10   0  -4    0.74    0.14
 -11   0  -4   -0.07    0.07
 -11  -1   4    8.32    0.48
 -11  -1   4    7.81    0.42
 -11   1   4    8.20    0.48
 -11   1   4    7.68    0.38
 -10  -1   4    0.16    0.09
 -10  -1   4   -0.03    0.07
 -10   1   4    0.11    0.07
 -10   1   4    0.10    0.09
  -9  -1   4    0.13    0.09
  -9   1   4    0.04    0.05
  -9   1   4    0.07    0.07
  -8  -1   4   16.49    0.65
  -8   1   4   16.68    0.66
  -7  -1   4   24.43    0.83
  -7   1   4   23.89    0.83
  -7   1   4   24.79    0.77
  -6  -1   4    0.13    0.06
  -6  -1   4    0.18    0.07
  -6   1   4    0.04    0.05
  -6   1   4    0.12    0.05
  -6   1   4    0.12    0.06
  -5  -1   4   27.90    0.84
  -5  -1   4   24.88    0.82
  -5   1   4   27.11    0.83
  -5   1   4   26.92    0.77
  -5   1   4   26.56    0.84
   5   1  -4   26.78    0.80
  -4  -1   4   51.91    1.43
  -4  -1   4   52.38    1.45
  -4  -1   4   51.14    1.45
  -4   1   4   51.99    1.45
  -4   1   4   52.67    1.39
  -4   1   4   50.83    1.44
   4   1  -4   51.35    1.43
   3  -1  -4    6.79    0.22
  -3  -1   4    7.18    0.27
  -3  -1   4    7.19    0.28
  -3  -1   4    6.98    0.28
  -3   1   4    6.79    0.23
  -3   1   4    7.07    0.28
  -3   1   4    7.08    0.26
   3   1  -4    7.25    0.28
  -3   1   4    6.55    0.27
  -2  -1   4   17.73    0.54
   2  -1  -4   17.80    0.50
  -2  -1   4   17.99    0.54
  -2  -1   4   17.46    0.52
   2   1  -4   16.87    0.54
  -2   1   4   17.87    0.50
  -2   1   4   17.39    0.52
  -2   1   4   17.89    0.54
  -2   1   4   17.17    0.53
   1  -1  -4   34.25    0.93
  -1  -1   4   34.32    0.96
  -1  -1   4   34.97    0.94
  -1  -1   4   34.81    0.96
   1   1  -4   33.92    0.93
   1   1  -4   34.69    0.96
   1   1  -4   34.08    0.92
  -1   1   4   34.57    0.95
  -1   1   4   34.37    0.95
  -1   1   4   33.90    0.94
  -1   1   4   35.66    0.93
   0  -1  -4    8.10    0.26
   0  -1   4    7.64    0.27
   0  -1   4    8.39    0.27
   0  -1   4    8.12    0.26
   0   1   4    8.27    0.26
   0   1   4    8.06    0.27
   0   1  -4    7.71    0.25
   0   1  -4    8.32    0.24
   0   1   4    8.23    0.27
   0   1  -4    7.85    0.28
   0   1   4    8.55    0.25
   0   1   4    8.13    0.27
  -1  -1  -4    0.03    0.03
   1  -1   4    0.10    0.02
   1  -1   4    0.06    0.03
  -1  -1  -4    0.03    0.03
  -1   1  -4    0.14    0.02
  -1   1  -4    0.08    0.04
   1   1   4    0.01    0.03
   1   1   4    0.05    0.03
   1   1   4    0.02    0.03
   1   1   4    0.07    0.03
  -2  -1  -4   72.61    1.96
  -2  -1  -4   73.64    1.98
   2  -1   4   74.57    1.97
   2  -1   4   75.07    1.92
   2   1   4   77.26    1.99
  -2   1  -4   75.27    1.98
   2   1   4   75.06    1.93
   2   1   4   76.47    1.99
   2   1   4   74.68    1.99
   3  -1   4    0.04    0.02
  -3  -1  -4    0.02    0.02
  -3  -1  -4    0.04    0.03
   3   1   4    0.01    0.03
  -3   1  -4    0.00    0.02
  -3   1  -4    0.08    0.02
   3   1   4    0.02    0.01
  -4  -1  -4    5.40    0.20
   4  -1   4    5.78    0.21
  -4  -1  -4    5.77    0.25
   4   1   4    5.53    0.18
  -4   1  -4    6.05    0.24
   4   1   4    5.71    0.25
   5  -1   4    1.27    0.09
  -5  -1  -4    1.46    0.12
   5   1   4    1.22    0.13
   5   1   4    1.34    0.06
  -5   1  -4    1.34    0.11
  -6  -1  -4    7.00    0.32
   6  -1   4    7.02    0.28
  -6   1  -4    7.40    0.30
   6   1   4    7.27    0.32
  -7  -1  -4    9.37    0.40
   7  -1   4    9.79    0.37
  -7   1  -4   10.36    0.40
   7   1   4    9.28    0.41
  -8  -1  -4   11.07    0.47
   8  -1   4   11.76    0.44
   8   1   4   11.52    0.48
  -8   1  -4   11.78    0.46
  -9  -1  -4   13.25    0.55
  -9   1  -4   13.95    0.53
   9   1   4   12.58    0.55
 -10  -1  -4   18.75    0.71
  10   1   4   17.96    0.71
 -10   1  -4   18.06    0.68
 -11  -1  -4    3.05    0.30
 -11   1  -4    3.43    0.26
 -11  -2   4    4.03    0.31
 -11  -2   4    4.18    0.33
 -11   2   4    4.27    0.24
 -11   2   4    3.33    0.35
 -10  -2   4   10.80    0.52
 -10  -2   4    9.24    0.50
 -10   2   4   10.77    0.41
 -10   2   4   10.71    0.53
  -9  -2   4    0.90    0.16
  -9   2   4    0.91    0.17
   9   2  -4    0.86    0.14
  -9   2   4    0.88    0.11
  -8  -2   4   13.91    0.58
  -8   2   4   14.88    0.60
  -8   2   4   14.61    0.49
   8   2  -4   14.98    0.57
  -7  -2   4    0.02    0.06
  -7   2   4    0.17    0.05
  -7   2   4    0.10    0.07
  -6  -2   4    0.48    0.09
  -6   2   4    0.58    0.07
  -6   2   4    0.48    0.10
   6   2  -4    0.37    0.08
  -6   2   4    0.62    0.11
  -5  -2   4   67.34    1.88
  -5  -2   4   69.25    1.91
  -5   2   4   69.99    1.79
  -5   2   4   67.84    1.89
  -5   2   4   66.10    1.88
   5   2  -4   66.31    1.87
  -4  -2   4    1.24    0.13
  -4  -2   4    1.18    0.13
  -4   2   4    1.18    0.12
  -4   2   4    1.27    0.10
   4   2  -4    1.19    0.13
  -4   2   4    1.30    0.07
  -4   2   4    1.39    0.14
  -3  -2   4   47.27    1.31
  -3  -2   4   47.23    1.34
  -3  -2   4   46.46    1.36
  -3   2   4   46.99    1.34
  -3   2   4   48.23    1.26
  -3   2   4   53.04    1.29
  -3   2   4   48.08    1.33
   3   2  -4   47.81    1.36
  -3   2   4   47.50    1.32
  -2  -2   4    0.87    0.10
  -2  -2   4    1.17    0.09
  -2  -2   4    0.96    0.07
   2   2  -4    1.14    0.12
  -2   2   4    1.20    0.09
  -2   2   4    0.85    0.09
  -2   2   4    1.03    0.06
  -2   2   4    1.17    0.08
  -2   2   4    1.16    0.08
  -1  -2   4   32.75    1.05
   1  -2  -4   33.54    0.90
  -1  -2   4   33.12    0.92
  -1  -2   4   32.66    0.88
   1  -2  -4   32.87    0.88
  -1   2   4   33.23    0.91
  -1   2   4   32.92    0.92
  -1   2   4   32.46    0.90
   1   2  -4   32.38    0.88
   1   2  -4   32.88    0.95
  -1   2   4   32.34    0.88
  -1   2   4   33.98    0.92
   0  -2   4    8.38    0.30
   0  -2  -4    8.62    0.28
   0  -2   4    9.02    0.26
   0   2   4    8.66    0.28
   0   2   4    8.73    0.29
   0   2   4    8.81    0.31
   0   2  -4    8.57    0.31
   0   2  -4    8.44    0.26
   0   2   4    8.68    0.30
   0   2   4    9.03    0.28
  -1  -2  -4   64.86    1.70
   1  -2   4   63.52    1.67
   1   2   4   62.32    1.70
   1   2   4   62.67    1.71
   1   2   4   64.93    1.73
   1   2   4   63.25    1.68
   1   2   4   64.28    1.71
  -1   2  -4   69.00    1.73
  -1   2  -4   63.42    1.63
  -1   2  -4   64.65    1.72
  -2  -2  -4    1.39    0.10
   2  -2   4    1.54    0.09
   2   2   4    1.46    0.11
  -2   2  -4    1.43    0.09
   2   2   4    1.58    0.10
   2   2   4    1.51    0.11
  -2   2  -4    1.44    0.10
  -3  -2  -4   26.37    0.80
   3   2   4   29.01    0.83
   3   2   4   27.27    0.81
  -3   2  -4   26.17    0.75
  -3   2  -4   28.01    0.79
   3   2   4   26.65    0.77
   4  -2   4    8.84    0.25
  -4  -2  -4    8.43    0.34
   4  -2   4    8.62    0.25
   4   2   4    8.81    0.35
  -4   2  -4    8.91    0.32
   4   2   4    8.16    0.29
  -4   2  -4    8.57    0.26
   5  -2   4    5.56    0.18
   5  -2   4    5.13    0.19
  -5  -2  -4    5.61    0.27
   5   2   4    5.44    0.27
  -5   2  -4    5.34    0.24
   5   2   4    5.22    0.20
  -6  -2  -4    2.10    0.17
   6  -2   4    1.80    0.11
   6   2   4    1.87    0.10
  -6   2  -4    2.01    0.14
   6   2   4    2.03    0.17
  -7  -2  -4    0.28    0.08
   7  -2   4    0.29    0.07
  -7   2  -4    0.27    0.07
   7   2   4    0.47    0.11
  -8  -2  -4    5.60    0.32
  -8   2  -4    5.52    0.28
   8   2   4    5.40    0.32
  -9  -2  -4    2.28    0.24
  -9   2  -4    2.15    0.18
   9   2   4    2.31    0.25
 -10  -2  -4    0.50    0.14
 -10   2  -4    0.85    0.14
  10   2   4    0.37    0.13
 -11  -2  -4    0.03    0.10
  11   2   4    0.03    0.10
 -11   2  -4    0.04    0.08
 -11  -3   4    3.75    0.36
 -11  -3   4    3.97    0.33
 -11   3   4    3.43    0.20
 -10  -3   4    4.69    0.35
 -10  -3   4    5.48    0.36
 -10   3   4    5.28    0.24
 -10   3   4    5.59    0.37
  -9  -3   4    4.07    0.29
   9   3  -4    3.92    0.28
  -9   3   4    3.91    0.18
  -9   3   4    3.87    0.30
  -8  -3   4   20.11    0.73
  -8   3   4   19.24    0.58
  -8   3   4   19.78    0.74
   8   3  -4   18.75    0.72
  -8   3   4   19.84    0.60
  -7  -3   4   62.80    1.81
   7   3  -4   61.92    1.83
  -7   3   4   63.22    1.65
  -7   3   4   63.61    1.67
  -7   3   4   62.05    1.82
  -6  -3   4   23.43    0.77
   6   3  -4   22.07    0.78
  -6   3   4   24.03    0.78
  -6   3   4   23.19    0.64
  -6   3   4   23.75    0.79
   6   3  -4   22.77    0.80
  -5  -3   4   42.94    1.26
  -5   3   4   42.48    1.23
   5   3  -4   40.96    1.28
   5   3  -4   45.75    1.32
  -5   3   4   44.59    1.27
  -5   3   4   43.41    1.13
  -5   3   4   42.61    1.27
  -4  -3   4   11.79    0.42
  -4   3   4   10.92    0.31
   4   3  -4   11.16    0.45
  -4   3   4   11.26    0.37
  -4   3   4   11.62    0.42
  -4   3   4   11.20    0.40
  -4   3   4   10.92    0.41
   4   3  -4   11.54    0.46
  -3  -3   4    2.86    0.16
  -3   3   4    2.58    0.16
   3   3  -4    2.60    0.18
  -3   3   4    2.52    0.10
  -3   3   4    2.58    0.14
  -3   3   4    2.71    0.15
  -3   3   4    2.67    0.15
   3   3  -4    2.55    0.18
  -2  -3   4    0.54    0.07
  -2   3   4    0.71    0.05
  -2   3   4    0.58    0.08
  -2   3   4    0.53    0.07
   2   3  -4    0.71    0.10
   2   3  -4    0.64    0.06
  -2   3   4    0.70    0.08
   2   3  -4    0.64    0.10
  -2   3   4    0.55    0.07
  -1  -3   4    0.44    0.04
   1  -3  -4    0.50    0.06
   1  -3  -4    0.52    0.05
  -1  -3   4    0.51    0.07
   1   3  -4    0.54    0.09
   1   3  -4    0.47    0.04
   1   3  -4    0.54    0.09
  -1   3   4    0.45    0.07
  -1   3   4    0.40    0.06
  -1   3   4    0.42    0.05
  -1   3   4    0.27    0.06
  -1   3   4    0.51    0.06
   0  -3  -4    6.75    0.23
   0  -3   4    6.38    0.25
   0  -3   4    6.66    0.19
   0   3   4    6.36    0.27
   0   3  -4    6.18    0.27
   0   3  -4    6.35    0.22
   0   3   4    6.57    0.21
   0   3   4    6.36    0.25
   0   3  -4    6.51    0.28
   0   3   4    6.52    0.24
  -1  -3  -4   31.21    0.93
   1  -3   4   34.13    0.89
   1   3   4   33.60    0.90
   1   3   4   34.89    0.99
   1   3   4   34.64    0.95
   1   3   4   34.60    0.96
  -1   3  -4   33.28    0.98
  -1   3  -4   34.70    0.98
   1   3   4   33.57    0.97
  -1   3  -4   32.38    0.88
   2  -3   4   10.74    0.33
  -2  -3  -4   11.16    0.37
  -2   3  -4   11.22    0.38
   2   3   4   10.45    0.39
   2   3   4   10.78    0.40
   2   3   4   10.14    0.37
  -2   3  -4   10.17    0.38
   2   3   4   10.97    0.39
  -3  -3  -4    1.50    0.12
   3   3   4    1.46    0.15
   3   3   4    1.26    0.11
  -3   3  -4    1.78    0.12
   3   3   4    1.32    0.13
  -3   3  -4    1.16    0.10
  -4  -3  -4    1.23    0.14
  -4   3  -4    1.05    0.11
  -4   3  -4    0.99    0.08
   4   3   4    0.92    0.10
   4   3   4    0.89    0.12
   4   3   4    0.90    0.11
  -5  -3  -4    7.38    0.33
   5  -3   4    7.25    0.21
  -5   3  -4    7.30    0.23
   5   3   4    7.11    0.29
   5   3   4    8.32    0.36
  -5   3  -4    6.95    0.29
  -6  -3  -4    0.07    0.06
   6   3   4    0.06    0.04
   6   3   4    0.02    0.06
  -6   3  -4    0.09    0.05
  -7  -3  -4    2.54    0.21
   7   3   4    2.95    0.24
  -7   3  -4    2.54    0.17
  -8  -3  -4    0.60    0.13
  -8   3  -4    0.72    0.11
   8   3   4    0.63    0.14
  -9  -3  -4    2.35    0.26
  -9   3  -4    2.35    0.19
   9   3   4    2.73    0.29
 -10  -3  -4    0.14    0.11
  10   3   4    0.20    0.12
 -10   3  -4    0.28    0.09
  11   3   4    0.05    0.11
 -11  -4   4    2.82    0.30
 -11  -4   4    3.16    0.35
 -11   4   4    3.19    0.15
 -10  -4   4    0.07    0.11
 -10  -4   4    0.19    0.11
 -10   4   4    0.17    0.04
  -9  -4   4    0.26    0.11
  -9   4   4    0.46    0.05
   9   4  -4    0.56    0.14
  -9   4   4    0.53    0.07
  -9   4   4    0.61    0.15
  -8  -4   4    0.00    0.06
   8   4  -4    0.02    0.07
  -8   4   4   -0.05    0.05
  -7  -4   4    0.20    0.08
  -7   4   4    0.18    0.08
   7   4  -4    0.20    0.09
  -6  -4   4    0.36    0.09
  -6   4   4    0.32    0.08
  -6   4   4    0.56    0.11
   6   4  -4    0.42    0.11
  -5  -4   4    1.16    0.13
  -5   4   4    1.21    0.10
   5   4  -4    0.97    0.15
  -5   4   4    1.11    0.14
   5   4  -4    1.19    0.17
  -5   4   4    1.44    0.15
  -5   4   4    1.13    0.12
  -4  -4   4    0.66    0.09
   4   4  -4    0.49    0.10
  -4   4   4    0.58    0.09
  -4   4   4    0.56    0.10
  -4   4   4    0.56    0.08
   4   4  -4    0.59    0.11
  -4   4   4    0.61    0.04
  -4   4   4    0.63    0.08
  -3  -4   4    7.46    0.30
  -3   4   4    6.99    0.28
  -3   4   4    7.05    0.23
   3   4  -4    7.45    0.35
  -3   4   4    7.05    0.29
   3   4  -4    7.32    0.36
  -3   4   4    7.40    0.30
  -3   4   4    7.34    0.30
  -2  -4   4    0.68    0.08
  -2   4   4    0.76    0.06
   2   4  -4    0.68    0.06
  -2   4   4    0.74    0.09
  -2   4   4    0.56    0.09
  -2   4   4    0.71    0.08
  -2   4   4    0.59    0.08
   2   4  -4    0.50    0.10
   2   4  -4    0.62    0.09
   2   4  -4    0.55    0.10
   1  -4  -4    9.99    0.31
  -1  -4   4    9.89    0.35
   1   4  -4   10.80    0.42
   1   4  -4   10.10    0.35
   1   4  -4    9.53    0.27
  -1   4   4   10.48    0.31
  -1   4   4   10.14    0.38
   1   4  -4   10.24    0.42
  -1   4   4   10.03    0.34
  -1   4   4   10.20    0.36
  -1   4   4    9.52    0.38
   0  -4  -4    2.22    0.12
   0  -4   4    2.50    0.14
   0   4  -4    2.24    0.17
   0   4   4    2.48    0.15
   0   4   4    2.49    0.09
   0   4   4    2.26    0.14
   0   4  -4    2.40    0.12
   0   4  -4    2.11    0.16
   0   4   4    2.15    0.16
   0   4   4    2.42    0.16
  -1  -4  -4    9.11    0.32
   1   4   4    9.31    0.33
   1   4   4    8.71    0.36
   1   4   4    9.13    0.35
  -1   4  -4    8.90    0.37
  -1   4  -4    8.82    0.28
   1   4   4    8.39    0.36
   1   4   4    9.13    0.25
  -1   4  -4    9.12    0.36
   2  -4   4    2.69    0.10
   2  -4   4    2.77    0.11
  -2  -4  -4    2.92    0.16
   2   4   4    2.20    0.17
  -2   4  -4    2.74    0.18
  -2   4  -4    3.10    0.18
   2   4   4    2.74    0.10
   2   4   4    2.76    0.16
   2   4   4    2.74    0.10
   2   4   4    2.75    0.18
  -3  -4  -4    1.52    0.12
   3   4   4    1.21    0.13
  -3   4  -4    0.97    0.12
   3   4   4    1.07    0.08
   3   4   4    1.27    0.15
   3   4   4    1.00    0.13
  -3   4  -4    0.92    0.11
  -4  -4  -4   12.29    0.46
  -4   4  -4   12.46    0.43
   4   4   4   12.44    0.50
   4   4   4   12.28    0.46
  -4   4  -4   11.57    0.42
   4   4   4   11.33    0.45
  -5  -4  -4   37.15    1.17
  -5   4  -4   38.74    1.12
   5   4   4   39.72    1.17
   5   4   4   39.40    1.16
   5   4   4   40.56    1.23
  -5   4  -4   37.64    1.08
  -6  -4  -4    7.95    0.38
   6   4   4    8.28    0.36
  -6   4  -4    8.12    0.33
   6   4   4    8.86    0.39
   6   4   4    7.82    0.41
  -7  -4  -4    6.63    0.36
   7   4   4    6.03    0.36
  -7   4  -4    6.23    0.29
  -8   4  -4    2.12    0.17
   8   4   4    2.07    0.24
   9   4   4    7.24    0.43
  -9   4  -4    6.99    0.34
  10   4   4    2.35    0.30
 -10   4  -4    2.61    0.20
  10   5  -4    0.43    0.14
   9   5  -4    0.99    0.20
   9   5  -4    1.19    0.21
  -8  -5   4    0.02    0.06
   8   5  -4    0.00    0.07
   8   5  -4    0.08    0.09
  -7  -5   4    0.14    0.07
   7   5  -4    0.32    0.11
   7   5  -4    0.29    0.10
  -6  -5   4    0.30    0.08
  -6   5   4    0.30    0.09
   6   5  -4    0.21    0.09
   6   5  -4    0.25    0.11
  -6   5   4    0.30    0.08
  -6   5   4    0.32    0.07
  -6   5   4    0.38    0.10
  -5  -5   4    2.99    0.19
  -5   5   4    2.85    0.19
   5   5  -4    3.11    0.25
   5   5  -4    2.62    0.22
  -5   5   4    3.26    0.19
   5   5  -4    3.11    0.23
  -5   5   4    3.36    0.21
  -5   5   4    2.90    0.19
  -4  -5   4    9.55    0.37
  -4   5   4    9.80    0.39
   4   5  -4    9.28    0.46
  -4   5   4    9.88    0.38
  -4   5   4    8.92    0.36
   4   5  -4    9.27    0.42
  -4   5   4    9.53    0.38
   4   5  -4    9.86    0.45
  -3  -5   4    0.74    0.10
  -3   5   4    0.69    0.09
   3   5  -4    0.68    0.11
   3   5  -4    0.67    0.13
   3   5  -4    0.45    0.10
  -3   5   4    0.45    0.08
  -3   5   4    0.56    0.09
  -3   5   4    0.58    0.09
  -2  -5   4   11.85    0.41
  -2   5   4   12.69    0.43
  -2   5   4   12.13    0.38
   2   5  -4   12.36    0.45
  -2   5   4   12.35    0.45
   2   5  -4   11.72    0.50
  -2   5   4   11.48    0.46
   2   5  -4   11.70    0.51
  -1  -5   4   14.12    0.46
   1  -5  -4   14.00    0.40
  -1   5   4   14.70    0.51
  -1   5   4   14.14    0.47
   1   5  -4   13.55    0.54
  -1   5   4   13.56    0.52
   1   5  -4   14.14    0.48
   0  -5   4    4.76    0.22
   0  -5  -4    4.80    0.20
   0   5  -4    4.97    0.27
   0   5   4    5.02    0.27
   0   5  -4    5.14    0.22
   0   5   4    5.22    0.27
   0   5   4    5.19    0.23
   0   5  -4    5.09    0.29
  -1  -5  -4    0.80    0.10
   1  -5   4    0.78    0.10
  -1   5  -4    0.74    0.12
   1   5   4    0.58    0.10
   1   5   4    0.77    0.13
   1   5   4    0.73    0.09
  -1   5  -4    0.69    0.12
  -1   5  -4    0.78    0.08
  -2  -5  -4   27.93    0.92
   2   5   4   28.37    0.91
   2   5   4   27.25    0.91
  -2   5  -4   28.11    0.91
   2   5   4   27.79    0.84
  -2   5  -4   28.26    0.75
  -2   5  -4   29.07    0.89
   3  -5   4   44.42    1.16
  -3   5  -4   43.94    1.28
  -3   5  -4   42.19    1.29
   3   5   4   44.69    1.34
   3   5   4   43.78    1.32
   3   5   4   44.54    1.26
  -4   5  -4    0.02    0.04
   4   5   4   -0.03    0.05
   4   5   4    0.12    0.08
  -4   5  -4    0.06    0.05
   4   5   4    0.08    0.05
  -5   5  -4   18.19    0.61
   5   5   4   17.86    0.69
   5   5   4   17.18    0.64
   5   5   4   18.16    0.64
  -5   5  -4   17.50    0.58
   6   5   4   11.01    0.47
   6   5   4   11.28    0.48
   6   5   4   11.92    0.54
  -6   5  -4   11.30    0.44
   7   5   4    1.22    0.23
   7   5   4    0.83    0.17
  -7   5  -4    1.28    0.15
   7   5   4    1.02    0.16
   8   5   4    2.38    0.26
  -8   5  -4    2.14    0.18
   8   5   4    2.39    0.29
   9   5   4    3.36    0.36
  -9   5  -4    3.58    0.24
   9   5   4    3.91    0.31
  10   5   4    0.43    0.22
   9   6  -4    1.43    0.25
   9   6  -4    1.14    0.23
   8   6  -4    1.64    0.25
   8   6  -4    1.39    0.23
   7   6  -4    3.83    0.32
  -7   6   4    4.27    0.22
   7   6  -4    3.24    0.29
  -6   6   4    4.69    0.26
  -6   6   4    4.58    0.24
   6   6  -4    4.42    0.34
  -6   6   4    4.28    0.27
   6   6  -4    4.55    0.31
  -5   6   4    9.34    0.41
   5   6  -4    9.67    0.47
   5   6  -4   10.31    0.52
   5   6  -4    9.98    0.49
  -5   6   4    9.82    0.41
  -5   6   4   10.05    0.40
  -4  -6   4    0.00    0.04
  -4   6   4   -0.01    0.05
  -4   6   4    0.02    0.05
   4   6  -4   -0.04    0.05
  -4   6   4    0.03    0.05
   4   6  -4    0.05    0.08
   4   6  -4    0.00    0.06
  -3  -6   4   14.02    0.48
   3   6  -4   13.67    0.59
  -3   6   4   14.50    0.51
   3   6  -4   13.84    0.55
  -3   6   4   14.98    0.52
   3   6  -4   13.57    0.61
  -3   6   4   13.70    0.54
  -2  -6   4   39.68    1.11
   2   6  -4   38.89    1.25
  -2   6   4   38.52    1.20
  -2   6   4   40.00    1.18
   2   6  -4   37.57    1.17
   2   6  -4   39.86    1.29
  -2   6   4   39.68    1.14
  -1  -6   4    0.24    0.06
   1   6  -4    0.19    0.08
  -1   6   4    0.34    0.08
   1   6  -4    0.27    0.10
  -1   6   4    0.22    0.06
  -1   6   4    0.29    0.09
   1   6  -4    0.10    0.05
   0  -6   4   56.64    1.56
   0   6  -4   53.95    1.70
   0   6   4   57.90    1.57
   0   6   4   57.52    1.65
   0   6  -4   56.08    1.56
   0   6  -4   57.61    1.68
   0   6   4   58.19    1.68
   1  -6   4   18.08    0.59
   1   6   4   17.96    0.68
  -1   6  -4   17.37    0.66
   1   6   4   18.16    0.59
  -1   6  -4   18.90    0.56
   1   6   4   18.52    0.67
  -1   6  -4   18.38    0.70
  -2   6  -4    0.23    0.08
   2   6   4    0.31    0.07
   2   6   4    0.24    0.09
  -2   6  -4    0.35    0.10
   2   6   4    0.38    0.10
  -3   6  -4    2.72    0.21
  -3   6  -4    3.31    0.22
   3   6   4    3.06    0.24
   3   6   4    3.25    0.25
   3   6   4    2.86    0.18
   4   6   4   10.85    0.49
  -4   6  -4   10.63    0.45
   4   6   4   11.35    0.44
   4   6   4   10.92    0.51
  -4   6  -4   11.37    0.46
   5   6   4    4.45    0.29
  -5   6  -4    4.43    0.26
   5   6   4    4.48    0.27
  -5   6  -4    4.39    0.25
   5   6   4    5.25    0.34
   6   6   4    7.56    0.44
   6   6   4    7.79    0.39
   6   6   4    8.02    0.41
  -6   6  -4    7.57    0.36
   7   6   4    0.09    0.13
   7   6   4    0.03    0.09
  -7   6  -4    0.15    0.07
   7   6   4    0.05    0.08
  -8   6  -4   40.27    1.22
   8   6   4   41.77    1.32
   8   6   4   37.94    1.38
   9   6   4    9.38    0.51
   9   7  -4    0.17    0.14
   8   7  -4    3.54    0.38
   8   7  -4    3.01    0.36
   7   7  -4    0.17    0.11
   7   7  -4    0.26    0.14
  -7   7   4    0.28    0.09
   6   7  -4    1.07    0.20
   6   7  -4    0.57    0.16
  -6   7   4    0.66    0.11
  -6   7   4    0.75    0.13
  -5   7   4    0.83    0.13
   5   7  -4    0.64    0.23
   5   7  -4    0.58    0.16
  -5   7   4    0.75    0.12
   5   7  -4    0.77    0.16
  -4   7   4    3.41    0.23
   4   7  -4    3.28    0.28
   4   7  -4    3.76    0.32
  -4   7   4    3.77    0.25
   4   7  -4    3.59    0.27
   3   7  -4    3.93    0.30
   3   7  -4    3.81    0.26
   3   7  -4    3.89    0.32
  -3   7   4    3.75    0.26
  -3   7   4    3.71    0.24
  -2   7   4    4.49    0.29
   2   7  -4    4.06    0.32
   2   7  -4    4.99    0.33
  -2   7   4    5.09    0.36
   2   7  -4    4.35    0.27
  -2   7   4    4.45    0.26
  -1   7   4   10.01    0.38
   1   7  -4    8.69    0.46
  -1   7   4    9.62    0.43
  -1   7   4    9.27    0.45
   1   7  -4    9.95    0.51
   1   7  -4    9.05    0.39
   0   7  -4   10.30    0.49
   0   7   4   10.40    0.47
   0   7   4    9.89    0.39
   0   7   4   10.24    0.49
   0   7  -4   10.92    0.41
   0   7  -4   10.67    0.52
  -1   7  -4    1.74    0.21
  -1   7  -4    1.78    0.23
   1   7   4    1.44    0.19
   1   7   4    1.44    0.19
   1   7   4    1.43    0.14
   2  -7   4   41.77    1.24
  -2   7  -4   41.90    1.36
   2   7   4   44.54    1.24
   2   7   4   41.79    1.35
   2   7   4   42.53    1.37
  -2   7  -4   43.21    1.33
   3   7   4    1.87    0.23
  -3   7  -4    1.87    0.21
  -3   7  -4    1.98    0.23
   3   7   4    1.97    0.18
   3   7   4    1.69    0.21
   4   7   4    1.91    0.24
  -4   7  -4    1.87    0.21
   4   7   4    2.10    0.25
  -4   7  -4    2.04    0.22
   4   7   4    2.31    0.18
   5   7   4    0.74    0.13
  -5   7  -4    0.87    0.15
   5   7   4    0.63    0.16
   5   7   4    0.64    0.15
   6   7   4    7.74    0.43
   6   7   4    7.11    0.38
  -6   7  -4    7.66    0.38
   6   7   4    8.37    0.48
   7   7   4    1.20    0.19
  -7   7  -4    1.36    0.18
   7   7   4    0.95    0.21
   7   8  -4    1.72    0.28
   7   8  -4    1.82    0.29
   6   8  -4    4.88    0.38
  -6   8   4    4.99    0.30
   6   8  -4    4.32    0.39
  -5   8   4    0.70    0.14
  -5   8   4    0.55    0.13
   5   8  -4    0.79    0.18
   5   8  -4    0.43    0.16
  -4   8   4    8.53    0.40
  -4   8   4    8.91    0.44
   4   8  -4    8.80    0.49
   4   8  -4    8.44    0.46
   4   8  -4    7.70    0.50
   3   8  -4    0.70    0.18
   3   8  -4    0.81    0.18
   3   8  -4    0.64    0.14
  -3   8   4    0.82    0.15
  -3   8   4    0.91    0.14
  -2   8   4    5.56    0.32
   2   8  -4    5.66    0.40
   2   8  -4    5.36    0.31
  -2   8   4    5.29    0.34
   2   8  -4    5.18    0.36
  -1   8   4    2.24    0.26
   1   8  -4    2.03    0.27
  -1   8   4    2.36    0.24
   1   8  -4    2.22    0.26
   0   8   4    2.92    0.24
   0   8  -4    2.38    0.29
   0   8   4    2.14    0.25
   0   8  -4    2.18    0.26
   1   8   4    2.22    0.26
  -1   8  -4    1.98    0.24
  -1   8  -4    2.61    0.30
   1   8   4    2.26    0.26
  -2   8  -4   13.94    0.60
   2   8   4   14.15    0.62
   2   8   4   14.37    0.64
  -2   8  -4   12.49    0.61
   3   8   4    0.38    0.13
   3   8   4    0.39    0.13
  -3   8  -4    0.34    0.12
  -3   8  -4    0.50    0.13
   4   8   4   11.25    0.56
   4   8   4    9.99    0.53
  -4   8  -4   10.41    0.49
  -4   8  -4    9.96    0.49
  -5   8  -4    0.20    0.10
   5   8   4    0.21    0.13
   5   8   4    0.06    0.10
   6   8   4    0.35    0.14
   6   8   4    0.69    0.19
  -6   8  -4    0.53    0.13
   6   9  -4    0.03    0.20
  -6   9   4    0.05    0.09
   5   9  -4    1.49    0.25
  -5   9   4    1.64    0.21
  -4   9   4    7.36    0.41
   4   9  -4    6.74    0.42
   4   9  -4    6.08    0.47
   4   9  -4    6.81    0.46
   3   9  -4    0.30    0.14
  -3   9   4    0.28    0.10
  -3   9   4    0.30    0.12
   3   9  -4    0.16    0.11
   2   9  -4    2.32    0.29
  -2   9   4    2.27    0.25
   2   9  -4    2.53    0.34
  -2   9   4    2.53    0.28
  -1   9   4   -0.06    0.08
   1   9  -4   -0.03    0.09
  -1   9   4    0.03    0.08
   1   9  -4    0.04    0.10
   0   9  -4    0.76    0.19
   0   9   4    0.56    0.14
   0   9  -4    0.49    0.15
   0   9   4    0.72    0.17
   1   9   4    4.38    0.35
  -1   9  -4    3.90    0.35
  -1   9  -4    4.15    0.33
   1   9   4    4.09    0.32
  -2   9  -4    2.81    0.33
  -2   9  -4    3.45    0.30
   2   9   4    2.81    0.31
   2   9   4    2.95    0.34
  -3   9  -4    7.19    0.45
   3   9   4    7.88    0.47
   3   9   4    7.51    0.47
  -3   9  -4    7.35    0.43
   4   9   4    2.74    0.34
   4   9   4    2.85    0.34
  -4   9  -4    3.26    0.34
   5   9   4    5.82    0.43
   3  10  -4    1.33    0.25
   2  10  -4    0.10    0.13
   1  10  -4    0.00    0.10
  -1  10   4    0.06    0.10
   0  10   4    0.09    0.12
   1  10   4    0.09    0.11
 -11   0   5    2.87    0.32
 -11   0   5    3.25    0.25
 -10   0   5    0.06    0.07
 -10   0   5    0.12    0.10
  -9   0   5    0.10    0.09
  -8   0   5    0.06    0.07
  -7   0   5    0.00    0.05
  -6   0   5   -0.06    0.03
  -6   0   5    0.03    0.04
  -6   0   5    0.01    0.04
  -5   0   5  112.10    2.96
  -5   0   5  106.45    2.98
  -5   0   5  116.13    3.02
   5   0  -5  112.40    2.92
  -4   0   5    0.00    0.03
  -4   0   5   -0.01    0.03
   4   0  -5    0.00    0.02
  -4   0   5    0.08    0.04
  -3   0   5  316.90    8.04
  -3   0   5  318.92    8.08
  -3   0   5  314.46    8.06
   3   0  -5  309.06    8.04
  -2   0   5   -0.11    0.01
   2   0  -5   -0.10    0.02
  -2   0   5   -0.10    0.02
  -2   0   5   -0.08    0.02
  -2   0   5   -0.07    0.03
  -1   0   5   78.30    2.12
  -1   0   5   77.91    2.10
  -1   0   5   80.74    2.11
   1   0  -5   84.00    2.11
  -1   0   5   78.94    2.09
   0   0   5    0.34    0.05
   1   0   5  418.74   10.75
  -1   0  -5  411.01   10.85
   1   0   5  460.15   10.89
   1   0   5  426.77   10.87
  -1   0  -5  399.25   10.78
  -2   0  -5   -0.01    0.02
   2   0   5   -0.03    0.02
   2   0   5    0.00    0.02
  -2   0  -5    0.00    0.02
  -2   0  -5   -0.02    0.02
   3   0   5   17.32    0.55
   3   0   5   16.91    0.51
  -3   0  -5   17.79    0.54
  -3   0  -5   16.73    0.48
   4   0   5    0.00    0.02
  -4   0  -5   -0.04    0.02
  -4   0  -5    0.02    0.01
  -5   0  -5    2.69    0.16
   5   0   5    2.26    0.14
  -6   0  -5    0.01    0.04
   6   0   5    0.03    0.04
  -7   0  -5   15.92    0.58
   7   0   5   16.32    0.57
   8   0   5   -0.03    0.05
  -8   0  -5    0.02    0.05
  -9   0  -5   48.87    1.47
 -10   0  -5    0.11    0.08
 -11   0  -5   22.32    0.84
 -11  -1   5    4.39    0.32
 -11  -1   5    4.01    0.34
 -11   1   5    5.03    0.37
 -11   1   5    4.69    0.28
 -10  -1   5    9.31    0.50
 -10   1   5    9.96    0.51
 -10   1   5    9.14    0.41
  -9  -1   5   23.41    0.86
  -9   1   5   22.66    0.87
  -8  -1   5    0.09    0.08
  -8   1   5    0.30    0.10
  -7  -1   5    0.29    0.08
  -7   1   5    0.38    0.08
  -7   1   5    0.22    0.09
  -6  -1   5   12.00    0.49
  -6  -1   5   13.12    0.49
  -6   1   5   12.48    0.49
  -6   1   5   13.00    0.44
   6   1  -5   12.69    0.47
  -6   1   5   11.98    0.49
  -5  -1   5   30.87    0.92
  -5  -1   5   30.53    0.94
  -5  -1   5   29.08    0.92
  -5   1   5   30.07    0.87
   5   1  -5   30.52    0.90
  -5   1   5   29.06    0.93
  -5   1   5   29.82    0.92
  -4  -1   5    0.93    0.11
  -4  -1   5    0.64    0.10
  -4  -1   5    0.85    0.11
  -4   1   5    0.73    0.11
  -4   1   5    0.86    0.11
  -4   1   5    0.83    0.09
   4   1  -5    0.77    0.10
  -3  -1   5    0.24    0.06
  -3  -1   5    0.24    0.06
   3  -1  -5    0.31    0.05
  -3  -1   5    0.28    0.06
  -3   1   5    0.27    0.05
  -3   1   5    0.21    0.06
  -3   1   5    0.29    0.06
   3   1  -5    0.27    0.06
  -3   1   5    0.32    0.07
  -2  -1   5   35.57    1.02
  -2  -1   5   35.32    1.03
  -2  -1   5   37.49    1.04
   2  -1  -5   36.79    1.00
  -2   1   5   37.19    1.04
  -2   1   5   37.58    1.00
   2   1  -5   37.79    1.05
  -2   1   5   36.98    1.02
  -2   1   5   35.76    1.03
   1  -1  -5   71.32    1.92
  -1  -1   5   73.05    1.93
  -1  -1   5   76.07    1.95
  -1   1   5   75.12    1.94
  -1   1   5   73.90    1.95
  -1   1   5   74.26    1.95
  -1   1   5   70.50    1.92
   1   1  -5   73.46    1.96
   0  -1   5    4.70    0.20
   0  -1   5    4.68    0.18
   0  -1   5    4.83    0.16
   0  -1   5    4.72    0.19
   0  -1  -5    4.87    0.19
   0   1   5    4.60    0.19
   0   1  -5    4.91    0.20
   0   1  -5    4.65    0.16
   0   1   5    4.51    0.19
   0   1   5    4.50    0.19
  -1  -1  -5   18.50    0.55
   1  -1   5   18.05    0.50
   1  -1   5   18.31    0.54
   1   1   5   18.89    0.55
  -1   1  -5   17.50    0.51
  -1   1  -5   17.89    0.56
   1   1   5   18.75    0.55
   1   1   5   18.24    0.55
   1   1   5   18.78    0.56
   1   1   5   19.77    0.52
   2  -1   5    1.40    0.07
   2  -1   5    1.45    0.10
  -2  -1  -5    1.33    0.10
   2   1   5    1.80    0.11
   2   1   5    1.44    0.07
   2   1   5    1.41    0.10
  -2   1  -5    1.34    0.07
  -2   1  -5    1.38    0.10
   3  -1   5   78.70    2.14
  -3  -1  -5   79.23    2.14
  -3  -1  -5   75.95    2.10
   3  -1   5   80.25    2.08
   3   1   5   81.48    2.14
  -3   1  -5   83.48    2.14
   3   1   5   85.19    2.07
   3   1   5   78.28    2.15
   4  -1   5    0.46    0.06
  -4  -1  -5    0.45    0.06
  -4  -1  -5    0.52    0.08
  -4   1  -5    0.36    0.06
   4   1   5    0.50    0.04
   4   1   5    0.40    0.07
  -5  -1  -5    0.49    0.05
  -5  -1  -5    0.45    0.09
   5  -1   5    0.52    0.07
   5   1   5    0.54    0.09
  -5   1  -5    0.50    0.08
   6  -1   5    0.74    0.09
  -6  -1  -5    0.68    0.11
  -6   1  -5    0.59    0.10
   6   1   5    0.71    0.11
  -7  -1  -5   13.79    0.53
   7  -1   5   14.33    0.48
  -7   1  -5   13.58    0.51
   7   1   5   13.94    0.53
  -8  -1  -5    0.89    0.14
  -8   1  -5    0.72    0.12
   8   1   5    1.07    0.15
  -9  -1  -5    5.70    0.34
   9   1   5    6.31    0.35
  -9   1  -5    6.63    0.34
 -10  -1  -5    0.92    0.17
 -10   1  -5    0.77    0.15
 -11  -1  -5    2.75    0.29
 -11   1  -5    2.71    0.27
 -11  -2   5    2.99    0.33
 -11  -2   5    2.57    0.29
 -11   2   5    2.69    0.20
 -11   2   5    2.83    0.32
 -10  -2   5    0.04    0.10
 -10   2   5   -0.01    0.05
 -10   2   5   -0.03    0.08
  -9  -2   5    3.13    0.30
   9   2  -5    2.97    0.24
  -9   2   5    3.12    0.30
  -9   2   5    2.74    0.18
  -8  -2   5    0.76    0.15
  -8   2   5    0.59    0.13
  -7  -2   5    1.61    0.19
  -7   2   5    1.56    0.19
  -7   2   5    1.36    0.17
  -7   2   5    1.50    0.12
  -6  -2   5   12.53    0.49
  -6   2   5   12.43    0.40
  -6   2   5   11.88    0.48
  -6   2   5   11.95    0.49
  -5  -2   5    3.23    0.21
  -5  -2   5    3.54    0.21
  -5   2   5    3.37    0.15
   5   2  -5    3.17    0.20
  -5   2   5    3.39    0.21
  -4  -2   5   57.55    1.60
  -4  -2   5   57.99    1.65
  -4  -2   5   58.54    1.64
  -4   2   5   58.48    1.63
  -4   2   5   57.64    1.63
  -4   2   5   57.87    1.54
   4   2  -5   60.44    1.65
  -4   2   5   58.47    1.60
  -3  -2   5   20.82    0.65
  -3  -2   5   20.65    0.63
  -3  -2   5   19.15    0.66
  -3   2   5   21.12    0.66
   3   2  -5   20.65    0.67
  -3   2   5   20.97    0.58
  -3   2   5   20.98    0.63
  -3   2   5   21.12    0.65
  -2  -2   5    0.03    0.03
  -2  -2   5    0.03    0.03
  -2  -2   5    0.03    0.03
   2  -2  -5    0.03    0.02
  -2   2   5   -0.02    0.02
  -2   2   5    0.02    0.02
  -2   2   5    0.00    0.02
  -2   2   5    0.02    0.03
   2   2  -5    0.05    0.03
  -1  -2   5    0.14    0.03
   1  -2  -5    0.17    0.03
  -1  -2   5    0.18    0.04
  -1   2   5    0.21    0.04
   1   2  -5    0.11    0.04
  -1   2   5    0.10    0.04
  -1   2   5    0.15    0.04
  -1   2   5    0.17    0.04
  -1   2   5    0.16    0.04
   1   2  -5    0.21    0.04
   0  -2  -5   11.73    0.36
   0  -2   5   12.14    0.40
   0  -2   5   11.49    0.35
   0   2   5   11.73    0.39
   0   2   5   11.67    0.37
   0   2  -5   11.52    0.40
   0   2   5   11.76    0.39
   0   2   5   10.90    0.36
   0   2  -5   11.60    0.33
   0   2   5   11.56    0.37
   0   2  -5   11.04    0.34
  -1  -2  -5    0.03    0.03
   1  -2   5    0.06    0.03
  -1   2  -5    0.19    0.02
   1   2   5    0.07    0.03
   1   2   5    0.10    0.04
  -1   2  -5    0.11    0.04
   1   2   5    0.06    0.03
   1   2   5    0.02    0.03
   1   2   5    0.24    0.05
  -2  -2  -5    2.76    0.15
   2  -2   5    2.68    0.13
  -2   2  -5    2.78    0.14
   2   2   5    2.92    0.16
   2   2   5    2.61    0.16
  -2   2  -5    2.83    0.15
   2   2   5    2.81    0.13
   2   2   5    2.97    0.16
   3  -2   5   51.07    1.39
  -3  -2  -5   51.21    1.41
  -3   2  -5   49.34    1.36
   3   2   5   51.20    1.43
  -3   2  -5   51.38    1.40
   3   2   5   51.23    1.36
   3   2   5   51.21    1.43
  -4  -2  -5   16.11    0.55
   4  -2   5   16.68    0.43
   4  -2   5   14.60    0.43
  -4   2  -5   17.01    0.53
   4   2   5   16.98    0.57
  -4   2  -5   16.03    0.46
   4   2   5   16.48    0.48
  -5  -2  -5   19.29    0.65
   5  -2   5   19.27    0.54
   5   2   5   18.56    0.55
  -5   2  -5   19.29    0.62
   5   2   5   19.36    0.66
   6  -2   5   21.90    0.63
  -6  -2  -5   22.49    0.74
   6   2   5   21.65    0.61
   6   2   5   21.27    0.74
  -6   2  -5   22.01    0.70
  -7  -2  -5    0.44    0.10
   7   2   5    0.65    0.12
  -7   2  -5    0.54    0.10
  -8  -2  -5    4.91    0.30
   8   2   5    5.13    0.31
  -8   2  -5    5.25    0.28
  -9  -2  -5    2.99    0.25
   9   2   5    2.75    0.28
  -9   2  -5    2.66    0.21
 -10  -2  -5    0.15    0.10
 -10   2  -5    0.19    0.09
  10   2   5    0.16    0.11
 -11  -2  -5    0.23    0.12
 -11  -3   5    0.20    0.13
 -11  -3   5    0.17    0.13
 -11   3   5    0.15    0.06
 -11   3   5    0.20    0.14
 -10  -3   5   32.77    1.15
 -10   3   5   33.95    0.97
 -10   3   5   33.75    1.18
  -9  -3   5    0.40    0.12
  -9   3   5    0.42    0.13
   9   3  -5    0.24    0.11
  -9   3   5    0.37    0.07
  -8  -3   5    0.78    0.15
  -8   3   5    0.54    0.07
  -8   3   5    0.50    0.13
  -8   3   5    0.61    0.08
   8   3  -5    0.65    0.14
  -7  -3   5    2.76    0.22
  -7   3   5    2.69    0.21
   7   3  -5    2.49    0.22
  -7   3   5    2.57    0.25
  -7   3   5    2.67    0.13
  -6  -3   5   43.57    1.32
  -6   3   5   44.93    1.34
  -6   3   5   42.69    1.31
  -6   3   5   45.51    1.18
  -5  -3   5    3.65    0.22
  -5   3   5    3.84    0.14
  -5   3   5    3.72    0.22
  -5   3   5    3.72    0.22
   5   3  -5    3.54    0.23
  -5   3   5    3.85    0.21
  -4  -3   5   36.29    1.08
  -4   3   5   35.60    1.08
  -4   3   5   40.67    1.03
  -4   3   5   36.65    1.09
  -4   3   5   36.13    0.97
  -4   3   5   34.41    1.05
   4   3  -5   35.95    1.12
  -3  -3   5    0.14    0.05
  -3  -3   5    0.21    0.05
  -3   3   5    0.16    0.05
  -3   3   5    0.14    0.05
   3   3  -5    0.15    0.06
  -3   3   5    0.19    0.03
  -3   3   5    0.22    0.05
  -3   3   5    0.16    0.04
  -2  -3   5    4.54    0.18
  -2  -3   5    4.56    0.21
  -2   3   5    4.81    0.21
  -2   3   5    4.39    0.21
   2   3  -5    4.35    0.24
  -2   3   5    4.64    0.20
  -2   3   5    4.41    0.17
  -2   3   5    4.46    0.20
  -1  -3   5   32.93    0.97
   1  -3  -5   35.01    0.92
  -1  -3   5   34.63    0.92
  -1   3   5   32.83    0.96
  -1   3   5   33.73    0.94
   1   3  -5   33.97    1.02
   1   3  -5   37.47    1.04
  -1   3   5   34.44    0.98
  -1   3   5   33.56    0.97
   1   3  -5   31.88    0.90
  -1   3   5   33.24    0.94
   0  -3  -5    0.99    0.07
   0  -3   5    0.86    0.06
   0  -3   5    0.77    0.09
   0   3   5    0.79    0.09
   0   3   5    0.86    0.07
   0   3  -5    0.94    0.12
   0   3   5    0.72    0.09
   0   3  -5    0.68    0.10
   0   3  -5    0.75    0.05
   0   3   5    0.80    0.09
   0   3   5    0.97    0.10
   1  -3   5   75.53    1.99
  -1  -3  -5   77.65    2.04
   1   3   5   74.61    2.09
   1   3   5   77.31    2.06
  -1   3  -5   75.83    1.96
  -1   3  -5   74.98    1.97
   1   3   5   79.13    2.01
   1   3   5   78.06    2.07
   1   3   5   75.97    2.06
  -1   3  -5   79.15    2.09
  -1   3  -5   78.62    2.09
  -2  -3  -5    0.77    0.10
   2  -3   5    0.77    0.06
   2   3   5    0.80    0.11
   2   3   5    0.80    0.09
   2   3   5    0.80    0.10
   2   3   5    0.85    0.07
   2   3   5    0.87    0.11
  -2   3  -5    0.83    0.10
  -2   3  -5    0.98    0.11
  -3  -3  -5    9.30    0.36
   3  -3   5    9.60    0.32
   3   3   5    9.45    0.35
  -3   3  -5    9.88    0.36
  -3   3  -5    9.19    0.34
   3   3   5    9.02    0.36
   3   3   5   10.11    0.40
  -4  -3  -5    0.34    0.08
   4   3   5    0.40    0.07
  -4   3  -5    0.38    0.06
  -4   3  -5    0.47    0.08
   4   3   5    0.24    0.07
   4   3   5    0.52    0.10
  -5  -3  -5    2.42    0.17
  -5   3  -5    2.28    0.16
   5   3   5    2.26    0.14
   5   3   5    2.48    0.18
   5   3   5    2.15    0.18
  -5   3  -5    2.30    0.10
  -6  -3  -5   11.75    0.47
  -6   3  -5   11.71    0.44
   6   3   5   11.21    0.39
   6   3   5   11.29    0.49
  -7  -3  -5    0.08    0.07
   7   3   5   -0.03    0.05
  -7   3  -5    0.06    0.05
  -8  -3  -5    5.87    0.34
  -8   3  -5    6.03    0.30
   8   3   5    5.75    0.36
  -9  -3  -5    4.35    0.32
  -9   3  -5    5.02    0.28
   9   3   5    4.41    0.32
  10   3   5    0.04    0.10
 -10   3  -5    0.04    0.07
  11   3   5    2.31    0.30
 -11  -4   5    1.48    0.24
 -11  -4   5    1.45    0.25
 -11   4   5    1.41    0.10
 -10  -4   5    2.20    0.26
 -10  -4   5    1.91    0.27
 -10   4   5    2.05    0.11
 -10   4   5    2.61    0.30
  -9  -4   5    1.38    0.20
   9   4  -5    1.52    0.22
  -9   4   5    1.39    0.08
  -9   4   5    1.42    0.08
  -9   4   5    1.32    0.20
  -8  -4   5    1.77    0.21
   8   4  -5    1.78    0.23
  -8   4   5    1.76    0.22
  -7  -4   5    1.38    0.18
   7   4  -5    1.35    0.20
  -7   4   5    1.18    0.17
  -7   4   5    1.43    0.18
  -6  -4   5    1.78    0.19
  -6   4   5    2.01    0.20
  -6   4   5    2.01    0.16
  -6   4   5    1.93    0.20
   6   4  -5    1.85    0.22
  -5  -4   5    6.69    0.32
  -5   4   5    7.12    0.28
  -5   4   5    6.51    0.31
  -5   4   5    6.63    0.32
   5   4  -5    7.40    0.38
   5   4  -5    6.12    0.34
  -5   4   5    6.17    0.29
  -4  -4   5    2.58    0.18
  -4   4   5    2.70    0.19
   4   4  -5    3.09    0.23
  -4   4   5    3.07    0.18
  -4   4   5    2.76    0.16
  -4   4   5    2.91    0.11
  -4   4   5    3.20    0.19
   4   4  -5    2.80    0.22
  -3  -4   5   17.81    0.59
  -3   4   5   17.74    0.59
   3   4  -5   18.58    0.68
  -3   4   5   17.91    0.52
   3   4  -5   18.17    0.66
  -3   4   5   18.30    0.61
  -3   4   5   18.11    0.58
  -3   4   5   18.02    0.58
  -2  -4   5    2.74    0.16
   2   4  -5    2.61    0.12
   2   4  -5    2.58    0.20
  -2   4   5    2.46    0.13
  -2   4   5    2.43    0.16
  -2   4   5    2.74    0.17
  -2   4   5    2.47    0.14
  -2   4   5    2.59    0.16
   2   4  -5    2.94    0.21
  -1  -4   5    0.27    0.06
  -1   4   5    0.31    0.06
  -1   4   5    0.44    0.08
   1   4  -5    0.32    0.08
   1   4  -5    0.30    0.08
   1   4  -5    0.24    0.03
  -1   4   5    0.30    0.07
  -1   4   5    0.25    0.05
   1   4  -5    0.24    0.05
  -1   4   5    0.33    0.07
   0  -4   5   10.48    0.39
   0  -4  -5   10.89    0.35
   0   4   5   10.74    0.41
   0   4   5   10.79    0.39
   0   4   5   10.61    0.33
   0   4  -5   10.28    0.34
   0   4   5   10.83    0.41
   0   4  -5   10.71    0.43
   0   4   5   10.76    0.38
   0   4  -5   10.36    0.43
  -1  -4  -5   18.87    0.58
   1  -4   5   19.55    0.51
   1   4   5   18.02    0.62
   1   4   5   19.36    0.61
  -1   4  -5   18.52    0.65
   1   4   5   18.23    0.61
  -1   4  -5   19.04    0.52
   1   4   5   19.25    0.53
  -1   4  -5   19.90    0.65
   2  -4   5    0.30    0.04
  -2  -4  -5    0.25    0.06
   2   4   5    0.21    0.07
   2   4   5    0.33    0.07
  -2   4  -5    0.16    0.06
  -2   4  -5    0.17    0.06
   2   4   5    0.31    0.07
   2   4   5    0.26    0.04
   2   4   5    0.24    0.08
   3  -4   5   18.86    0.55
  -3  -4  -5   20.14    0.63
   3   4   5   18.77    0.63
   3   4   5   18.64    0.62
  -3   4  -5   18.93    0.63
  -3   4  -5   17.98    0.62
   3   4   5   18.81    0.67
  -4  -4  -5   30.52    0.96
   4   4   5   31.55    0.95
  -4   4  -5   31.06    0.94
  -4   4  -5   30.98    0.92
   4   4   5   31.34    1.01
   4   4   5   31.37    0.96
  -5  -4  -5    0.34    0.09
   5   4   5    0.29    0.09
  -5   4  -5    0.46    0.07
   5   4   5    0.41    0.08
   5   4   5    0.26    0.08
  -5   4  -5    0.35    0.08
  -6  -4  -5   18.73    0.68
   6   4   5   19.23    0.72
  -6   4  -5   18.98    0.63
   6   4   5   18.51    0.62
   6   4   5   18.11    0.68
   7   4   5    1.34    0.20
  -7   4  -5    1.54    0.17
   7   4   5    1.72    0.21
  -8   4  -5    2.32    0.19
   8   4   5    1.89    0.23
   8   4   5    2.32    0.28
  -9   4  -5    0.36    0.10
   9   4   5    0.38    0.14
   9   4   5    0.46    0.14
  10   4   5   12.41    0.61
  10   4   5   11.58    0.60
  10   5  -5    2.41    0.31
   9   5  -5    0.17    0.12
   9   5  -5    0.08    0.09
  -8  -5   5    0.13    0.09
   8   5  -5    0.20    0.11
   8   5  -5    0.18    0.09
  -8   5   5    0.12    0.09
  -7  -5   5    0.08    0.07
   7   5  -5    0.08    0.09
  -7   5   5   -0.02    0.07
  -7   5   5    0.06    0.07
  -6  -5   5   27.81    0.93
  -6   5   5   27.74    0.94
  -6   5   5   29.77    0.96
  -6   5   5   29.24    0.93
   6   5  -5   28.42    1.04
  -6   5   5   33.61    0.90
  -5  -5   5    5.11    0.27
  -5   5   5    4.91    0.24
  -5   5   5    4.30    0.25
   5   5  -5    4.07    0.29
  -5   5   5    4.76    0.27
  -5   5   5    4.52    0.25
   5   5  -5    4.40    0.31
  -4  -5   5   35.75    1.08
  -4   5   5   36.26    1.09
   4   5  -5   36.84    1.14
   4   5  -5   35.29    1.18
  -4   5   5   35.96    1.10
  -4   5   5   38.36    1.08
   4   5  -5   36.94    1.21
  -4   5   5   36.10    1.07
  -3  -5   5    1.49    0.15
   3   5  -5    1.06    0.17
  -3   5   5    1.37    0.15
   3   5  -5    1.63    0.20
  -3   5   5    1.40    0.15
   3   5  -5    1.16    0.14
  -3   5   5    1.32    0.11
  -3   5   5    1.36    0.15
  -2  -5   5    7.24    0.30
   2   5  -5    7.24    0.37
   2   5  -5    6.40    0.36
  -2   5   5    7.15    0.26
  -2   5   5    7.46    0.33
  -2   5   5    6.78    0.30
  -2   5   5    7.08    0.32
   2   5  -5    7.11    0.31
  -1  -5   5   -0.02    0.03
  -1   5   5   -0.01    0.03
  -1   5   5   -0.01    0.04
   1   5  -5   -0.01    0.04
  -1   5   5    0.05    0.04
   1   5  -5    0.00    0.03
  -1   5   5    0.03    0.03
   1   5  -5    0.00    0.05
   0  -5   5    5.03    0.23
   0   5  -5    4.78    0.28
   0   5   5    4.13    0.25
   0   5  -5    4.56    0.28
   0   5   5    4.95    0.23
   0   5   5    4.88    0.26
   0   5  -5    4.76    0.20
   1  -5   5    4.42    0.22
  -1   5  -5    3.79    0.25
  -1   5  -5    4.42    0.26
   1   5   5    4.13    0.21
  -1   5  -5    4.05    0.16
   1   5   5    4.20    0.25
  -2   5  -5   35.84    1.08
   2   5   5   33.91    1.07
   2   5   5   36.11    1.03
   2   5   5   33.91    1.09
  -2   5  -5   33.30    1.07
  -3   5  -5    8.52    0.38
   3   5   5    9.61    0.43
   3   5   5    9.23    0.40
   3   5   5    9.00    0.37
  -3   5  -5    9.07    0.39
   4   5   5   19.07    0.69
   4   5   5   19.17    0.73
  -4   5  -5   19.90    0.67
  -4   5  -5   20.86    0.69
   4   5   5   20.34    0.68
  -5   5  -5    1.00    0.13
   5   5   5    1.29    0.16
   5   5   5    1.10    0.17
   5   5   5    1.18    0.16
   6   5   5    0.14    0.09
   6   5   5    0.17    0.08
  -6   5  -5    0.29    0.08
   6   5   5    0.26    0.09
  -7   5  -5    0.01    0.05
   7   5   5    0.11    0.08
   7   5   5    0.07    0.08
   8   5   5    0.89    0.17
  -8   5  -5    1.12    0.16
   8   5   5    1.29    0.22
  -9   5  -5    1.40    0.18
   9   5   5    0.86    0.19
   9   5   5    0.99    0.20
   9   6  -5    0.16    0.13
   9   6  -5    0.11    0.13
   8   6  -5    0.00    0.08
   8   6  -5    0.03    0.08
   7   6  -5    0.10    0.10
   7   6  -5    0.00    0.08
  -6   6   5    0.49    0.10
  -6   6   5    0.44    0.11
  -6   6   5    0.44    0.10
   6   6  -5    0.54    0.14
   6   6  -5    0.33    0.12
  -5  -6   5    0.21    0.11
  -5   6   5    0.20    0.08
  -5   6   5    0.32    0.08
   5   6  -5    0.21    0.11
   5   6  -5    0.25    0.11
   5   6  -5    0.11    0.09
  -5   6   5    0.28    0.09
  -4  -6   5    0.03    0.05
   4   6  -5   -0.05    0.05
  -4   6   5    0.00    0.05
   4   6  -5    0.03    0.08
  -4   6   5    0.04    0.05
   4   6  -5   -0.01    0.07
  -4   6   5    0.03    0.05
  -3  -6   5    0.13    0.06
  -3   6   5    0.07    0.06
   3   6  -5    0.07    0.07
  -3   6   5    0.08    0.06
  -3   6   5    0.11    0.07
   3   6  -5    0.05    0.08
   3   6  -5    0.07    0.07
  -2  -6   5    0.05    0.05
   2   6  -5    0.01    0.06
  -2   6   5    0.03    0.05
   2   6  -5    0.01    0.04
  -2   6   5   -0.02    0.04
  -2   6   5   -0.04    0.05
   2   6  -5    0.07    0.07
  -1  -6   5    3.67    0.20
   1   6  -5    3.46    0.26
  -1   6   5    3.40    0.24
   1   6  -5    3.71    0.28
   1   6  -5    3.58    0.20
  -1   6   5    3.51    0.23
  -1   6   5    3.72    0.21
   0  -6   5    0.98    0.12
   0   6  -5    1.02    0.17
   0   6   5    1.09    0.15
   0   6  -5    1.04    0.11
   0   6   5    1.27    0.17
   0   6  -5    1.24    0.18
   0   6   5    0.83    0.11
   1  -6   5    0.30    0.07
   1   6   5    0.34    0.08
   1   6   5    0.21    0.08
  -1   6  -5    0.32    0.10
   1   6   5    0.31    0.09
  -1   6  -5    0.26    0.09
  -2   6  -5    0.19    0.08
   2   6   5    0.45    0.11
   2   6   5    0.27    0.10
   2   6   5    0.34    0.08
  -2   6  -5    0.54    0.12
   3   6   5    6.14    0.34
  -3   6  -5    6.91    0.35
  -3   6  -5    6.43    0.34
   3   6   5    5.99    0.30
   3   6   5    6.69    0.37
   4   6   5    0.96    0.17
  -4   6  -5    1.64    0.18
   4   6   5    1.52    0.19
   4   6   5    1.67    0.18
  -4   6  -5    1.26    0.17
  -5   6  -5    1.65    0.19
   5   6   5    1.28    0.18
   5   6   5    1.38    0.21
   5   6   5    1.46    0.18
   6   6   5    0.50    0.12
  -6   6  -5    0.55    0.11
   6   6   5    0.68    0.16
   6   6   5    0.60    0.13
   7   6   5    1.82    0.27
  -7   6  -5    1.92    0.20
   7   6   5    2.03    0.24
   8   6   5    0.99    0.20
   8   6   5    1.21    0.20
  -8   6  -5    0.93    0.15
   9   6   5    0.63    0.17
   9   7  -5    4.11    0.50
   8   7  -5    0.08    0.12
   8   7  -5   -0.04    0.11
   7   7  -5   10.59    0.61
  -7   7   5   12.48    0.47
  -7   7   5   11.67    0.50
   7   7  -5   11.36    0.59
   6   7  -5    1.00    0.19
  -6   7   5    0.56    0.12
  -6   7   5    0.63    0.11
   6   7  -5    0.42    0.15
   5   7  -5    1.08    0.21
  -5   7   5    1.01    0.15
  -5   7   5    1.36    0.17
   5   7  -5    1.29    0.20
  -4   7   5   -0.02    0.06
  -4   7   5   -0.02    0.05
   4   7  -5   -0.14    0.07
   4   7  -5    0.02    0.08
   4   7  -5   -0.03    0.06
   3   7  -5    0.63    0.16
   3   7  -5    0.92    0.18
  -3   7   5    0.92    0.15
   3   7  -5    1.02    0.16
  -3   7   5    0.75    0.12
  -3   7   5    0.71    0.13
   2   7  -5    0.49    0.13
   2   7  -5    0.60    0.15
  -2   7   5    0.70    0.14
   2   7  -5    0.62    0.12
  -2   7   5    0.79    0.12
  -2   7   5    0.58    0.11
   1   7  -5    3.60    0.28
  -1   7   5    3.35    0.21
  -1   7   5    3.37    0.24
   1   7  -5    3.23    0.20
  -1   7   5    3.19    0.25
   1   7  -5    3.10    0.28
   0   7  -5    0.18    0.09
   0   7   5    0.18    0.08
   0   7  -5    0.23    0.11
   0   7   5    0.29    0.08
   0   7   5    0.15    0.08
   1  -7   5    7.06    0.32
  -1   7  -5    7.00    0.39
  -1   7  -5    7.14    0.41
   1   7   5    7.07    0.32
   1   7   5    7.63    0.40
   1   7   5    7.28    0.40
   2  -7   5   -0.07    0.04
  -2   7  -5    0.00    0.06
   2   7   5    0.07    0.07
   2   7   5    0.01    0.05
   2   7   5    0.02    0.07
  -2   7  -5   -0.02    0.07
   3   7   5    2.20    0.25
   3   7   5    1.86    0.23
  -3   7  -5    2.41    0.23
   3   7   5    2.39    0.19
  -3   7  -5    2.39    0.25
   4   7   5    0.34    0.11
   4   7   5    0.39    0.10
   4   7   5    0.19    0.11
  -4   7  -5    0.25    0.09
  -4   7  -5    0.42    0.11
  -5   7  -5    0.33    0.10
   5   7   5    0.24    0.10
   5   7   5    0.32    0.11
   5   7   5    0.34    0.13
   6   7   5    2.16    0.24
  -6   7  -5    2.67    0.26
   6   7   5    2.27    0.26
   6   7   5    1.67    0.25
  -7   7  -5    4.39    0.30
   7   7   5    4.47    0.32
   7   7   5    5.17    0.40
   8   7   5    3.18    0.32
   7   8  -5    0.04    0.13
  -7   8   5    0.08    0.08
   7   8  -5    0.07    0.13
   6   8  -5    0.32    0.14
  -6   8   5    0.35    0.11
   6   8  -5    0.06    0.12
  -5   8   5   -0.02    0.06
   5   8  -5    0.05    0.10
  -5   8   5    0.02    0.07
   5   8  -5    0.06    0.11
  -4   8   5    0.19    0.09
   4   8  -5    0.07    0.10
  -4   8   5    0.02    0.07
   4   8  -5    0.03    0.09
   4   8  -5    0.08    0.11
  -3   8   5    1.15    0.18
  -3   8   5    1.09    0.16
   3   8  -5    0.97    0.21
   3   8  -5    1.03    0.17
   3   8  -5    1.24    0.24
  -2   8   5    1.38    0.20
   2   8  -5    0.91    0.19
  -2   8   5    1.37    0.19
   2   8  -5    1.15    0.22
  -1   8   5    0.37    0.11
  -1   8   5    0.28    0.11
   1   8  -5    0.35    0.13
   1   8  -5    0.30    0.12
   0   8   5    6.30    0.38
   0   8   5    6.45    0.37
   0   8  -5    5.57    0.39
   0   8  -5    5.64    0.38
  -1   8  -5    1.60    0.24
   1   8   5    1.62    0.21
   1   8   5    1.79    0.24
  -1   8  -5    1.44    0.22
   2   8   5    1.94    0.24
  -2   8  -5    2.36    0.26
  -2   8  -5    1.63    0.24
   2   8   5    2.09    0.26
  -3   8  -5    6.54    0.40
   3   8   5    6.28    0.41
  -3   8  -5    6.43    0.38
   3   8   5    7.08    0.42
   4   8   5    0.95    0.19
  -4   8  -5    0.98    0.17
   4   8   5    1.21    0.21
   5   8   5    0.63    0.16
   5   8   5    0.98    0.21
  -5   8  -5    0.95    0.17
   6   8   5    2.34    0.28
   5   9  -5    0.40    0.16
  -5   9   5    0.45    0.12
   4   9  -5    1.60    0.29
  -4   9   5    1.96    0.35
  -4   9   5    1.32    0.20
   3   9  -5    0.51    0.17
  -3   9   5    0.81    0.17
   3   9  -5    0.62    0.19
  -3   9   5    0.32    0.11
   2   9  -5   -0.03    0.10
  -2   9   5   -0.05    0.08
  -2   9   5   -0.03    0.08
   2   9  -5    0.13    0.11
  -1   9   5    0.23    0.10
   1   9  -5    0.15    0.11
   1   9  -5    0.30    0.13
  -1   9   5    0.24    0.11
   0   9  -5    0.73    0.17
   0   9  -5    0.49    0.16
   0   9   5    1.20    0.20
   0   9   5    0.72    0.17
   1   9   5    1.35    0.22
  -1   9  -5    1.16    0.22
   1   9   5    1.25    0.20
  -1   9  -5    1.33    0.23
   2   9   5    5.57    0.39
  -2   9  -5    6.35    0.41
   2   9   5    6.18    0.41
  -2   9  -5    5.53    0.41
   3   9   5    1.22    0.23
  -3   9  -5    1.73    0.25
   3   9   5    1.71    0.26
  -3   9  -5    1.67    0.25
   4   9   5    7.04    0.45
   3  10  -5    0.59    0.30
  -2  10   5    3.36    0.30
  -1  10   5    2.11    0.26
   0  10   5    0.28    0.16
 -11   0   6    0.08    0.10
 -11   0   6   -0.11    0.06
 -10   0   6    7.30    0.44
  -9   0   6   -0.08    0.06
  -8   0   6   23.38    0.85
  -7   0   6    0.03    0.06
  -7   0   6    0.01    0.06
  -6   0   6    7.34    0.33
  -6   0   6    8.52    0.39
  -6   0   6    7.98    0.36
  -5   0   6   -0.03    0.04
   5   0  -6    0.01    0.04
  -5   0   6    0.01    0.04
  -5   0   6    0.02    0.04
  -4   0   6  109.05    2.91
   4   0  -6  109.84    2.90
  -4   0   6  109.49    2.94
  -4   0   6  112.29    2.96
   3   0  -6   -0.08    0.03
  -3   0   6    0.02    0.05
  -3   0   6   -0.04    0.03
  -3   0   6   -0.06    0.03
  -2   0   6  208.92    5.44
  -2   0   6  214.52    5.49
  -2   0   6  208.91    5.47
   2   0  -6  214.02    5.47
  -2   0   6  214.86    5.45
  -1   0   6    0.00    0.02
   1   0  -6   -0.01    0.02
  -1   0   6    0.02    0.03
  -1   0   6    0.02    0.03
  -1   0   6   -0.02    0.02
   0   0  -6    2.06    0.12
   0   0   6    2.27    0.13
   0   0   6    2.37    0.13
   0   0   6    2.11    0.11
   1   0   6    0.01    0.03
   1   0   6    0.00    0.03
  -1   0  -6   -0.01    0.02
   1   0   6   -0.05    0.01
   1   0   6   -0.02    0.03
   2   0   6    2.16    0.11
  -2   0  -6    1.90    0.12
   2   0   6    1.75    0.12
  -3   0  -6   -0.02    0.03
   3   0   6   -0.05    0.02
  -3   0  -6   -0.01    0.02
   3   0   6   -0.02    0.02
  -4   0  -6    3.87    0.14
  -4   0  -6    4.27    0.21
   4   0   6    3.64    0.21
   4   0   6    4.13    0.19
   5   0   6   -0.03    0.02
  -5   0  -6    0.01    0.04
   6   0   6    0.96    0.11
  -6   0  -6    0.97    0.13
   7   0   6   -0.05    0.04
  -7   0  -6    0.05    0.05
   8   0   6    3.67    0.26
  -8   0  -6    3.64    0.25
  -9   0  -6    0.05    0.07
 -10   0  -6    0.24    0.11
 -11   0  -6   -0.02    0.09
 -11  -1   6    0.24    0.13
 -11  -1   6    0.17    0.11
 -11   1   6    0.34    0.13
 -11   1   6    0.22    0.09
 -10  -1   6    5.35    0.37
 -10   1   6    5.49    0.38
  -9  -1   6    0.08    0.08
  -9   1   6    0.08    0.08
  -8  -1   6   25.55    0.92
  -8   1   6   26.65    0.93
  -7  -1   6    0.46    0.11
  -7   1   6    0.59    0.12
  -7   1   6    0.45    0.11
  -6  -1   6    4.30    0.26
  -6  -1   6    4.30    0.25
  -6   1   6    4.28    0.22
  -6   1   6    4.46    0.27
  -6   1   6    4.69    0.26
  -5  -1   6    0.37    0.08
  -5  -1   6    0.30    0.08
  -5  -1   6    0.20    0.07
  -5   1   6    0.25    0.06
   5   1  -6    0.32    0.08
  -5   1   6    0.20    0.07
  -5   1   6    0.25    0.07
  -4  -1   6    9.78    0.39
  -4  -1   6    9.38    0.37
  -4  -1   6    9.89    0.38
  -4   1   6    9.75    0.39
   4   1  -6    9.84    0.38
  -4   1   6    9.05    0.38
  -4   1   6    9.53    0.33
  -3  -1   6    0.91    0.10
  -3  -1   6    0.92    0.11
  -3  -1   6    0.75    0.10
   3  -1  -6    0.86    0.09
  -3   1   6    0.76    0.09
  -3   1   6    0.84    0.08
  -3   1   6    0.69    0.10
  -3   1   6    0.71    0.10
   3   1  -6    0.55    0.09
   2  -1  -6    2.26    0.12
  -2  -1   6    1.95    0.12
  -2  -1   6    2.01    0.14
  -2  -1   6    2.12    0.13
  -2   1   6    2.10    0.14
   2   1  -6    2.35    0.15
  -2   1   6    2.18    0.14
  -2   1   6    1.92    0.11
  -2   1   6    2.06    0.12
  -1  -1   6   89.64    2.35
   1  -1  -6   89.34    2.33
  -1  -1   6   85.23    2.36
  -1  -1   6   88.56    2.33
  -1   1   6   88.27    2.35
  -1   1   6   88.22    2.32
   1   1  -6   90.42    2.36
  -1   1   6   88.46    2.35
  -1   1   6   88.75    2.33
   0  -1   6   34.24    0.94
   0  -1   6   35.49    0.97
   0  -1  -6   33.76    0.97
   0  -1   6   36.23    1.01
   0   1   6   33.89    0.97
   0   1   6   36.22    0.98
   0   1  -6   35.85    1.00
   0   1   6   34.81    0.99
   0   1   6   33.85    0.98
   1  -1   6   90.15    2.39
  -1  -1  -6   89.10    2.40
   1  -1   6   91.95    2.35
   1   1   6   90.10    2.41
  -1   1  -6   93.73    2.42
   1   1   6   93.50    2.41
   1   1   6   93.17    2.40
  -1   1  -6   84.77    2.35
   1   1   6   94.57    2.41
   2  -1   6   61.14    1.58
   2  -1   6   61.87    1.64
  -2  -1  -6   62.33    1.65
   2   1   6   58.77    1.64
   2   1   6   60.32    1.66
  -2   1  -6   60.25    1.65
  -2   1  -6   60.63    1.59
   3  -1   6    0.13    0.03
  -3  -1  -6    0.13    0.05
   3  -1   6    0.05    0.04
   3   1   6    0.10    0.04
  -3   1  -6    0.10    0.04
  -3   1  -6    0.08    0.02
   3   1   6    0.12    0.05
   4  -1   6    7.05    0.24
   4  -1   6    6.94    0.30
  -4  -1  -6    6.96    0.27
  -4  -1  -6    6.98    0.30
  -4   1  -6    7.04    0.30
  -4   1  -6    7.04    0.21
  -4   1  -6    7.41    0.22
   4   1   6    7.47    0.32
   4   1   6    7.17    0.30
  -5  -1  -6    1.68    0.14
   5  -1   6    1.62    0.10
   5   1   6    1.77    0.14
   5   1   6    1.50    0.16
  -5   1  -6    1.54    0.13
  -6  -1  -6    0.58    0.10
   6  -1   6    0.79    0.09
   6   1   6    0.57    0.10
  -6   1  -6    0.63    0.11
  -7  -1  -6    8.76    0.39
  -7   1  -6    8.37    0.37
   7   1   6    7.71    0.37
  -8  -1  -6   10.80    0.48
  -8   1  -6   11.04    0.46
   8   1   6   11.08    0.47
  -9  -1  -6   15.06    0.61
   9   1   6   14.95    0.65
  -9   1  -6   14.67    0.59
 -10  -1  -6    3.14    0.27
 -10   1  -6    3.49    0.27
 -11  -1  -6    5.33    0.37
 -11  -2   6    7.19    0.45
 -11  -2   6    6.73    0.43
 -11   2   6    7.19    0.46
 -11   2   6    7.01    0.33
 -10  -2   6    0.73    0.16
 -10   2   6    0.50    0.10
 -10   2   6    0.45    0.15
  -9  -2   6    3.33    0.28
  -9   2   6    3.67    0.29
  -8  -2   6    1.50    0.20
  -8   2   6    1.24    0.19
  -7  -2   6    1.10    0.16
  -7   2   6    1.33    0.11
  -7   2   6    1.26    0.17
  -7   2   6    1.07    0.17
  -6  -2   6    6.73    0.35
  -6   2   6    7.65    0.36
  -6   2   6    7.40    0.36
  -6   2   6    6.95    0.27
  -5  -2   6    7.86    0.34
  -5  -2   6    7.88    0.37
  -5  -2   6    7.79    0.36
  -5   2   6    8.17    0.28
   5   2  -6    7.79    0.36
  -5   2   6    7.69    0.35
  -5   2   6    8.39    0.36
  -4  -2   6    0.57    0.10
  -4  -2   6    0.37    0.08
  -4  -2   6    0.46    0.08
  -4   2   6    0.48    0.09
  -4   2   6    0.37    0.07
  -4   2   6    0.53    0.09
  -4   2   6    0.52    0.06
   4   2  -6    0.63    0.11
  -3  -2   6    6.90    0.30
  -3  -2   6    6.86    0.30
  -3  -2   6    6.84    0.28
  -3   2   6    6.50    0.29
  -3   2   6    6.95    0.28
  -3   2   6    6.82    0.24
   3   2  -6    6.61    0.31
  -3   2   6    7.01    0.29
   2  -2  -6   25.66    0.71
  -2  -2   6   25.38    0.74
  -2  -2   6   24.57    0.77
  -2   2   6   25.89    0.75
  -2   2   6   24.98    0.76
   2   2  -6   25.35    0.79
  -2   2   6   25.32    0.77
  -2   2   6   23.98    0.71
   1  -2  -6   23.37    0.68
  -1  -2   6   24.00    0.73
  -1  -2   6   23.34    0.69
  -1   2   6   26.09    0.69
  -1   2   6   23.11    0.71
   1   2  -6   23.42    0.75
  -1   2   6   24.04    0.73
  -1   2   6   23.90    0.72
  -1   2   6   24.27    0.69
   0  -2   6    8.19    0.28
   0  -2  -6    8.17    0.29
   0  -2   6    8.10    0.32
   0   2  -6    8.53    0.33
   0   2   6    8.20    0.28
   0   2   6    7.96    0.29
   0   2  -6    7.82    0.25
   0   2   6    8.40    0.31
   0   2   6    8.19    0.29
   0   2   6    7.94    0.31
  -1  -2  -6   42.73    1.17
   1  -2   6   42.19    1.15
   1   2   6   42.19    1.20
   1   2   6   43.82    1.19
   1   2   6   41.96    1.17
  -1   2  -6   42.31    1.21
   1   2   6   43.00    1.15
  -1   2  -6   41.04    1.10
   1   2   6   42.08    1.19
   2  -2   6    3.40    0.16
  -2  -2  -6    3.27    0.17
   2   2   6    3.51    0.19
   2   2   6    3.37    0.18
   2   2   6    3.55    0.19
   2   2   6    3.39    0.15
  -2   2  -6    3.25    0.18
  -3  -2  -6   42.61    1.25
   3  -2   6   44.01    1.23
  -3   2  -6   45.76    1.21
   3   2   6   44.73    1.27
  -3   2  -6   44.28    1.26
   3   2   6   44.14    1.27
   3   2   6   44.30    1.19
   4  -2   6    2.71    0.16
  -4  -2  -6    2.74    0.18
   4   2   6    2.70    0.12
   4   2   6    2.19    0.17
  -4   2  -6    2.71    0.12
  -4   2  -6    2.93    0.17
   4   2   6    2.69    0.18
  -5  -2  -6    4.35    0.24
   5  -2   6    4.19    0.15
  -5   2  -6    4.13    0.22
   5   2   6    4.55    0.25
   5   2   6    4.40    0.25
   5   2   6    4.48    0.16
  -6  -2  -6   22.60    0.76
   6   2   6   21.44    0.77
   6   2   6   22.70    0.77
  -6   2  -6   22.73    0.73
  -7  -2  -6   11.64    0.49
   7   2   6   12.21    0.51
  -7   2  -6   12.00    0.47
  -8  -2  -6    9.06    0.45
   8   2   6   10.55    0.47
  -8   2  -6   10.34    0.44
  -9  -2  -6   -0.03    0.07
  -9   2  -6   -0.01    0.06
   9   2   6   -0.03    0.07
 -10  -2  -6    0.66    0.17
 -10   2  -6    0.69    0.14
 -11  -2  -6    3.74    0.32
 -11  -3   6   11.19    0.58
 -11  -3   6   11.39    0.59
 -11   3   6   11.27    0.60
 -11   3   6   11.29    0.41
 -10  -3   6    7.46    0.44
  10   3  -6    7.05    0.45
 -10   3   6    7.89    0.46
 -10   3   6    7.23    0.30
  -9  -3   6   15.53    0.67
  -9   3   6   17.45    0.70
  -9   3   6   15.45    0.51
   9   3  -6   15.89    0.67
  -8  -3   6    2.33    0.25
  -8   3   6    2.30    0.14
  -8   3   6    2.46    0.26
   8   3  -6    2.61    0.24
  -7  -3   6    0.00    0.06
  -7   3   6   -0.04    0.05
  -7   3   6    0.00    0.05
  -7   3   6    0.01    0.03
  -6  -3   6   20.74    0.73
  -6   3   6   20.63    0.73
  -6   3   6   20.63    0.73
  -6   3   6   20.28    0.59
  -5  -3   6    4.11    0.24
  -5   3   6    4.36    0.25
   5   3  -6    3.97    0.26
  -5   3   6    4.26    0.23
  -5   3   6    4.37    0.26
  -5   3   6    4.07    0.16
  -4  -3   6    0.78    0.10
  -4  -3   6    0.74    0.12
   4   3  -6    0.67    0.12
  -4   3   6    0.73    0.06
  -4   3   6    0.60    0.11
  -4   3   6    0.64    0.10
  -4   3   6    0.65    0.10
  -3  -3   6    4.23    0.19
  -3  -3   6    4.10    0.22
  -3   3   6    4.14    0.23
   3   3  -6    4.45    0.26
  -3   3   6    4.25    0.22
  -3   3   6    4.03    0.16
  -3   3   6    4.64    0.20
  -3   3   6    4.42    0.22
  -2  -3   6    8.52    0.30
  -2  -3   6    8.68    0.34
  -2   3   6    8.57    0.32
  -2   3   6    8.18    0.34
   2   3  -6    8.68    0.38
  -2   3   6    8.34    0.31
  -2   3   6    8.69    0.34
  -2   3   6    8.82    0.29
  -1  -3   6   14.56    0.53
  -1  -3   6   16.53    0.48
   1  -3  -6   16.48    0.48
  -1   3   6   16.11    0.54
  -1   3   6   16.43    0.51
   1   3  -6   15.83    0.57
  -1   3   6   16.79    0.51
  -1   3   6   16.02    0.50
  -1   3   6   16.45    0.54
   0  -3   6    0.26    0.04
   0  -3   6    0.25    0.06
   0  -3  -6    0.27    0.05
   0   3  -6    0.26    0.05
   0   3   6    0.33    0.05
   0   3  -6    0.36    0.04
   0   3  -6    0.29    0.07
   0   3   6    0.34    0.07
   0   3   6    0.28    0.05
   0   3   6    0.30    0.07
   0   3   6    0.26    0.05
  -1  -3  -6    0.03    0.03
   1  -3   6    0.01    0.02
  -1   3  -6    0.00    0.03
  -1   3  -6    0.03    0.02
  -1   3  -6    0.00    0.03
  -1   3  -6    0.04    0.01
   1   3   6    0.02    0.03
   1   3   6   -0.01    0.03
   1   3   6    0.01    0.02
   1   3   6    0.02    0.03
   1   3   6   -0.02    0.03
  -2  -3  -6   44.94    1.26
   2  -3   6   44.47    1.22
   2   3   6   45.54    1.23
   2   3   6   47.28    1.30
  -2   3  -6   43.25    1.28
   2   3   6   44.62    1.25
   2   3   6   45.04    1.31
  -2   3  -6   45.04    1.28
   2   3   6   44.90    1.28
  -3  -3  -6   55.53    1.54
   3  -3   6   56.24    1.49
   3   3   6   54.37    1.50
   3   3   6   54.70    1.57
   3   3   6   56.42    1.56
  -3   3  -6   54.10    1.51
  -3   3  -6   54.45    1.54
   4  -3   6   68.12    1.82
  -4  -3  -6   68.33    1.86
  -4   3  -6   67.31    1.85
   4   3   6   65.47    1.89
   4   3   6   66.17    1.87
  -4   3  -6   64.97    1.79
   4   3   6   67.98    1.80
  -5  -3  -6   23.06    0.76
   5   3   6   22.66    0.77
  -5   3  -6   23.12    0.74
   5   3   6   21.99    0.68
   5   3   6   23.45    0.79
  -6  -3  -6   12.78    0.51
  -6   3  -6   12.87    0.48
   6   3   6   12.96    0.53
   6   3   6   12.68    0.52
   6   3   6   12.08    0.43
  -7  -3  -6    1.19    0.17
  -7   3  -6    1.66    0.17
   7   3   6    1.64    0.21
   7   3   6    1.35    0.18
  -8  -3  -6    0.11    0.08
   8   3   6    0.15    0.09
   8   3   6    0.01    0.07
  -8   3  -6    0.09    0.07
  -9   3  -6    1.20    0.17
   9   3   6    1.71    0.24
   9   3   6    1.47    0.22
  10   3   6    0.46    0.15
 -10   3  -6    0.56    0.13
  10   3   6    0.52    0.14
 -11  -4   6    0.22    0.13
 -11  -4   6    0.39    0.17
 -10  -4   6    2.05    0.26
  10   4  -6    2.20    0.29
 -10   4   6    1.66    0.25
  -9  -4   6    0.09    0.09
  -9   4   6    0.07    0.03
  -9   4   6    0.08    0.08
   9   4  -6   -0.02    0.09
  -8  -4   6   12.87    0.55
  -8   4   6   12.69    0.55
   8   4  -6   11.30    0.56
  -7  -4   6    1.65    0.20
  -7   4   6    2.45    0.25
  -7   4   6    1.87    0.21
   7   4  -6    1.68    0.22
  -6  -4   6    0.89    0.14
  -6   4   6    0.62    0.12
  -6   4   6    0.97    0.14
  -6   4   6    0.82    0.05
   6   4  -6    0.75    0.15
  -6   4   6    0.62    0.11
  -5  -4   6   26.06    0.88
  -5   4   6   28.07    0.89
   5   4  -6   27.29    0.96
  -5   4   6   28.46    0.87
   5   4  -6   26.98    0.94
  -5   4   6   28.02    0.74
  -5   4   6   27.86    0.90
  -4  -4   6   16.77    0.60
  -4   4   6   16.13    0.60
  -4   4   6   18.18    0.56
  -4   4   6   16.81    0.58
   4   4  -6   16.40    0.65
  -4   4   6   16.80    0.58
   4   4  -6   17.42    0.67
  -4   4   6   16.46    0.48
  -3  -4   6   17.95    0.60
  -3   4   6   17.33    0.59
  -3   4   6   17.42    0.57
   3   4  -6   17.07    0.66
  -3   4   6   17.86    0.52
   3   4  -6   17.46    0.66
  -3   4   6   16.79    0.57
  -3   4   6   17.32    0.60
  -2  -4   6    7.51    0.32
  -2  -4   6    7.42    0.26
  -2   4   6    7.44    0.29
  -2   4   6    7.67    0.33
  -2   4   6    7.46    0.32
   2   4  -6    7.52    0.37
  -2   4   6    7.54    0.31
   2   4  -6    7.61    0.36
  -2   4   6    7.47    0.27
  -1  -4   6    0.04    0.04
  -1  -4   6    0.02    0.02
  -1   4   6    0.05    0.03
   1   4  -6   -0.03    0.03
  -1   4   6    0.05    0.04
   1   4  -6    0.01    0.05
  -1   4   6    0.05    0.04
  -1   4   6    0.05    0.04
   1   4  -6    0.01    0.02
  -1   4   6   -0.01    0.03
   0  -4   6   26.10    0.70
   0  -4  -6   25.84    0.74
   0  -4   6   25.56    0.79
   0   4  -6   26.18    0.85
   0   4   6   26.09    0.80
   0   4   6   25.28    0.78
   0   4  -6   25.28    0.73
   0   4   6   25.13    0.81
   0   4  -6   25.24    0.84
   0   4   6   26.30    0.73
   0   4   6   25.97    0.80
  -1  -4  -6    3.52    0.18
   1  -4   6    3.64    0.21
   1  -4   6    3.78    0.14
  -1   4  -6    3.46    0.22
  -1   4  -6    3.58    0.22
   1   4   6    3.81    0.21
   1   4   6    3.51    0.20
  -1   4  -6    3.75    0.12
  -1   4  -6    3.76    0.13
   1   4   6    3.64    0.20
   1   4   6    3.57    0.22
   1   4   6    4.13    0.16
   2  -4   6   45.30    1.24
  -2  -4  -6   45.97    1.31
   2   4   6   44.95    1.32
   2   4   6   48.08    1.25
  -2   4  -6   46.28    1.35
   2   4   6   45.48    1.37
   2   4   6   47.40    1.33
  -2   4  -6   47.74    1.36
  -3  -4  -6    0.17    0.06
   3  -4   6    0.31    0.05
   3   4   6    0.12    0.05
  -3   4  -6    0.23    0.07
   3   4   6    0.34    0.08
  -3   4  -6    0.13    0.06
   3   4   6    0.16    0.07
   3   4   6    0.23    0.05
  -4  -4  -6    4.63    0.26
   4  -4   6    4.68    0.21
  -4   4  -6    4.83    0.23
   4   4   6    4.54    0.26
   4   4   6    4.70    0.24
  -4   4  -6    5.03    0.26
   4   4   6    4.60    0.29
   5  -4   6   13.53    0.47
   5   4   6   13.66    0.53
   5   4   6   13.81    0.48
  -5   4  -6   13.25    0.51
   5   4   6   13.62    0.56
   6   4   6    0.03    0.06
   6   4   6   -0.07    0.06
  -6   4  -6    0.11    0.06
   6   4   6    0.01    0.04
  -7   4  -6    5.08    0.28
   7   4   6    4.94    0.33
   7   4   6    4.67    0.31
   8   4   6    3.20    0.31
   8   4   6    3.18    0.27
  -8   4  -6    3.63    0.24
  -9   4  -6    0.45    0.11
   9   4   6    0.68    0.17
   9   4   6    0.66    0.17
  10   4   6    8.10    0.49
  10   5  -6    7.05    0.50
  -9  -5   6    8.16    0.45
  -9   5   6    7.76    0.44
   9   5  -6    7.26    0.46
  -8  -5   6   10.75    0.50
  -8   5   6   11.65    0.53
   8   5  -6   10.82    0.57
  -7  -5   6    6.83    0.36
   7   5  -6    6.85    0.42
  -7   5   6    6.79    0.37
  -7   5   6    6.39    0.37
  -6  -5   6    0.17    0.08
  -6   5   6    0.38    0.10
  -6   5   6    0.40    0.10
  -6   5   6    0.24    0.09
   6   5  -6    0.30    0.11
  -5  -5   6   36.64    1.14
  -5   5   6   37.34    1.17
   5   5  -6   34.36    1.27
  -5   5   6   38.00    1.14
  -5   5   6   38.28    1.14
   5   5  -6   36.57    1.25
  -5   5   6   39.95    1.10
  -4  -5   6    4.69    0.26
  -4   5   6    5.07    0.27
   4   5  -6    4.53    0.32
  -4   5   6    4.70    0.25
   4   5  -6    5.56    0.34
  -4   5   6    5.02    0.28
  -4   5   6    4.68    0.19
  -4   5   6    4.88    0.25
  -3  -5   6   14.56    0.51
  -3   5   6   12.88    0.43
   3   5  -6   14.04    0.58
  -3   5   6   13.40    0.51
  -3   5   6   14.21    0.50
   3   5  -6   13.35    0.51
   3   5  -6   13.24    0.59
  -3   5   6   13.47    0.51
  -3   5   6   13.85    0.47
  -2  -5   6    3.08    0.19
  -2   5   6    3.20    0.20
   2   5  -6    3.35    0.25
  -2   5   6    2.65    0.19
  -2   5   6    3.10    0.21
  -2   5   6    3.33    0.16
  -2   5   6    2.80    0.16
   2   5  -6    3.54    0.25
   2   5  -6    2.88    0.18
  -1  -5   6    1.08    0.13
  -1   5   6    1.16    0.15
  -1   5   6    1.19    0.12
  -1   5   6    1.09    0.08
   1   5  -6    1.15    0.12
  -1   5   6    0.88    0.12
   1   5  -6    1.04    0.15
  -1   5   6    1.12    0.13
   1   5  -6    1.05    0.16
   0  -5   6   12.90    0.47
   0   5  -6   13.09    0.53
   0   5   6   13.68    0.51
   0   5  -6   12.42    0.53
   0   5   6   13.19    0.50
   0   5  -6   12.03    0.41
   0   5   6   12.66    0.38
   0   5   6   13.16    0.47
   1  -5   6    0.44    0.09
  -1   5  -6    0.62    0.12
   1   5   6    0.72    0.12
  -1   5  -6    0.47    0.10
   1   5   6    0.59    0.12
  -1   5  -6    0.44    0.05
   1   5   6    0.56    0.10
  -2   5  -6    0.57    0.11
   2   5   6    0.50    0.11
  -2   5  -6    0.50    0.10
   2   5   6    0.53    0.10
   2   5   6    0.52    0.09
  -3   5  -6    6.40    0.32
   3   5   6    6.28    0.32
   3   5   6    6.73    0.35
  -3   5  -6    6.96    0.34
   3   5   6    6.59    0.31
   4   5   6    0.09    0.06
  -4   5  -6    0.17    0.07
   4   5   6    0.37    0.09
  -4   5  -6    0.10    0.06
   4   5   6    0.40    0.11
  -5   5  -6    0.28    0.08
   5   5   6    0.23    0.09
   5   5   6    0.06    0.07
   5   5   6    0.33    0.09
   6   5   6    0.41    0.12
   6   5   6    0.20    0.09
   6   5   6    0.40    0.10
  -6   5  -6    0.27    0.09
  -7   5  -6    2.42    0.21
   7   5   6    2.59    0.29
   7   5   6    2.36    0.25
   8   5   6    0.07    0.10
   8   5   6    0.04    0.10
  -8   5  -6    0.18    0.09
   9   5   6   -0.06    0.10
   9   5   6   -0.08    0.09
  -9   5  -6    0.04    0.12
   9   6  -6    0.41    0.17
   9   6  -6    0.66    0.18
   8   6  -6    1.13    0.21
   8   6  -6    1.46    0.26
  -7   6   6    0.26    0.10
   7   6  -6    0.32    0.13
   7   6  -6    0.62    0.16
  -7   6   6    0.56    0.13
  -7   6   6    0.65    0.15
  -6   6   6    0.52    0.12
  -6   6   6    0.57    0.12
   6   6  -6    0.90    0.19
   6   6  -6    0.51    0.13
  -6   6   6    0.87    0.12
  -6   6   6    0.44    0.11
  -5  -6   6    7.98    0.37
  -5   6   6    8.62    0.40
   5   6  -6    8.15    0.47
   5   6  -6    7.68    0.42
  -5   6   6    8.00    0.38
  -5   6   6    8.23    0.36
  -5   6   6    8.70    0.37
  -4  -6   6   20.31    0.71
  -4   6   6   21.93    0.72
  -4   6   6   21.37    0.73
   4   6  -6   22.52    0.87
   4   6  -6   21.20    0.76
   4   6  -6   21.20    0.83
  -4   6   6   21.05    0.74
  -4   6   6   20.21    0.77
  -3  -6   6    0.32    0.08
   3   6  -6    0.44    0.13
  -3   6   6    0.47    0.10
   3   6  -6    0.45    0.11
  -3   6   6    0.62    0.11
  -3   6   6    0.50    0.10
   3   6  -6    0.44    0.13
  -2  -6   6   58.20    1.63
  -2   6   6   57.45    1.64
   2   6  -6   56.95    1.64
  -2   6   6   58.55    1.67
   2   6  -6   54.92    1.74
   2   6  -6   58.69    1.79
  -2   6   6   57.90    1.67
  -1  -6   6   19.09    0.62
   1   6  -6   16.89    0.71
  -1   6   6   17.08    0.64
   1   6  -6   17.51    0.59
   1   6  -6   17.81    0.70
  -1   6   6   18.33    0.62
  -1   6   6   17.72    0.65
   0  -6   6   14.53    0.51
   0   6  -6   13.55    0.46
   0   6  -6   13.64    0.60
   0   6   6   14.60    0.56
   0   6   6   13.27    0.51
   0   6   6   14.37    0.56
   0   6  -6   14.24    0.59
   1  -6   6   27.78    0.86
   1   6   6   25.75    0.85
  -1   6  -6   26.02    0.94
   1   6   6   27.28    0.91
   1   6   6   27.99    0.93
  -1   6  -6   26.90    0.93
   2  -6   6    1.41    0.16
   2   6   6    1.65    0.19
   2   6   6    1.50    0.19
  -2   6  -6    1.33    0.18
  -2   6  -6    1.39    0.18
   2   6   6    1.28    0.15
   3   6   6   17.95    0.70
  -3   6  -6   17.06    0.66
   3   6   6   18.36    0.67
  -3   6  -6   16.63    0.65
   3   6   6   17.16    0.62
   4   6   6    1.47    0.17
   4   6   6    1.63    0.22
  -4   6  -6    1.42    0.18
  -4   6  -6    1.41    0.18
   4   6   6    1.50    0.19
  -5   6  -6   16.60    0.65
   5   6   6   16.93    0.65
   5   6   6   17.20    0.65
   5   6   6   17.59    0.72
   6   6   6    0.66    0.13
  -6   6  -6    0.51    0.12
   7   6   6   10.04    0.55
  -7   6  -6    9.77    0.46
   7   6   6   10.08    0.50
   8   6   6    0.05    0.10
  -8   6  -6    0.06    0.08
   8   6   6    0.00    0.10
   8   7  -6    6.13    0.43
   8   7  -6    6.07    0.46
   7   7  -6    1.04    0.21
  -7   7   6    1.24    0.18
   7   7  -6    1.29    0.25
   6   7  -6    0.31    0.14
   6   7  -6    0.06    0.10
  -6   7   6    0.02    0.07
  -6   7   6    0.20    0.08
  -5   7   6   -0.09    0.06
   5   7  -6    0.01    0.08
   5   7  -6   -0.03    0.08
  -5   7   6    0.00    0.07
  -5   7   6   -0.05    0.05
   4   7  -6    7.60    0.46
   4   7  -6    8.07    0.42
  -4   7   6    7.65    0.38
  -4   7   6    7.79    0.38
   4   7  -6    7.33    0.48
  -4   7   6    7.97    0.38
   3   7  -6    3.79    0.26
  -3   7   6    3.49    0.24
  -3   7   6    3.82    0.26
   3   7  -6    3.55    0.31
  -3   7   6    3.81    0.26
   3   7  -6    3.77    0.31
  -2   7   6    3.77    0.26
   2   7  -6    3.52    0.30
   2   7  -6    3.24    0.23
  -2   7   6    3.51    0.25
  -2   7   6    3.50    0.23
   2   7  -6    3.57    0.31
  -1   7   6    0.73    0.14
   1   7  -6    0.85    0.17
  -1   7   6    0.77    0.12
   1   7  -6    0.72    0.16
  -1   7   6    1.01    0.16
   0  -7   6    0.07    0.06
   0   7   6    0.19    0.09
   0   7   6    0.06    0.06
   0   7   6    0.11    0.08
   0   7  -6    0.09    0.08
   0   7  -6    0.06    0.08
   1  -7   6    1.04    0.14
   1   7   6    1.26    0.18
   1   7   6    1.12    0.18
  -1   7  -6    1.16    0.19
   1   7   6    1.27    0.15
  -1   7  -6    1.08    0.18
   2  -7   6    0.21    0.08
   2   7   6    0.12    0.08
  -2   7  -6   -0.02    0.07
   2   7   6    0.00    0.07
  -2   7  -6    0.11    0.08
   2   7   6    0.09    0.07
   3   7   6    0.04    0.07
  -3   7  -6    0.04    0.08
   3   7   6    0.06    0.07
   3   7   6   -0.05    0.06
  -3   7  -6    0.01    0.07
   4   7   6    1.66    0.20
   4   7   6    1.80    0.22
   4   7   6    2.13    0.27
  -4   7  -6    1.67    0.21
   5   7   6    2.08    0.24
  -5   7  -6    2.37    0.25
   5   7   6    2.38    0.29
   5   7   6    2.24    0.23
   6   7   6    0.63    0.17
  -6   7  -6    0.72    0.15
   6   7   6    0.54    0.15
   6   7   6    0.77    0.15
   7   7   6    2.79    0.38
  -7   7  -6    2.75    0.41
   7   7   6    2.93    0.30
   8   7   6    1.40    0.23
   7   8  -6    1.27    0.24
  -7   8   6    1.42    0.18
   6   8  -6   10.28    0.56
  -6   8   6   10.21    0.48
  -6   8   6   11.82    0.48
   6   8  -6   10.82    0.64
  -5   8   6    5.86    0.34
   5   8  -6    5.63    0.38
  -5   8   6    5.43    0.32
   5   8  -6    5.34    0.44
  -4   8   6   -0.07    0.07
  -4   8   6   -0.03    0.07
   4   8  -6   -0.01    0.08
   4   8  -6   -0.02    0.08
   3   8  -6    0.96    0.21
   3   8  -6    0.90    0.20
  -3   8   6    0.83    0.15
  -3   8   6    1.10    0.17
   2   8  -6    0.66    0.18
  -2   8   6    0.59    0.13
   2   8  -6    0.55    0.17
  -2   8   6    0.62    0.14
  -1   8   6    0.18    0.09
  -1   8   6    0.14    0.09
   1   8  -6    0.13    0.11
   1   8  -6    0.07    0.10
   0   8  -6    1.82    0.25
   0   8   6    2.20    0.25
   0   8  -6    2.29    0.29
   0   8   6    2.41    0.27
  -1   8  -6    0.31    0.12
  -1   8  -6    0.38    0.12
   1   8   6    0.41    0.13
   1   8   6    0.68    0.16
   2   8   6    1.02    0.19
  -2   8  -6    1.08    0.20
   2   8   6    1.35    0.21
  -2   8  -6    1.06    0.20
   3   8   6    9.83    0.51
   3   8   6    9.18    0.49
  -3   8  -6    8.52    0.47
  -3   8  -6    9.37    0.49
   4   8   6    0.30    0.14
  -4   8  -6    0.68    0.16
   4   8   6    0.43    0.14
   5   8   6   10.19    0.52
  -5   8  -6   10.08    0.51
   5   8   6    9.79    0.56
   6   8   6   -0.05    0.10
  -4   9   6    1.45    0.21
  -4   9   6    1.12    0.19
   3   9  -6    2.55    0.34
  -3   9   6    2.30    0.27
   3   9  -6    2.18    0.32
  -3   9   6    2.04    0.25
   2   9  -6    0.61    0.19
  -2   9   6    1.19    0.20
  -2   9   6    0.65    0.15
   2   9  -6    0.65    0.18
   1   9  -6    0.06    0.10
   1   9  -6    0.07    0.11
  -1   9   6   -0.06    0.09
  -1   9   6    0.06    0.09
   0   9  -6    0.26    0.14
   0   9   6    0.38    0.13
   0   9   6    0.29    0.12
   0   9  -6    0.56    0.18
   1   9   6    6.14    0.40
  -1   9  -6    6.43    0.45
  -1   9  -6    7.23    0.45
   1   9   6    6.90    0.43
  -2   9  -6    1.66    0.25
   2   9   6    2.21    0.29
  -2   9  -6    2.08    0.30
   2   9   6    1.95    0.27
  -3   9  -6    7.96    0.59
   3   9   6    8.17    0.48
   3   9   6    8.57    0.58
  -3   9  -6    7.39    0.55
 -11   0   7    0.11    0.12
 -10   0   7    0.05    0.08
  -9   0   7    4.86    0.34
  -8   0   7   -0.03    0.06
  -7   0   7   41.76    1.31
  -7   0   7   40.81    1.28
  -6   0   7    0.01    0.05
  -6   0   7   -0.04    0.05
  -5   0   7    0.59    0.10
  -5   0   7    0.35    0.08
   5   0  -7    0.45    0.08
  -5   0   7    0.48    0.10
  -4   0   7   -0.01    0.03
  -4   0   7   -0.07    0.04
   4   0  -7   -0.06    0.04
  -4   0   7   -0.04    0.04
  -3   0   7  173.23    4.57
  -3   0   7  171.64    4.53
  -3   0   7  177.63    4.56
   3   0  -7  175.53    4.54
  -2   0   7   -0.02    0.03
  -2   0   7    0.01    0.02
  -2   0   7   -0.01    0.03
  -2   0   7    0.06    0.04
   2   0  -7    0.01    0.03
  -1   0   7  337.44    8.40
  -1   0   7  317.95    8.41
  -1   0   7  332.99    8.43
   1   0  -7  321.92    8.43
  -1   0   7  336.72    8.45
   0   0   7    0.19    0.05
   1   0   7  153.63    4.02
   1   0   7  154.63    3.97
  -1   0  -7  156.67    4.02
   1   0   7  152.17    4.03
   2   0   7   -0.01    0.03
   2   0   7    0.01    0.02
  -2   0  -7    0.01    0.03
   3   0   7  112.74    3.03
  -3   0  -7  114.86    3.03
   3   0   7  114.69    2.98
  -4   0  -7    0.00    0.02
   4   0   7    0.09    0.05
  -4   0  -7    0.01    0.03
   4   0   7    0.03    0.03
  -5   0  -7   22.56    0.73
   5   0   7   22.06    0.68
   5   0   7   22.17    0.74
  -6   0  -7    0.04    0.05
   6   0   7    0.07    0.06
   6   0   7    0.01    0.04
   7   0   7    0.61    0.11
  -7   0  -7    0.65    0.12
  -8   0  -7    0.11    0.08
  -9   0  -7    0.87    0.15
 -10   0  -7    0.08    0.10
 -11  -1   7    2.27    0.30
 -11   1   7    2.75    0.33
 -11   1   7    2.46    0.25
 -10  -1   7    4.29    0.35
 -10   1   7    5.50    0.38
  -9  -1   7    4.81    0.34
  -9   1   7    5.52    0.37
  -8  -1   7    0.74    0.15
  -8   1   7    0.37    0.12
  -8   1   7    0.52    0.13
  -7  -1   7   14.72    0.57
  -7  -1   7   15.14    0.60
  -7   1   7   13.58    0.58
  -7   1   7   13.60    0.57
  -6  -1   7    0.63    0.12
  -6  -1   7    0.42    0.09
  -6   1   7    0.64    0.12
  -6   1   7    0.41    0.10
  -6   1   7    0.45    0.08
  -5  -1   7    0.04    0.05
  -5  -1   7    0.00    0.05
  -5  -1   7   -0.04    0.03
  -5   1   7    0.01    0.03
   5   1  -7    0.02    0.05
  -5   1   7   -0.01    0.04
  -5   1   7    0.03    0.06
  -4  -1   7    0.32    0.08
  -4  -1   7    0.26    0.07
  -4  -1   7    0.28    0.08
  -4   1   7    0.27    0.07
  -4   1   7    0.27    0.08
  -4   1   7    0.30    0.07
  -4   1   7    0.25    0.05
   4   1  -7    0.17    0.06
  -3  -1   7    1.06    0.13
  -3  -1   7    0.82    0.10
   3  -1  -7    1.02    0.10
  -3  -1   7    0.96    0.12
  -3   1   7    0.93    0.10
   3   1  -7    1.00    0.13
  -3   1   7    0.85    0.11
  -3   1   7    1.04    0.13
  -3   1   7    1.01    0.09
  -2  -1   7   25.99    0.79
  -2  -1   7   25.32    0.76
   2  -1  -7   24.65    0.74
  -2  -1   7   25.18    0.77
  -2   1   7   26.16    0.74
  -2   1   7   25.40    0.78
   2   1  -7   24.75    0.78
  -2   1   7   24.72    0.75
  -2   1   7   25.22    0.78
   1  -1  -7    3.92    0.18
  -1  -1   7    4.15    0.19
  -1  -1   7    3.40    0.19
  -1  -1   7    3.90    0.18
  -1   1   7    3.64    0.17
  -1   1   7    3.57    0.19
   1   1  -7    3.84    0.20
  -1   1   7    3.61    0.18
  -1   1   7    3.48    0.19
   0  -1  -7   55.72    1.53
   0  -1   7   55.52    1.49
   0  -1   7   55.46    1.53
   0  -1   7   57.73    1.57
   0   1   7   55.63    1.55
   0   1   7   55.70    1.53
   0   1  -7   57.47    1.56
   0   1   7   56.33    1.55
   0   1   7   57.93    1.54
   1  -1   7   12.30    0.36
  -1  -1  -7   11.85    0.41
   1  -1   7   12.08    0.44
   1  -1   7   12.78    0.41
   1   1   7   12.00    0.41
   1   1   7   12.18    0.42
   1   1   7   11.84    0.42
   1   1   7   12.67    0.43
  -1   1  -7   11.83    0.43
   2  -1   7    1.04    0.07
  -2  -1  -7    1.23    0.11
   2  -1   7    1.42    0.11
   2   1   7    1.28    0.10
   2   1   7    1.22    0.13
  -2   1  -7    1.14    0.08
  -2   1  -7    1.00    0.11
   3  -1   7    9.01    0.35
  -3  -1  -7    9.34    0.36
   3  -1   7    9.22    0.29
   3   1   7    9.51    0.37
  -3   1  -7    9.38    0.36
   3   1   7    9.80    0.35
  -3   1  -7    9.15    0.30
  -4  -1  -7   28.55    0.87
   4  -1   7   27.94    0.86
   4  -1   7   28.05    0.78
  -4   1  -7   27.18    0.75
  -4   1  -7   27.69    0.86
   4   1   7   27.48    0.87
   4   1   7   28.77    0.85
   5  -1   7    4.66    0.20
   5  -1   7    4.91    0.26
  -5  -1  -7    4.75    0.26
   5   1   7    5.48    0.28
  -5   1  -7    4.72    0.25
   5   1   7    5.03    0.25
   6  -1   7    2.36    0.19
  -6  -1  -7    2.09    0.18
   6   1   7    2.58    0.18
  -6   1  -7    2.41    0.18
   6   1   7    2.14    0.21
  -7  -1  -7    2.29    0.23
   7   1   7    2.45    0.19
  -7   1  -7    2.19    0.19
   7   1   7    2.13    0.22
  -8  -1  -7    2.45    0.25
  -8   1  -7    2.71    0.22
   8   1   7    2.39    0.24
   8   1   7    2.61    0.21
  -9  -1  -7    2.02    0.23
  -9   1  -7    2.23    0.24
 -10  -1  -7    0.49    0.14
  10   1   7    0.70    0.16
 -10   1  -7    0.81    0.16
 -11  -1  -7    2.22    0.41
 -11  -2   7    1.14    0.21
 -11   2   7    1.66    0.18
 -11   2   7    1.39    0.24
 -10  -2   7    0.48    0.14
 -10   2   7    0.24    0.12
  -9  -2   7    4.23    0.32
  -9   2   7    4.81    0.34
  -8  -2   7    4.08    0.29
  -8   2   7    3.59    0.28
  -8   2   7    4.02    0.29
  -7  -2   7   58.94    1.75
  -7   2   7   57.93    1.73
  -7   2   7   59.32    1.75
  -6  -2   7   18.95    0.68
  -6  -2   7   17.76    0.65
  -6   2   7   18.69    0.58
  -6   2   7   18.23    0.68
  -6   2   7   18.00    0.67
  -5  -2   7   30.78    0.98
  -5  -2   7   29.82    0.93
  -5   2   7   30.87    0.87
  -5   2   7   30.38    0.93
   5   2  -7   29.93    0.96
  -5   2   7   30.50    0.97
  -5   2   7   29.81    0.97
  -4  -2   7    2.29    0.18
  -4  -2   7    2.04    0.15
  -4  -2   7    2.11    0.17
   4   2  -7    2.11    0.20
  -4   2   7    1.98    0.12
  -4   2   7    1.75    0.14
  -4   2   7    1.88    0.16
  -4   2   7    2.21    0.17
  -3  -2   7   14.86    0.54
  -3  -2   7   15.55    0.58
  -3  -2   7   15.79    0.52
  -3   2   7   15.37    0.54
   3   2  -7   14.70    0.55
  -3   2   7   15.85    0.48
  -3   2   7   15.10    0.52
  -3   2   7   14.87    0.54
  -2  -2   7   19.18    0.63
  -2  -2   7   18.45    0.59
   2  -2  -7   19.81    0.57
   2   2  -7   19.16    0.65
  -2   2   7   18.31    0.57
  -2   2   7   18.38    0.60
  -2   2   7   19.25    0.62
  -2   2   7   19.72    0.63
  -1  -2   7   29.58    0.88
  -1  -2   7   28.58    0.83
   1  -2  -7   28.19    0.82
  -1   2   7   28.89    0.86
  -1   2   7   29.51    0.86
   1   2  -7   29.67    0.90
  -1   2   7   28.89    0.83
  -1   2   7   28.33    0.87
   0  -2   7    0.05    0.03
   0  -2   7    0.06    0.05
   0  -2  -7    0.04    0.03
   0   2   7    0.09    0.03
   0   2   7    0.08    0.04
   0   2   7    0.07    0.04
   0   2   7    0.04    0.03
   0   2  -7    0.06    0.04
   0   2   7    0.11    0.05
   1  -2   7    3.51    0.17
  -1  -2  -7    3.33    0.17
   1  -2   7    3.65    0.20
   1   2   7    3.76    0.20
   1   2   7    3.33    0.17
   1   2   7    3.59    0.19
   1   2   7    3.71    0.16
   1   2   7    3.61    0.19
  -1   2  -7    3.40    0.13
  -1   2  -7    3.14    0.19
  -2  -2  -7   41.36    1.19
   2  -2   7   42.15    1.17
   2   2   7   41.46    1.21
  -2   2  -7   40.94    1.09
   2   2   7   43.98    1.14
   2   2   7   43.38    1.22
  -2   2  -7   41.93    1.21
   2   2   7   40.60    1.18
   3  -2   7   11.26    0.40
  -3  -2  -7   10.31    0.41
   3   2   7   11.39    0.35
   3   2   7   11.43    0.43
  -3   2  -7   11.33    0.42
   3   2   7   11.65    0.44
  -3   2  -7   11.96    0.39
   4  -2   7    0.76    0.10
  -4  -2  -7    0.73    0.11
   4   2   7    0.96    0.13
  -4   2  -7    0.89    0.12
  -4   2  -7    0.83    0.07
   4   2   7    0.80    0.12
   4   2   7    0.94    0.07
  -5  -2  -7    9.24    0.39
   5  -2   7    8.77    0.37
  -5   2  -7    9.02    0.38
   5   2   7    8.43    0.39
   5   2   7    9.59    0.41
   6  -2   7    5.19    0.28
  -6  -2  -7    5.29    0.29
   6   2   7    5.01    0.30
   6   2   7    5.08    0.29
  -6   2  -7    5.26    0.28
  -7  -2  -7    7.30    0.37
   7   2   7    6.95    0.38
   7   2   7    7.20    0.36
  -7   2  -7    6.93    0.34
  -8  -2  -7    0.23    0.10
   8   2   7    0.29    0.11
  -8   2  -7    0.47    0.11
   8   2   7    0.41    0.11
  -9  -2  -7    2.07    0.24
  -9   2  -7    2.71    0.23
   9   2   7    3.09    0.25
   9   2   7    2.17    0.26
 -10  -2  -7    4.68    0.47
 -10   2  -7    4.63    0.31
  10   2   7    4.71    0.36
 -11  -3   7    0.02    0.12
 -11   3   7    0.08    0.07
 -10  -3   7    0.51    0.15
 -10   3   7    0.61    0.10
  10   3  -7    0.58    0.16
 -10   3   7    0.94    0.19
  -9  -3   7    7.29    0.42
   9   3  -7    7.16    0.43
  -9   3   7    7.03    0.43
  -8  -3   7    6.20    0.37
  -8   3   7    6.24    0.37
  -8   3   7    6.14    0.36
  -7  -3   7    4.96    0.31
  -7   3   7    4.92    0.21
  -7   3   7    4.88    0.31
  -7   3   7    5.08    0.31
  -6  -3   7    7.46    0.37
  -6   3   7    7.24    0.26
  -6   3   7    7.38    0.37
  -6   3   7    7.30    0.37
  -5  -3   7    5.65    0.31
  -5   3   7    5.77    0.21
  -5   3   7    5.72    0.28
  -5   3   7    5.28    0.29
  -5   3   7    6.01    0.31
   5   3  -7    5.11    0.34
  -4  -3   7   14.31    0.54
  -4  -3   7   14.01    0.49
   4   3  -7   14.32    0.56
  -4   3   7   13.80    0.52
  -4   3   7   14.34    0.54
  -4   3   7   13.90    0.43
  -4   3   7   14.95    0.52
  -3  -3   7   11.79    0.46
  -3  -3   7   11.76    0.41
  -3   3   7   11.60    0.44
  -3   3   7   12.11    0.38
  -3   3   7   11.55    0.46
   3   3  -7   11.72    0.48
  -3   3   7   12.29    0.45
  -2  -3   7    0.42    0.07
  -2  -3   7    0.58    0.10
  -2   3   7    0.47    0.08
  -2   3   7    0.40    0.08
  -2   3   7    0.43    0.07
  -2   3   7    0.50    0.07
   2   3  -7    0.46    0.10
  -2   3   7    0.42    0.08
   1  -3  -7    1.11    0.09
  -1  -3   7    1.20    0.14
  -1  -3   7    1.15    0.09
  -1   3   7    1.05    0.12
   1   3  -7    1.25    0.15
  -1   3   7    1.09    0.11
  -1   3   7    1.14    0.13
  -1   3   7    1.02    0.10
  -1   3   7    1.10    0.09
   0  -3  -7   25.82    0.75
   0  -3   7   25.42    0.74
   0  -3   7   26.58    0.81
   0   3   7   25.65    0.76
   0   3  -7   25.99    0.83
   0   3   7   25.31    0.77
   0   3   7   26.09    0.80
   0   3   7   25.52    0.80
   0   3   7   26.02    0.76
   1  -3   7    5.42    0.27
  -1  -3  -7    6.14    0.25
   1  -3   7    5.51    0.22
   1   3   7    6.08    0.25
   1   3   7    6.04    0.24
  -1   3  -7    5.76    0.18
  -1   3  -7    6.64    0.30
  -1   3  -7    5.87    0.29
   1   3   7    5.94    0.27
   1   3   7    5.50    0.28
   1   3   7    6.33    0.28
  -2  -3  -7    8.61    0.34
   2  -3   7    8.37    0.30
  -2   3  -7    8.91    0.37
   2   3   7    8.27    0.35
   2   3   7    9.00    0.32
  -2   3  -7    8.52    0.35
   2   3   7    8.55    0.36
   2   3   7    8.35    0.31
   2   3   7    8.54    0.36
  -3  -3  -7    1.21    0.14
   3  -3   7    1.57    0.11
   3   3   7    1.53    0.11
   3   3   7    1.57    0.16
   3   3   7    1.37    0.16
  -3   3  -7    1.46    0.12
  -3   3  -7    1.65    0.14
   4  -3   7   55.72    1.50
  -4  -3  -7   53.54    1.54
   4   3   7   54.16    1.47
  -4   3  -7   51.85    1.47
  -4   3  -7   54.02    1.54
   4   3   7   55.51    1.57
   4   3   7   53.44    1.57
   5  -3   7    6.76    0.30
  -5  -3  -7    6.02    0.31
   5   3   7    6.48    0.25
  -5   3  -7    6.55    0.31
   5   3   7    6.48    0.34
   5   3   7    6.72    0.34
  -6  -3  -7    7.48    0.37
   6  -3   7    7.74    0.35
  -6   3  -7    7.34    0.35
   6   3   7    7.86    0.39
   6   3   7    7.26    0.38
  -7  -3  -7    1.34    0.18
  -7   3  -7    1.87    0.20
   7   3   7    1.76    0.21
   7   3   7    1.73    0.21
   8   3   7    0.11    0.09
   8   3   7    0.35    0.12
  -8   3  -7    0.31    0.10
  -9   3  -7   -0.04    0.06
   9   3   7   -0.03    0.09
   9   3   7   -0.09    0.08
 -11  -4   7    4.49    0.43
 -10  -4   7    5.96    0.40
 -10   4   7    5.82    0.40
  10   4  -7    6.06    0.42
  -9  -4   7    2.21    0.26
   9   4  -7    2.11    0.28
  -9   4   7    2.16    0.11
  -9   4   7    2.26    0.27
  -8  -4   7    3.13    0.26
  -8   4   7    3.46    0.13
  -8   4   7    3.28    0.28
   8   4  -7    3.39    0.29
  -8   4   7    3.16    0.30
  -7  -4   7    0.03    0.06
   7   4  -7    0.04    0.07
  -7   4   7    0.05    0.07
  -7   4   7    0.04    0.03
  -7   4   7   -0.05    0.05
  -6  -4   7    9.35    0.44
  -6   4   7    9.82    0.30
  -6   4   7   10.09    0.43
   6   4  -7   10.67    0.51
  -6   4   7    9.53    0.45
  -6   4   7    9.98    0.45
  -5  -4   7    0.10    0.07
  -5   4   7    0.18    0.08
  -5   4   7    0.31    0.05
  -5   4   7    0.25    0.07
   5   4  -7    0.24    0.10
  -5   4   7    0.11    0.07
  -4  -4   7   34.24    1.08
  -4   4   7   38.48    1.03
   4   4  -7   32.70    1.13
  -4   4   7   33.21    1.05
   4   4  -7   37.47    1.17
  -4   4   7   34.30    0.96
  -4   4   7   34.65    1.09
  -4   4   7   34.14    1.06
  -3  -4   7    0.90    0.10
  -3  -4   7    0.69    0.11
  -3   4   7    0.72    0.11
   3   4  -7    0.76    0.14
  -3   4   7    0.74    0.12
  -3   4   7    0.81    0.10
   3   4  -7    0.70    0.14
  -3   4   7    0.42    0.10
  -3   4   7    0.72    0.08
  -2  -4   7    0.13    0.06
  -2  -4   7    0.36    0.06
  -2   4   7    0.36    0.07
   2   4  -7    0.33    0.10
  -2   4   7    0.35    0.06
  -2   4   7    0.37    0.07
  -2   4   7    0.41    0.08
   2   4  -7    0.36    0.10
  -2   4   7    0.39    0.09
  -1  -4   7    0.33    0.08
  -1  -4   7    0.33    0.05
  -1   4   7    0.38    0.07
  -1   4   7    0.32    0.08
   1   4  -7    0.32    0.10
  -1   4   7    0.22    0.05
  -1   4   7    0.33    0.07
  -1   4   7    0.39    0.07
   1   4  -7    0.30    0.09
   0  -4   7   27.76    0.89
   0  -4   7   29.85    0.80
   0   4   7   28.13    0.87
   0   4  -7   30.57    0.96
   0   4   7   28.70    0.83
   0   4   7   29.08    0.90
   0   4  -7   28.93    0.94
   0   4   7   27.71    0.90
   0   4   7   29.15    0.87
   0   4  -7   28.95    0.81
   1  -4   7    9.71    0.30
   1  -4   7    8.91    0.38
  -1   4  -7    9.10    0.27
  -1   4  -7    9.17    0.41
  -1   4  -7   10.23    0.42
   1   4   7    9.59    0.40
   1   4   7    8.68    0.36
   1   4   7    9.35    0.32
   1   4   7    9.47    0.38
   2  -4   7   14.30    0.45
   2   4   7   15.23    0.56
   2   4   7   14.64    0.47
  -2   4  -7   14.59    0.54
   2   4   7   15.20    0.54
  -2   4  -7   14.63    0.55
   2   4   7   14.75    0.51
   3  -4   7   20.57    0.62
  -3   4  -7   20.39    0.68
   3   4   7   21.21    0.74
   3   4   7   21.04    0.63
   3   4   7   20.10    0.70
   3   4   7   21.16    0.67
  -3   4  -7   20.50    0.71
   4  -4   7   17.42    0.55
   4   4   7   17.16    0.57
  -4   4  -7   16.24    0.57
   4   4   7   17.06    0.65
   4   4   7   17.30    0.62
  -4   4  -7   17.35    0.62
   5  -4   7    1.36    0.14
   5   4   7    1.32    0.17
   5   4   7    1.49    0.13
  -5   4  -7    1.52    0.18
   5   4   7    1.51    0.19
   6  -4   7    9.07    0.38
   6   4   7    9.47    0.46
  -6   4  -7    8.26    0.40
   6   4   7    9.66    0.45
   7  -4   7    1.37    0.17
  -7   4  -7    1.50    0.18
   7   4   7    1.81    0.22
   7   4   7    2.03    0.25
   8   4   7    0.24    0.11
  -8   4  -7    0.36    0.11
   8   4   7    0.24    0.12
  -9   4  -7    0.36    0.11
   9   4   7    0.30    0.13
   9   4   7    0.18    0.11
  10   4   7    0.13    0.13
 -10   5   7    7.64    0.47
  10   5  -7    8.54    0.53
  -9  -5   7    1.71    0.24
   9   5  -7    2.08    0.30
  -9   5   7    2.26    0.27
  -8  -5   7    3.05    0.30
  -8   5   7    2.93    0.30
   8   5  -7    2.67    0.32
  -8   5   7    3.23    0.30
  -7  -5   7    6.82    0.37
  -7   5   7    6.79    0.37
  -7   5   7    6.79    0.38
   7   5  -7    6.85    0.43
  -6  -5   7    5.04    0.31
  -6   5   7    4.84    0.29
  -6   5   7    5.22    0.30
  -6   5   7    4.71    0.30
   6   5  -7    5.22    0.37
  -5  -5   7    1.11    0.16
  -5   5   7    1.11    0.13
   5   5  -7    0.78    0.16
  -5   5   7    0.93    0.08
  -5   5   7    1.08    0.15
  -5   5   7    1.15    0.15
  -5   5   7    0.92    0.15
  -4  -5   7    8.89    0.41
   4   5  -7    9.35    0.49
  -4   5   7    9.55    0.42
  -4   5   7    9.45    0.39
  -4   5   7    9.10    0.32
  -4   5   7   10.15    0.38
  -4   5   7    9.08    0.40
   4   5  -7    8.50    0.46
  -3  -5   7    1.31    0.15
  -3   5   7    0.87    0.14
   3   5  -7    0.92    0.17
  -3   5   7    1.12    0.13
   3   5  -7    1.13    0.17
  -3   5   7    1.21    0.15
  -3   5   7    1.01    0.10
  -3   5   7    1.17    0.13
  -2  -5   7    6.77    0.33
   2   5  -7    7.56    0.32
  -2   5   7    7.55    0.35
  -2   5   7    7.43    0.33
  -2   5   7    7.68    0.29
  -2   5   7    6.93    0.29
   2   5  -7    7.79    0.41
  -2   5   7    6.96    0.34
   2   5  -7    7.38    0.39
  -1  -5   7    4.42    0.24
   1   5  -7    4.25    0.21
  -1   5   7    4.67    0.25
  -1   5   7    4.34    0.26
   1   5  -7    4.26    0.30
   1   5  -7    4.71    0.30
  -1   5   7    4.63    0.20
  -1   5   7    4.58    0.25
   0  -5   7   18.05    0.62
   0   5  -7   17.47    0.68
   0   5   7   17.92    0.53
   0   5   7   18.00    0.62
   0   5   7   16.62    0.61
   0   5   7   17.74    0.64
   0   5  -7   17.76    0.54
   0   5  -7   17.26    0.67
   1  -5   7    5.33    0.28
  -1   5  -7    4.89    0.30
   1   5   7    5.39    0.28
   1   5   7    5.17    0.27
   1   5   7    5.50    0.30
  -1   5  -7    5.36    0.31
  -2   5  -7    9.15    0.43
  -2   5  -7   10.11    0.44
   2   5   7    9.39    0.40
   2   5   7    9.63    0.41
   2   5   7    9.27    0.43
   3   5   7    0.04    0.05
   3   5   7    0.09    0.07
  -3   5  -7   -0.03    0.05
  -3   5  -7   -0.04    0.04
   3   5   7   -0.03    0.05
   4   5   7    6.03    0.30
   4   5   7    5.88    0.35
  -4   5  -7    5.77    0.30
   4   5   7    7.23    0.35
  -4   5  -7    6.39    0.33
   5   5   7    0.09    0.07
   5   5   7    0.07    0.07
   5   5   7    0.02    0.05
  -5   5  -7    0.09    0.07
  -6   5  -7   11.30    0.50
   6   5   7   11.77    0.53
   6   5   7   11.84    0.56
  -7   5  -7    6.09    0.35
   7   5   7    6.56    0.41
   7   5   7    6.02    0.37
   8   5   7    4.45    0.35
   8   5   7    4.44    0.34
  -8   5  -7    4.95    0.31
   9   5   7   15.46    0.74
   9   6  -7    0.27    0.16
  -8   6   7    0.89    0.18
   8   6  -7    0.52    0.16
   8   6  -7    0.72    0.18
   7   6  -7   17.58    0.80
  -7   6   7   18.30    0.72
  -7   6   7   18.48    0.69
  -7   6   7   17.64    0.69
   7   6  -7   17.94    0.75
  -6   6   7    3.55    0.27
   6   6  -7    3.41    0.32
  -6   6   7    4.30    0.27
  -6   6   7    4.04    0.27
   6   6  -7    4.03    0.30
  -5  -6   7   13.00    0.52
  -5   6   7   12.16    0.52
  -5   6   7   13.06    0.55
   5   6  -7   12.15    0.62
  -5   6   7   13.87    0.50
   5   6  -7   12.66    0.56
  -4  -6   7   26.38    0.89
   4   6  -7   27.33    1.04
  -4   6   7   26.96    0.91
   4   6  -7   27.89    0.94
   4   6  -7   26.24    1.00
  -4   6   7   27.64    0.92
  -4   6   7   29.74    0.89
  -3  -6   7    4.27    0.26
   3   6  -7    4.90    0.35
  -3   6   7    4.64    0.26
   3   6  -7    4.11    0.32
  -3   6   7    4.09    0.26
   3   6  -7    4.03    0.26
  -3   6   7    4.30    0.27
  -2  -6   7   18.15    0.64
   2   6  -7   18.18    0.74
  -2   6   7   17.68    0.65
   2   6  -7   17.69    0.62
  -2   6   7   19.25    0.68
  -2   6   7   18.07    0.65
   2   6  -7   17.40    0.74
  -1  -6   7   18.99    0.66
  -1   6   7   19.36    0.69
   1   6  -7   20.27    0.77
   1   6  -7   18.72    0.62
  -1   6   7   17.99    0.67
  -1   6   7   20.11    0.71
   1   6  -7   19.53    0.78
   0  -6   7    1.50    0.17
   0   6   7    1.47    0.18
   0   6   7    1.56    0.17
   0   6  -7    1.80    0.23
   0   6   7    1.33    0.18
   0   6  -7    1.79    0.23
   1  -6   7    2.83    0.21
   1   6   7    3.35    0.25
   1   6   7    3.45    0.24
  -1   6  -7    3.44    0.27
  -1   6  -7    3.56    0.27
   1   6   7    3.69    0.23
   2  -6   7    1.24    0.16
  -2   6  -7    1.16    0.18
  -2   6  -7    1.23    0.18
   2   6   7    1.17    0.15
   2   6   7    1.44    0.18
   2   6   7    1.12    0.17
   3   6   7    1.18    0.19
  -3   6  -7    1.32    0.19
  -3   6  -7    1.29    0.18
   3   6   7    1.27    0.17
   3   6   7    1.05    0.15
   4   6   7    3.51    0.29
   4   6   7    3.74    0.25
   4   6   7    3.98    0.26
  -4   6  -7    3.59    0.27
   5   6   7   11.41    0.56
   5   6   7   10.96    0.47
  -5   6  -7   10.76    0.50
   5   6   7   11.24    0.50
   6   6   7    0.02    0.07
   6   6   7    0.09    0.09
  -6   6  -7    0.01    0.07
  -7   6  -7    7.84    0.42
   7   6   7    7.96    0.48
   7   6   7    8.29    0.45
   8   6   7    3.55    0.34
   8   7  -7    1.13    0.29
   8   7  -7    1.32    0.28
  -7   7   7   10.41    0.48
   7   7  -7    9.27    0.58
   7   7  -7    9.63    0.53
   6   7  -7   -0.05    0.09
  -6   7   7   -0.05    0.13
   6   7  -7    0.10    0.11
  -6   7   7    0.08    0.07
  -6   7   7    0.04    0.07
  -5   7   7    0.94    0.14
  -5   7   7    0.83    0.15
  -5   7   7    0.96    0.16
   5   7  -7    0.99    0.20
   5   7  -7    0.92    0.18
   4   7  -7    4.52    0.31
  -4   7   7    4.71    0.29
   4   7  -7    4.35    0.37
  -4   7   7    5.08    0.30
  -4   7   7    4.82    0.29
  -3   7   7    0.04    0.07
   3   7  -7   -0.03    0.06
  -3   7   7    0.03    0.07
   3   7  -7    0.00    0.07
   3   7  -7    0.06    0.10
  -3   7   7    0.06    0.07
  -2   7   7    4.15    0.26
  -2   7   7    4.02    0.27
  -2   7   7    4.59    0.29
   2   7  -7    3.80    0.32
   2   7  -7    3.56    0.32
  -1   7   7    0.44    0.12
  -1   7   7    0.28    0.09
   1   7  -7    0.46    0.14
  -1   7   7    0.34    0.10
   1   7  -7    0.31    0.12
   0  -7   7    0.33    0.09
   0   7   7    0.45    0.11
   0   7  -7    0.20    0.10
   0   7  -7    0.28    0.11
   0   7   7    0.34    0.11
   0   7   7    0.37    0.09
   1  -7   7    0.31    0.09
   1   7   7    0.28    0.09
   1   7   7    0.30    0.10
   1   7   7    0.28    0.09
  -1   7  -7    0.46    0.12
  -1   7  -7    0.16    0.10
   2  -7   7    4.59    0.28
   2   7   7    4.87    0.31
   2   7   7    4.73    0.33
   2   7   7    4.33    0.27
  -2   7  -7    4.30    0.31
  -2   7  -7    4.00    0.31
   3  -7   7    3.44    0.25
  -3   7  -7    3.52    0.29
   3   7   7    3.88    0.30
   3   7   7    3.92    0.26
   3   7   7    3.85    0.28
  -3   7  -7    3.93    0.29
  -4   7  -7    0.32    0.12
   4   7   7    0.17    0.10
   4   7   7    0.30    0.11
   4   7   7    0.51    0.15
  -5   7  -7   10.79    0.53
   5   7   7   11.10    0.58
   5   7   7   11.01    0.51
   5   7   7   11.32    0.51
   6   7   7    2.45    0.27
  -6   7  -7    2.57    0.28
   6   7   7    2.82    0.33
   7   7   7    2.67    0.29
   6   8  -7    1.41    0.42
   6   8  -7    2.03    0.28
  -6   8   7    1.51    0.21
  -6   8   7    2.01    0.22
   5   8  -7    0.65    0.17
  -5   8   7    0.80    0.16
  -5   8   7    0.80    0.14
   5   8  -7    0.38    0.16
   4   8  -7    1.52    0.28
  -4   8   7    1.49    0.21
  -4   8   7    1.51    0.19
  -3   8   7    4.81    0.32
   3   8  -7    4.00    0.38
   3   8  -7    4.96    0.39
  -3   8   7    5.02    0.32
   2   8  -7    1.59    0.27
   2   8  -7    1.60    0.26
  -2   8   7    1.83    0.22
  -2   8   7    1.63    0.22
   1   8  -7    3.37    0.38
  -1   8   7    3.45    0.28
  -1   8   7    3.30    0.27
   1   8  -7    3.51    0.37
   0   8   7    3.92    0.30
   0   8  -7    4.42    0.35
   0   8   7    3.78    0.30
   0   8  -7    3.81    0.34
   1   8   7   -0.03    0.08
  -1   8  -7    0.05    0.09
  -1   8  -7    0.04    0.08
   1   8   7    0.03    0.08
   2   8   7    1.03    0.19
  -2   8  -7    0.93    0.19
  -2   8  -7    1.04    0.20
   2   8   7    1.21    0.20
   3   8   7   -0.08    0.07
   3   8   7   -0.04    0.07
  -3   8  -7   -0.02    0.09
  -3   8  -7   -0.01    0.08
   4   8   7   12.62    0.63
  -4   8  -7   13.10    0.61
   4   8   7   12.20    0.58
   5   8   7    1.93    0.25
  -5   9   7    0.00    0.11
  -4   9   7    0.43    0.14
  -3   9   7    0.04    0.10
  -3   9   7   -0.10    0.12
  -2   9   7    1.84    0.24
   2   9  -7    2.06    0.31
  -2   9   7    2.07    0.25
   2   9  -7    2.13    0.32
  -1   9   7    3.00    0.31
   1   9  -7    3.02    0.36
  -1   9   7    2.85    0.26
   1   9  -7    2.84    0.36
   0   9  -7   14.83    0.73
   0   9   7   16.12    0.69
   0   9  -7   15.94    0.78
   0   9   7   16.37    0.70
   1   9   7   17.79    0.74
  -1   9  -7   16.10    0.78
  -1   9  -7   17.24    0.78
   1   9   7   17.83    0.76
   2   9   7   17.76    0.76
  -2   9  -7   15.55    0.75
  -2   9  -7   16.64    0.76
   2   9   7   16.83    0.82
 -11   0   8    0.04    0.11
 -10   0   8    0.80    0.19
  -9   0   8   -0.10    0.07
  -8   0   8    6.60    0.39
  -8   0   8    5.51    0.34
  -7   0   8   -0.01    0.05
  -7   0   8   -0.02    0.05
  -6   0   8   41.75    1.27
  -6   0   8   38.38    1.23
  -5   0   8   -0.02    0.04
  -5   0   8    0.01    0.05
  -5   0   8    0.00    0.05
  -4   0   8   61.61    1.72
  -4   0   8   59.45    1.73
  -4   0   8   60.13    1.67
   4   0  -8   59.97    1.68
  -3   0   8    0.09    0.04
  -3   0   8    0.05    0.05
   3   0  -8   -0.01    0.04
  -3   0   8   -0.04    0.03
  -2   0   8   36.45    1.03
  -2   0   8   33.67    1.04
  -2   0   8   35.67    1.02
  -2   0   8   35.48    1.07
   2   0  -8   36.50    1.05
  -1   0   8   -0.02    0.02
  -1   0   8   -0.03    0.03
  -1   0   8    0.01    0.03
   1   0  -8   -0.03    0.03
  -1   0   8   -0.02    0.03
   0   0   8    1.67    0.11
   0   0   8    1.96    0.14
   0   0  -8    1.89    0.13
   0   0   8    1.72    0.13
   1   0   8    0.01    0.03
   1   0   8   -0.02    0.02
   1   0   8    0.00    0.03
  -1   0  -8    0.00    0.03
  -2   0  -8   42.12    1.21
   2   0   8   42.29    1.16
   2   0   8   41.70    1.21
  -3   0  -8    0.02    0.04
   3   0   8    0.01    0.04
   3   0   8   -0.05    0.02
   4   0   8   12.54    0.48
  -4   0  -8   12.38    0.47
   4   0   8   12.08    0.42
  -5   0  -8   -0.06    0.04
   5   0   8    0.07    0.05
   5   0   8   -0.01    0.04
  -6   0  -8   54.25    1.57
   6   0   8   52.87    1.50
   6   0   8   54.13    1.59
   7   0   8    0.02    0.06
  -7   0  -8    0.02    0.06
  -8   0  -8   66.31    1.95
   8   0   8   67.21    1.98
  -9   0  -8   -0.04    0.07
   9   0   8    0.02    0.07
 -10   0  -8    2.36    0.26
  10   0   8    2.22    0.28
 -11  -1   8    0.33    0.14
 -11   1   8    0.42    0.16
 -10  -1   8    6.36    0.42
 -10   1   8    5.57    0.40
  -9  -1   8    4.26    0.32
  -9   1   8    3.42    0.29
  -8  -1   8    0.31    0.11
  -8   1   8    0.26    0.11
  -8   1   8    0.24    0.10
  -7  -1   8    8.13    0.41
  -7  -1   8    7.11    0.37
  -7   1   8    6.92    0.39
  -7   1   8    7.16    0.38
  -6  -1   8   10.08    0.44
  -6  -1   8    9.62    0.45
  -6   1   8    9.79    0.44
  -6   1   8   10.45    0.47
  -5  -1   8   11.15    0.47
  -5  -1   8   10.36    0.43
  -5   1   8   10.02    0.38
  -5   1   8   10.47    0.45
  -5   1   8   10.53    0.45
  -4  -1   8   41.44    1.21
  -4  -1   8   40.82    1.25
  -4  -1   8   40.37    1.21
  -4   1   8   40.36    1.19
  -4   1   8   41.88    1.17
   4   1  -8   41.18    1.22
  -4   1   8   40.87    1.24
  -4   1   8   42.37    1.25
   3  -1  -8   13.08    0.45
  -3  -1   8   12.53    0.47
  -3  -1   8   13.64    0.50
  -3  -1   8   13.01    0.47
  -3   1   8   13.29    0.44
  -3   1   8   13.18    0.49
  -3   1   8   12.83    0.46
  -3   1   8   12.61    0.49
   3   1  -8   13.34    0.49
  -2  -1   8   70.95    1.94
   2  -1  -8   70.13    1.89
  -2  -1   8   69.98    1.91
  -2  -1   8   72.86    1.92
   2   1  -8   71.58    1.94
  -2   1   8   67.31    1.93
  -2   1   8   68.74    1.89
  -2   1   8   69.86    1.93
  -2   1   8   67.87    1.88
  -1  -1   8    3.61    0.21
   1  -1  -8    3.38    0.18
  -1  -1   8    2.84    0.17
  -1   1   8    3.10    0.18
   1   1  -8    3.16    0.19
  -1   1   8    2.95    0.16
  -1   1   8    3.21    0.19
  -1   1   8    3.09    0.17
   0  -1  -8    0.36    0.07
   0  -1   8    0.21    0.06
   0  -1   8    0.35    0.05
   0  -1   8    0.20    0.05
   0   1   8    0.29    0.07
   0   1   8    0.22    0.06
   0   1   8    0.25    0.06
   0   1  -8    0.26    0.07
   1  -1   8    3.81    0.22
   1  -1   8    4.06    0.20
   1  -1   8    4.02    0.16
   1   1   8    4.09    0.19
   1   1   8    3.99    0.21
  -1   1  -8    4.10    0.22
   1   1   8    4.07    0.21
   2  -1   8   16.25    0.48
  -2  -1  -8   16.42    0.55
   2  -1   8   16.34    0.54
   2   1   8   16.77    0.56
  -2   1  -8   16.41    0.56
   2   1   8   17.39    0.57
   2   1   8   15.54    0.53
   3  -1   8   13.42    0.48
  -3  -1  -8   12.99    0.48
   3  -1   8   13.68    0.41
  -3   1  -8   13.41    0.49
   3   1   8   14.90    0.48
   3   1   8   12.93    0.49
   4  -1   8   12.02    0.46
   4  -1   8   12.09    0.38
  -4  -1  -8   12.63    0.47
   4   1   8   12.61    0.45
  -4   1  -8   12.60    0.47
   4   1   8   12.28    0.48
   5  -1   8    6.96    0.26
  -5  -1  -8    6.97    0.34
   5  -1   8    7.85    0.35
  -5   1  -8    6.96    0.33
   5   1   8    6.99    0.34
   5   1   8    7.08    0.32
   6  -1   8   24.87    0.83
  -6  -1  -8   24.84    0.83
   6   1   8   23.93    0.79
   6   1   8   23.20    0.84
  -6   1  -8   24.61    0.82
  -7  -1  -8    1.76    0.20
   7  -1   8    1.78    0.21
  -7   1  -8    2.11    0.22
   7   1   8    1.76    0.22
   7   1   8    2.10    0.18
   8  -1   8    0.61    0.14
  -8  -1  -8    0.42    0.12
  -8   1  -8    0.60    0.13
   8   1   8    0.91    0.17
  -9  -1  -8    2.60    0.27
   9  -1   8    2.91    0.29
  -9   1  -8    3.26    0.26
   9   1   8    3.18    0.32
 -10  -1  -8   11.47    0.55
  10  -1   8   10.98    0.55
 -10   1  -8   11.00    0.53
 -11  -2   8    0.10    0.10
 -10  -2   8    0.22    0.12
 -10   2   8    0.16    0.11
  -9  -2   8    1.44    0.23
  -9   2   8    1.12    0.19
  -8  -2   8    1.25    0.19
  -8   2   8    1.00    0.17
  -8   2   8    0.95    0.17
  -7  -2   8   -0.05    0.06
  -7   2   8    0.01    0.06
  -7   2   8    0.03    0.06
  -6  -2   8    3.50    0.23
  -6  -2   8    3.04    0.24
  -6   2   8    3.21    0.24
  -6   2   8    3.43    0.25
  -6   2   8    2.97    0.17
  -5  -2   8   16.53    0.62
  -5  -2   8   16.09    0.58
  -5   2   8   16.83    0.62
  -5   2   8   15.64    0.61
  -5   2   8   15.95    0.52
  -5   2   8   16.29    0.58
  -4  -2   8    5.47    0.29
  -4  -2   8    5.11    0.26
  -4   2   8    5.49    0.29
  -4   2   8    5.31    0.26
  -4   2   8    5.70    0.30
   4   2  -8    5.38    0.30
  -4   2   8    5.57    0.23
  -3  -2   8    8.71    0.35
  -3  -2   8    8.77    0.38
  -3   2   8    9.11    0.32
  -3   2   8    8.74    0.37
   3   2  -8    8.94    0.39
  -3   2   8    8.97    0.36
  -3   2   8    8.38    0.37
  -2  -2   8   39.51    1.21
  -2  -2   8   41.61    1.17
   2  -2  -8   40.93    1.15
  -2   2   8   41.47    1.15
   2   2  -8   41.20    1.23
  -2   2   8   42.31    1.18
  -2   2   8   40.25    1.21
  -2   2   8   40.42    1.19
  -1  -2   8    6.46    0.27
  -1  -2   8    6.29    0.30
   1  -2  -8    6.42    0.26
   1   2  -8    6.23    0.31
  -1   2   8    6.27    0.28
  -1   2   8    6.41    0.29
  -1   2   8    6.17    0.27
  -1   2   8    6.33    0.26
   0  -2   8   35.97    1.07
   0  -2  -8   35.63    1.02
   0  -2   8   35.71    1.01
   0   2   8   34.67    1.04
   0   2  -8   35.82    1.08
   0   2   8   35.82    1.06
   0   2   8   35.80    1.04
   0   2   8   35.32    1.03
   1  -2   8   27.52    0.85
  -1  -2  -8   25.27    0.79
   1  -2   8   26.59    0.78
  -1   2  -8   26.23    0.83
   1   2   8   27.79    0.81
   1   2   8   25.93    0.82
  -1   2  -8   25.15    0.73
   1   2   8   26.41    0.81
   1   2   8   27.25    0.81
   2  -2   8   53.29    1.51
  -2  -2  -8   56.27    1.53
   2   2   8   56.44    1.55
   2   2   8   54.90    1.53
  -2   2  -8   53.27    1.43
   2   2   8   53.41    1.55
  -2   2  -8   56.00    1.56
   3  -2   8   30.89    0.91
  -3  -2  -8   31.02    0.94
  -3   2  -8   30.17    0.94
   3   2   8   29.84    0.93
   3   2   8   31.16    0.96
  -4  -2  -8   33.83    1.04
   4  -2   8   35.13    1.02
  -4   2  -8   33.48    1.04
   4   2   8   34.71    1.06
   4   2   8   33.60    1.04
  -4   2  -8   32.96    0.95
   5  -2   8   27.69    0.88
  -5  -2  -8   27.67    0.90
  -5   2  -8   28.11    0.90
   5   2   8   28.35    0.90
   5   2   8   27.47    0.92
   6  -2   8    0.15    0.07
  -6  -2  -8   -0.01    0.06
  -6   2  -8    0.02    0.05
   6   2   8    0.02    0.05
   6   2   8   -0.01    0.06
  -7  -2  -8    1.72    0.21
   7  -2   8    1.55    0.19
   7   2   8    1.64    0.20
  -7   2  -8    1.45    0.18
   7   2   8    1.88    0.23
   8  -2   8    1.20    0.18
  -8  -2  -8    1.40    0.20
   8   2   8    1.02    0.17
   8   2   8    0.87    0.17
  -8   2  -8    1.03    0.17
   9  -2   8    2.15    0.25
  -9   2  -8    2.18    0.24
   9   2   8    2.13    0.26
  10  -2   8    2.25    0.28
 -11  -3   8    1.41    0.36
 -10  -3   8    0.35    0.13
 -10   3   8    0.02    0.11
  10   3  -8    0.21    0.13
  -9  -3   8    2.62    0.30
  -9   3   8    2.60    0.29
  -8  -3   8    3.62    0.29
  -8   3   8    3.08    0.30
  -8   3   8    3.35    0.32
  -7  -3   8   10.35    0.49
  -7   3   8    9.59    0.47
  -7   3   8    9.75    0.47
  -6  -3   8   19.35    0.72
  -6   3   8   18.81    0.71
  -6   3   8   18.92    0.72
  -6   3   8   19.46    0.58
  -5  -3   8    1.24    0.15
  -5  -3   8    0.97    0.15
  -5   3   8    1.18    0.15
  -5   3   8    1.29    0.09
  -5   3   8    1.43    0.16
  -5   3   8    1.31    0.17
  -4  -3   8   18.19    0.65
  -4  -3   8   17.50    0.60
  -4   3   8   19.14    0.63
  -4   3   8   17.78    0.55
  -4   3   8   17.97    0.64
   4   3  -8   17.61    0.68
  -4   3   8   17.99    0.66
  -3  -3   8    6.56    0.28
  -3  -3   8    6.44    0.32
  -3   3   8    6.27    0.31
  -3   3   8    6.04    0.30
   3   3  -8    5.72    0.33
  -3   3   8    6.15    0.25
  -3   3   8    6.76    0.30
  -2  -3   8    0.06    0.05
  -2  -3   8    0.11    0.05
   2   3  -8    0.02    0.05
  -2   3   8    0.04    0.04
  -2   3   8    0.01    0.04
  -2   3   8    0.09    0.04
  -2   3   8    0.07    0.06
  -1  -3   8   14.59    0.47
  -1  -3   8   13.53    0.52
   1  -3  -8   14.08    0.47
   1   3  -8   14.30    0.56
  -1   3   8   14.72    0.49
  -1   3   8   15.96    0.48
  -1   3   8   14.38    0.52
  -1   3   8   14.76    0.50
  -1   3   8   14.07    0.52
   0  -3   8    0.47    0.10
   0  -3  -8    0.48    0.08
   0  -3   8    0.34    0.06
   0   3   8    0.41    0.08
   0   3   8    0.53    0.08
   0   3  -8    0.25    0.08
   0   3   8    0.54    0.10
   0   3   8    0.53    0.09
   0   3   8    0.58    0.08
   1  -3   8   87.45    2.43
   1  -3   8   88.90    2.34
  -1  -3  -8   86.80    2.37
   1   3   8   93.17    2.35
   1   3   8   87.95    2.42
  -1   3  -8   89.16    2.44
  -1   3  -8   83.52    2.29
   1   3   8   90.90    2.37
   1   3   8   87.68    2.42
   1   3   8   91.21    2.45
   2  -3   8   25.75    0.76
  -2  -3  -8   24.88    0.79
  -2   3  -8   24.50    0.83
   2   3   8   24.99    0.83
   2   3   8   27.39    0.76
   2   3   8   25.18    0.83
   2   3   8   26.12    0.78
  -2   3  -8   27.03    0.82
  -3  -3  -8   24.23    0.80
   3  -3   8   25.13    0.77
   3   3   8   25.73    0.79
   3   3   8   26.24    0.84
  -3   3  -8   24.37    0.83
   3   3   8   26.14    0.75
  -3   3  -8   25.34    0.79
   3   3   8   26.72    0.84
  -4  -3  -8   17.80    0.64
   4  -3   8   17.20    0.60
   4   3   8   19.17    0.56
  -4   3  -8   17.51    0.58
   4   3   8   18.81    0.66
   4   3   8   18.93    0.67
  -4   3  -8   18.86    0.66
   5  -3   8    2.11    0.16
  -5  -3  -8    2.22    0.25
   5   3   8    2.37    0.20
   5   3   8    2.04    0.12
  -5   3  -8    1.96    0.20
   5   3   8    2.04    0.22
   6  -3   8    2.91    0.21
   6   3   8    2.75    0.23
  -6   3  -8    2.70    0.21
   6   3   8    2.90    0.27
   7  -3   8    1.30    0.17
   7   3   8    0.81    0.15
   7   3   8    1.07    0.17
  -7   3  -8    1.07    0.16
   8  -3   8    0.34    0.11
  -8   3  -8    0.18    0.09
   8   3   8    0.23    0.11
   8   3   8    0.27    0.11
   9  -3   8    0.12    0.10
   9   3   8    0.14    0.11
   9   3   8    0.14    0.11
  -9   3  -8    0.21    0.10
  10  -3   8   -0.02    0.09
 -10  -4   8    4.42    0.35
  10   4  -8    3.88    0.35
 -10   4   8    3.92    0.16
 -10   4   8    4.05    0.40
  -9  -4   8   23.14    0.90
  -9   4   8   23.45    0.67
  -9   4   8   23.84    0.92
   9   4  -8   23.81    0.95
  -8  -4   8    6.67    0.39
   8   4  -8    6.00    0.41
  -8   4   8    6.66    0.39
  -8   4   8    5.64    0.37
  -7  -4   8    0.75    0.15
  -7   4   8    0.77    0.15
   7   4  -8    0.75    0.17
  -7   4   8    0.76    0.15
  -7   4   8    0.84    0.07
  -6  -4   8    0.49    0.12
   6   4  -8    0.86    0.17
  -6   4   8    0.30    0.09
  -6   4   8    0.67    0.13
  -6   4   8    0.65    0.07
  -6   4   8    0.54    0.13
  -5  -4   8   61.12    1.78
  -5   4   8   61.82    1.76
  -5   4   8   60.62    1.74
  -5   4   8   58.28    1.77
  -5   4   8   60.70    1.61
  -4  -4   8    1.86    0.14
  -4  -4   8    1.62    0.18
  -4   4   8    1.60    0.17
  -4   4   8    1.89    0.21
  -4   4   8    1.59    0.11
   4   4  -8    1.26    0.19
  -4   4   8    1.71    0.18
  -3  -4   8   45.13    1.38
  -3  -4   8   45.00    1.29
  -3   4   8   50.95    1.32
  -3   4   8   46.13    1.28
  -3   4   8   45.84    1.38
  -3   4   8   44.81    1.34
  -3   4   8   47.35    1.37
   3   4  -8   45.44    1.43
  -2  -4   8    1.21    0.10
  -2  -4   8    0.88    0.13
  -2   4   8    0.98    0.13
  -2   4   8    1.12    0.11
  -2   4   8    1.01    0.12
  -2   4   8    1.33    0.11
  -2   4   8    1.25    0.15
   2   4  -8    1.25    0.17
   2   4  -8    1.21    0.18
  -1  -4   8    5.30    0.22
  -1  -4   8    5.75    0.29
  -1   4   8    5.66    0.28
   1   4  -8    5.45    0.32
  -1   4   8    5.85    0.26
  -1   4   8    5.28    0.25
   1   4  -8    4.80    0.30
  -1   4   8    5.42    0.28
   0  -4   8    4.82    0.27
   0  -4   8    5.54    0.21
   0   4   8    5.34    0.28
   0   4   8    5.66    0.25
   0   4   8    5.25    0.28
   0   4  -8    5.23    0.30
   0   4  -8    5.13    0.30
   0   4   8    4.92    0.23
   1  -4   8   21.77    0.76
   1  -4   8   22.32    0.66
  -1   4  -8   22.29    0.78
   1   4   8   22.88    0.71
   1   4   8   23.40    0.78
   1   4   8   23.03    0.69
   1   4   8   22.45    0.75
  -1   4  -8   23.34    0.80
   2  -4   8   15.41    0.48
   2   4   8   14.89    0.57
  -2   4  -8   14.49    0.56
   2   4   8   16.08    0.60
  -2   4  -8   14.44    0.58
   2   4   8   15.89    0.51
   2   4   8   15.80    0.52
   3  -4   8    2.07    0.13
   3   4   8    2.43    0.19
   3   4   8    2.39    0.20
   3   4   8    2.52    0.16
   3   4   8    2.43    0.15
  -3   4  -8    2.16    0.17
  -3   4  -8    2.54    0.20
   4  -4   8    8.60    0.34
   4   4   8    8.72    0.34
   4   4   8    8.82    0.41
   4   4   8    9.07    0.35
  -4   4  -8    8.30    0.42
  -4   4  -8    8.80    0.41
   4   4   8    8.56    0.42
   5  -4   8    0.12    0.06
  -5   4  -8    0.19    0.08
   5   4   8    0.25    0.06
   5   4   8    0.08    0.06
   5   4   8    0.08    0.07
   6  -4   8    2.51    0.18
   6   4   8    2.58    0.27
  -6   4  -8    2.53    0.21
   6   4   8    2.42    0.25
  -7   4  -8    0.65    0.14
   7   4   8    0.76    0.16
   7   4   8    0.80    0.17
   8   4   8    1.13    0.20
   8   4   8    0.98    0.19
  -8   4  -8    1.29    0.19
   9   4   8    1.28    0.23
  10   5  -8    4.03    0.38
 -10   5   8    4.17    0.45
  -9  -5   8    0.37    0.14
   9   5  -8    0.72    0.19
  -9   5   8    0.77    0.17
  -8  -5   8   -0.01    0.09
  -8   5   8   -0.01    0.08
  -8   5   8   -0.01    0.09
   8   5  -8   -0.05    0.09
  -7  -5   8    0.19    0.11
  -7   5   8    0.16    0.10
   7   5  -8    0.08    0.10
  -7   5   8    0.20    0.10
  -6  -5   8   -0.08    0.06
  -6   5   8   -0.05    0.07
  -6   5   8   -0.01    0.06
  -6   5   8   -0.03    0.03
   6   5  -8    0.03    0.08
  -6   5   8    0.07    0.07
  -5  -5   8    4.23    0.28
  -5   5   8    4.26    0.18
  -5   5   8    4.83    0.30
  -5   5   8    4.41    0.27
   5   5  -8    4.64    0.34
  -5   5   8    4.56    0.28
  -4  -5   8    0.32    0.10
  -4   5   8    0.11    0.07
   4   5  -8    0.23    0.11
   4   5  -8    0.27    0.11
  -4   5   8    0.24    0.09
  -4   5   8    0.22    0.08
  -4   5   8    0.23    0.06
  -4   5   8    0.14    0.06
  -3  -5   8   41.31    1.24
  -3   5   8   38.76    1.18
   3   5  -8   39.94    1.34
  -3   5   8   42.01    1.20
  -3   5   8   40.85    1.25
  -3   5   8   39.80    1.23
   3   5  -8   40.94    1.33
  -2  -5   8    0.37    0.09
   2   5  -8    0.01    0.06
   2   5  -8    0.16    0.08
  -2   5   8    0.29    0.08
  -2   5   8    0.29    0.09
  -2   5   8    0.22    0.08
  -2   5   8    0.29    0.07
  -1  -5   8    6.90    0.33
  -1   5   8    6.72    0.34
   1   5  -8    6.80    0.38
   1   5  -8    6.64    0.28
  -1   5   8    7.57    0.35
   1   5  -8    6.93    0.39
  -1   5   8    6.75    0.28
  -1   5   8    7.17    0.32
   0  -5   8    0.01    0.05
   0   5   8    0.09    0.07
   0   5   8   -0.02    0.04
   0   5   8    0.07    0.05
   0   5  -8    0.01    0.06
   0   5  -8    0.10    0.08
   1  -5   8    9.08    0.41
   1   5   8    8.99    0.42
   1   5   8    9.26    0.40
  -1   5  -8    9.15    0.44
   1   5   8    9.38    0.39
  -1   5  -8    9.15    0.44
   2  -5   8    2.48    0.20
   2   5   8    2.28    0.22
   2   5   8    2.18    0.17
   2   5   8    2.36    0.21
  -2   5  -8    2.01    0.22
  -2   5  -8    1.95    0.19
   3   5   8    2.45    0.22
  -3   5  -8    2.55    0.22
   3   5   8    2.54    0.18
   3   5   8    2.78    0.21
  -3   5  -8    2.34    0.20
   4   5   8    0.49    0.09
   4   5   8    0.39    0.12
   4   5   8    0.38    0.10
  -4   5  -8    0.33    0.10
   5   5   8    2.65    0.19
   5   5   8    2.20    0.25
   5   5   8    2.82    0.23
  -5   5  -8    2.96    0.24
   6   5   8    0.30    0.12
  -6   5  -8    0.48    0.12
   6   5   8    0.37    0.11
   7   5   8    4.19    0.32
  -7   5  -8    4.13    0.29
   7   5   8    4.20    0.33
  -8   5  -8    0.35    0.12
   8   5   8    0.41    0.15
   8   5   8    0.16    0.12
   9   6  -8    1.61    0.33
   8   6  -8   10.21    0.56
  -8   6   8   10.35    0.53
   8   6  -8   10.14    0.60
  -7   6   8    0.04    0.09
   7   6  -8    0.05    0.10
  -7   6   8    0.00    0.08
   7   6  -8   -0.09    0.08
  -6  -6   8   32.88    1.09
   6   6  -8   31.39    1.12
  -6   6   8   33.59    1.08
  -6   6   8   32.56    1.10
   6   6  -8   32.23    1.21
  -5  -6   8   26.28    0.92
  -5   6   8   27.04    0.94
   5   6  -8   24.67    1.03
  -5   6   8   30.26    0.89
  -5   6   8   26.50    0.92
   5   6  -8   27.03    0.95
  -4  -6   8    4.12    0.27
   4   6  -8    3.15    0.30
  -4   6   8    3.66    0.23
  -4   6   8    3.47    0.25
  -4   6   8    3.36    0.26
   4   6  -8    3.44    0.25
  -3  -6   8   47.61    1.46
  -3   6   8   52.69    1.45
  -3   6   8   49.35    1.48
   3   6  -8   47.52    1.45
   3   6  -8   47.87    1.58
  -3   6   8   48.62    1.48
   3   6  -8   49.46    1.61
  -2  -6   8    6.07    0.33
  -2   6   8    6.37    0.32
  -2   6   8    6.61    0.34
  -2   6   8    6.48    0.35
   2   6  -8    5.96    0.40
   2   6  -8    6.10    0.39
   2   6  -8    6.73    0.31
  -1  -6   8   13.58    0.55
   1   6  -8   14.73    0.64
   1   6  -8   14.13    0.64
  -1   6   8   14.42    0.58
  -1   6   8   14.78    0.57
  -1   6   8   14.56    0.56
   0  -6   8    2.52    0.20
   0   6   8    2.28    0.22
   0   6  -8    2.12    0.25
   0   6   8    2.57    0.20
   0   6   8    2.49    0.22
   0   6  -8    2.54    0.27
   1  -6   8    1.69    0.19
  -1   6  -8    1.31    0.20
   1   6   8    1.50    0.18
   1   6   8    1.60    0.20
  -1   6  -8    1.65    0.22
   1   6   8    1.75    0.19
   2  -6   8    0.17    0.08
   2   6   8   -0.07    0.05
  -2   6  -8    0.12    0.08
   2   6   8    0.06    0.07
  -2   6  -8    0.14    0.08
   2   6   8    0.02    0.06
   3  -6   8    0.33    0.10
   3   6   8    0.23    0.08
  -3   6  -8    0.28    0.10
   3   6   8    0.40    0.12
  -3   6  -8    0.30    0.10
   3   6   8    0.35    0.11
   4   6   8    0.02    0.08
   4   6   8    0.20    0.08
  -4   6  -8   -0.04    0.07
   4   6   8    0.09    0.08
   5   6   8   -0.01    0.06
   5   6   8    0.03    0.08
  -5   6  -8    0.01    0.07
   5   6   8    0.17    0.11
   6   6   8    0.06    0.10
  -6   6  -8    0.52    0.14
   6   6   8    0.27    0.12
  -7   6  -8    0.22    0.11
   7   6   8    0.35    0.14
   7   6   8    0.23    0.13
   7   7  -8    0.84    0.20
  -7   7   8    1.37    0.20
   7   7  -8    0.87    0.22
   6   7  -8    0.11    0.12
  -6   7   8    0.21    0.11
  -6   7   8   -0.01    0.08
   6   7  -8    0.11    0.11
   5   7  -8    0.33    0.14
  -5   7   8    0.47    0.14
   5   7  -8    0.66    0.15
  -5   7   8    0.58    0.14
  -5   7   8    0.57    0.12
  -4   7   8    1.18    0.16
   4   7  -8    1.50    0.21
  -4   7   8    1.25    0.19
   4   7  -8    1.44    0.26
  -4   7   8    1.26    0.19
  -3   7   8    1.49    0.18
  -3   7   8    1.21    0.18
   3   7  -8    1.42    0.24
   3   7  -8    1.14    0.22
  -3   7   8    1.26    0.18
  -2   7   8    2.41    0.21
   2   7  -8    1.70    0.25
  -2   7   8    2.20    0.23
   2   7  -8    2.11    0.28
  -2   7   8    2.02    0.23
  -1  -7   8   -0.06    0.06
   1   7  -8   -0.05    0.07
  -1   7   8   -0.03    0.05
  -1   7   8    0.03    0.07
  -1   7   8    0.07    0.07
   1   7  -8    0.02    0.08
   0  -7   8    0.67    0.13
   0   7   8    0.85    0.15
   0   7   8    0.84    0.17
   0   7  -8    0.69    0.17
   0   7   8    0.91    0.15
   0   7  -8    0.98    0.19
   1  -7   8    0.48    0.12
   1   7   8    0.31    0.11
   1   7   8    0.63    0.15
  -1   7  -8    0.39    0.14
   1   7   8    0.46    0.12
  -1   7  -8    0.42    0.13
   2  -7   8    9.59    0.45
   2   7   8    9.65    0.50
  -2   7  -8    9.44    0.50
   2   7   8    9.93    0.46
   2   7   8    9.69    0.45
  -2   7  -8    9.88    0.51
   3  -7   8    0.02    0.08
  -3   7  -8    0.05    0.08
  -3   7  -8    0.01    0.08
   3   7   8   -0.09    0.06
   3   7   8    0.02    0.07
   3   7   8    0.06    0.07
   4  -7   8   11.88    0.55
   4   7   8   11.28    0.58
   4   7   8   11.73    0.53
   4   7   8   12.35    0.53
  -4   7  -8   12.38    0.58
   5   7   8    1.05    0.17
  -5   7  -8    0.79    0.18
   5   7   8    0.97    0.19
   5   7   8    1.54    0.22
   6   7   8    0.70    0.17
  -6   7  -8    0.68    0.21
   6   7   8    1.05    0.25
   7   7   8    2.84    0.46
   6   8  -8    6.65    0.45
  -6   8   8    8.66    0.47
  -6   8   8    7.36    0.42
   5   8  -8   14.05    0.78
  -5   8   8   16.60    0.62
  -5   8   8   15.00    0.64
  -4   8   8    0.37    0.12
  -4   8   8    0.15    0.09
   4   8  -8    0.25    0.14
  -3   8   8    2.22    0.24
  -3   8   8    1.93    0.24
   3   8  -8    1.92    0.30
   2   8  -8   17.69    0.82
  -2   8   8   16.89    0.69
   2   8  -8   15.89    0.76
  -2   8   8   15.99    0.66
  -1   8   8    0.51    0.14
  -1   8   8    0.29    0.11
   1   8  -8    0.30    0.14
   1   8  -8    0.17    0.12
   0   8   8   11.88    0.56
   0   8  -8   11.22    0.60
   0   8  -8   10.31    0.59
   0   8   8   11.40    0.53
  -1   8  -8    0.93    0.20
   1   8   8    0.57    0.14
   1   8   8    0.75    0.17
  -1   8  -8    0.77    0.19
   2   8   8    1.61    0.21
  -2   8  -8    1.96    0.26
  -2   8  -8    1.78    0.27
   2   8   8    1.47    0.23
   3   8   8    8.17    0.50
  -3   8  -8    8.74    0.50
   3   8   8    8.95    0.46
   4   8   8    0.02    0.12
  -4   8  -8   -0.07    0.09
   4   8   8    0.21    0.10
   5   8   8    6.70    0.39
  -3   9   8    6.41    0.41
   2   9  -8    0.65    0.19
  -2   9   8    0.61    0.16
  -1   9   8    0.30    0.13
   1   9  -8    0.30    0.18
   1   9  -8    0.30    0.16
   0   9   8    0.20    0.13
   0   9  -8    0.10    0.13
   0   9  -8    0.21    0.15
  -1   9  -8    5.00    0.42
  -1   9  -8    4.71    0.40
  -2   9  -8    0.83    0.21
 -10   0   9   -0.09    0.08
  -9   0   9    1.81    0.25
  -8   0   9    0.03    0.07
  -8   0   9   -0.01    0.07
  -7   0   9   18.48    0.72
  -7   0   9   17.36    0.69
  -6   0   9    0.05    0.06
  -6   0   9    0.13    0.08
  -5   0   9   90.19    2.50
  -5   0   9   89.72    2.53
  -4   0   9   -0.02    0.05
  -4   0   9    0.03    0.05
  -3   0   9   35.42    1.10
   3   0  -9   36.92    1.09
  -3   0   9   36.13    1.12
  -3   0   9   36.88    1.07
  -2   0   9    0.03    0.04
  -2   0   9    0.03    0.04
  -2   0   9    0.00    0.03
  -2   0   9    0.00    0.03
   2   0  -9    0.02    0.05
  -1   0   9    2.07    0.15
  -1   0   9    2.08    0.16
  -1   0   9    2.45    0.14
  -1   0   9    2.13    0.15
   1   0  -9    2.26    0.16
   0   0   9    0.02    0.03
   0   0  -9   -0.01    0.03
   0   0   9    0.01    0.04
   0   0   9    0.04    0.05
   1   0   9    4.78    0.26
   1   0   9    4.99    0.21
  -1   0  -9    4.86    0.25
   1   0   9    5.03    0.25
   2   0   9    0.02    0.04
   2   0   9    0.01    0.03
   2   0   9   -0.01    0.04
  -2   0  -9    0.17    0.06
   3   0   9    4.57    0.20
   3   0   9    4.52    0.25
  -3   0  -9    4.62    0.25
  -4   0  -9   -0.02    0.04
   4   0   9   -0.06    0.04
   4   0   9    0.02    0.04
   5   0   9    1.84    0.20
   5   0   9    2.07    0.14
  -5   0  -9    1.51    0.18
  -6   0  -9   -0.03    0.05
   6   0   9    0.08    0.07
   7   0   9    9.02    0.45
  -7   0  -9    9.44    0.44
   8   0   9    0.05    0.08
  -8   0  -9   -0.02    0.07
   9   0   9    0.08    0.09
  -9   0  -9    0.11    0.09
 -10   0  -9   -0.06    0.10
 -10  -1   9    3.63    0.38
 -10   1   9    3.41    0.36
  -9  -1   9    3.68    0.31
  -9   1   9    3.99    0.32
  -8  -1   9    0.47    0.13
  -8   1   9    0.51    0.14
  -8   1   9    0.56    0.15
  -7  -1   9    1.44    0.19
  -7  -1   9    1.14    0.19
  -7   1   9    1.16    0.19
  -7   1   9    1.47    0.20
  -6  -1   9    3.20    0.25
  -6  -1   9    3.41    0.24
  -6   1   9    3.78    0.27
  -6   1   9    3.19    0.24
  -5  -1   9    9.82    0.43
  -5  -1   9   10.05    0.45
  -5   1   9    8.87    0.42
  -5   1   9    9.96    0.45
  -4  -1   9    4.43    0.26
  -4  -1   9    4.66    0.28
  -4   1   9    4.35    0.26
  -4   1   9    4.81    0.28
  -4   1   9    4.38    0.22
  -4   1   9    4.23    0.24
  -3  -1   9    0.21    0.07
   3  -1  -9    0.30    0.08
  -3  -1   9    0.41    0.09
  -3  -1   9    0.22    0.08
  -3   1   9    0.29    0.07
  -3   1   9    0.39    0.09
  -3   1   9    0.43    0.08
  -3   1   9    0.28    0.08
   3   1  -9    0.32    0.08
  -2  -1   9   -0.02    0.04
  -2  -1   9    0.01    0.03
  -2  -1   9   -0.02    0.04
   2  -1  -9    0.00    0.04
  -2   1   9    0.18    0.06
   2   1  -9   -0.05    0.03
  -2   1   9   -0.07    0.02
  -2   1   9    0.03    0.04
  -2   1   9    0.03    0.04
  -1  -1   9   24.12    0.80
   1  -1  -9   24.58    0.76
  -1  -1   9   24.30    0.76
  -1   1   9   25.20    0.75
  -1   1   9   24.70    0.79
   1   1  -9   23.73    0.79
  -1   1   9   24.14    0.78
   0  -1   9    0.36    0.06
   0  -1   9    0.26    0.07
   0  -1  -9    0.32    0.07
   0  -1   9    0.23    0.06
   0   1   9    0.40    0.08
   0   1   9    0.28    0.06
   0   1  -9    0.46    0.09
   0   1   9    0.49    0.09
   0   1   9    0.33    0.08
   1  -1   9    4.99    0.27
   1  -1   9    5.46    0.21
   1  -1   9    5.48    0.26
  -1  -1  -9    5.30    0.26
   1   1   9    5.46    0.27
   1   1   9    5.76    0.27
  -1   1  -9    5.55    0.27
   1   1   9    5.30    0.24
  -2  -1  -9    4.56    0.24
   2  -1   9    4.51    0.18
   2  -1   9    4.48    0.23
   2  -1   9    4.61    0.26
   2   1   9    4.59    0.22
   2   1   9    4.48    0.25
   2   1   9    4.87    0.25
  -2   1  -9    4.96    0.26
   3  -1   9    3.12    0.19
  -3  -1  -9    2.77    0.19
   3  -1   9    2.60    0.13
   3   1   9    3.02    0.20
  -3   1  -9    3.14    0.20
   3   1   9    2.76    0.17
   4  -1   9   11.45    0.36
  -4  -1  -9   11.31    0.46
   4  -1   9   12.50    0.47
   4   1   9   11.62    0.43
  -4   1  -9   11.02    0.46
   4   1   9   11.67    0.47
   5  -1   9    5.38    0.30
  -5  -1  -9    5.50    0.30
  -5   1  -9    5.71    0.31
   5   1   9    5.53    0.31
   5   1   9    5.49    0.27
   6  -1   9   10.13    0.45
  -6  -1  -9    9.21    0.44
   6   1   9    9.91    0.46
  -6   1  -9   10.40    0.45
   6   1   9   10.39    0.42
   7  -1   9    7.00    0.38
  -7  -1  -9    7.38    0.39
   7   1   9    7.00    0.39
  -7   1  -9    7.42    0.38
  -8  -1  -9    0.58    0.15
   8  -1   9    0.33    0.12
  -8   1  -9    0.29    0.10
   8   1   9    0.43    0.13
   9  -1   9    1.35    0.21
  -9  -1  -9    1.71    0.23
  -9   1  -9    1.60    0.21
   9   1   9    1.75    0.24
 -10   1  -9    2.33    0.35
 -10  -2   9    0.78    0.19
 -10   2   9    1.13    0.21
  -9  -2   9    2.80    0.31
  -9   2   9    2.49    0.29
  -8  -2   9   14.38    0.64
  -8   2   9   15.68    0.66
  -8   2   9   13.95    0.63
  -7  -2   9    0.66    0.15
  -7  -2   9    0.62    0.13
  -7   2   9    0.34    0.12
  -7   2   9    0.78    0.16
  -6  -2   9    0.95    0.16
  -6  -2   9    1.01    0.15
  -6   2   9    0.82    0.15
  -6   2   9    0.91    0.15
  -5  -2   9    2.39    0.19
  -5  -2   9    1.92    0.21
  -5   2   9    1.96    0.21
  -5   2   9    2.39    0.24
  -5   2   9    1.96    0.17
  -4  -2   9   36.83    1.11
  -4  -2   9   35.96    1.15
  -4   2   9   36.26    1.14
  -4   2   9   36.59    1.05
  -4   2   9   37.11    1.11
  -4   2   9   36.29    1.14
  -3  -2   9    6.60    0.30
  -3  -2   9    5.98    0.32
  -3   2   9    5.91    0.29
  -3   2   9    6.30    0.31
  -3   2   9    6.04    0.26
   3   2  -9    6.27    0.33
  -3   2   9    6.68    0.32
   2  -2  -9   46.35    1.33
  -2  -2   9   45.91    1.29
  -2  -2   9   44.88    1.34
  -2   2   9   44.49    1.31
  -2   2   9   45.18    1.30
  -2   2   9   42.36    1.26
   2   2  -9   45.04    1.35
  -2   2   9   45.66    1.34
  -1  -2   9   11.39    0.46
  -1  -2   9   11.62    0.42
   1  -2  -9   11.29    0.41
  -1   2   9   11.78    0.46
  -1   2   9   11.69    0.44
  -1   2   9   11.41    0.41
   1   2  -9   11.31    0.47
  -1   2   9   10.82    0.42
   0  -2   9    2.58    0.16
   0  -2  -9    2.79    0.17
   0  -2   9    2.74    0.20
   0   2  -9    2.56    0.19
   0   2   9    2.76    0.18
   0   2   9    2.78    0.18
   0   2   9    2.84    0.19
   0   2   9    2.83    0.17
   1  -2   9    5.69    0.30
  -1  -2  -9    5.89    0.27
   1  -2   9    5.71    0.26
  -1   2  -9    5.69    0.30
   1   2   9    6.15    0.30
   1   2   9    6.03    0.28
   1   2   9    6.06    0.28
   2  -2   9   12.09    0.48
   2  -2   9   10.97    0.42
  -2  -2  -9   11.42    0.44
   2   2   9   11.63    0.46
   2   2   9   12.32    0.45
   2   2   9   12.19    0.45
  -2   2  -9   11.62    0.47
   3  -2   9    3.48    0.20
  -3  -2  -9    3.82    0.22
  -3   2  -9    3.99    0.24
   3   2   9    3.71    0.22
   3   2   9    3.49    0.23
   3   2   9    3.88    0.23
  -4  -2  -9   32.36    1.03
   4  -2   9   33.95    1.01
   4   2   9   34.10    1.06
   4   2   9   32.06    1.02
  -4   2  -9   32.67    1.03
  -5  -2  -9    0.22    0.08
   5  -2   9    0.25    0.08
  -5   2  -9    0.16    0.08
   5   2   9    0.37    0.09
   5   2   9    0.31    0.09
  -6  -2  -9    9.21    0.44
   6  -2   9   10.01    0.43
   6   2   9    9.50    0.43
  -6   2  -9    9.71    0.44
   6   2   9   10.31    0.47
   7  -2   9    0.92    0.15
  -7   2  -9    1.49    0.19
   7   2   9    0.79    0.14
   7   2   9    1.11    0.18
   8  -2   9    1.49    0.21
  -8   2  -9    1.98    0.22
   8   2   9    1.87    0.24
   9  -2   9    0.61    0.15
  -9   2  -9    0.54    0.14
   9   2   9    0.58    0.16
 -10  -3   9    0.12    0.10
 -10   3   9    0.20    0.12
  10   3  -9    0.08    0.11
  -9  -3   9    2.14    0.28
  -9   3   9    1.99    0.27
  -9   3   9    1.40    0.22
  -8  -3   9    4.71    0.34
  -8   3   9    5.13    0.35
  -8   3   9    5.26    0.36
  -7  -3   9    0.94    0.17
  -7   3   9    0.84    0.16
  -7   3   9    1.35    0.20
  -6  -3   9    8.39    0.43
  -6  -3   9    8.67    0.40
  -6   3   9    8.52    0.43
  -6   3   9    8.75    0.44
  -6   3   9    8.49    0.40
  -5  -3   9   -0.05    0.05
  -5  -3   9   -0.03    0.05
  -5   3   9   -0.01    0.06
  -5   3   9    0.03    0.06
  -5   3   9    0.02    0.06
  -4  -3   9    2.93    0.20
  -4  -3   9    2.99    0.22
  -4   3   9    3.25    0.22
  -4   3   9    2.96    0.23
  -4   3   9    2.92    0.17
  -4   3   9    3.19    0.21
  -3  -3   9    8.24    0.34
  -3  -3   9    8.12    0.38
  -3   3   9    7.94    0.36
  -3   3   9    7.74    0.35
  -3   3   9    8.21    0.38
   3   3  -9    7.76    0.40
  -3   3   9    7.95    0.31
  -2  -3   9   15.21    0.58
  -2  -3   9   15.52    0.53
  -2   3   9   15.67    0.54
  -2   3   9   15.05    0.57
  -2   3   9   15.31    0.55
   2   3  -9   15.24    0.60
  -2   3   9   15.64    0.55
  -1  -3   9   42.63    1.22
  -1  -3   9   41.90    1.30
  -1   3   9   42.98    1.26
   1   3  -9   43.88    1.33
  -1   3   9   43.77    1.27
  -1   3   9   44.45    1.30
   0  -3   9    8.44    0.39
   0  -3   9    9.27    0.35
   0   3   9    9.26    0.40
   0   3  -9    9.31    0.42
   0   3   9   10.24    0.35
   0   3   9    8.81    0.36
   0   3   9    8.93    0.38
   1  -3   9   31.09    0.91
   1  -3   9   30.73    0.99
   1   3   9   30.12    0.96
   1   3   9   30.18    0.93
   1   3   9   31.49    0.98
   1   3   9   32.37    0.90
  -1   3  -9   30.39    0.99
   2  -3   9   30.39    0.99
   2  -3   9   29.55    0.90
   2   3   9   30.79    0.97
   2   3   9   29.83    0.97
   2   3   9   33.12    0.89
   2   3   9   30.09    0.93
  -2   3  -9   30.96    0.96
  -2   3  -9   30.89    0.99
   3  -3   9    3.73    0.20
   3   3   9    3.95    0.25
   3   3   9    3.48    0.17
   3   3   9    3.84    0.22
   3   3   9    4.28    0.26
  -3   3  -9    3.80    0.22
  -3   3  -9    4.05    0.25
   4  -3   9   10.92    0.42
   4   3   9   10.52    0.47
  -4   3  -9    9.77    0.45
   4   3   9   10.08    0.45
   4   3   9   11.60    0.37
   5  -3   9    0.13    0.07
  -5   3  -9    0.03    0.06
   5   3   9    0.22    0.09
   5   3   9    0.13    0.08
   6  -3   9    5.61    0.31
   6   3   9    5.73    0.34
  -6   3  -9    5.54    0.32
   6   3   9    5.78    0.34
   7  -3   9    0.07    0.07
   7   3   9    0.03    0.08
  -7   3  -9    0.00    0.06
   7   3   9   -0.03    0.07
   8  -3   9    0.18    0.10
   8   3   9    0.05    0.09
  -8   3  -9    0.19    0.10
   8   3   9    0.07    0.09
   9  -3   9    0.82    0.18
  -9   3  -9    0.78    0.16
 -10  -4   9    0.53    0.18
 -10   4   9    0.34    0.15
  10   4  -9    0.50    0.18
 -10   4   9    0.60    0.07
  -9  -4   9    0.27    0.12
  -9   4   9    0.10    0.10
  -9   4   9    0.10    0.11
   9   4  -9    0.21    0.12
  -8  -4   9    0.17    0.10
  -8   4   9    0.27    0.12
  -8   4   9    0.40    0.13
   8   4  -9    0.22    0.11
  -7  -4   9    0.28    0.11
  -7   4   9    0.46    0.13
  -7   4   9    0.31    0.11
   7   4  -9    0.43    0.14
  -6  -4   9   14.02    0.59
  -6   4   9   13.69    0.55
  -6   4   9   13.51    0.57
  -6   4   9   13.08    0.58
  -5  -4   9    0.03    0.06
  -5   4   9    0.00    0.07
  -5   4   9    0.00    0.06
  -5   4   9    0.05    0.06
  -4  -4   9   46.16    1.37
  -4  -4   9   44.73    1.28
  -4   4   9   43.05    1.33
  -4   4   9   43.33    1.36
  -4   4   9   43.72    1.33
  -3  -4   9    6.39    0.33
  -3  -4   9    5.73    0.26
  -3   4   9    5.70    0.30
   3   4  -9    6.18    0.36
  -3   4   9    6.47    0.34
  -3   4   9    6.17    0.31
  -2  -4   9   11.40    0.49
  -2  -4   9   11.65    0.41
  -2   4   9   11.92    0.45
  -2   4   9   13.20    0.44
   2   4  -9   11.28    0.52
  -2   4   9   11.47    0.49
  -2   4   9   11.84    0.48
  -1  -4   9   17.92    0.66
  -1  -4   9   17.51    0.57
  -1   4   9   17.22    0.64
   1   4  -9   18.02    0.70
  -1   4   9   18.97    0.60
   1   4  -9   18.57    0.71
  -1   4   9   18.08    0.66
  -1   4   9   18.50    0.61
   0  -4   9    3.79    0.25
   0  -4   9    3.85    0.19
   0   4   9    3.48    0.24
   0   4   9    4.04    0.21
   0   4   9    4.26    0.25
   0   4  -9    3.83    0.26
   0   4  -9    4.35    0.28
   0   4   9    3.65    0.20
   1  -4   9    7.54    0.38
   1  -4   9    7.92    0.31
  -1   4  -9    8.68    0.41
   1   4   9    8.74    0.34
   1   4   9    9.07    0.40
  -1   4  -9    7.99    0.40
   1   4   9    8.55    0.39
   1   4   9    8.73    0.34
   2  -4   9    4.95    0.29
   2  -4   9    4.92    0.22
  -2   4  -9    4.59    0.29
   2   4   9    5.07    0.24
   2   4   9    5.14    0.25
   2   4   9    5.26    0.30
   2   4   9    5.09    0.29
  -2   4  -9    5.02    0.28
   3  -4   9   -0.01    0.04
  -3   4  -9    0.03    0.05
   3   4   9   -0.02    0.03
  -3   4  -9    0.02    0.04
   3   4   9    0.01    0.06
   3   4   9    0.08    0.07
   3   4   9   -0.01    0.04
   4  -4   9    2.65    0.17
   4   4   9    2.88    0.23
   4   4   9    2.30    0.23
   4   4   9    2.67    0.19
  -4   4  -9    3.28    0.24
   4   4   9    2.89    0.17
   5  -4   9    0.53    0.16
   5   4   9    0.25    0.10
   5   4   9    0.30    0.11
  -5   4  -9    0.35    0.10
   5   4   9    0.35    0.10
  -6   4  -9   11.21    0.51
   6   4   9   11.07    0.52
   6   4   9   11.47    0.53
  -7   4  -9    0.36    0.11
   7   4   9    0.19    0.10
   7   4   9    0.16    0.09
  -8   4  -9    0.00    0.08
   8   4   9   -0.02    0.08
   8   4   9   -0.02    0.10
   9   4   9    0.08    0.11
  -9  -5   9    0.54    0.16
  -9   5   9    0.42    0.15
  -9   5   9    0.35    0.15
   9   5  -9    0.16    0.14
  -8  -5   9    1.46    0.22
   8   5  -9    1.30    0.25
  -8   5   9    1.57    0.24
  -8   5   9    1.39    0.22
  -7  -5   9    1.97    0.25
  -7   5   9    2.31    0.25
  -7   5   9    2.76    0.29
  -7   5   9    2.35    0.25
   7   5  -9    2.11    0.28
  -6  -5   9    6.96    0.39
  -6   5   9    6.94    0.38
   6   5  -9    6.91    0.45
  -6   5   9    7.44    0.38
  -6   5   9    6.96    0.40
  -5  -5   9    0.60    0.13
  -5   5   9    0.48    0.12
  -5   5   9    0.20    0.09
   5   5  -9    0.36    0.13
  -5   5   9    0.37    0.11
  -4  -5   9   63.91    1.91
  -4   5   9   64.57    1.89
  -4   5   9   64.84    1.93
   4   5  -9   68.06    2.04
  -4   5   9   66.40    1.87
  -3  -5   9   28.60    0.96
  -3   5   9   31.14    0.90
  -3   5   9   27.21    0.96
  -3   5   9   28.69    0.95
   3   5  -9   27.83    1.03
  -3   5   9   27.57    0.89
   3   5  -9   29.25    1.05
  -2  -5   9   42.13    1.32
   2   5  -9   42.76    1.40
  -2   5   9   42.65    1.32
  -2   5   9   43.75    1.26
  -2   5   9   46.23    1.28
   2   5  -9   44.33    1.43
  -2   5   9   41.61    1.33
  -1  -5   9   39.87    1.19
  -1   5   9   37.86    1.14
  -1   5   9   38.31    1.19
  -1   5   9   36.58    1.18
   1   5  -9   35.90    1.24
  -1   5   9   38.79    1.13
   1   5  -9   37.49    1.26
   1   5  -9   37.47    1.25
   0  -5   9    1.34    0.17
   0   5  -9    1.11    0.19
   0   5   9    1.07    0.13
   0   5   9    0.90    0.14
   0   5   9    1.20    0.17
   0   5  -9    1.45    0.21
   1  -5   9    0.72    0.13
   1   5   9    0.45    0.11
  -1   5  -9    0.40    0.11
   1   5   9    0.69    0.11
  -1   5  -9    0.72    0.15
   1   5   9    0.58    0.12
   2  -5   9    2.98    0.23
   2   5   9    3.24    0.20
  -2   5  -9    2.83    0.24
   2   5   9    2.64    0.22
  -2   5  -9    2.28    0.21
   2   5   9    2.84    0.23
   3  -5   9    2.07    0.22
   3   5   9    2.17    0.17
   3   5   9    2.72    0.26
  -3   5  -9    2.40    0.25
   3   5   9    2.42    0.25
  -3   5  -9    2.28    0.20
   4   5   9    3.74    0.22
   4   5   9    4.19    0.29
  -4   5  -9    3.45    0.27
   4   5   9    4.54    0.29
  -5   5  -9    2.32    0.26
   5   5   9    2.79    0.20
   5   5   9    3.05    0.30
   5   5   9    2.40    0.25
   6   5   9    1.82    0.25
   6   5   9    1.89    0.24
  -6   5  -9    1.74    0.22
  -7   5  -9    9.85    0.49
   7   5   9    8.67    0.49
   7   5   9    9.53    0.52
   8   5   9   -0.03    0.11
   8   6  -9    4.86    0.38
  -8   6   9    4.79    0.37
   8   6  -9    5.64    0.44
  -7   6   9    0.22    0.12
  -7   6   9    0.11    0.09
   7   6  -9    0.32    0.16
  -6  -6   9    2.27    0.26
  -6   6   9    2.57    0.28
   6   6  -9    2.22    0.32
  -6   6   9    2.18    0.24
  -5  -6   9    3.31    0.27
   5   6  -9    3.51    0.38
  -5   6   9    3.32    0.26
  -5   6   9    3.27    0.27
  -4  -6   9    2.92    0.24
  -4   6   9    2.97    0.21
   4   6  -9    2.78    0.23
   4   6  -9    2.45    0.31
  -4   6   9    2.62    0.27
  -4   6   9    2.87    0.23
  -3  -6   9    5.56    0.32
   3   6  -9    5.36    0.39
   3   6  -9    5.44    0.31
   3   6  -9    5.17    0.38
  -3   6   9    5.50    0.34
  -3   6   9    6.03    0.31
  -3   6   9    5.98    0.34
  -2  -6   9    9.50    0.44
  -2   6   9    9.51    0.45
  -2   6   9    9.32    0.44
   2   6  -9    8.69    0.51
   2   6  -9    9.14    0.51
  -2   6   9   10.43    0.43
  -1  -6   9    1.84    0.21
   1   6  -9    1.66    0.24
  -1   6   9    2.09    0.23
  -1   6   9    1.77    0.21
   1   6  -9    1.42    0.23
  -1   6   9    1.98    0.18
   0  -6   9    3.64    0.26
   0   6  -9    4.01    0.31
   0   6   9    4.55    0.28
   0   6   9    4.07    0.28
   0   6  -9    4.08    0.32
   0   6   9    4.58    0.27
   1  -6   9    2.77    0.22
   1   6   9    2.83    0.24
  -1   6  -9    2.65    0.25
   1   6   9    2.36    0.20
  -1   6  -9    2.37    0.27
   1   6   9    2.41    0.24
   2  -6   9    0.29    0.10
  -2   6  -9    0.26    0.11
   2   6   9    0.19    0.09
   2   6   9    0.18    0.09
   2   6   9    0.08    0.08
  -2   6  -9    0.28    0.10
   3  -6   9    9.21    0.45
   3   6   9    9.71    0.45
   3   6   9    8.80    0.40
   3   6   9    9.36    0.48
  -3   6  -9    8.38    0.44
  -3   6  -9    8.71    0.47
   4   6   9    7.51    0.40
   4   6   9    7.57    0.44
   4   6   9    7.36    0.36
  -4   6  -9    6.80    0.42
   5   6   9   11.14    0.54
   5   6   9   11.83    0.54
  -5   6  -9   11.45    0.55
   5   6   9   11.66    0.58
   6   6   9   13.04    0.64
   6   6   9   13.40    0.60
  -6   6  -9   12.54    0.60
   7   6   9    1.06    0.24
   7   6   9    0.73    0.18
  -7   7   9   11.75    0.55
   7   7  -9   11.16    0.60
  -7   7   9   11.84    0.79
  -6   7   9    0.43    0.13
   6   7  -9    0.55    0.18
   6   7  -9    0.84    0.18
  -6   7   9    0.98    0.19
   5   7  -9    8.54    0.56
   5   7  -9    8.38    0.47
  -5   7   9    9.02    0.47
  -5   7   9    8.80    0.46
  -5   7   9   11.20    0.45
  -4   7   9    1.17    0.16
  -4   7   9    1.22    0.19
   4   7  -9    1.14    0.23
  -4   7   9    1.00    0.18
   3   7  -9    4.94    0.39
  -3   7   9    5.28    0.33
  -3   7   9    5.50    0.31
  -3   7   9    4.65    0.32
  -2   7   9    0.27    0.10
  -2   7   9    0.07    0.08
   2   7  -9    0.08    0.11
   2   7  -9    0.19    0.11
  -2   7   9    0.13    0.10
  -1  -7   9   22.34    0.80
  -1   7   9   22.03    0.81
   1   7  -9   21.13    0.91
  -1   7   9   22.44    0.79
  -1   7   9   22.51    0.83
   1   7  -9   22.41    0.91
   0  -7   9    2.62    0.25
   0   7  -9    3.20    0.30
   0   7   9    2.54    0.22
   0   7   9    2.48    0.27
   0   7  -9    3.22    0.35
   0   7   9    2.39    0.25
   1  -7   9    0.60    0.14
   1   7   9    0.44    0.12
  -1   7  -9    0.70    0.17
   1   7   9    0.57    0.13
  -1   7  -9    0.38    0.14
   1   7   9    0.57    0.14
   2  -7   9    0.43    0.12
   2   7   9    0.59    0.15
   2   7   9    0.36    0.12
  -2   7  -9    0.23    0.12
  -2   7  -9    0.53    0.14
   2   7   9    0.40    0.11
   3  -7   9   22.19    0.83
   3   7   9   22.45    0.80
   3   7   9   21.00    0.86
   3   7   9   21.87    0.82
  -3   7  -9   22.09    0.88
   4  -7   9    0.14    0.10
   4   7   9    0.06    0.09
   4   7   9    0.04    0.07
   4   7   9   -0.03    0.09
  -4   7  -9   -0.01    0.09
   5   7   9    6.86    0.42
   5   7   9    5.42    0.40
  -5   7  -9    6.20    0.41
   6   7   9    1.10    0.21
  -5   8   9    1.38    0.21
   4   8  -9    0.02    0.10
  -4   8   9    0.07    0.09
  -4   8   9   -0.01    0.07
  -3   8   9    3.40    0.29
  -3   8   9    2.96    0.24
   3   8  -9    2.97    0.39
   2   8  -9    2.72    0.36
   2   8  -9    2.73    0.35
  -2   8   9    2.61    0.28
  -2   8   9    2.54    0.24
   1   8  -9    7.44    0.50
  -1   8   9    8.62    0.43
   1   8  -9    7.67    0.52
  -1   8   9    8.38    0.46
   0   8   9    9.18    0.49
   0   8  -9    8.66    0.54
   0   8  -9    9.53    0.56
   0   8   9    9.40    0.47
   1   8   9   11.05    0.51
   1   8   9   10.42    0.55
  -1   8  -9   10.67    0.58
  -1   8  -9   10.05    0.57
  -2   8  -9    7.19    0.46
   2   8   9    7.23    0.45
  -2   8  -9    6.99    0.47
   2   8   9    7.43    0.41
   3   8   9   16.45    0.84
   3   8   9   16.98    0.68
  -3   8  -9   16.77    0.77
   4   8   9    2.12    0.24
   1   9  -9    8.08    0.55
   0   9  -9    1.20    0.38
   0   9  -9    0.80    0.20
  -1   9  -9    7.28    0.51
 -10   0  10    7.95    0.49
  -9   0  10   -0.01    0.09
  -8   0  10    1.60    0.23
  -8   0  10    1.78    0.24
  -7   0  10   -0.06    0.07
  -7   0  10    0.00    0.07
  -6   0  10    0.56    0.13
  -6   0  10    0.60    0.13
  -5   0  10    0.13    0.08
  -5   0  10    0.05    0.07
  -4   0  10   56.35    1.67
  -4   0  10   57.96    1.70
  -3   0  10   -0.03    0.05
  -3   0  10    0.01    0.05
  -2   0  10  104.18    2.76
  -2   0  10  106.04    2.84
   2   0 -10  101.90    2.80
  -2   0  10  101.34    2.80
   1   0 -10   -0.04    0.04
  -1   0  10    0.03    0.05
  -1   0  10    0.04    0.05
  -1   0  10   -0.01    0.03
   0   0  10    4.31    0.20
   0   0  10    3.80    0.23
   0   0 -10    3.97    0.23
   0   0  10    3.89    0.24
  -1   0 -10    0.03    0.04
   1   0  10   -0.01    0.03
   1   0  10    0.01    0.04
   1   0  10    0.23    0.08
   2   0  10    0.08    0.06
   2   0  10    0.00    0.04
  -2   0 -10    0.06    0.05
   2   0  10    0.06    0.03
   3   0  10    0.08    0.05
   3   0  10   -0.03    0.03
  -3   0 -10    0.03    0.05
   4   0  10   17.73    0.64
   4   0  10   17.46    0.56
  -4   0 -10   17.68    0.64
  -5   0 -10    0.00    0.05
   5   0  10   -0.03    0.05
  -6   0 -10    7.74    0.39
   6   0  10    7.92    0.40
   7   0  10    0.03    0.07
  -7   0 -10    0.01    0.07
   8   0  10    0.00    0.09
  -8   0 -10    0.02    0.08
   9   0  10    0.08    0.10
  -9   0 -10   -0.04    0.09
 -10  -1  10    0.48    0.16
 -10   1  10    0.44    0.16
  -9  -1  10    0.00    0.10
  -9   1  10    0.02    0.07
  -9   1  10    0.02    0.08
  -8  -1  10    0.47    0.13
  -8  -1  10    0.32    0.12
  -8   1  10    0.41    0.13
  -8   1  10    0.44    0.13
  -7  -1  10    7.07    0.41
  -7  -1  10    7.57    0.39
  -7   1  10    6.41    0.39
  -7   1  10    7.35    0.41
  -6  -1  10   43.30    1.36
  -6  -1  10   42.05    1.32
  -6   1  10   39.76    1.33
  -6   1  10   43.37    1.34
  -5  -1  10   13.05    0.56
  -5  -1  10   11.87    0.52
  -5   1  10   13.24    0.55
  -5   1  10   13.24    0.56
  -4  -1  10   50.96    1.51
  -4  -1  10   50.34    1.48
  -4   1  10   49.83    1.49
  -4   1  10   50.03    1.45
  -4   1  10   47.73    1.50
  -3  -1  10    0.05    0.06
  -3  -1  10    0.10    0.08
  -3   1  10    0.11    0.06
  -3   1  10    0.19    0.07
  -3   1  10    0.25    0.09
  -2  -1  10   14.50    0.58
  -2  -1  10   16.38    0.57
  -2   1  10   15.09    0.57
  -2   1  10   15.81    0.54
  -2   1  10   15.63    0.58
   2   1 -10   16.51    0.59
  -1  -1  10    6.43    0.31
  -1  -1  10    6.66    0.33
   1  -1 -10    6.67    0.31
  -1   1  10    6.68    0.29
  -1   1  10    7.20    0.33
  -1   1  10    7.05    0.33
   1   1 -10    6.63    0.33
   0  -1  10  108.06    2.84
   0  -1  10  103.89    2.77
   0  -1 -10  105.17    2.84
   0  -1  10  104.09    2.88
   0   1  10  106.38    2.87
   0   1  10  103.69    2.81
   0   1 -10  104.30    2.87
   0   1  10  108.78    2.87
   1  -1  10    0.20    0.05
   1  -1  10    0.27    0.07
  -1  -1 -10    0.19    0.07
   1  -1  10    0.30    0.09
  -1   1 -10    0.29    0.08
   1   1  10    0.32    0.08
   1   1  10    0.28    0.07
   1   1  10    0.36    0.09
   2  -1  10    5.53    0.21
   2  -1  10    5.20    0.27
  -2  -1 -10    5.28    0.27
   2  -1  10    5.40    0.30
  -2   1 -10    5.47    0.29
   2   1  10    5.32    0.25
   2   1  10    5.72    0.29
   2   1  10    5.29    0.29
   3  -1  10   10.35    0.34
   3  -1  10   10.28    0.42
  -3  -1 -10   10.36    0.44
   3   1  10   10.81    0.41
   3   1  10   11.19    0.45
  -3   1 -10   10.46    0.44
   3   1  10   11.31    0.46
  -4  -1 -10    6.49    0.33
   4  -1  10    6.15    0.32
  -4   1 -10    6.10    0.33
   4   1  10    6.75    0.34
   4   1  10    6.32    0.29
   5  -1  10   13.47    0.54
  -5  -1 -10   12.78    0.54
   5   1  10   14.09    0.51
   5   1  10   13.21    0.55
  -5   1 -10   13.60    0.55
   6  -1  10    5.13    0.30
  -6  -1 -10    3.84    0.27
   6   1  10    4.49    0.30
  -6   1 -10    4.40    0.29
   6   1  10    4.27    0.34
  -7  -1 -10    3.92    0.29
   7  -1  10    3.99    0.29
  -7   1 -10    3.89    0.29
   7   1  10    4.15    0.31
   8  -1  10    2.42    0.26
  -8   1 -10    2.23    0.25
   8   1  10    2.48    0.28
   9  -1  10    0.26    0.12
   9   1  10    0.28    0.15
  -9   1 -10   -0.02    0.09
 -10  -2  10    8.12    0.49
 -10   2  10    7.81    0.50
  -9  -2  10    0.38    0.15
  -9   2  10    0.64    0.16
  -9   2  10    0.63    0.17
  -8  -2  10   14.03    0.64
  -8   2  10   14.41    0.65
  -8   2  10   13.59    0.62
  -7  -2  10    4.30    0.29
  -7  -2  10    4.57    0.32
  -7   2  10    4.83    0.32
  -7   2  10    4.15    0.30
  -6  -2  10   11.63    0.50
  -6  -2  10   11.21    0.53
  -6   2  10   12.09    0.54
  -6   2  10   12.35    0.55
  -5  -2  10    7.35    0.40
  -5  -2  10    7.71    0.37
  -5   2  10    7.38    0.39
  -5   2  10    7.75    0.40
  -5   2  10    8.09    0.37
  -4  -2  10    0.64    0.13
  -4  -2  10    0.64    0.12
  -4   2  10    0.73    0.13
  -4   2  10    0.46    0.11
  -4   2  10    0.66    0.11
  -3  -2  10   49.46    1.51
  -3  -2  10   51.21    1.47
   3   2 -10   55.24    1.82
  -3   2  10   49.86    1.50
  -3   2  10   48.55    1.49
  -3   2  10   50.20    1.46
  -2  -2  10    2.91    0.21
  -2  -2  10    2.42    0.18
  -2   2  10    2.97    0.19
   2   2 -10    2.50    0.21
  -2   2  10    2.88    0.20
  -2   2  10    2.61    0.20
  -1  -2  10   35.02    1.05
  -1  -2  10   35.74    1.11
  -1   2  10   34.33    1.07
  -1   2  10   36.35    1.10
   1   2 -10   35.75    1.12
  -1   2  10   33.68    1.05
   0  -2  10   36.36    1.13
   0  -2  10   37.04    1.07
   0   2 -10   35.23    1.12
   0   2  10   36.03    1.09
   0   2  10   34.40    1.07
   0   2  10   37.23    1.12
   1  -2  10   16.40    0.55
   1  -2  10   15.99    0.60
  -1   2 -10   15.86    0.60
   1   2  10   14.98    0.55
   1   2  10   15.83    0.57
   1   2  10   15.70    0.59
   2  -2  10   11.05    0.43
   2  -2  10   11.31    0.48
   2   2  10   10.62    0.43
   2   2  10   11.26    0.45
  -2   2 -10   11.48    0.47
   2   2  10   11.49    0.47
   3  -2  10    0.98    0.13
   3   2  10    0.92    0.13
   3   2  10    0.81    0.13
  -3   2 -10    0.96    0.14
   3   2  10    1.04    0.14
   4  -2  10    3.55    0.22
   4   2  10    3.34    0.22
   4   2  10    3.08    0.23
  -4   2 -10    3.05    0.23
   5  -2  10    1.56    0.18
   5   2  10    1.58    0.18
  -5   2 -10    1.62    0.20
   5   2  10    1.59    0.20
   6  -2  10    0.06    0.07
   6   2  10    0.21    0.09
   6   2  10    0.28    0.09
  -6   2 -10    0.15    0.09
   7  -2  10    0.37    0.12
  -7   2 -10    0.87    0.16
   7   2  10    0.85    0.16
   7   2  10    0.70    0.19
   8  -2  10    6.25    0.38
  -8   2 -10    6.25    0.38
   8   2  10    6.15    0.40
   9  -2  10   -0.01    0.10
  -9   2 -10    0.05    0.09
 -10  -3  10    0.56    0.18
 -10   3  10    0.20    0.12
  -9  -3  10   15.35    0.71
  -9   3  10   15.27    0.71
  -9   3  10   15.37    0.70
  -8  -3  10    0.60    0.17
  -8   3  10    0.42    0.14
  -8   3  10    0.23    0.12
  -7  -3  10    4.34    0.31
  -7   3  10    3.94    0.31
  -7   3  10    4.33    0.32
  -6  -3  10    0.52    0.12
  -6  -3  10    0.55    0.14
  -6   3  10    0.34    0.11
  -6   3  10    0.62    0.14
  -5  -3  10    5.15    0.33
  -5  -3  10    5.08    0.28
  -5   3  10    5.15    0.32
  -5   3  10    5.18    0.30
  -5   3  10    5.13    0.32
  -4  -3  10    5.03    0.31
  -4  -3  10    5.32    0.28
  -4   3  10    4.94    0.28
  -4   3  10    4.35    0.29
  -4   3  10    5.15    0.30
  -3  -3  10   41.17    1.19
  -3  -3  10   41.18    1.27
  -3   3  10   40.98    1.23
  -3   3  10   40.15    1.25
  -3   3  10   39.21    1.21
   3   3 -10   38.15    1.35
  -2  -3  10   26.04    0.87
  -2  -3  10   24.93    0.80
   2   3 -10   25.40    0.89
  -2   3  10   26.19    0.87
  -2   3  10   25.19    0.83
  -2   3  10   24.87    0.83
  -1  -3  10   36.09    1.04
  -1  -3  10   34.77    1.11
  -1   3  10   35.37    1.11
   1   3 -10   34.14    1.13
  -1   3  10   36.07    1.08
  -1   3  10   34.07    1.07
   0  -3  10    6.83    0.35
   0  -3  10    6.78    0.29
   0   3  10    6.59    0.31
   0   3 -10    6.44    0.35
   0   3  10    6.12    0.33
   0   3  10    6.39    0.32
   1  -3  10    1.34    0.18
   1  -3  10    1.66    0.13
   1   3  10    1.37    0.16
   1   3  10    1.66    0.16
   1   3  10    1.70    0.18
  -1   3 -10    1.83    0.21
   2  -3  10    3.72    0.26
   2  -3  10    3.08    0.19
  -2   3 -10    3.10    0.24
   2   3  10    3.09    0.23
   2   3  10    3.33    0.21
   2   3  10    3.54    0.23
   3  -3  10    0.90    0.12
  -3   3 -10    0.90    0.13
   3   3  10    0.71    0.12
   3   3  10    0.73    0.14
  -3   3 -10    1.07    0.17
   3   3  10    0.99    0.15
   4  -3  10    1.12    0.14
   4   3  10    1.11    0.15
   4   3  10    1.06    0.16
  -4   3 -10    1.23    0.18
   4   3  10    1.09    0.16
   5  -3  10    5.69    0.30
   5   3  10    5.82    0.35
   5   3  10    5.20    0.31
  -5   3 -10    5.34    0.32
   6  -3  10    0.24    0.09
  -6   3 -10    0.15    0.09
   6   3  10    0.36    0.11
   6   3  10    0.26    0.10
   7  -3  10    4.27    0.29
  -7   3 -10    3.89    0.29
   7   3  10    4.35    0.32
   7   3  10    3.94    0.30
   8  -3  10    1.14    0.19
   8   3  10    0.72    0.17
  -8   3 -10    0.96    0.17
  10   4 -10    0.04    0.19
  -9  -4  10    0.04    0.11
  -9   4  10   -0.01    0.09
   9   4 -10    0.06    0.11
  -9   4  10   -0.05    0.10
  -8  -4  10   -0.03    0.08
  -8   4  10    0.04    0.09
  -8   4  10    0.15    0.11
   8   4 -10   -0.07    0.09
  -7  -4  10    4.71    0.34
  -7   4  10    5.13    0.35
  -7   4  10    5.54    0.35
  -6  -4  10    1.45    0.21
  -6   4  10    1.63    0.22
  -6   4  10    1.26    0.19
  -6   4  10    1.45    0.19
  -5  -4  10    2.33    0.19
  -5  -4  10    1.68    0.22
  -5   4  10    2.00    0.21
  -5   4  10    2.43    0.26
  -5   4  10    2.43    0.21
  -4  -4  10    0.38    0.09
  -4  -4  10    0.41    0.11
  -4   4  10    0.18    0.09
  -4   4  10    0.33    0.09
  -4   4  10    0.28    0.10
  -3  -4  10    0.38    0.08
  -3  -4  10    0.24    0.09
  -3   4  10    0.51    0.12
  -3   4  10    0.34    0.09
  -3   4  10    0.42    0.10
  -2  -4  10    1.12    0.17
  -2  -4  10    1.56    0.15
  -2   4  10    1.24    0.17
  -2   4  10    1.50    0.18
  -2   4  10    1.71    0.18
   2   4 -10    1.03    0.17
  -1  -4  10    0.11    0.08
  -1  -4  10    0.18    0.06
  -1   4  10    0.19    0.07
   1   4 -10    0.12    0.08
  -1   4  10    0.20    0.08
  -1   4  10    0.18    0.07
   0  -4  10    0.29    0.09
   0  -4  10    0.29    0.07
   0   4  10    0.42    0.08
   0   4 -10    0.17    0.09
   0   4  10    0.22    0.08
   0   4  10    0.17    0.07
   0   4 -10    0.29    0.10
   0   4  10    0.26    0.09
   1  -4  10    7.53    0.30
   1  -4  10    7.68    0.39
   1   4  10    7.30    0.37
   1   4  10    7.41    0.33
   1   4  10    8.28    0.32
  -1   4 -10    7.44    0.40
  -1   4 -10    7.15    0.38
   1   4  10    7.74    0.38
   2  -4  10    4.39    0.22
   2  -4  10    4.28    0.29
   2   4  10    4.72    0.25
   2   4  10    4.65    0.22
   2   4  10    4.55    0.29
  -2   4 -10    4.62    0.30
  -2   4 -10    4.31    0.27
   2   4  10    4.70    0.29
   3  -4  10    0.04    0.06
  -3   4 -10    0.04    0.06
   3   4  10    0.01    0.04
   3   4  10   -0.02    0.05
   3   4  10    0.13    0.07
   3   4  10    0.08    0.07
  -3   4 -10    0.04    0.07
   4   4  10   10.32    0.49
   4   4  10   11.67    0.39
  -4   4 -10    9.50    0.48
   4   4  10   10.95    0.50
  -5   4 -10   18.30    0.72
   5   4  10   19.09    0.74
   5   4  10   18.11    0.72
  -6   4 -10    2.48    0.27
   6   4  10    1.97    0.25
   6   4  10    1.52    0.21
  -7   4 -10   10.95    0.52
   7   4  10   10.71    0.53
   7   4  10   10.00    0.53
  -8   4 -10    0.08    0.09
   8   4  10   -0.02    0.11
  -9  -5  10    4.39    0.36
   9   5 -10    3.88    0.66
  -9   5  10    4.99    0.38
  -8  -5  10    0.13    0.11
  -8   5  10    0.02    0.09
  -8   5  10    0.18    0.12
   8   5 -10    0.20    0.14
  -7  -5  10    4.92    0.36
  -7   5  10    5.67    0.36
  -7   5  10    5.79    0.35
  -7   5  10    5.78    0.39
   7   5 -10    5.49    0.42
  -6  -5  10    3.46    0.29
   6   5 -10    3.38    0.32
  -6   5  10    3.57    0.33
  -6   5  10    3.12    0.25
  -6   5  10    3.81    0.28
  -5  -5  10    1.14    0.19
  -5   5  10    1.19    0.17
  -5   5  10    1.27    0.18
   5   5 -10    1.03    0.20
  -5   5  10    0.84    0.16
  -4  -5  10    4.43    0.30
  -4   5  10    4.36    0.28
  -4   5  10    4.10    0.30
  -4   5  10    4.22    0.27
   4   5 -10    4.34    0.34
  -3  -5  10    0.77    0.15
  -3   5  10    0.82    0.15
  -3   5  10    0.58    0.13
  -3   5  10    0.45    0.10
   3   5 -10    0.64    0.16
  -2  -5  10    0.28    0.10
   2   5 -10    0.27    0.12
  -2   5  10    0.28    0.09
   2   5 -10    0.48    0.14
  -2   5  10    0.43    0.11
  -2   5  10    0.46    0.11
  -2   5  10    0.40    0.09
  -1  -5  10    1.42    0.19
   1   5 -10    1.65    0.22
  -1   5  10    1.73    0.21
   1   5 -10    1.67    0.23
  -1   5  10    1.86    0.21
  -1   5  10    1.70    0.15
   0  -5  10    2.86    0.23
   0   5  10    2.92    0.23
   0   5  10    3.20    0.20
   0   5 -10    3.06    0.31
   0   5  10    2.80    0.22
   0   5 -10    2.57    0.25
   1  -5  10   15.53    0.62
   1   5  10   14.57    0.61
  -1   5 -10   14.75    0.64
   1   5  10   16.38    0.56
  -1   5 -10   15.80    0.66
   1   5  10   15.40    0.62
   2  -5  10    0.27    0.10
   2   5  10    0.20    0.09
   2   5  10    0.41    0.09
  -2   5 -10   -0.08    0.06
   2   5  10    0.54    0.13
  -2   5 -10    0.22    0.09
   3  -5  10   11.74    0.54
   3   5  10   12.10    0.53
  -3   5 -10   11.67    0.55
   3   5  10   11.55    0.54
   3   5  10   11.82    0.45
   4   5  10    5.29    0.33
   4   5  10    5.16    0.35
  -4   5 -10    5.44    0.35
   4   5  10    5.21    0.26
  -5   5 -10    9.57    0.49
   5   5  10   10.41    0.50
   5   5  10    9.97    0.51
   6   5  10    5.84    0.39
   6   5  10    6.08    0.39
  -6   5 -10    6.03    0.39
  -7   5 -10    6.97    0.43
   7   5  10    7.44    0.45
   7   5  10    6.57    0.42
  -8   6  10   -0.05    0.11
   7   6 -10    0.36    0.17
  -7   6  10    0.39    0.13
  -7   6  10    0.47    0.15
  -6  -6  10    0.29    0.12
   6   6 -10    0.12    0.12
  -6   6  10    0.15    0.11
  -6   6  10    0.34    0.12
  -5  -6  10    0.36    0.13
   5   6 -10    0.25    0.13
  -5   6  10    0.32    0.12
  -5   6  10    0.14    0.10
  -4  -6  10    1.47    0.21
   4   6 -10    1.00    0.20
   4   6 -10    1.07    0.17
  -4   6  10    1.52    0.21
  -4   6  10    1.18    0.17
  -3  -6  10    0.33    0.12
  -3   6  10    0.43    0.13
  -3   6  10    0.46    0.10
   3   6 -10    0.52    0.16
  -3   6  10    0.33    0.11
  -2  -6  10    0.03    0.07
   2   6 -10    0.02    0.10
  -2   6  10    0.04    0.09
  -2   6  10    0.10    0.08
   2   6 -10    0.07    0.09
  -2   6  10    0.02    0.05
  -1  -6  10    0.63    0.14
   1   6 -10    0.57    0.15
  -1   6  10    0.41    0.12
  -1   6  10    0.60    0.11
  -1   6  10    0.42    0.12
   1   6 -10    0.31    0.13
   0  -6  10    3.51    0.27
   0   6 -10    4.05    0.32
   0   6  10    3.89    0.28
   0   6  10    4.13    0.25
   0   6  10    3.95    0.29
   0   6 -10    3.43    0.30
   1  -6  10    0.12    0.08
  -1   6 -10    0.05    0.08
   1   6  10    0.01    0.07
   1   6  10    0.01    0.06
  -1   6 -10    0.01    0.08
   1   6  10    0.03    0.08
   2  -6  10    0.02    0.07
  -2   6 -10   -0.03    0.08
   2   6  10    0.03    0.07
   2   6  10    0.09    0.09
  -2   6 -10    0.05    0.09
   2   6  10    0.05    0.07
   3  -6  10    0.08    0.08
   3   6  10   -0.05    0.05
   3   6  10   -0.11    0.07
  -3   6 -10   -0.02    0.08
   3   6  10    0.20    0.11
   4  -6  10    6.15    0.39
   4   6  10    6.54    0.39
   4   6  10    6.32    0.40
  -4   6 -10    5.48    0.38
   4   6  10    6.02    0.31
  -5   6 -10    0.23    0.12
   5   6  10    0.25    0.12
   5   6  10    0.40    0.15
  -6   6 -10    1.06    0.20
   6   6  10    1.31    0.21
   6   6  10    0.73    0.17
   7   7 -10    0.52    0.17
  -7   7  10    0.43    0.16
  -6   7  10    1.01    0.19
   6   7 -10    0.92    0.19
  -6   7  10    0.86    0.18
  -5   7  10   -0.09    0.08
   5   7 -10    0.17    0.11
  -5   7  10    0.08    0.10
   4   7 -10    0.20    0.13
  -4   7  10    0.43    0.12
  -4   7  10    0.32    0.10
  -4   7  10    0.19    0.12
  -3   7  10    5.94    0.33
  -3   7  10    5.86    0.36
   3   7 -10    5.22    0.42
  -3   7  10    5.29    0.35
  -2  -7  10   21.64    1.04
  -2   7  10   21.65    0.82
  -2   7  10   21.72    0.83
   2   7 -10   19.87    0.91
  -2   7  10   23.50    0.79
  -1  -7  10    9.19    0.47
  -1   7  10    9.73    0.50
   1   7 -10    9.16    0.55
  -1   7  10   10.95    0.46
   1   7 -10    8.83    0.54
  -1   7  10    9.97    0.49
   0  -7  10   30.59    1.05
   0   7  10   30.04    1.06
   0   7 -10   29.63    1.15
   0   7  10   31.02    1.09
   0   7 -10   30.14    1.15
   0   7  10   34.10    1.04
   1  -7  10    1.68    0.22
   1   7  10    1.31    0.21
  -1   7 -10    1.30    0.24
   1   7  10    1.60    0.19
   1   7  10    1.48    0.21
  -1   7 -10    1.18    0.21
   2  -7  10    6.89    0.41
   2   7  10    7.59    0.42
  -2   7 -10    7.20    0.44
   2   7  10    8.35    0.47
   2   7  10    7.97    0.39
  -2   7 -10    7.08    0.46
   3  -7  10    1.18    0.20
   3   7  10    1.02    0.18
  -3   7 -10    1.13    0.22
   3   7  10    1.03    0.16
   3   7  10    1.02    0.19
   4  -7  10    0.31    0.13
  -4   7 -10    0.44    0.15
   4   7  10    0.59    0.16
   4   7  10    0.48    0.17
   4   7  10    0.68    0.13
   5  -7  10    0.72    0.18
   5   7  10    0.79    0.19
  -4   8  10    2.74    0.33
  -3   8  10    5.20    0.36
  -3   8  10    5.74    0.39
   3   8 -10    4.53    0.42
  -2   8  10    0.97    0.17
   2   8 -10    0.62    0.20
  -2   8  10    1.03    0.20
   1   8 -10    0.19    0.14
  -1   8  10    0.04    0.09
   1   8 -10    0.00    0.11
  -1   8  10    0.11    0.10
   0   8  10    0.27    0.12
   0   8  10    0.04    0.08
   0   8 -10    0.22    0.13
   0   8 -10    0.24    0.14
  -1   8 -10    5.68    0.44
   1   8  10    6.05    0.41
  -1   8 -10    5.11    0.42
   1   8  10    5.80    0.35
   2   8  10    1.58    0.20
  -2   8 -10    1.14    0.24
   3   8  10    2.89    0.25
 -10   0  11   -0.11    0.10
  -9   0  11    0.03    0.09
  -9   0  11    0.04    0.09
  -8   0  11   -0.08    0.06
  -8   0  11   -0.04    0.08
  -7   0  11    5.60    0.35
  -7   0  11    6.00    0.39
  -6   0  11   -0.02    0.06
  -6   0  11    0.09    0.07
  -5   0  11    1.39    0.20
  -5   0  11    1.39    0.19
  -4   0  11    0.02    0.06
  -4   0  11   -0.02    0.06
  -3   0  11   25.72    0.87
  -3   0  11   26.12    0.90
  -2   0  11    0.00    0.05
  -2   0  11    0.02    0.04
  -2   0  11   -0.02    0.05
  -1   0  11    8.83    0.35
  -1   0  11    8.46    0.40
  -1   0  11    9.40    0.40
   0   0  11    0.00    0.03
   0   0  11   -0.02    0.04
   0   0  11    0.07    0.06
   0   0 -11   -0.07    0.04
   1   0  11    8.67    0.40
   1   0  11    7.76    0.32
   1   0  11    8.72    0.38
  -1   0 -11    8.42    0.38
   2   0  11    0.03    0.06
  -2   0 -11    0.02    0.05
   2   0  11    0.04    0.06
   2   0  11    0.03    0.04
  -3   0 -11    4.69    0.28
   3   0  11    4.38    0.21
   3   0  11    4.40    0.28
   3   0  11    4.24    0.26
  -4   0 -11   -0.03    0.05
   4   0  11    0.06    0.06
  -5   0 -11    0.07    0.07
   5   0  11    0.22    0.09
  -6   0 -11   -0.01    0.07
   6   0  11    0.19    0.10
  -7   0 -11   -0.05    0.07
   7   0  11   -0.03    0.06
   8   0  11    0.01    0.09
 -10  -1  11    0.48    0.19
 -10   1  11    0.99    0.25
  -9  -1  11    2.40    0.30
  -9   1  11    3.29    0.34
  -9   1  11    3.09    0.35
  -8  -1  11    0.34    0.14
  -8  -1  11    0.16    0.10
  -8   1  11    0.20    0.11
  -8   1  11    0.42    0.14
  -7  -1  11    4.20    0.32
  -7  -1  11    3.64    0.28
  -7   1  11    3.67    0.30
  -7   1  11    3.25    0.32
  -6  -1  11    1.07    0.17
  -6  -1  11    0.74    0.15
  -6   1  11    1.33    0.20
  -6   1  11    0.87    0.16
  -5  -1  11    4.74    0.30
  -5  -1  11    4.55    0.32
  -5   1  11    4.39    0.30
  -5   1  11    4.60    0.31
  -4  -1  11   22.44    0.77
  -4  -1  11   21.77    0.79
  -4   1  11   20.99    0.73
  -4   1  11   21.10    0.78
  -4   1  11   20.43    0.77
  -3  -1  11    3.28    0.23
  -3  -1  11    3.65    0.25
  -3   1  11    3.57    0.25
  -3   1  11    2.85    0.23
  -3   1  11    2.99    0.20
  -2  -1  11   28.28    0.94
  -2  -1  11   27.10    0.89
  -2   1  11   26.58    0.91
  -2   1  11   28.78    0.87
  -2   1  11   26.95    0.91
  -1  -1  11   19.59    0.69
  -1  -1  11   19.70    0.72
  -1   1  11   20.80    0.72
   1   1 -11   20.18    0.71
  -1   1  11   19.95    0.66
  -1   1  11   20.28    0.71
   0  -1  11    0.21    0.07
   0  -1  11    0.20    0.08
   0  -1  11    0.15    0.05
   0   1  11    0.15    0.06
   0   1 -11    0.21    0.08
   0   1  11    0.06    0.06
   0   1  11    0.04    0.06
   1  -1  11   39.26    1.10
   1  -1  11   39.66    1.24
   1  -1  11   39.58    1.19
   1   1  11   40.15    1.16
   1   1  11   41.47    1.22
   1   1  11   39.40    1.21
  -1   1 -11   37.93    1.21
   2  -1  11    5.60    0.32
   2  -1  11    5.68    0.29
   2  -1  11    5.09    0.22
   2   1  11    4.74    0.29
  -2   1 -11    5.47    0.31
   2   1  11    5.45    0.31
   2   1  11    5.84    0.27
   3  -1  11   14.68    0.59
   3  -1  11   13.40    0.53
   3   1  11   14.94    0.57
   3   1  11   14.43    0.50
   3   1  11   13.36    0.55
  -3   1 -11   13.79    0.56
   4  -1  11    0.43    0.11
  -4   1 -11    0.49    0.11
   4   1  11    0.79    0.14
   4   1  11    0.62    0.11
   4   1  11    0.72    0.14
   5  -1  11    0.02    0.06
  -5   1 -11    0.04    0.07
   5   1  11   -0.05    0.05
   5   1  11    0.01    0.05
   6  -1  11    0.20    0.09
   6   1  11    0.16    0.10
  -6   1 -11    0.18    0.10
   7  -1  11   17.63    0.70
   7   1  11   17.07    0.72
  -7   1 -11   17.43    0.70
   8  -1  11    0.78    0.18
   8   1  11    1.05    0.20
  -8   1 -11    1.08    0.19
  -9   1 -11   19.54    0.80
  -9  -2  11    0.01    0.10
  -9   2  11   -0.07    0.09
  -9   2  11   -0.07    0.08
  -8  -2  11    2.25    0.30
  -8   2  11    2.66    0.29
  -8   2  11    2.70    0.31
  -7  -2  11    0.15    0.11
  -7  -2  11    0.27    0.11
  -7   2  11    0.21    0.11
  -7   2  11    0.25    0.11
  -6  -2  11    0.04    0.08
  -6  -2  11    0.04    0.07
  -6   2  11    0.17    0.09
  -6   2  11    0.03    0.07
  -5  -2  11    0.05    0.08
  -5  -2  11    0.15    0.08
  -5   2  11    0.04    0.08
  -5   2  11    0.30    0.09
  -5   2  11    0.21    0.10
  -4  -2  11    0.09    0.08
  -4  -2  11    0.11    0.07
  -4   2  11    0.02    0.07
  -4   2  11    0.21    0.09
  -4   2  11    0.17    0.08
  -3  -2  11    0.09    0.07
  -3  -2  11    0.25    0.10
  -3   2  11    0.02    0.06
  -3   2  11    0.04    0.05
  -3   2  11    0.00    0.06
  -2  -2  11   22.02    0.75
  -2  -2  11   22.12    0.80
  -2   2  11   22.35    0.79
  -2   2  11   22.61    0.75
  -2   2  11   22.64    0.78
  -1  -2  11    0.20    0.09
  -1  -2  11    0.42    0.09
  -1   2  11    0.47    0.10
  -1   2  11    0.65    0.12
   1   2 -11    0.47    0.11
  -1   2  11    0.44    0.10
   0  -2  11    9.14    0.39
   0  -2  11    9.74    0.44
   0   2  11    9.22    0.39
   0   2 -11    9.21    0.43
   0   2  11    9.74    0.43
   0   2  11    9.36    0.41
   1  -2  11    0.05    0.06
   1  -2  11    0.05    0.05
   1   2  11    0.08    0.06
   1   2  11    0.09    0.07
   1   2  11    0.19    0.08
  -1   2 -11    0.12    0.07
   2  -2  11   14.38    0.54
   2  -2  11   14.34    0.59
   2   2  11   15.03    0.59
  -2   2 -11   15.12    0.60
   2   2  11   16.05    0.58
   2   2  11   15.02    0.55
   3  -2  11    4.77    0.27
   3  -2  11    5.47    0.32
   3   2  11    4.85    0.29
  -3   2 -11    5.10    0.31
   3   2  11    4.58    0.29
   3   2  11    4.83    0.27
   4  -2  11   17.65    0.62
   4   2  11   17.02    0.66
   4   2  11   17.08    0.62
  -4   2 -11   15.65    0.65
   4   2  11   17.00    0.64
   5  -2  11    0.61    0.13
  -5   2 -11    0.69    0.14
   5   2  11    0.47    0.13
   5   2  11    0.69    0.13
   6  -2  11    0.04    0.07
   6   2  11    0.12    0.09
  -6   2 -11   -0.04    0.07
   6   2  11    0.09    0.08
   7  -2  11    0.19    0.10
   7   2  11    0.16    0.10
  -7   2 -11    0.15    0.10
   8  -2  11    3.52    0.33
   8   2  11    3.50    0.35
  -8   2 -11    3.29    0.33
  -9  -3  11   21.22    0.88
  -9   3  11   20.82    0.87
  -9   3  11   20.69    0.88
  -8  -3  11    0.53    0.16
  -8   3  11    0.71    0.17
  -8   3  11    0.33    0.13
  -7  -3  11    7.04    0.42
  -7   3  11    6.15    0.39
  -7   3  11    6.65    0.41
  -6  -3  11    0.03    0.07
  -6  -3  11    0.08    0.08
  -6   3  11    0.04    0.08
  -6   3  11    0.06    0.08
  -5  -3  11    0.41    0.12
  -5  -3  11    0.58    0.12
  -5   3  11    0.32    0.10
  -5   3  11    0.24    0.10
  -5   3  11    0.41    0.12
  -4  -3  11   13.08    0.52
  -4  -3  11   12.84    0.57
  -4   3  11   12.91    0.55
  -4   3  11   13.56    0.58
  -4   3  11   13.72    0.54
  -3  -3  11    2.42    0.25
  -3  -3  11    1.87    0.19
  -3   3  11    2.41    0.25
  -3   3  11    2.09    0.18
  -3   3  11    2.31    0.23
  -2  -3  11   18.95    0.72
  -2  -3  11   19.38    0.65
  -2   3  11   18.67    0.71
  -2   3  11   19.18    0.69
  -2   3  11   19.20    0.68
  -1  -3  11    8.95    0.43
  -1  -3  11    9.99    0.39
   1   3 -11    8.64    0.45
  -1   3  11    9.20    0.41
  -1   3  11    9.94    0.45
  -1   3  11    9.10    0.41
   0  -3  11    0.17    0.08
   0  -3  11    0.12    0.06
   0   3  11    0.09    0.06
   0   3  11    0.17    0.07
   0   3 -11    0.09    0.08
   0   3  11    0.19    0.08
   1  -3  11    3.02    0.19
   1  -3  11    3.10    0.24
  -1   3 -11    3.22    0.25
   1   3  11    3.10    0.21
   1   3  11    3.03    0.23
   1   3  11    3.44    0.23
   2  -3  11    5.07    0.31
   2  -3  11    4.56    0.25
   2   3  11    5.34    0.31
   2   3  11    5.14    0.28
   2   3  11    5.29    0.29
  -2   3 -11    4.60    0.31
   3  -3  11    5.09    0.27
   3  -3  11    4.78    0.32
   3   3  11    4.47    0.28
   3   3  11    5.50    0.32
   3   3  11    5.10    0.28
  -3   3 -11    5.09    0.32
  -3   3 -11    4.92    0.29
   4  -3  11    0.38    0.09
   4   3  11    0.37    0.11
  -4   3 -11    0.61    0.14
   4   3  11    0.39    0.11
   4   3  11    0.33    0.10
   5  -3  11    7.73    0.37
   5   3  11    8.63    0.44
   5   3  11    8.15    0.40
   5   3  11    8.26    0.41
  -5   3 -11    7.74    0.42
   6  -3  11    2.94    0.23
   6   3  11    2.59    0.27
  -6   3 -11    2.49    0.27
   6   3  11    2.63    0.28
   7  -3  11    0.14    0.10
   7   3  11    0.10    0.11
  -7   3 -11    0.05    0.09
   7   3  11    0.11    0.10
  -8   3 -11    3.18    0.32
  -9  -4  11   -0.05    0.11
   9   4 -11    0.03    0.11
  -9   4  11    0.03    0.11
  -8  -4  11    0.09    0.11
  -8   4  11   -0.05    0.10
  -8   4  11    0.18    0.11
   8   4 -11    0.09    0.10
  -7  -4  11    4.63    0.35
  -7   4  11    4.95    0.34
  -7   4  11    4.05    0.33
  -6  -4  11    0.06    0.09
  -6   4  11    0.16    0.09
  -6   4  11    0.22    0.11
  -6   4  11    0.07    0.08
  -5  -4  11    0.06    0.08
  -5  -4  11    0.00    0.06
  -5   4  11    0.21    0.09
  -5   4  11    0.12    0.10
  -5   4  11    0.08    0.07
  -4  -4  11    0.79    0.16
  -4  -4  11    0.77    0.12
  -4   4  11    1.14    0.17
  -4   4  11    0.71    0.15
  -4   4  11    0.65    0.13
  -3  -4  11   18.31    0.63
  -3  -4  11   19.42    0.73
  -3   4  11   17.91    0.68
  -3   4  11   19.54    0.69
  -3   4  11   18.05    0.72
  -2  -4  11    5.90    0.29
  -2  -4  11    6.71    0.37
  -2   4  11    7.08    0.38
  -2   4  11    6.66    0.34
  -2   4  11    6.36    0.33
  -1  -4  11   11.49    0.44
  -1  -4  11   10.94    0.50
   1   4 -11   11.21    0.54
  -1   4  11   11.67    0.49
  -1   4  11   12.03    0.47
  -1   4  11   11.80    0.52
   0  -4  11    0.62    0.13
   0   4  11    0.49    0.10
   0   4 -11    0.34    0.11
   0   4 -11    0.85    0.17
   0   4  11    0.53    0.12
   0   4  11    0.44    0.11
   1  -4  11    1.09    0.17
   1   4  11    1.23    0.18
   1   4  11    0.96    0.15
   1   4  11    1.23    0.15
  -1   4 -11    0.83    0.15
  -1   4 -11    1.15    0.19
   2  -4  11   31.03    1.08
  -2   4 -11   31.95    1.05
   2   4  11   33.83    1.00
   2   4  11   31.74    1.05
  -2   4 -11   30.74    1.08
   2   4  11   32.27    1.07
   3  -4  11    4.38    0.31
  -3   4 -11    3.67    0.29
   3   4  11    4.67    0.30
   3   4  11    4.97    0.32
  -4   4 -11    9.41    0.49
   4   4  11    9.55    0.48
   4   4  11   10.07    0.48
   5   4  11   -0.02    0.07
  -5   4 -11    0.04    0.08
   5   4  11    0.05    0.09
  -6   4 -11    1.86    0.25
   6   4  11    1.66    0.23
   6   4  11    1.43    0.22
   7   4  11    0.20    0.12
   7   4  11    0.19    0.11
  -7   4 -11    0.04    0.09
  -9   5  11    0.92    0.30
  -8  -5  11    0.11    0.12
  -8   5  11    0.00    0.10
  -8   5  11    0.23    0.12
   8   5 -11    0.16    0.13
  -7  -5  11    0.01    0.10
  -7   5  11    0.01    0.09
  -7   5  11   -0.01    0.10
   7   5 -11   -0.09    0.08
  -6  -5  11    1.49    0.22
  -6   5  11    1.44    0.21
  -6   5  11    1.71    0.24
   6   5 -11    1.04    0.21
  -6   5  11    1.20    0.18
  -5  -5  11   11.29    0.55
   5   5 -11   11.40    0.61
  -5   5  11   11.72    0.56
  -5   5  11   11.67    0.52
  -5   5  11   10.93    0.51
  -4  -5  11   -0.03    0.07
  -4   5  11    0.05    0.07
  -4   5  11    0.06    0.07
   4   5 -11   -0.01    0.07
  -4   5  11    0.02    0.07
  -3  -5  11    5.80    0.37
  -3   5  11    6.76    0.47
  -3   5  11    6.59    0.37
   3   5 -11    7.02    0.44
  -3   5  11    6.53    0.38
  -2  -5  11    0.74    0.15
   2   5 -11    1.03    0.20
  -2   5  11    0.73    0.14
  -2   5  11    0.88    0.15
  -1  -5  11    1.40    0.19
  -1   5  11    1.46    0.19
  -1   5  11    1.61    0.21
   1   5 -11    1.47    0.21
  -1   5  11    2.25    0.17
   1   5 -11    1.67    0.24
   0  -5  11    1.29    0.18
   0   5  11    0.96    0.13
   0   5  11    0.84    0.16
   0   5  11    1.18    0.18
   0   5 -11    1.34    0.21
   0   5 -11    0.73    0.17
   1  -5  11    4.28    0.30
  -1   5 -11    3.89    0.31
   1   5  11    4.05    0.23
   1   5  11    3.88    0.28
   1   5  11    3.91    0.29
  -1   5 -11    4.02    0.30
   2  -5  11    3.29    0.27
   2   5  11    3.03    0.20
  -2   5 -11    2.73    0.30
   2   5  11    3.13    0.29
   2   5  11    2.95    0.29
  -2   5 -11    2.94    0.25
   3  -5  11   -0.09    0.07
   3   5  11    0.01    0.07
   3   5  11   -0.01    0.05
   3   5  11    0.07    0.08
  -3   5 -11   -0.08    0.07
   4  -5  11    1.44    0.22
   4   5  11    1.28    0.21
  -4   5 -11    1.47    0.22
   4   5  11    1.42    0.15
   4   5  11    1.19    0.20
   5   5  11    0.46    0.14
   5   5  11    0.67    0.16
  -5   5 -11    0.49    0.15
  -6   5 -11    4.69    0.36
   6   5  11    4.76    0.36
   6   5  11    3.97    0.33
   7   5  11    0.77    0.19
  -7   6  11    1.60    0.24
  -7   6  11    1.35    0.21
  -6  -6  11   10.65    0.55
  -6   6  11   10.66    0.53
  -6   6  11   11.20    0.57
   6   6 -11   10.88    0.64
  -5  -6  11    0.46    0.15
   5   6 -11    0.32    0.16
  -5   6  11    0.08    0.11
  -5   6  11    0.37    0.13
  -4  -6  11    9.52    0.49
  -4   6  11   10.42    0.50
   4   6 -11    9.37    0.57
  -4   6  11   11.12    0.54
  -3  -6  11    1.99    0.25
  -3   6  11    1.84    0.23
   3   6 -11    1.70    0.26
  -3   6  11    2.01    0.23
  -2  -6  11    0.36    0.13
   2   6 -11    0.45    0.15
  -2   6  11    0.49    0.14
  -2   6  11    0.51    0.15
  -2   6  11    0.52    0.11
  -1  -6  11    0.10    0.09
  -1   6  11    0.13    0.09
  -1   6  11    0.04    0.08
  -1   6  11    0.13    0.07
   1   6 -11    0.08    0.12
   1   6 -11   -0.02    0.09
   0  -6  11    0.07    0.09
   0   6  11    0.02    0.06
   0   6  11    0.13    0.09
   0   6  11    0.10    0.09
   0   6 -11    0.06    0.10
   0   6 -11    0.08    0.09
   1  -6  11    0.38    0.12
  -1   6 -11    0.44    0.13
   1   6  11    0.46    0.12
   1   6  11    0.32    0.11
   1   6  11    0.63    0.12
  -1   6 -11    0.45    0.15
   2  -6  11    1.02    0.19
   2   6  11    1.42    0.17
   2   6  11    1.21    0.20
  -2   6 -11    1.55    0.25
   2   6  11    1.67    0.24
  -2   6 -11    1.16    0.19
   3  -6  11    2.38    0.27
   3   6  11    2.76    0.30
  -3   6 -11    2.76    0.32
   3   6  11    2.48    0.28
   3   6  11    2.72    0.20
   4  -6  11    0.53    0.15
   4   6  11    0.36    0.13
  -4   6 -11    0.39    0.14
   4   6  11    0.52    0.16
   4   6  11    0.71    0.12
   5  -6  11    7.99    0.48
  -5   6 -11    7.73    0.48
   5   6  11    6.59    0.44
   5   6  11    7.96    0.47
  -6   7  11    0.89    0.20
  -5   7  11    4.95    0.37
   5   7 -11    5.08    0.78
  -5   7  11    5.15    0.35
  -4   7  11    4.41    0.32
  -4   7  11    5.08    0.36
   4   7 -11    4.34    0.40
  -3   7  11    2.39    0.28
   3   7 -11    2.35    0.34
  -3   7  11    2.45    0.27
  -3   7  11    2.46    0.22
  -2  -7  11   14.96    0.70
   2   7 -11   14.56    0.75
  -2   7  11   15.64    0.67
  -2   7  11   14.88    0.67
  -2   7  11   17.50    0.63
  -1  -7  11    1.91    0.24
   1   7 -11    2.64    0.34
  -1   7  11    2.72    0.22
  -1   7  11    2.77    0.30
  -1   7  11    3.00    0.30
   1   7 -11    2.38    0.46
   0  -7  11    2.32    0.27
   0   7 -11    2.50    0.32
   0   7  11    2.29    0.27
   0   7  11    2.49    0.22
   0   7 -11    2.06    0.29
   0   7  11    2.30    0.27
   1  -7  11    6.47    0.39
   1   7  11    6.32    0.39
  -1   7 -11    5.78    0.42
  -1   7 -11    6.53    0.45
   1   7  11    5.77    0.39
   1   7  11    7.00    0.36
   2  -7  11    2.89    0.31
   2   7  11    3.10    0.31
   2   7  11    2.92    0.23
  -2   7 -11    2.86    0.34
   2   7  11    2.33    0.29
   3  -7  11    4.02    0.33
   3   7  11    4.19    0.33
   3   7  11    4.07    0.27
   3   7  11    4.23    0.34
  -3   7 -11    4.39    0.38
   4  -7  11    3.05    0.33
  -4   7 -11    4.37    0.43
   4   7  11    3.76    0.45
   4   7  11    3.80    0.36
   2   8 -11    2.58    0.56
   1   8 -11    6.34    0.48
   0   8 -11   16.57    0.81
   0   8 -11   16.27    0.81
  -1   8 -11   15.04    0.75
  -1   8 -11   12.94    0.69
  -2   8 -11    9.38    0.81
  -9   0  12   -0.04    0.09
  -9   0  12    0.01    0.09
  -8   0  12   20.06    0.82
  -8   0  12   21.13    0.87
  -7   0  12    0.03    0.09
  -7   0  12    0.06    0.10
  -6   0  12   42.79    1.41
  -6   0  12   45.33    1.45
  -5   0  12    0.03    0.07
  -5   0  12   -0.09    0.05
  -4   0  12    2.12    0.24
  -4   0  12    1.57    0.20
  -3   0  12   -0.04    0.05
  -3   0  12   -0.03    0.06
  -2   0  12    4.17    0.23
  -2   0  12    4.34    0.29
  -2   0  12    4.30    0.27
  -1   0  12    0.01    0.05
  -1   0  12   -0.03    0.04
  -1   0  12   -0.03    0.05
   0   0  12   11.86    0.49
   0   0  12   11.88    0.51
   0   0  12   11.38    0.43
   1   0  12    0.02    0.06
   1   0  12   -0.09    0.04
   1   0  12    0.03    0.04
   2   0  12   19.80    0.65
   2   0  12   21.39    0.77
   2   0  12   21.25    0.74
   3   0  12   -0.02    0.06
   3   0  12    0.03    0.06
   3   0  12   -0.01    0.04
   4   0  12    3.19    0.25
   4   0  12    3.08    0.24
   5   0  12    0.09    0.08
   6   0  12   22.72    0.85
   7   0  12    0.10    0.09
   8   0  12   11.46    0.58
  -9  -1  12    1.61    0.25
  -9   1  12    1.72    0.27
  -9   1  12    1.36    0.23
  -8  -1  12    0.56    0.16
  -8  -1  12    0.40    0.13
  -8   1  12    0.65    0.16
  -8   1  12    0.58    0.16
  -7  -1  12    0.59    0.15
  -7  -1  12    0.78    0.16
  -7   1  12    0.55    0.14
  -7   1  12    0.43    0.14
  -6  -1  12    0.41    0.12
  -6  -1  12    0.50    0.15
  -6   1  12    0.69    0.16
  -6   1  12    0.55    0.13
  -5  -1  12    2.18    0.24
  -5  -1  12    1.92    0.25
  -5   1  12    2.62    0.28
  -5   1  12    2.41    0.26
  -4  -1  12    8.26    0.41
  -4  -1  12    8.24    0.44
  -4   1  12    8.59    0.43
  -4   1  12    8.74    0.45
  -3  -1  12    8.04    0.40
  -3  -1  12    8.29    0.42
  -3   1  12    7.50    0.41
  -3   1  12    8.31    0.41
  -3   1  12    8.29    0.37
  -2  -1  12    1.78    0.21
  -2  -1  12    1.88    0.20
  -2   1  12    2.06    0.16
  -2   1  12    1.72    0.20
  -2   1  12    2.02    0.23
  -1  -1  12    0.47    0.12
  -1  -1  12    0.51    0.11
  -1   1  12    0.43    0.11
  -1   1  12    0.37    0.09
  -1   1  12    0.40    0.11
   0  -1  12   16.14    0.59
   0  -1  12   15.75    0.63
   0  -1  12   15.73    0.52
   0   1  12   15.50    0.61
   0   1  12   15.83    0.61
   0   1  12   15.62    0.55
   1  -1  12   10.14    0.46
   1  -1  12    9.83    0.43
   1  -1  12    9.73    0.35
   1   1  12    9.60    0.44
  -1   1 -12    9.48    0.45
   1   1  12    9.59    0.39
   1   1  12    9.13    0.43
   2  -1  12    0.94    0.15
   2  -1  12    1.08    0.16
  -2   1 -12    0.86    0.15
   2   1  12    0.92    0.15
   2   1  12    1.12    0.14
   2   1  12    1.13    0.16
   3  -1  12    0.25    0.08
   3  -1  12    0.18    0.09
  -3   1 -12    0.19    0.10
   3   1  12    0.27    0.09
   3   1  12    0.33    0.10
   3   1  12    0.31    0.08
   4  -1  12   -0.03    0.06
   4  -1  12    0.10    0.08
   4   1  12    0.21    0.10
   4   1  12    0.08    0.06
  -4   1 -12    0.04    0.07
   4   1  12    0.11    0.09
   5  -1  12    2.59    0.25
  -5   1 -12    2.71    0.28
   5   1  12    2.46    0.27
   5   1  12    2.46    0.26
   6  -1  12   -0.02    0.08
  -6   1 -12    0.18    0.11
   6   1  12    0.02    0.08
   7  -1  12    0.39    0.13
  -7   1 -12    0.35    0.13
   7   1  12    0.29    0.13
   8  -1  12    1.33    0.21
  -9  -2  12    1.41    0.25
  -9   2  12    1.37    0.24
  -9   2  12    1.43    0.25
  -8  -2  12    2.13    0.27
  -8  -2  12    2.47    0.31
  -8   2  12    1.93    0.27
  -8   2  12    1.66    0.25
  -7  -2  12    0.63    0.15
  -7  -2  12    0.72    0.17
  -7   2  12    0.72    0.17
  -7   2  12    0.68    0.17
  -6  -2  12    0.77    0.17
  -6  -2  12    1.00    0.17
  -6   2  12    0.50    0.13
  -6   2  12    0.78    0.16
  -5  -2  12    1.44    0.19
  -5  -2  12    1.57    0.23
  -5   2  12    1.65    0.22
  -5   2  12    1.31    0.17
  -5   2  12    1.82    0.23
  -4  -2  12    0.90    0.15
  -4  -2  12    1.01    0.18
  -4   2  12    0.96    0.17
  -4   2  12    1.15    0.19
  -4   2  12    0.93    0.15
  -3  -2  12   15.05    0.63
  -3  -2  12   14.53    0.57
  -3   2  12   13.93    0.60
  -3   2  12   14.47    0.56
  -3   2  12   15.30    0.61
  -2  -2  12    9.69    0.46
  -2  -2  12    8.42    0.40
  -2   2  12    9.58    0.41
  -2   2  12    9.13    0.43
  -2   2  12    8.91    0.44
  -1  -2  12   54.37    1.56
  -1  -2  12   52.81    1.62
  -1   2  12   54.77    1.60
  -1   2  12   51.41    1.60
  -1   2  12   53.76    1.55
   0  -2  12    0.05    0.06
   0  -2  12    0.07    0.07
   0   2  12    0.12    0.06
   0   2  12   -0.02    0.05
   0   2 -12    0.14    0.09
   0   2  12    0.08    0.07
   1  -2  12    0.22    0.08
   1  -2  12    0.19    0.09
  -1   2 -12    0.18    0.09
   1   2  12    0.18    0.08
   1   2  12    0.25    0.08
   1   2  12    0.22    0.09
   2  -2  12    6.58    0.37
   2  -2  12    6.18    0.32
   2   2  12    6.07    0.31
   2   2  12    6.03    0.34
  -2   2 -12    5.82    0.35
   2   2  12    6.44    0.34
   3  -2  12   34.83    1.15
   3  -2  12   33.89    1.06
  -3   2 -12   33.19    1.12
   3   2  12   33.30    1.12
   3   2  12   34.19    1.10
   3   2  12   33.00    1.05
   4  -2  12    0.27    0.11
   4  -2  12    0.18    0.09
   4   2  12    0.15    0.08
   4   2  12    0.14    0.08
  -4   2 -12    0.07    0.08
   4   2  12    0.05    0.07
   5  -2  12   17.11    0.65
   5   2  12   16.98    0.68
  -5   2 -12   16.60    0.69
   5   2  12   16.52    0.68
   5   2  12   16.95    0.63
   6  -2  12    1.44    0.20
   6   2  12    1.66    0.23
  -6   2 -12    1.80    0.24
   7  -2  12    1.11    0.19
  -7   2 -12    1.50    0.22
   7   2  12    1.21    0.21
   8  -2  12    2.35    0.27
  -8   2 -12    2.43    0.29
  -9  -3  12    3.77    0.39
  -9   3  12    4.10    0.41
  -8  -3  12    0.55    0.17
  -8   3  12    0.58    0.16
  -8   3  12    0.58    0.17
  -7  -3  12    1.94    0.27
  -7  -3  12    1.93    0.25
  -7   3  12    2.08    0.28
  -7   3  12    2.18    0.28
  -6  -3  12    0.20    0.11
  -6  -3  12    0.52    0.12
  -6   3  12    0.22    0.10
  -6   3  12    0.41    0.12
  -5  -3  12    0.38    0.14
  -5  -3  12    0.44    0.12
  -5   3  12    0.79    0.16
  -5   3  12    0.71    0.14
  -5   3  12    0.26    0.10
  -4  -3  12    1.60    0.22
  -4  -3  12    1.90    0.21
  -4   3  12    1.95    0.23
  -4   3  12    1.88    0.21
  -4   3  12    1.68    0.22
  -3  -3  12    9.45    0.48
  -3  -3  12    9.51    0.43
  -3   3  12   10.33    0.49
  -3   3  12    9.66    0.44
  -3   3  12   10.15    0.47
  -2  -3  12    0.43    0.10
  -2  -3  12    0.46    0.12
  -2   3  12    0.60    0.12
  -2   3  12    0.33    0.10
  -2   3  12    0.39    0.10
  -1  -3  12    0.02    0.05
  -1  -3  12    0.01    0.06
  -1   3  12    0.08    0.07
  -1   3  12    0.10    0.07
  -1   3  12   -0.08    0.05
   0  -3  12    4.66    0.31
   0  -3  12    4.78    0.26
   0   3  12    4.30    0.27
   0   3  12    4.63    0.28
   0   3 -12    4.44    0.32
   0   3  12    4.51    0.29
   1  -3  12    6.72    0.33
   1  -3  12    6.74    0.38
   1   3  12    7.31    0.39
   1   3  12    7.37    0.36
  -1   3 -12    6.80    0.40
   1   3  12    7.02    0.35
   2  -3  12    8.40    0.44
   2  -3  12    7.67    0.36
  -2   3 -12    7.88    0.43
   2   3  12    7.76    0.41
   2   3  12    8.06    0.39
   2   3  12    7.91    0.38
   3  -3  12    0.03    0.06
   3  -3  12    0.12    0.09
   3   3  12    0.14    0.08
   3   3  12    0.16    0.08
   3   3  12    0.28    0.11
  -3   3 -12    0.06    0.07
   4  -3  12    2.52    0.28
   4  -3  12    2.29    0.22
   4   3  12    2.19    0.26
   4   3  12    2.28    0.23
   4   3  12    2.13    0.23
  -4   3 -12    1.96    0.25
   5  -3  12    0.06    0.07
  -5   3 -12    0.13    0.10
   5   3  12    0.24    0.11
   5   3  12    0.05    0.08
   5   3  12    0.15    0.09
   6   3  12    0.23    0.11
  -6   3 -12    0.17    0.11
   6   3  12    0.24    0.10
  -7   3 -12    1.70    0.25
   7   3  12    1.99    0.31
  -8  -4  12    1.00    0.22
  -8   4  12    1.24    0.22
  -8   4  12    1.00    0.20
  -7  -4  12    0.53    0.15
  -7   4  12    0.80    0.18
  -7   4  12    0.48    0.15
  -6  -4  12    0.28    0.12
  -6   4  12    0.34    0.12
  -6   4  12    0.28    0.12
  -6   4  12    0.48    0.13
  -5  -4  12    2.88    0.32
  -5   4  12    2.54    0.26
  -5   4  12    3.11    0.30
  -5   4  12    2.82    0.31
  -4  -4  12    0.36    0.12
  -4   4  12    0.55    0.13
  -4   4  12    0.38    0.11
  -4   4  12    0.24    0.12
  -3  -4  12    0.01    0.06
  -3   4  12    0.01    0.06
  -3   4  12    0.05    0.08
  -3   4  12    0.09    0.08
  -2  -4  12    0.74    0.16
  -2   4  12    0.74    0.14
  -2   4  12    1.03    0.17
  -2   4  12    1.28    0.17
  -1  -4  12    6.47    0.38
  -1   4  12    6.67    0.36
  -1   4  12    6.68    0.34
  -1   4  12    6.62    0.38
   0  -4  12    0.03    0.07
   0   4 -12   -0.05    0.07
   0   4  12   -0.03    0.05
   0   4  12   -0.01    0.06
   0   4  12   -0.02    0.07
   1  -4  12   -0.04    0.07
   1   4  12   -0.02    0.06
   1   4  12   -0.04    0.06
   1   4  12   -0.02    0.06
  -1   4 -12    0.08    0.08
  -1   4 -12    0.08    0.09
   2  -4  12    5.50    0.36
  -2   4 -12    5.58    0.33
  -2   4 -12    5.49    0.37
   2   4  12    5.72    0.33
   2   4  12    5.33    0.34
   3  -4  12    5.46    0.35
  -3   4 -12    5.08    0.35
   3   4  12    4.91    0.34
   3   4  12    4.87    0.32
   4  -4  12    8.51    0.47
   4   4  12    7.78    0.44
   4   4  12    7.73    0.42
  -4   4 -12    7.57    0.45
  -5   4 -12    1.34    0.21
   5   4  12    1.30    0.20
   5   4  12    1.40    0.21
   6   4  12    1.64    0.23
  -6   4 -12    1.50    0.23
   6   4  12    1.21    0.21
  -7   4 -12    0.01    0.11
  -8  -5  12    2.50    0.32
  -8   5  12    2.51    0.31
  -7  -5  12   17.02    0.76
  -7   5  12   17.66    0.75
  -7   5  12   16.82    0.76
   7   5 -12   16.95    0.82
  -6  -5  12    6.84    0.43
  -6   5  12    7.15    0.41
  -6   5  12    5.98    0.40
  -6   5  12    6.25    0.42
   6   5 -12    6.87    0.48
  -5  -5  12    8.02    0.47
  -5   5  12    8.15    0.43
  -5   5  12    7.53    0.46
   5   5 -12    8.33    0.52
  -4  -5  12    1.82    0.25
  -4   5  12    2.30    0.26
   4   5 -12    2.09    0.29
  -4   5  12    1.68    0.23
  -3  -5  12    8.76    0.48
  -3   5  12    9.48    0.46
  -3   5  12    8.83    0.48
   3   5 -12    9.87    0.54
  -2  -5  12   -0.03    0.07
  -2   5  12   -0.02    0.07
  -2   5  12   -0.02    0.06
   2   5 -12    0.16    0.10
  -1  -5  12    8.43    0.45
  -1   5  12    8.43    0.45
   1   5 -12    8.35    0.48
  -1   5  12    8.30    0.43
   0  -5  12    0.11    0.08
   0   5 -12    0.07    0.11
   0   5  12    0.11    0.09
   0   5 -12    0.02    0.08
   0   5  12    0.20    0.09
   1  -5  12    4.38    0.32
  -1   5 -12    4.16    0.34
   1   5  12    4.07    0.29
  -1   5 -12    3.52    0.29
   1   5  12    4.43    0.31
   2  -5  12    0.95    0.18
   2   5  12    0.89    0.16
  -2   5 -12    1.18    0.21
  -2   5 -12    0.81    0.19
   2   5  12    1.20    0.20
   3  -5  12    0.36    0.12
   3   5  12    0.67    0.16
   3   5  12    0.62    0.14
  -3   5 -12    0.45    0.15
   4  -5  12    8.23    0.48
   4   5  12    8.46    0.47
  -4   5 -12    8.87    0.50
   4   5  12    8.97    0.48
   5  -5  12    4.30    0.36
   5   5  12    5.56    0.37
   5   5  12    5.11    0.37
  -5   5 -12    5.02    0.38
   6   5  12    3.78    0.32
  -6   5 -12    2.75    0.32
  -6  -6  12    1.72    0.26
  -6   6  12    1.39    0.24
  -6   6  12    2.08    0.28
  -5  -6  12    0.30    0.13
  -5   6  12    0.41    0.15
  -5   6  12    0.46    0.14
   5   6 -12    0.17    0.13
  -4  -6  12    3.58    0.35
  -4   6  12    3.30    0.32
  -4   6  12    2.99    0.32
   4   6 -12    2.88    0.36
  -3  -6  12    0.12    0.10
  -3   6  12    0.16    0.09
   3   6 -12    0.06    0.11
  -3   6  12    0.03    0.09
  -2  -6  12    0.78    0.17
  -2   6  12    0.96    0.19
  -2   6  12    0.64    0.15
   2   6 -12    0.59    0.16
  -1  -6  12    0.05    0.09
   1   6 -12   -0.05    0.09
  -1   6  12   -0.02    0.08
  -1   6  12   -0.06    0.06
   0  -6  12    0.09    0.09
   0   6  12    0.25    0.09
   0   6 -12    0.20    0.12
   0   6  12    0.15    0.10
   0   6  12    0.14    0.10
   0   6 -12    0.14    0.14
   1  -6  12    0.07    0.09
   1   6  12    0.11    0.09
  -1   6 -12    0.13    0.10
   1   6  12    0.19    0.08
  -1   6 -12    0.16    0.13
   1   6  12    0.09    0.08
   2  -6  12   -0.07    0.08
   2   6  12    0.01    0.09
   2   6  12    0.13    0.11
   2   6  12   -0.08    0.05
  -2   6 -12   -0.01    0.10
   3  -6  12    0.26    0.12
   3   6  12    0.14    0.08
  -3   6 -12    0.22    0.12
   3   6  12    0.13    0.11
   3   6  12    0.17    0.12
   4  -6  12    0.21    0.13
  -4   6 -12    0.17    0.13
   4   6  12   -0.07    0.09
   4   6  12    0.16    0.12
  -5   6 -12    0.01    0.12
  -5   7  12    0.22    0.14
  -4   7  12    2.00    0.27
  -3   7  12    1.82    0.25
   3   7 -12    1.59    0.28
  -3   7  12    1.76    0.26
  -2  -7  12    3.34    0.36
   2   7 -12    2.47    0.34
  -2   7  12    3.05    0.31
  -2   7  12    2.94    0.32
  -1  -7  12    2.93    0.31
  -1   7  12    2.26    0.28
  -1   7  12    2.93    0.24
  -1   7  12    2.59    0.30
   1   7 -12    2.82    0.37
   0  -7  12    0.36    0.14
   0   7  12    0.33    0.13
   0   7 -12    0.18    0.14
   0   7  12    0.44    0.12
   0   7  12    0.43    0.13
   1  -7  12    1.31    0.22
   1   7  12    1.56    0.24
  -1   7 -12    1.38    0.27
   1   7  12    1.26    0.22
  -1   7 -12    1.40    0.26
   1   7  12    1.50    0.19
   2  -7  12    1.64    0.25
  -2   7 -12    1.90    0.30
   2   7  12    1.69    0.20
   2   7  12    1.53    0.24
   3  -7  12    1.97    0.28
  -3   7 -12    1.99    0.30
   3   7  12    1.79    0.20
   3   7  12    2.16    0.28
  -1   8 -12    1.70    0.47
  -9   0  13    1.66    0.27
  -8   0  13    0.01    0.09
  -8   0  13   -0.08    0.08
  -7   0  13    3.25    0.35
  -7   0  13    3.86    0.36
  -6   0  13   -0.01    0.09
  -6   0  13   -0.09    0.07
  -5   0  13    2.00    0.25
  -5   0  13    2.40    0.28
  -4   0  13   -0.08    0.06
  -4   0  13    0.05    0.07
  -3   0  13    0.87    0.16
  -3   0  13    0.77    0.15
  -2   0  13    0.00    0.04
  -2   0  13   -0.04    0.06
  -2   0  13    0.04    0.07
  -1   0  13   38.09    1.20
  -1   0  13   37.25    1.22
  -1   0  13   37.16    1.12
   0   0  13   -0.01    0.05
   0   0  13   -0.06    0.06
   0   0  13    0.06    0.04
   1   0  13   36.85    1.07
   1   0  13   34.94    1.18
   1   0  13   37.00    1.17
   2   0  13   -0.06    0.06
   2   0  13   -0.06    0.07
   2   0  13   -0.04    0.03
   3   0  13    1.40    0.20
   3   0  13    1.22    0.19
   4   0  13   -0.02    0.07
   4   0  13   -0.07    0.05
   5   0  13    9.61    0.48
   5   0  13    9.48    0.50
   6   0  13    0.03    0.08
   7   0  13   -0.06    0.09
  -9  -1  13   23.03    0.93
  -8  -1  13    0.34    0.14
  -8  -1  13    0.49    0.17
  -8   1  13    0.38    0.15
  -8   1  13    0.37    0.13
  -7  -1  13   13.39    0.61
  -7  -1  13   12.83    0.63
  -7   1  13   11.67    0.61
  -7   1  13   12.20    0.61
  -6  -1  13    0.05    0.09
  -6  -1  13    0.02    0.08
  -6   1  13    0.10    0.09
  -6   1  13    0.12    0.09
  -5  -1  13   -0.01    0.07
  -5  -1  13    0.14    0.10
  -5   1  13    0.10    0.09
  -5   1  13   -0.04    0.07
  -4  -1  13    3.88    0.30
  -4  -1  13    4.59    0.30
  -4   1  13    4.52    0.32
  -4   1  13    4.63    0.32
  -3  -1  13   14.33    0.59
  -3  -1  13   13.56    0.61
  -3   1  13   14.51    0.62
  -3   1  13   13.70    0.54
  -3   1  13   14.27    0.60
  -2  -1  13    3.82    0.26
  -2  -1  13    3.71    0.29
  -2   1  13    3.66    0.28
  -2   1  13    4.02    0.24
  -2   1  13    4.01    0.28
  -1  -1  13   12.48    0.56
  -1  -1  13   12.39    0.53
  -1   1  13   13.63    0.56
  -1   1  13   13.17    0.50
  -1   1  13   12.98    0.56
   0  -1  13   -0.02    0.06
   0  -1  13    0.02    0.06
   0   1  13    0.22    0.07
   0   1  13    0.08    0.07
   0   1  13   -0.06    0.06
   1  -1  13    4.10    0.29
   1  -1  13    3.25    0.24
   1   1  13    3.72    0.27
   1   1  13    3.89    0.23
   1   1  13    3.54    0.27
   2  -1  13    0.60    0.12
   2  -1  13    1.25    0.19
   2   1  13    0.93    0.16
   2   1  13    0.78    0.12
   2   1  13    0.94    0.16
   3  -1  13    2.03    0.25
   3  -1  13    2.14    0.23
   3   1  13    1.98    0.24
   3   1  13    1.95    0.22
   3   1  13    2.31    0.18
   4  -1  13    8.69    0.43
   4  -1  13    8.95    0.48
   4   1  13    8.37    0.44
   4   1  13    8.39    0.45
   5  -1  13   15.92    0.72
   5  -1  13   17.29    0.69
   5   1  13   18.26    0.72
   5   1  13   16.81    0.71
   6  -1  13    6.84    0.40
   6   1  13    7.07    0.41
   6   1  13    6.79    0.42
   7  -1  13   16.41    0.72
   7   1  13   18.50    0.78
  -8  -2  13    0.89    0.18
  -8  -2  13    0.40    0.17
  -8   2  13    0.77    0.19
  -8   2  13    0.63    0.18
  -7  -2  13    0.11    0.09
  -7  -2  13   -0.01    0.09
  -7   2  13    0.09    0.09
  -7   2  13    0.04    0.10
  -6  -2  13    5.86    0.40
  -6  -2  13    6.42    0.39
  -6   2  13    7.55    0.44
  -6   2  13    6.60    0.41
  -5  -2  13   -0.08    0.06
  -5  -2  13    0.04    0.09
  -5   2  13    0.07    0.09
  -5   2  13    0.01    0.08
  -4  -2  13    8.61    0.43
  -4  -2  13    8.77    0.48
  -4   2  13    8.46    0.46
  -4   2  13    9.31    0.48
  -4   2  13    8.74    0.42
  -3  -2  13   -0.01    0.08
  -3  -2  13    0.05    0.06
  -3   2  13   -0.01    0.07
  -3   2  13    0.03    0.06
  -3   2  13    0.06    0.08
  -2  -2  13    1.47    0.21
  -2  -2  13    1.17    0.16
  -2   2  13    1.31    0.17
  -2   2  13    1.52    0.21
  -2   2  13    1.09    0.18
  -1  -2  13    1.01    0.17
  -1  -2  13    1.17    0.16
  -1   2  13    1.44    0.19
  -1   2  13    1.46    0.17
  -1   2  13    1.39    0.20
   0  -2  13    7.65    0.38
   0  -2  13    8.45    0.44
   0   2  13    8.28    0.42
   0   2  13    8.34    0.43
   0   2  13    8.70    0.39
   1  -2  13    3.73    0.25
   1  -2  13    3.66    0.29
   1   2  13    4.27    0.26
   1   2  13    4.20    0.28
   1   2  13    4.24    0.29
   2  -2  13    0.10    0.09
   2  -2  13    0.01    0.06
   2   2  13    0.02    0.07
   2   2  13   -0.01    0.05
   2   2  13    0.04    0.08
   3  -2  13    0.54    0.15
   3  -2  13    0.36    0.10
   3   2  13    0.26    0.11
   3   2  13    0.35    0.10
   3   2  13    0.37    0.11
   4  -2  13    1.75    0.24
   4  -2  13    1.92    0.23
   4   2  13    1.79    0.20
   4   2  13    1.93    0.23
   4   2  13    2.19    0.26
  -4   2 -13    1.70    0.25
   5  -2  13    2.37    0.25
   5  -2  13    2.29    0.28
   5   2  13    1.91    0.24
   5   2  13    1.82    0.24
  -5   2 -13    2.58    0.31
   6  -2  13   -0.03    0.08
   6   2  13   -0.03    0.08
   6   2  13   -0.09    0.08
  -6   2 -13    0.08    0.18
   7  -2  13    1.01    0.19
   7   2  13    0.70    0.17
  -8  -3  13    0.41    0.17
  -8   3  13    0.36    0.15
  -8   3  13    0.42    0.15
  -7  -3  13    0.78    0.16
  -7  -3  13    0.57    0.17
  -7   3  13    1.04    0.20
  -7   3  13    0.98    0.20
  -6  -3  13    0.80    0.16
  -6  -3  13    0.75    0.18
  -6   3  13    0.61    0.16
  -6   3  13    0.71    0.17
  -5  -3  13    0.05    0.09
  -5  -3  13   -0.04    0.06
  -5   3  13    0.13    0.09
  -5   3  13    0.05    0.08
  -5   3  13    0.06    0.09
  -4  -3  13    3.59    0.26
  -4  -3  13    3.82    0.31
  -4   3  13    4.33    0.29
  -4   3  13    4.06    0.31
  -4   3  13    4.03    0.30
  -3  -3  13    0.20    0.09
  -3  -3  13    0.16    0.09
  -3   3  13    0.17    0.09
  -3   3  13    0.09    0.07
  -3   3  13    0.07    0.09
  -2  -3  13    9.15    0.47
  -2  -3  13    9.11    0.42
  -2   3  13    9.13    0.45
  -2   3  13    8.85    0.42
  -2   3  13    9.11    0.47
  -1  -3  13    0.01    0.06
  -1  -3  13   -0.13    0.06
  -1   3  13    0.09    0.06
  -1   3  13    0.03    0.08
  -1   3  13   -0.02    0.07
   0  -3  13    1.44    0.20
   0  -3  13    1.81    0.19
   0   3  13    1.78    0.23
   0   3  13    1.95    0.22
   0   3  13    1.94    0.21
   1  -3  13    0.20    0.08
   1  -3  13    0.45    0.13
   1   3  13    0.26    0.12
   1   3  13    0.17    0.09
   1   3  13    0.40    0.11
   2  -3  13    9.09    0.48
   2  -3  13    9.02    0.41
  -2   3 -13    8.37    0.48
   2   3  13    9.29    0.43
   2   3  13    9.43    0.47
   2   3  13    8.64    0.43
   3  -3  13    1.68    0.24
   3  -3  13    1.72    0.19
  -3   3 -13    1.72    0.25
   3   3  13    1.70    0.21
   3   3  13    1.63    0.21
   3   3  13    1.47    0.21
   4  -3  13    1.31    0.24
   4  -3  13    1.44    0.22
  -4   3 -13    0.99    0.19
   4   3  13    1.07    0.17
   4   3  13    1.10    0.20
   4   3  13    1.23    0.19
   5  -3  13    1.69    0.25
  -5   3 -13    1.73    0.25
   5   3  13    1.54    0.23
   5   3  13    1.97    0.23
   6   3  13    0.62    0.15
  -6   3 -13    0.39    0.15
  -7   3 -13    3.61    0.37
  -8   4  13   15.29    0.72
  -7  -4  13    0.17    0.13
  -7   4  13    0.01    0.10
  -7   4  13    0.06    0.11
  -6  -4  13    2.24    0.29
  -6   4  13    2.58    0.31
  -6   4  13    3.14    0.26
  -6   4  13    2.45    0.28
  -5  -4  13    0.11    0.11
  -5   4  13    0.13    0.09
  -5   4  13   -0.01    0.09
  -5   4  13    0.14    0.10
  -4  -4  13    4.12    0.33
  -4   4  13    3.73    0.28
  -4   4  13    4.31    0.31
  -4   4  13    4.10    0.33
  -3  -4  13    0.29    0.12
  -3   4  13    0.34    0.12
  -3   4  13    0.57    0.14
  -3   4  13    0.31    0.11
  -2   4  13    1.16    0.17
  -2   4  13    1.39    0.20
  -2   4  13    1.16    0.19
  -1  -4  13    0.36    0.12
  -1   4  13    0.25    0.09
  -1   4  13    0.47    0.14
  -1   4  13    0.42    0.12
   0  -4  13   23.18    0.89
   0   4  13   23.13    0.87
   0   4  13   23.35    0.81
   0   4  13   22.12    0.82
   1  -4  13    0.18    0.10
   1   4  13    0.25    0.11
   1   4  13    0.20    0.09
  -1   4 -13    0.15    0.10
   2  -4  13    4.11    0.32
  -2   4 -13    4.61    0.35
   2   4  13    3.93    0.28
   2   4  13    3.81    0.30
   3  -4  13    3.96    0.38
   3   4  13    4.02    0.29
  -3   4 -13    3.65    0.36
   3   4  13    3.39    0.33
   4  -4  13    4.83    0.36
   4   4  13    4.53    0.32
   4   4  13    4.31    0.34
  -4   4 -13    4.73    0.36
   5  -4  13    6.45    0.44
  -5   4 -13    6.47    0.43
   5   4  13    5.96    0.38
   5   4  13    6.53    0.42
  -6   4 -13   11.75    0.61
   6   4  13   11.86    0.59
  -7  -5  13    0.09    0.12
  -6  -5  13    0.12    0.12
  -6   5  13    0.31    0.15
  -6   5  13    0.10    0.10
   6   5 -13    0.01    0.11
  -5  -5  13    0.06    0.11
   5   5 -13    0.03    0.11
  -5   5  13   -0.01    0.08
  -5   5  13    0.06    0.11
  -4  -5  13    1.95    0.26
  -4   5  13    1.98    0.27
   4   5 -13    2.18    0.31
  -4   5  13    2.22    0.26
  -3  -5  13    0.43    0.15
  -3   5  13    0.33    0.11
  -3   5  13    0.44    0.14
   3   5 -13    0.25    0.14
  -2  -5  13   14.30    0.64
   2   5 -13   13.59    0.68
  -2   5  13   14.28    0.64
  -2   5  13   13.55    0.60
  -1  -5  13    0.00    0.08
  -1   5  13   -0.04    0.08
  -1   5  13   -0.01    0.07
   1   5 -13    0.02    0.09
   0  -5  13    2.01    0.27
   0   5  13    2.12    0.27
   0   5  13    1.89    0.24
   0   5 -13    1.85    0.26
   1  -5  13    0.30    0.11
   1   5  13    0.18    0.11
  -1   5 -13    0.24    0.12
   1   5  13    0.16    0.10
   2  -5  13    2.44    0.29
  -2   5 -13    2.16    0.28
   2   5  13    2.49    0.28
   2   5  13    2.02    0.26
   3  -5  13    0.22    0.12
   3   5  13    0.06    0.09
  -3   5 -13    0.08    0.11
   3   5  13    0.13    0.11
   4  -5  13    2.39    0.30
  -4   5 -13    2.62    0.32
   4   5  13    2.22    0.29
   4   5  13    2.36    0.28
  -5   5 -13    0.09    0.14
   5   5  13    0.35    0.14
  -6  -6  13    3.78    0.38
  -5  -6  13   10.94    0.58
  -5   6  13   10.02    0.57
  -4  -6  13    0.13    0.12
  -4   6  13    0.17    0.13
  -4   6  13    0.01    0.10
   4   6 -13    0.14    0.12
  -3  -6  13    1.82    0.26
   3   6 -13    1.36    0.25
  -3   6  13    1.10    0.21
  -3   6  13    1.20    0.19
  -2  -6  13    0.00    0.09
  -2   6  13    0.09    0.13
  -2   6  13    0.08    0.09
   2   6 -13   -0.01    0.11
  -1  -6  13    0.16    0.11
  -1   6  13    0.00    0.10
   1   6 -13    0.14    0.11
  -1   6  13    0.06    0.08
   0  -6  13    0.20    0.12
   0   6  13    0.12    0.09
   0   6  13    0.15    0.10
   0   6 -13   -0.03    0.09
   1  -6  13    6.38    0.41
  -1   6 -13    4.75    0.37
   1   6  13    4.68    0.35
   1   6  13    5.25    0.37
   2  -6  13    2.05    0.27
   2   6  13    1.58    0.23
   2   6  13    1.58    0.24
  -2   6 -13    2.16    0.31
   3  -6  13    8.52    0.49
  -3   6 -13    7.20    0.50
   3   6  13    7.79    0.47
   3   6  13    7.86    0.48
  -4   6 -13   10.93    0.62
  -3   7  13    0.00    0.12
  -2  -7  13    0.10    0.15
  -2   7  13    0.29    0.13
   2   7 -13    0.01    0.12
  -1  -7  13    1.48    0.24
   1   7 -13    1.57    0.28
  -1   7  13    2.31    0.30
   0  -7  13    0.13    0.13
   0   7  13    0.51    0.16
   0   7 -13    0.28    0.15
   1  -7  13    0.21    0.13
   1   7  13    0.39    0.15
   2  -7  13    0.07    0.14
  -2   7 -13    0.05    0.16
  -8   0  14   32.16    1.19
  -8   0  14   32.97    1.24
  -7   0  14    0.03    0.09
  -7   0  14   -0.05    0.08
  -6   0  14    5.37    0.39
  -6   0  14    4.73    0.35
  -5   0  14    0.11    0.09
  -5   0  14   -0.06    0.07
  -4   0  14    0.85    0.17
  -4   0  14    1.00    0.19
  -3   0  14   -0.08    0.06
  -3   0  14    0.03    0.09
  -2   0  14    8.19    0.43
  -2   0  14    7.42    0.43
  -1   0  14    0.02    0.07
  -1   0  14   -0.03    0.07
  -1   0  14    0.07    0.06
   0   0  14   23.30    0.84
   0   0  14   22.11    0.74
   0   0  14   22.83    0.86
   1   0  14   -0.05    0.04
   1   0  14    0.04    0.08
   1   0  14    0.02    0.07
   2   0  14   16.08    0.65
   2   0  14   15.74    0.67
   3   0  14    0.01    0.07
   3   0  14    0.01    0.08
   4   0  14    2.63    0.29
   4   0  14    2.13    0.25
   5   0  14    0.10    0.09
   5   0  14    0.00    0.09
   6   0  14    1.11    0.21
   6   0  14    0.54    0.15
  -8  -1  14    2.86    0.35
  -8  -1  14    2.60    0.31
  -8   1  14    2.92    0.35
  -8   1  14    3.87    0.39
  -7  -1  14    2.67    0.32
  -7  -1  14    2.27    0.29
  -7   1  14    2.04    0.28
  -7   1  14    2.17    0.28
  -6  -1  14    1.66    0.23
  -6  -1  14    1.40    0.24
  -6   1  14    1.33    0.22
  -6   1  14    1.51    0.23
  -5  -1  14    0.17    0.11
  -5  -1  14    0.26    0.11
  -5   1  14    0.19    0.12
  -5   1  14    0.41    0.14
  -4  -1  14    1.01    0.17
  -4  -1  14    0.74    0.17
  -4   1  14    0.90    0.17
  -4   1  14    0.80    0.18
  -3  -1  14    0.14    0.09
  -3  -1  14   -0.03    0.06
  -3   1  14   -0.04    0.07
  -3   1  14   -0.04    0.06
  -3   1  14    0.01    0.06
  -2  -1  14    2.67    0.27
  -2  -1  14    2.71    0.30
  -2   1  14    2.37    0.26
  -2   1  14    2.64    0.20
  -2   1  14    2.81    0.28
  -1  -1  14    1.71    0.21
  -1  -1  14    1.53    0.22
  -1   1  14    1.19    0.19
  -1   1  14    1.03    0.17
  -1   1  14    1.58    0.18
   0  -1  14    4.11    0.28
   0  -1  14    4.76    0.33
   0   1  14    4.30    0.25
   0   1  14    3.79    0.29
   0   1  14    3.90    0.29
   1  -1  14    1.97    0.24
   1  -1  14    1.71    0.21
   1   1  14    1.73    0.18
   1   1  14    1.83    0.24
   1   1  14    1.47    0.20
   2  -1  14    0.91    0.16
   2  -1  14    1.06    0.18
   2   1  14    0.99    0.17
   2   1  14    0.96    0.14
   2   1  14    1.22    0.20
   3  -1  14    0.35    0.14
   3  -1  14    0.14    0.10
   3   1  14    0.22    0.11
   3   1  14    0.20    0.10
   4  -1  14    1.82    0.25
   4  -1  14    1.83    0.23
   4   1  14    1.92    0.25
   4   1  14    2.13    0.26
   5  -1  14    1.50    0.23
   5  -1  14    1.93    0.25
   5   1  14    1.49    0.22
   5   1  14    2.02    0.27
   6  -1  14    0.19    0.12
   6  -1  14    0.20    0.11
   6   1  14   -0.06    0.10
   6   1  14    0.20    0.12
  -8  -2  14    3.50    0.35
  -8   2  14    3.79    0.40
  -7  -2  14    9.41    0.50
  -7  -2  14    9.40    0.55
  -7   2  14   10.04    0.55
  -7   2  14    9.05    0.54
  -6  -2  14    0.94    0.18
  -6  -2  14    0.39    0.15
  -6   2  14    0.66    0.18
  -6   2  14    0.42    0.14
  -5  -2  14    6.05    0.38
  -5  -2  14    5.93    0.41
  -5   2  14    6.34    0.41
  -5   2  14    6.20    0.40
  -4  -2  14    1.15    0.19
  -4  -2  14    0.97    0.19
  -4   2  14    1.28    0.21
  -4   2  14    1.35    0.19
  -4   2  14    0.93    0.18
  -3  -2  14    0.26    0.12
  -3  -2  14    0.24    0.10
  -3   2  14    0.33    0.12
  -3   2  14    0.16    0.09
  -3   2  14    0.07    0.09
  -2  -2  14    0.39    0.13
  -2  -2  14    0.31    0.11
  -2   2  14    0.10    0.08
  -2   2  14    0.22    0.10
  -2   2  14    0.23    0.09
  -1  -2  14   -0.03    0.06
  -1  -2  14    0.00    0.07
  -1   2  14    0.01    0.07
  -1   2  14    0.04    0.07
  -1   2  14   -0.06    0.07
   0  -2  14    0.81    0.14
   0  -2  14    1.24    0.21
   0   2  14    0.97    0.18
   0   2  14    1.15    0.16
   0   2  14    1.08    0.18
   1  -2  14    0.20    0.09
   1  -2  14    0.08    0.10
   1   2  14    0.28    0.10
   1   2  14   -0.02    0.05
   1   2  14    0.11    0.08
   2  -2  14    6.51    0.41
   2  -2  14    6.65    0.36
   2   2  14    7.03    0.41
   2   2  14    6.47    0.34
   2   2  14    6.70    0.39
   3  -2  14    0.41    0.12
   3  -2  14    1.05    0.20
   3   2  14    0.57    0.15
   3   2  14    0.32    0.12
   3   2  14    0.67    0.13
   4  -2  14    2.04    0.28
   4  -2  14    2.26    0.25
   4   2  14    2.71    0.30
   4   2  14    2.31    0.27
   5  -2  14    6.33    0.38
   5  -2  14    5.86    0.42
   5   2  14    7.03    0.43
   5   2  14    6.59    0.41
   6  -2  14   -0.07    0.09
   6   2  14    0.00    0.11
  -7  -3  14   -0.01    0.10
  -7  -3  14   -0.03    0.10
  -7   3  14    0.03    0.12
  -7   3  14   -0.01    0.10
  -6  -3  14    0.09    0.12
  -6  -3  14    0.14    0.10
  -6   3  14   -0.04    0.08
  -6   3  14    0.04    0.10
  -5  -3  14    0.06    0.10
  -5  -3  14   -0.01    0.08
  -5   3  14    0.09    0.09
  -5   3  14    0.11    0.11
  -5   3  14    0.03    0.09
  -4  -3  14    3.56    0.36
  -4  -3  14    3.76    0.27
  -4   3  14    3.42    0.36
  -4   3  14    3.62    0.30
  -4   3  14    3.59    0.28
  -3  -3  14    4.91    0.31
  -3  -3  14    5.86    0.38
  -3   3  14    5.26    0.35
  -3   3  14    4.96    0.32
  -3   3  14    5.50    0.38
  -2  -3  14   -0.01    0.06
  -2  -3  14    0.04    0.08
  -2   3  14   -0.05    0.07
  -2   3  14    0.15    0.10
  -2   3  14   -0.02    0.06
  -1  -3  14    0.65    0.14
  -1  -3  14    0.82    0.18
  -1   3  14    0.95    0.15
  -1   3  14    0.64    0.15
  -1   3  14    0.60    0.15
   0  -3  14    8.18    0.39
   0  -3  14    7.16    0.44
   0   3  14    8.83    0.44
   0   3  14    7.66    0.44
   0   3  14    7.91    0.40
   1  -3  14    2.31    0.28
   1  -3  14    2.52    0.24
   1   3  14    1.69    0.23
   1   3  14    2.62    0.26
   1   3  14    2.24    0.24
   2  -3  14    5.13    0.36
   2   3  14    4.74    0.30
   2   3  14    4.17    0.30
   2   3  14    4.60    0.34
   3  -3  14    0.04    0.09
   3   3  14   -0.07    0.07
   3   3  14   -0.05    0.08
   3   3  14   -0.03    0.07
   4  -3  14    0.07    0.11
   4   3  14    0.39    0.12
   4   3  14    0.35    0.13
   5  -3  14    0.56    0.17
   5   3  14    0.26    0.13
  -7   4  14    5.07    0.39
  -6  -4  14    1.57    0.26
  -6   4  14    1.75    0.23
  -6   4  14    1.73    0.28
  -6   4  14    1.79    0.26
  -5  -4  14    0.31    0.14
  -5   4  14    0.16    0.11
  -5   4  14    0.13    0.12
  -5   4  14    0.34    0.12
  -4  -4  14    0.15    0.12
  -4   4  14    0.44    0.12
  -4   4  14    0.54    0.17
  -4   4  14    0.83    0.17
  -3  -4  14    1.76    0.25
  -3   4  14    2.01    0.25
  -3   4  14    1.76    0.25
  -3   4  14    2.15    0.25
  -2  -4  14    5.03    0.37
  -2   4  14    4.94    0.34
  -2   4  14    5.36    0.37
  -2   4  14    5.05    0.33
  -1  -4  14   -0.08    0.09
  -1   4  14    0.04    0.09
  -1   4  14   -0.01    0.06
  -1   4  14    0.12    0.10
   0  -4  14   13.58    0.63
   0   4  14   13.66    0.58
   0   4  14   12.50    0.61
   1  -4  14    1.44    0.22
  -1   4 -14    1.75    0.24
   1   4  14    1.47    0.20
   1   4  14    2.01    0.26
   2  -4  14    4.78    0.35
   2   4  14    4.60    0.32
   2   4  14    4.72    0.36
   3  -4  14   11.59    0.60
   3   4  14   11.78    0.54
   3   4  14   11.82    0.59
   4  -4  14    0.47    0.15
   4   4  14    0.08    0.10
   4   4  14    0.24    0.14
   5   4  14    7.76    0.44
  -6  -5  14    5.58    0.43
  -5  -5  14    0.09    0.12
   5   5 -14   -0.07    0.10
  -5   5  14    0.18    0.12
  -5   5  14    0.03    0.12
  -4  -5  14    0.11    0.11
   4   5 -14    0.08    0.11
  -4   5  14    0.06    0.10
  -4   5  14    0.22    0.13
  -3  -5  14    8.93    0.51
  -3   5  14    8.05    0.45
  -3   5  14    8.54    0.50
   3   5 -14    8.76    0.54
  -2  -5  14    8.72    0.51
   2   5 -14    9.09    0.54
  -2   5  14    9.24    0.52
  -2   5  14    8.94    0.47
  -1  -5  14    1.23    0.22
  -1   5  14    1.10    0.19
  -1   5  14    1.48    0.24
   1   5 -14    1.86    0.27
   0  -5  14    4.58    0.36
   0   5 -14    4.41    0.36
   0   5  14    5.25    0.35
   0   5  14    4.60    0.36
   1  -5  14    3.97    0.33
  -1   5 -14    3.99    0.52
   1   5  14    3.79    0.30
   1   5  14    3.34    0.35
   2  -5  14    0.81    0.18
   2   5  14    0.66    0.17
   2   5  14    1.17    0.20
   3  -5  14    0.09    0.12
   3   5  14    0.18    0.12
   3   5  14    0.02    0.09
   4   5  14    0.40    0.14
  -5  -6  14    0.99    0.25
  -4  -6  14    3.62    0.38
  -3  -6  14    6.49    0.45
  -3   6  14    7.34    0.47
   3   6 -14    7.70    0.54
  -2  -6  14    3.96    0.39
   2   6 -14    3.03    0.37
  -2   6  14    2.81    0.34
  -2   6  14    3.07    0.34
  -1  -6  14   11.43    0.59
  -1   6  14   11.25    0.59
   1   6 -14    9.84    0.60
  -1   6  14   10.80    0.55
   0  -6  14    1.49    0.25
   0   6  14    1.32    0.24
   0   6  14    1.43    0.22
   0   6 -14    1.44    0.25
   1  -6  14    0.79    0.21
   1   6  14    0.59    0.24
   1   6  14    1.15    0.22
   2  -6  14    2.28    0.46
  -2  -7  14    2.16    0.46
  -7   0  15    8.66    0.52
  -7   0  15    9.27    0.55
  -6   0  15   -0.10    0.09
  -6   0  15    0.01    0.09
  -5   0  15    2.93    0.33
  -5   0  15    3.10    0.32
  -4   0  15    0.10    0.10
  -4   0  15   -0.02    0.07
  -3   0  15    7.69    0.45
  -3   0  15    6.99    0.41
  -2   0  15   -0.02    0.08
  -2   0  15   -0.01    0.08
  -1   0  15    0.29    0.12
  -1   0  15    0.27    0.12
  -1   0  15    0.43    0.10
   0   0  15   -0.02    0.05
   0   0  15    0.01    0.09
   0   0  15    0.02    0.09
   1   0  15    3.18    0.31
   1   0  15    2.89    0.31
   2   0  15   -0.02    0.07
   2   0  15    0.06    0.09
   4   0  15   -0.02    0.09
   4   0  15   -0.05    0.10
   5   0  15    6.43    0.41
   5   0  15    6.99    0.45
  -7  -1  15    0.08    0.11
  -7  -1  15    0.01    0.11
  -7   1  15   -0.09    0.08
  -7   1  15    0.08    0.12
  -6  -1  15    4.45    0.37
  -6  -1  15    5.10    0.37
  -6   1  15    4.28    0.35
  -6   1  15    4.44    0.37
  -5  -1  15   14.59    0.71
  -5  -1  15   15.41    0.67
  -5   1  15   14.16    0.67
  -5   1  15   14.71    0.69
  -4  -1  15   11.06    0.58
  -4  -1  15   12.00    0.56
  -4   1  15   11.09    0.57
  -4   1  15   11.98    0.59
  -3  -1  15    6.54    0.40
  -3  -1  15    7.70    0.46
  -3   1  15    7.99    0.45
  -3   1  15    6.85    0.37
  -3   1  15    7.40    0.45
  -2  -1  15    4.94    0.36
  -2  -1  15    5.24    0.34
  -2   1  15    5.39    0.31
  -2   1  15    4.75    0.35
  -2   1  15    4.95    0.35
  -1  -1  15    2.87    0.31
  -1  -1  15    2.83    0.28
  -1   1  15    2.95    0.30
  -1   1  15    3.01    0.31
  -1   1  15    2.92    0.22
   0  -1  15    1.40    0.20
   0  -1  15    1.07    0.20
   0   1  15    1.39    0.18
   0   1  15    1.76    0.24
   0   1  15    1.66    0.22
   1  -1  15    0.27    0.10
   1  -1  15    0.38    0.13
   1   1  15    0.34    0.10
   1   1  15    0.16    0.10
   1   1  15    0.37    0.12
   2  -1  15    0.95    0.18
   2  -1  15    0.97    0.19
   2   1  15    1.24    0.21
   2   1  15    0.87    0.18
   3  -1  15    8.52    0.46
   3  -1  15   10.26    0.53
   3   1  15    8.43    0.48
   3   1  15    8.36    0.47
   4  -1  15    1.89    0.24
   4  -1  15    1.83    0.27
   4   1  15    2.21    0.27
   4   1  15    2.11    0.27
   5  -1  15    3.63    0.39
   5  -1  15    3.75    0.35
   5   1  15    3.92    0.38
   5   1  15    3.49    0.37
  -7  -2  15    0.12    0.12
  -7   2  15    0.08    0.13
  -6  -2  15   21.77    0.93
  -6  -2  15   22.98    0.87
  -6   2  15   21.38    0.90
  -6   2  15   20.70    0.90
  -5  -2  15   -0.05    0.09
  -5  -2  15   -0.02    0.10
  -5   2  15   -0.03    0.08
  -5   2  15    0.01    0.09
  -4  -2  15    5.22    0.35
  -4  -2  15    4.71    0.37
  -4   2  15    4.90    0.36
  -4   2  15    5.32    0.38
  -4   2  15    4.37    0.31
  -3  -2  15    0.01    0.07
  -3  -2  15    0.08    0.11
  -3   2  15   -0.03    0.09
  -3   2  15    0.05    0.09
  -3   2  15    0.05    0.07
  -2  -2  15    2.80    0.27
  -2  -2  15    2.07    0.27
  -2   2  15    2.47    0.25
  -2   2  15    2.47    0.29
  -2   2  15    2.70    0.29
  -1  -2  15   10.50    0.50
  -1  -2  15   10.44    0.55
  -1   2  15   11.07    0.49
  -1   2  15   11.33    0.56
  -1   2  15   11.15    0.54
   0  -2  15   16.50    0.72
   0  -2  15   15.52    0.64
   0   2  15   15.11    0.68
   0   2  15   16.49    0.69
   0   2  15   15.95    0.62
   1  -2  15   37.67    1.27
   1  -2  15   37.17    1.19
   1   2  15   35.89    1.22
   1   2  15   34.34    1.13
   1   2  15   35.50    1.23
   2  -2  15   17.16    0.76
   2  -2  15   17.95    0.70
   2   2  15   18.38    0.74
   2   2  15   18.35    0.76
   2   2  15   17.48    0.66
   3  -2  15    7.41    0.47
   3  -2  15    7.79    0.43
   3   2  15    8.16    0.45
   3   2  15    8.10    0.47
   4  -2  15    4.51    0.38
   4  -2  15    5.04    0.34
   4   2  15    5.30    0.38
   4   2  15    4.53    0.35
   5  -2  15    0.33    0.13
   5   2  15    0.26    0.13
   6   2  15    1.14    0.31
  -7   3  15    1.25    0.27
  -6  -3  15    0.05    0.12
  -6   3  15    0.07    0.11
  -6   3  15    0.12    0.12
  -5  -3  15    1.96    0.29
  -5   3  15    2.05    0.28
  -5   3  15    2.33    0.31
  -5   3  15    2.24    0.27
  -4  -3  15    0.69    0.21
  -4  -3  15    0.55    0.17
  -4   3  15    0.62    0.15
  -4   3  15    0.56    0.15
  -4   3  15    0.23    0.14
  -3  -3  15    3.72    0.45
  -3  -3  15    3.52    0.37
  -3   3  15    3.12    0.32
  -3   3  15    2.69    0.31
  -3   3  15    2.90    0.25
  -2  -3  15    7.48    0.46
  -2   3  15    7.16    0.42
  -2   3  15    7.26    0.40
  -2   3  15    7.15    0.45
  -1  -3  15   16.19    0.72
  -1   3  15   15.60    0.63
  -1   3  15   15.50    0.67
  -1   3  15   14.84    0.69
   0  -3  15    4.45    0.35
   0   3  15    4.23    0.34
   0   3  15    4.29    0.32
   0   3  15    3.97    0.29
   1  -3  15    2.78    0.32
   1   3  15    2.23    0.27
   1   3  15    2.21    0.24
   1   3  15    2.27    0.26
   2  -3  15    3.59    0.36
   2   3  15    3.47    0.29
   2   3  15    3.23    0.26
   2   3  15    3.15    0.33
   3  -3  15    1.82    0.28
   3   3  15    1.35    0.19
   3   3  15    1.25    0.23
   4   3  15    6.10    0.72
  -6   4  15    6.32    0.43
  -5  -4  15    3.38    0.37
  -5   4  15    3.16    0.32
  -5   4  15    2.88    0.33
  -5   4  15    2.97    0.35
  -4  -4  15    7.42    0.47
  -4   4  15    7.72    0.45
  -4   4  15    6.82    0.42
  -4   4  15    6.93    0.47
  -3  -4  15    1.67    0.27
  -3   4  15    1.68    0.23
  -3   4  15    1.55    0.25
  -3   4  15    1.24    0.22
  -2  -4  15    6.63    0.45
  -2   4  15    6.95    0.45
  -2   4  15    7.51    0.42
  -1  -4  15    0.12    0.11
  -1   4  15    0.11    0.10
  -1   4  15    0.21    0.12
   0  -4  15    1.09    0.22
   0   4  15    0.89    0.17
   0   4  15    0.79    0.18
   1  -4  15   -0.06    0.10
   1   4  15    0.17    0.11
   1   4  15    0.26    0.13
   2  -4  15    2.98    0.34
   2   4  15    2.86    0.32
   2   4  15    2.64    0.28
   3  -4  15    2.41    0.44
   3   4  15    2.39    0.27
   4   4  15    0.48    0.14
  -4  -5  15    0.10    0.12
  -3  -5  15    2.81    0.35
   3   5 -15    3.14    0.38
  -3   5  15    3.03    0.35
  -3   5  15    3.27    0.37
  -2  -5  15    1.57    0.25
  -2   5  15    1.36    0.21
  -2   5  15    1.31    0.24
   2   5 -15    1.38    0.26
  -1  -5  15    0.30    0.14
   1   5 -15    0.20    0.13
  -1   5  15    0.22    0.12
  -1   5  15    0.03    0.10
   0  -5  15    1.67    0.27
   0   5 -15    1.62    0.26
   0   5  15    1.83    0.25
   0   5  15    1.85    0.28
   1  -5  15    0.55    0.18
   1   5  15    0.66    0.20
   1   5  15    0.60    0.15
   2   5  15    3.92    0.32
   1   6 -15    0.21    0.15
  -6   0  16    0.25    0.12
  -6   0  16    0.13    0.13
  -5   0  16   -0.04    0.10
  -5   0  16    0.04    0.11
  -4   0  16    1.49    0.24
  -4   0  16    1.07    0.22
  -3   0  16   -0.04    0.09
  -3   0  16    0.05    0.09
  -2   0  16    0.19    0.12
  -2   0  16    0.33    0.13
  -1   0  16   -0.03    0.09
  -1   0  16    0.00    0.08
   0   0  16   -0.06    0.08
   0   0  16    0.25    0.11
   1   0  16   -0.04    0.08
   1   0  16   -0.04    0.07
   2   0  16    0.59    0.16
   2   0  16    0.50    0.14
   3   0  16   -0.17    0.09
   3   0  16   -0.05    0.09
   4   0  16    0.21    0.14
   4   0  16    0.14    0.12
  -6  -1  16    8.48    0.50
  -6   1  16    7.24    0.50
  -6   1  16    7.70    0.50
  -5  -1  16    0.04    0.11
  -5  -1  16    0.06    0.09
  -5   1  16   -0.14    0.09
  -5   1  16   -0.01    0.11
  -4  -1  16    2.84    0.33
  -4  -1  16    4.59    0.34
  -4   1  16    3.75    0.39
  -4   1  16    3.68    0.37
  -3  -1  16    6.52    0.45
  -3  -1  16    6.27    0.41
  -3   1  16    6.49    0.43
  -3   1  16    7.34    0.46
  -2  -1  16    8.75    0.47
  -2  -1  16    8.66    0.51
  -2   1  16    8.41    0.42
  -2   1  16    9.72    0.52
  -2   1  16    9.11    0.50
  -1  -1  16   16.79    0.75
  -1  -1  16   16.88    0.71
  -1   1  16   16.65    0.74
  -1   1  16   16.39    0.64
  -1   1  16   17.41    0.74
   0  -1  16    0.06    0.10
   0  -1  16    0.12    0.10
   0   1  16    0.18    0.10
   0   1  16   -0.06    0.08
   0   1  16    0.08    0.08
   1  -1  16   11.30    0.58
   1  -1  16   10.24    0.52
   1   1  16   10.31    0.54
   1   1  16   11.06    0.57
   2  -1  16    1.87    0.28
   2  -1  16    1.09    0.19
   2   1  16    1.90    0.26
   2   1  16    1.96    0.27
   3  -1  16    8.69    0.51
   3  -1  16    8.24    0.47
   3   1  16    7.48    0.47
   3   1  16    8.68    0.49
   4  -1  16    3.04    0.32
   4   1  16    3.47    0.36
   4   1  16    2.37    0.35
  -7  -2  16    0.44    0.25
  -6  -2  16    6.05    0.41
  -6   2  16    5.88    0.44
  -5  -2  16    0.38    0.15
  -5  -2  16    0.63    0.17
  -5   2  16    0.77    0.18
  -5   2  16    0.78    0.18
  -4  -2  16    1.12    0.22
  -4  -2  16    1.10    0.21
  -4   2  16    1.21    0.22
  -4   2  16    0.71    0.18
  -3  -2  16    1.93    0.28
  -3  -2  16    2.25    0.27
  -3   2  16    2.22    0.24
  -3   2  16    2.54    0.31
  -3   2  16    2.03    0.28
  -2  -2  16    0.26    0.12
  -2  -2  16    0.58    0.17
  -2   2  16    0.22    0.12
  -2   2  16    0.45    0.14
  -2   2  16    0.26    0.10
  -1  -2  16    5.87    0.38
  -1  -2  16    5.97    0.42
  -1   2  16    5.98    0.40
  -1   2  16    5.38    0.33
  -1   2  16    5.71    0.40
   0  -2  16    2.08    0.29
   0  -2  16    2.19    0.26
   0   2  16    2.26    0.29
   0   2  16    2.22    0.24
   0   2  16    2.00    0.26
   1  -2  16    0.05    0.11
   1  -2  16   -0.10    0.08
   1   2  16   -0.10    0.09
   1   2  16    0.09    0.10
   1   2  16    0.01    0.07
   2  -2  16   -0.01    0.10
   2  -2  16   -0.08    0.09
   2   2  16   -0.06    0.10
   2   2  16    0.00    0.10
   3  -2  16    7.91    0.50
   3  -2  16    7.72    0.45
   3   2  16    9.18    0.51
   3   2  16    9.45    0.52
   4   2  16    3.74    0.37
  -6   3  16    0.25    0.17
  -5   3  16    6.01    0.43
  -4  -3  16    0.00    0.12
  -4   3  16   -0.01    0.11
  -4   3  16   -0.02    0.10
  -4   3  16    0.01    0.08
  -3  -3  16   -0.06    0.11
  -3   3  16    0.01    0.10
  -3   3  16   -0.02    0.10
  -3   3  16   -0.07    0.08
  -2  -3  16    0.87    0.19
  -2   3  16    0.85    0.19
  -2   3  16    0.68    0.15
  -2   3  16    0.84    0.19
  -1  -3  16    0.24    0.13
  -1   3  16    0.10    0.10
  -1   3  16    0.03    0.08
  -1   3  16    0.08    0.11
   0  -3  16    6.43    0.46
   0   3  16    7.65    0.41
   0   3  16    7.64    0.47
   0   3  16    7.97    0.46
   1  -3  16    1.71    0.28
   1   3  16    1.39    0.22
   1   3  16    1.62    0.22
   1   3  16    1.66    0.26
   2  -3  16    7.33    0.53
   2   3  16    7.86    0.42
   2   3  16    8.19    0.49
  -3  -4  16   26.09    1.16
  -3   4  16   28.22    1.02
  -2  -4  16   15.98    0.76
  -2   4  16   16.87    0.78
  -2   4  16   16.04    0.69
  -1  -4  16   26.58    1.06
  -1   4  16   27.30    1.07
  -1   4  16   26.88    0.98
   0  -4  16   17.69    0.81
   0   4 -16   17.37    0.78
   0   4  16   17.41    0.72
   0   4  16   17.53    0.89
   1   4  16   -0.06    0.09
   2   4  16    4.30    0.33
   3   4  16   15.37    0.67
   1   5 -16    1.30    0.25
  -5   0  17   11.34    0.62
  -4   0  17   -0.02    0.10
  -4   0  17    0.04    0.11
  -3   0  17    0.03    0.11
  -3   0  17    0.10    0.12
  -2   0  17    0.01    0.09
  -2   0  17    0.06    0.11
  -1   0  17    1.03    0.21
  -1   0  17    0.42    0.15
   0   0  17    0.01    0.09
   0   0  17    0.14    0.13
   1   0  17   24.52    0.95
   1   0  17   24.71    0.99
   2   0  17    0.04    0.12
   2   0  17   -0.08    0.09
   3   0  17   12.83    0.91
  -5  -1  17    0.64    0.19
  -4  -1  17    0.17    0.12
  -4  -1  17    0.19    0.14
  -4   1  17   -0.04    0.10
  -4   1  17    0.04    0.11
  -3  -1  17    6.05    0.42
  -3  -1  17    6.43    0.46
  -3   1  17    5.81    0.42
  -3   1  17    7.17    0.47
  -2  -1  17    3.29    0.34
  -2  -1  17    3.28    0.36
  -2   1  17    3.54    0.37
  -2   1  17    2.77    0.32
  -1  -1  17    1.21    0.21
  -1  -1  17    1.55    0.26
  -1   1  17    1.35    0.23
  -1   1  17    1.58    0.26
  -1   1  17    1.43    0.19
   0  -1  17    0.36    0.15
   0  -1  17    0.25    0.13
   0   1  17    0.35    0.13
   0   1  17    0.08    0.10
   1  -1  17    0.12    0.12
   1  -1  17    0.15    0.13
   1   1  17   -0.03    0.10
   1   1  17    0.07    0.12
   2  -1  17    0.28    0.14
   2   1  17    0.11    0.12
   2   1  17    0.27    0.14
   3  -1  17    0.55    0.17
   3   1  17    0.71    0.27
  -5  -2  17    0.89    0.21
  -4  -2  17    0.36    0.15
  -4   2  17    0.35    0.16
  -3  -2  17    5.59    0.55
  -3  -2  17    5.15    0.37
  -3   2  17    4.23    0.41
  -3   2  17    5.12    0.40
  -3   2  17    4.53    0.33
  -2  -2  17   22.60    0.97
  -2  -2  17   22.59    0.90
  -2   2  17   23.71    0.95
  -2   2  17   23.19    0.86
  -2   2  17   23.95    0.96
  -1  -2  17    1.15    0.21
  -1  -2  17    1.09    0.23
  -1   2  17    1.34    0.20
  -1   2  17    1.35    0.24
  -1   2  17    1.40    0.24
   0  -2  17   41.23    1.37
   0  -2  17   41.10    1.47
   0   2  17   41.74    1.32
   0   2  17   40.49    1.41
   0   2  17   42.21    1.44
   1  -2  17    0.93    0.26
   1   2  17    0.92    0.21
   1   2  17    0.78    0.31
   2   2  17    5.00    0.39
   3   2  17    0.11    0.13
  -4   3  17   11.54    0.62
  -3   3  17    0.62    0.18
  -3   3  17    0.81    0.19
  -2   3  17    2.85    0.34
  -2   3  17    2.96    0.30
  -1   3  17    1.94    0.25
  -1   3  17    1.76    0.28
   0   3  17    2.30    0.26
   1   3  17    2.35    0.26
  -2   0  18    3.98    0.45
  -1   0  18    0.00    0.09
   0   0  18    4.84    0.51
  -3  -1  18    5.56    0.41
  -2  -1  18    0.12    0.13
  -1  -1  18    5.91    0.42
   0  -1  18    7.73    0.47
   1  -1  18    9.37    0.58
  -2   2  18    0.75    0.17
  -1   2  18    1.03    0.25
  -1   2  18    1.36    0.22
   0   2  18    4.30    0.59
   0   0   0    0.00    0.00
;
_shelx_hkl_checksum              30693
loop_
_space_group_symop_operation_xyz
'x, y, z'
'-x+1/2, y+1/2, -z+1/2'
'-x, -y, -z'
'x-1/2, -y-1/2, z-1/2'
loop_
_atom_site_label
_atom_site_type_symbol
_atom_site_fract_x
_atom_site_fract_y
_atom_site_fract_z
_atom_site_U_iso_or_equiv
_atom_site_adp_type
_atom_site_occupancy
_atom_site_site_symmetry_order
_atom_site_calc_flag
_atom_site_refinement_flags_posn
_atom_site_refinement_flags_adp
O1 O 1.14227(9) 0.31995(10) -0.01210(5) 0.01903(16) Uani 1 1 d . .
O2 O 0.94470(7) 0.18653(9) 0.07139(5) 0.01209(13) Uani 1 1 d . .
O3 O 1.10217(8) 0.40574(9) 0.15814(5) 0.01406(14) Uani 1 1 d . .
O4 O 0.91175(8) -0.15611(9) 0.21883(5) 0.01587(15) Uani 1 1 d . .
H4 H 0.9123 -0.1825 0.1525 0.024 Uiso 1 1 calc R U
C1 C 1.06890(10) 0.30544(12) 0.06613(7) 0.01270(16) Uani 1 1 d . .
C2 C 0.90836(10) 0.18354(11) 0.18477(6) 0.01012(15) Uani 1 1 d . .
H2 H 0.7901 0.1717 0.1881 0.012 Uiso 1 1 calc R U
C3 C 0.96721(10) 0.37978(11) 0.22325(6) 0.01143(15) Uani 1 1 d . .
H3 H 0.8823 0.4762 0.2006 0.014 Uiso 1 1 calc R U
C4 C 1.02029(11) 0.40137(12) 0.34379(7) 0.01418(17) Uani 1 1 d . .
H4A H 0.9245 0.4221 0.3826 0.017 Uiso 1 1 calc R U
H4B H 1.0894 0.5154 0.3551 0.017 Uiso 1 1 calc R U
C5 C 1.11228(10) 0.22900(13) 0.39309(7) 0.01489(17) Uani 1 1 d . .
H5A H 1.1314 0.2436 0.4732 0.018 Uiso 1 1 calc R U
H5B H 1.2178 0.2207 0.3644 0.018 Uiso 1 1 calc R U
C6 C 1.01676(10) 0.04665(12) 0.36511(6) 0.01323(16) Uani 1 1 d . .
H6A H 1.0737 -0.0633 0.4015 0.016 Uiso 1 1 calc R U
H6B H 0.9099 0.0564 0.3918 0.016 Uiso 1 1 calc R U
C7 C 0.99708(9) 0.01653(11) 0.24265(6) 0.01065(15) Uani 1 1 d . .
H7 H 1.1058 0.0057 0.2169 0.013 Uiso 1 1 calc R U
loop_
_atom_site_aniso_label
_atom_site_aniso_U_11
_atom_site_aniso_U_22
_atom_site_aniso_U_33
_atom_site_aniso_U_23
_atom_site_aniso_U_13
_atom_site_aniso_U_12
O1 0.0233(3) 0.0223(3) 0.0124(3) 0.0002(2) 0.0057(2) -0.0065(3)
O2 0.0145(3) 0.0130(3) 0.0087(3) 0.00058(19) 0.0008(2) -0.0031(2)
O3 0.0169(3) 0.0141(3) 0.0115(3) -0.0017(2) 0.0030(2) -0.0055(2)
O4 0.0257(3) 0.0095(3) 0.0131(3) -0.0010(2) 0.0054(2) -0.0049(2)
C1 0.0148(4) 0.0121(3) 0.0111(3) 0.0010(3) 0.0005(3) -0.0020(3)
C2 0.0114(3) 0.0105(3) 0.0085(3) 0.0004(2) 0.0016(2) -0.0004(2)
C3 0.0135(3) 0.0095(3) 0.0115(3) -0.0003(2) 0.0020(3) -0.0003(3)
C4 0.0182(4) 0.0127(3) 0.0116(3) -0.0031(3) 0.0013(3) -0.0001(3)
C5 0.0156(4) 0.0166(4) 0.0119(3) -0.0009(3) -0.0013(3) -0.0002(3)
C6 0.0161(4) 0.0137(3) 0.0099(3) 0.0017(3) 0.0015(3) 0.0006(3)
C7 0.0131(3) 0.0083(3) 0.0108(3) 0.0008(2) 0.0024(3) 0.0000(2)
loop_
_atom_type_symbol
_atom_type_description
_atom_type_scat_dispersion_real
_atom_type_scat_dispersion_imag
_atom_type_scat_source
C C 0.0033 0.0016 'International Tables Vol C Tables 4.2.6.8 and 6.1.1.4'
H H 0.0000 0.0000 'International Tables Vol C Tables 4.2.6.8 and 6.1.1.4'
O O 0.0106 0.0060 'International Tables Vol C Tables 4.2.6.8 and 6.1.1.4'
loop_
_geom_angle_atom_site_label_1
_geom_angle_atom_site_label_2
_geom_angle_atom_site_label_3
_geom_angle
C1 O2 C2 107.38(6)
C1 O3 C3 107.30(6)
O1 C1 O3 123.92(8)
O1 C1 O2 123.93(8)
O3 C1 O2 112.15(7)
O2 C2 C3 101.02(6)
O2 C2 C7 108.49(6)
C3 C2 C7 115.23(6)
O3 C3 C4 111.40(7)
O3 C3 C2 100.61(6)
C4 C3 C2 116.60(7)
C3 C4 C5 113.19(7)
C4 C5 C6 110.23(7)
C7 C6 C5 109.80(7)
O4 C7 C6 108.79(6)
O4 C7 C2 110.57(6)
C6 C7 C2 110.72(6)
loop_
_geom_bond_atom_site_label_1
_geom_bond_atom_site_label_2
_geom_bond_distance
O1 C1 1.2050(10)
O2 C1 1.3422(10)
O2 C2 1.4653(10)
O3 C1 1.3404(10)
O3 C3 1.4692(10)
O4 C7 1.4230(10)
C2 C3 1.5234(11)
C2 C7 1.5251(11)
C3 C4 1.5140(11)
C4 C5 1.5266(12)
C5 C6 1.5306(12)
C6 C7 1.5182(11)
loop_
_geom_torsion_atom_site_label_1
_geom_torsion_atom_site_label_2
_geom_torsion_atom_site_label_3
_geom_torsion_atom_site_label_4
_geom_torsion
C3 O3 C1 O1 167.82(8)
C3 O3 C1 O2 -12.38(9)
C2 O2 C1 O1 169.40(8)
C2 O2 C1 O3 -10.40(9)
C1 O2 C2 C3 27.32(8)
C1 O2 C2 C7 -94.21(7)
C1 O3 C3 C4 152.60(7)
C1 O3 C3 C2 28.36(8)
O2 C2 C3 O3 -32.58(7)
C7 C2 C3 O3 84.10(7)
O2 C2 C3 C4 -153.17(7)
C7 C2 C3 C4 -36.49(10)
O3 C3 C4 C5 -75.64(9)
C2 C3 C4 C5 39.03(10)
C3 C4 C5 C6 -51.90(9)
C4 C5 C6 C7 63.15(9)
C5 C6 C7 O4 178.49(7)
C5 C6 C7 C2 -59.81(9)
O2 C2 C7 O4 -80.64(8)
C3 C2 C7 O4 167.01(6)
O2 C2 C7 C6 158.70(6)
C3 C2 C7 C6 46.35(9)
loop_
_cod_related_entry_id
_cod_related_entry_database
_cod_related_entry_code
1 PubChem 139148578
