#------------------------------------------------------------------------------
#$Date: 2025-08-21 04:34:05 +0300 (Thu, 21 Aug 2025) $
#$Revision: 301843 $
#$URL: file:///home/coder/svn-repositories/cod/cif/4/51/71/4517151.cif $
#------------------------------------------------------------------------------
#
# This file is available in the Crystallography Open Database (COD),
# http://www.crystallography.net/
#
# All data on this site have been placed in the public domain by the
# contributors.
#
data_4517151
loop_
_publ_author_name
'de la Cruz-Mart\'inez, Felipe'
'Mart\'inez de Sarasa Buchaca, Marc'
'Mart\'inez, Javier'
'Fern\'andez-Baeza, Juan'
'S\'anchez-Barba, Luis F.'
'Rodr\'iguez-Di\'eguez, Antonio'
'Castro-Osma, Jos\'e A.'
'Lara-S\'anchez, Agust\'in'
_publ_section_title
;
 Synthesis of Bio-Derived Cyclic Carbonates from Renewable Resources
;
_journal_name_full               'ACS Sustainable Chemistry &amp; Engineering'
_journal_paper_doi               10.1021/acssuschemeng.9b06016
_journal_year                    2019
_chemical_formula_sum            'C13 H18 O6'
_chemical_formula_weight         270.27
_space_group_crystal_system      monoclinic
_space_group_IT_number           4
_space_group_name_Hall           'P 2yb'
_space_group_name_H-M_alt        'P 1 21 1'
_atom_sites_solution_hydrogens   mixed
_audit_creation_method           SHELXL-2014
_cell_angle_alpha                90
_cell_angle_beta                 103.973(3)
_cell_angle_gamma                90
_cell_formula_units_Z            2
_cell_length_a                   7.3993(4)
_cell_length_b                   11.5801(6)
_cell_length_c                   7.7694(4)
_cell_measurement_reflns_used    4746
_cell_measurement_temperature    100(2)
_cell_measurement_theta_max      28.65
_cell_measurement_theta_min      2.70
_cell_volume                     646.02(6)
_computing_cell_refinement       'Bruker Apex II'
_computing_data_collection       'Bruker ApexII'
_computing_data_reduction        'Bruker Apex II'
_computing_publication_material  'SHELXL-2014 (Sheldrick, 2014)'
_computing_structure_refinement  'SHELXL-2014 (Sheldrick, 2014)'
_computing_structure_solution    'SHELXL-2014 (Sheldrick, 2014)'
_diffrn_ambient_temperature      100(2)
_diffrn_measured_fraction_theta_full 1.000
_diffrn_measured_fraction_theta_max 0.994
_diffrn_measurement_device_type  'Bruker D8 Venture'
_diffrn_measurement_method       'Phi and Omega Scans'
_diffrn_radiation_type           MoK\a
_diffrn_radiation_wavelength     0.71069
_diffrn_reflns_av_R_equivalents  0.1927
_diffrn_reflns_av_unetI/netI     0.1236
_diffrn_reflns_Laue_measured_fraction_full 1.000
_diffrn_reflns_Laue_measured_fraction_max 0.994
_diffrn_reflns_limit_h_max       9
_diffrn_reflns_limit_h_min       -10
_diffrn_reflns_limit_k_max       15
_diffrn_reflns_limit_k_min       -15
_diffrn_reflns_limit_l_max       10
_diffrn_reflns_limit_l_min       -9
_diffrn_reflns_number            9943
_diffrn_reflns_point_group_measured_fraction_full 0.992
_diffrn_reflns_point_group_measured_fraction_max 0.968
_diffrn_reflns_theta_full        25.240
_diffrn_reflns_theta_max         28.749
_diffrn_reflns_theta_min         2.701
_diffrn_source                   'fine-focus sealed tube'
_exptl_absorpt_coefficient_mu    0.110
_exptl_absorpt_correction_T_max  0.746
_exptl_absorpt_correction_T_min  0.659
_exptl_absorpt_correction_type   empirical
_exptl_absorpt_process_details   'Bruker SADABS (Bruker, 1999)'
_exptl_crystal_colour            Colourless
_exptl_crystal_density_diffrn    1.389
_exptl_crystal_description       Prismatic
_exptl_crystal_F_000             288
_exptl_crystal_size_max          0.16
_exptl_crystal_size_mid          0.16
_exptl_crystal_size_min          0.14
_refine_diff_density_max         0.532
_refine_diff_density_min         -0.611
_refine_diff_density_rms         0.120
_refine_ls_abs_structure_details
;
 Flack x determined using 1161 quotients [(I+)-(I-)]/[(I+)+(I-)]
 (Parsons, Flack and Wagner, Acta Cryst. B69 (2013) 249-259).
;
_refine_ls_abs_structure_Flack   -0.8(10)
_refine_ls_extinction_method     none
_refine_ls_goodness_of_fit_ref   1.037
_refine_ls_hydrogen_treatment    constr
_refine_ls_matrix_type           full
_refine_ls_number_parameters     175
_refine_ls_number_reflns         3249
_refine_ls_number_restraints     1
_refine_ls_restrained_S_all      1.037
_refine_ls_R_factor_all          0.0837
_refine_ls_R_factor_gt           0.0773
_refine_ls_shift/su_max          0.000
_refine_ls_shift/su_mean         0.000
_refine_ls_structure_factor_coef Fsqd
_refine_ls_weighting_details
'w=1/[\s^2^(Fo^2^)+(0.1318P)^2^+0.0205P] where P=(Fo^2^+2Fc^2^)/3'
_refine_ls_weighting_scheme      calc
_refine_ls_wR_factor_gt          0.1938
_refine_ls_wR_factor_ref         0.2014
_reflns_Friedel_coverage         0.859
_reflns_Friedel_fraction_full    0.983
_reflns_Friedel_fraction_max     0.939
_reflns_number_gt                2895
_reflns_number_total             3249
_reflns_threshold_expression     'I > 2\s(I)'
_cod_data_source_file            sc9b06016_si_004.cif
_cod_data_source_block           Compound5h
_cod_depositor_comments
;
The following automatic conversions were performed:

data item '_exptl_absorpt_correction_type' value 'Empirical' was
changed to 'empirical' in accordance with the
/home/data/users/saulius/crontab/automatic-downloads/rss-feeds/ACS/lib/dictionaries/cif_core.dic
dictionary named 'cif_core.dic' version 2.4.2 last updated on
2011-04-26.

Automatic conversion script
Id: cif_fix_values 6909 2019-04-08 15:41:33Z antanas 
;
_cod_original_sg_symbol_H-M      'P 21'
_cod_database_code               4517151
_shelx_space_group_comment
;
The symmetry employed for this shelxl refinement is uniquely defined
by the following loop, which should always be used as a source of
symmetry information in preference to the above space-group names.
They are only intended as comments.
;
_shelxl_version_number           2014-3
_shelx_res_file
;
TITL mo_F11_01m in P2(1)
CELL  0.71069   7.3993  11.5801   7.7694   90.000  103.973   90.000
ZERR     2.00   0.0004   0.0006   0.0004    0.000    0.003    0.000
LATT  -1
SYMM  - X, 1/2 + Y, - Z
SFAC  C    H    O
UNIT  26 36 12
MERG   2
acta
FMAP   2
PLAN    5
LIST   1
L.S.   20
WGHT    0.131800    0.020500
FVAR       1.25936
C1    1    0.378816    0.745982    0.458540    11.00000    0.01444    0.02022 =
         0.02602   -0.00078    0.01250    0.00579
C2    1    0.443376    0.729419    0.757168    11.00000    0.01573    0.01552 =
         0.02610    0.00278    0.01318    0.00087
AFIX  23
H2A   2    0.554834    0.709769    0.846976    11.00000   -1.20000
H2B   2    0.334977    0.708549    0.799942    11.00000   -1.20000
AFIX   0
C3    1    0.440666    0.858059    0.711046    11.00000    0.01179    0.01486 =
         0.02117    0.00264    0.00987    0.00176
C4    1    0.634034    0.909813    0.741304    11.00000    0.01023    0.02214 =
         0.03341    0.00102    0.01270   -0.00071
AFIX   7
H4A   2    0.709285    0.862495    0.684748    11.00000   -1.50000
H4B   2    0.689747    0.913462    0.866297    11.00000   -1.50000
H4C   2    0.625501    0.986226    0.692079    11.00000   -1.50000
AFIX   0
C5    1    0.303563    0.924993    0.792179    11.00000    0.00740    0.01317 =
         0.01858   -0.00089    0.00818   -0.00157
AFIX  13
H5    2    0.181980    0.886953    0.755866    11.00000   -1.20000
AFIX   0
C6    1    0.363432    0.923120    0.994558    11.00000    0.01244    0.01768 =
         0.01904    0.00193    0.00693    0.00179
AFIX  23
H6A   2    0.372711    0.843784    1.035820    11.00000   -1.20000
H6B   2    0.485294    0.958490    1.033719    11.00000   -1.20000
AFIX   0
C7    1    0.225096    0.987513    1.073724    11.00000    0.01570    0.01576 =
         0.01442   -0.00040    0.00658    0.00031
AFIX  13
H7    2    0.253697    0.991944    1.203460    11.00000   -1.20000
AFIX   0
C8    1    0.106072    1.080293    0.975847    11.00000    0.01021    0.01411 =
         0.01684   -0.00242    0.00798   -0.00299
C9    1    0.120842    1.110569    0.789220    11.00000    0.01093    0.01109 =
         0.01772   -0.00043    0.00586    0.00050
AFIX  13
H9    2    0.002688    1.092085    0.705238    11.00000   -1.20000
AFIX   0
C10   1    0.279621    1.050256    0.730007    11.00000    0.01478    0.01467 =
         0.01957    0.00216    0.01182    0.00195
AFIX  23
H10A  2    0.254652    1.052370    0.601608    11.00000   -1.20000
H10B  2    0.394757    1.091836    0.777075    11.00000   -1.20000
AFIX   0
C11   1    0.018094    1.168591    1.071642    11.00000    0.01892    0.01746 =
         0.02068   -0.00451    0.01213   -0.00059
AFIX   7
H11A  2   -0.108758    1.180963    1.008111    11.00000   -1.50000
H11B  2    0.085740    1.239884    1.079001    11.00000   -1.50000
H11C  2    0.021155    1.141381    1.189019    11.00000   -1.50000
AFIX   0
C12   1    0.096007    1.287493    0.629191    11.00000    0.01576    0.02077 =
         0.01852    0.00385    0.01130    0.00583
C13   1    0.140789    1.414007    0.648265    11.00000    0.03305    0.01949 =
         0.02197    0.00566    0.01371    0.00523
AFIX   7
H13A  2    0.271639    1.425116    0.659208    11.00000   -1.50000
H13B  2    0.107891    1.443327    0.752197    11.00000   -1.50000
H13C  2    0.071467    1.454471    0.545584    11.00000   -1.50000
AFIX   0
O1    3    0.340957    0.719939    0.305436    11.00000    0.03088    0.02814 =
         0.02840   -0.00533    0.01415    0.00548
O2    3    0.441122    0.672304    0.592692    11.00000    0.02712    0.01639 =
         0.02753   -0.00140    0.01481    0.00306
O3    3    0.363552    0.853987    0.518077    11.00000    0.01812    0.01602 =
         0.02080    0.00039    0.01133    0.00498
O4    3    0.032695    0.965094    0.984470    11.00000    0.01251    0.01502 =
         0.02334    0.00044    0.01126   -0.00322
O5    3    0.151478    1.233869    0.787639    11.00000    0.01625    0.01234 =
         0.01700    0.00060    0.00888    0.00134
O6    3    0.021672    1.238885    0.494458    11.00000    0.03196    0.02513 =
         0.01822    0.00301    0.00990    0.00786
HKLF    4

REM  mo_F11_01m in P2(1)
REM R1 =  0.0773 for    2895 Fo > 4sig(Fo)  and  0.0837 for all    3249 data
REM    175 parameters refined using      1 restraints

END

WGHT      0.1314      0.0256

REM Highest difference peak  0.532,  deepest hole -0.611,  1-sigma level  0.120
Q1    1   0.1745  1.0399  1.0379  11.00000  0.05    0.53
Q2    1  -0.0124  1.0230  0.9256  11.00000  0.05    0.46
Q3    1  -0.0654  1.0007  0.8984  11.00000  0.05    0.43
Q4    1  -0.0568  1.2827  0.4172  11.00000  0.05    0.42
Q5    1   0.2342  0.8731  0.4178  11.00000  0.05    0.42
;
_shelx_res_checksum              73299
_shelx_hkl_file
;
   0   0  -1   47.89    1.28
   0   0  -1   51.26    1.33
   0   0   1   63.31    3.31
   0   0   1   42.35    1.18
   0   0   1   49.31    1.32
   0   0  -2   -1.13    2.39
   0   0  -2    1.41    0.89
   0   0  -2    0.77    0.89
   0   0   2    0.70    2.41
   0   0   2    1.19    0.79
   0   0   2    0.84    0.84
   0   0  -3  418.83   13.75
   0   0  -3  315.30    5.46
   0   0   3  309.72   12.18
   0   0   3  267.31    4.96
   0   0   3  259.25    5.07
   0   0  -4 5087.50   52.37
   0   0  -4 3771.30   21.22
   0   0   4 3526.97   43.69
   0   0   4 3032.66   18.44
   0   0   4 3030.09   19.39
   0   0  -5   68.95   10.54
   0   0  -5   61.70    4.06
   0   0   5   53.82   10.54
   0   0   5   46.21    3.54
   0   0   5   42.41    3.71
   0   0  -6   42.06   11.82
   0   0  -6   23.94    3.38
   0   0   6   23.84   11.08
   0   0   6   17.25    3.07
   0   0   6   11.77    2.87
   0   0  -7  234.41   23.25
   0   0  -7  171.18    7.63
   0   0   7  107.93   18.77
   0   0   7  115.51    6.29
   0   0   7  117.62    6.62
   0   0  -8   57.83   20.16
   0   0  -8   95.22    7.71
   0   0   8   46.23   21.46
   0   0   8   50.83    5.51
   0   0   8   53.39    6.37
   0   0  -9    2.41    5.32
   0   0   9    1.20    5.19
   0   0   9   -7.09    2.97
   0   0  10   84.26    8.75
   0   0  10   70.12    7.74
   0  -1  -1 1350.38   14.90
   0  -1  -1 1200.28    6.53
   0  -1  -1 1206.15    5.00
   0  -1   1 2386.62   16.57
   0  -1   1 1251.99    5.25
   0  -1   1 1120.92    7.61
   0   1  -1 2501.53   17.01
   0   1  -1 1388.84    7.20
   0   1   1 1251.16   14.28
   0   1   1 1138.84    6.38
   0   1   1 1152.19    4.91
   0  -1  -2  227.70    8.73
   0  -1  -2  227.34    3.95
   0  -1  -2  238.28    3.57
   0  -1   2  296.11    9.03
   0  -1   2  218.37    3.36
   0  -1   2  224.12    4.05
   0   1  -2  394.06   10.16
   0   1  -2  258.12    3.80
   0   1  -2  237.47    4.18
   0   1   2  229.40    8.74
   0   1   2  207.42    3.79
   0   1   2  214.72    3.43
   0  -1  -3 2200.66   30.77
   0  -1  -3 1892.74   13.33
   0  -1   3 2218.99   29.01
   0  -1   3 1631.31   11.14
   0  -1   3 1652.07   12.87
   0   1  -3 2909.69   39.61
   0   1  -3 2024.68   12.97
   0   1   3 1832.54   28.29
   0   1   3 1610.76   12.19
   0   1   3 1641.70   11.61
   0  -1  -4   15.88    6.63
   0  -1  -4   25.12    2.77
   0  -1   4   30.56    6.68
   0  -1   4   19.54    2.39
   0  -1   4   18.35    2.52
   0   1  -4   43.76    7.54
   0   1  -4   25.23    2.80
   0   1   4   15.01    6.70
   0   1   4   22.75    2.52
   0   1   4   19.83    2.47
   0  -1  -5  661.72   23.77
   0  -1  -5  519.83    9.35
   0  -1   5  492.35   20.40
   0  -1   5  401.48    7.57
   0  -1   5  414.35    8.70
   0   1  -5  782.80   24.69
   0   1  -5  596.08    9.72
   0   1   5  471.35   21.04
   0   1   5  405.48    8.19
   0   1   5  413.18    8.20
   0  -1  -6   71.65   17.09
   0  -1  -6   89.12    5.22
   0  -1   6   65.88   13.29
   0  -1   6   56.79    4.25
   0  -1   6   66.80    5.03
   0   1  -6  186.48   17.48
   0   1  -6   72.89    4.98
   0   1   6   62.25   13.62
   0   1   6   48.74    4.76
   0   1   6   51.24    4.13
   0  -1  -7  189.22   21.06
   0  -1  -7  125.44    7.04
   0  -1   7   94.73   18.09
   0  -1   7   78.78    5.58
   0  -1   7   75.44    5.74
   0   1  -7  142.57   19.78
   0   1  -7  116.87    6.83
   0   1   7  106.31   19.75
   0   1   7   82.50    6.16
   0   1   7   78.14    5.66
   0  -1  -8  140.05   24.01
   0  -1  -8   93.91    7.65
   0  -1   8   66.80   22.02
   0  -1   8   64.71    7.57
   0  -1   8   55.27    5.68
   0   1  -8   94.57   21.28
   0   1  -8   99.34    7.66
   0   1   8  110.62   24.64
   0   1   8   55.46    6.74
   0   1   8   57.93    5.65
   0  -1  -9   52.45   35.77
   0  -1  -9   70.04    8.28
   0  -1   9   25.97    5.37
   0  -1   9   29.98    5.43
   0   1  -9   60.30    7.31
   0   1   9   28.26    6.32
   0   1   9   23.56    5.08
   0  -1  10   34.38    7.21
   0  -1  10   33.41    6.20
   0   1  10   38.03    8.16
   0   1  10   34.75    6.43
   0  -2   0  605.84    8.30
   0  -2   0  914.89    4.19
   0  -2   0 1284.88    4.84
   0   2   0 1046.27   10.87
   0   2   0  869.70    4.43
   0  -2  -1 4425.52   30.06
   0  -2   1 9181.22   34.06
   0   2  -1 7746.49   31.30
   0   2   1 4317.37   29.73
   0  -2  -2  113.14    7.12
   0  -2  -2  119.27    3.17
   0  -2  -2  125.21    2.43
   0  -2   2  185.96    7.37
   0  -2   2  119.55    2.36
   0  -2   2  116.87    3.23
   0   2  -2  257.41    8.30
   0   2  -2  153.13    2.90
   0   2   2  101.49    6.92
   0   2   2  106.96    3.02
   0   2   2  112.01    2.34
   0  -2  -3 1368.21   25.52
   0  -2  -3 1263.27   11.35
   0  -2  -3 1346.72   10.12
   0  -2   3 1531.24   23.87
   0  -2   3 1095.82    8.64
   0  -2   3 1115.25   11.15
   0   2  -3 2332.70   29.26
   0   2  -3 1487.30   10.94
   0   2   3 1155.28   23.59
   0   2   3 1083.75   10.56
   0   2   3 1088.21    8.97
   0  -2  -4  172.20   14.58
   0  -2  -4  149.79    4.89
   0  -2   4  149.56   11.48
   0  -2   4  127.02    3.86
   0  -2   4  120.16    4.71
   0   2  -4  245.97   13.51
   0   2   4  127.62   12.25
   0   2   4  127.15    4.75
   0   2   4  116.65    3.93
   0  -2  -5  306.25   19.09
   0  -2  -5  277.62    7.19
   0  -2   5  272.86   17.11
   0  -2   5  225.15    5.63
   0  -2   5  225.16    6.85
   0   2  -5  470.12   20.09
   0   2  -5  322.14    7.15
   0   2   5  206.30   17.40
   0   2   5  217.55    6.43
   0   2   5  220.37    5.99
   0  -2  -6  272.63   22.13
   0  -2  -6  224.93    7.53
   0  -2   6  162.43   17.53
   0  -2   6  159.94    5.70
   0  -2   6  171.43    7.03
   0   2  -6  394.65   22.83
   0   2  -6  251.62    7.46
   0   2   6  205.46   25.21
   0   2   6  160.53    6.46
   0   2   6  168.16    6.20
   0  -2  -7  227.20   23.75
   0  -2  -7  156.51    7.63
   0  -2   7   95.93   17.85
   0  -2   7  113.59    5.87
   0  -2   7  108.27    6.59
   0   2  -7  188.40   20.65
   0   2  -7  158.28    7.28
   0   2   7  119.39   21.30
   0   2   7   74.56    8.48
   0   2   7  102.03    6.00
   0  -2  -8   98.93   21.84
   0  -2  -8   88.31    7.92
   0  -2   8   76.45   22.03
   0  -2   8   59.33    6.12
   0  -2   8   55.45    5.94
   0   2  -8  120.14   23.02
   0   2  -8   89.56    7.68
   0   2   8   42.20   23.20
   0   2   8   60.51    6.47
   0   2   8   58.68    5.84
   0  -2  -9   62.70   27.47
   0  -2  -9   17.41    5.95
   0  -2   9    9.15    4.74
   0  -2   9    9.66    4.48
   0   2  -9   27.22    5.66
   0   2   9   14.48    6.31
   0   2   9   12.19    4.37
   0  -2  10   -4.45    5.78
   0  -2  10   -1.63    4.68
   0   2  10   10.54    7.89
   0   2  10   12.96    5.10
   0  -3   0    3.69    1.82
   0  -3   0    0.92    0.51
   0  -3   0    2.12    0.48
   0  -3   0    1.06    0.50
   0   3   0    0.15    1.67
   0   3   0    0.61    0.59
   0   3   0    2.96    0.64
   0  -3  -1  225.06    3.53
   0  -3  -1  221.81    2.17
   0  -3   1  291.66    7.11
   0  -3   1  405.91    8.34
   0  -3   1  193.16    1.84
   0  -3   1  290.19    2.21
   0  -3   1  245.49    3.81
   0   3  -1  423.02    3.69
   0   3  -1  298.89    4.22
   0   3   1  186.33    7.61
   0   3   1  205.27    3.52
   0  -3  -2   59.23    6.59
   0  -3  -2   75.07    2.81
   0  -3  -2   70.71    1.73
   0  -3   2  123.98    6.83
   0  -3   2   67.56    1.69
   0  -3   2   69.66    2.86
   0   3  -2  114.20    6.22
   0   3  -2  101.95    2.48
   0   3   2   64.78    6.94
   0   3   2   59.34    2.57
   0   3   2   56.24    1.95
   0  -3  -3  498.15   16.99
   0  -3  -3  551.50    7.96
   0  -3  -3  571.47    6.16
   0  -3   3  768.06   17.27
   0  -3   3  457.47    5.29
   0  -3   3  492.86    7.96
   0   3  -3  988.27   19.25
   0   3  -3  712.87    7.62
   0   3   3  471.09   16.77
   0   3   3  448.58    7.31
   0   3   3  453.22    5.53
   0  -3  -4   46.55    8.97
   0  -3  -4   74.95    3.99
   0  -3   4   93.01    9.90
   0  -3   4   58.22    2.73
   0  -3   4   68.32    4.07
   0   3  -4  111.03   10.74
   0   3  -4   80.03    5.96
   0   3   4   70.81   10.83
   0   3   4   57.90    3.75
   0   3   4   59.40    2.97
   0  -3  -5   18.30    9.78
   0  -3  -5   13.69    2.75
   0  -3   5   12.15    8.28
   0  -3   5    9.14    1.89
   0  -3   5   10.91    2.66
   0   3  -5   15.00    7.95
   0   3  -5   10.97    2.30
   0   3   5   10.41   10.02
   0   3   5    9.20    2.50
   0  -3  -6  174.26   21.32
   0  -3   6  174.25   19.81
   0  -3   6  129.43    5.00
   0  -3   6  129.15    6.41
   0   3  -6  317.96   20.86
   0   3  -6  210.85    6.98
   0   3   6  141.52   18.19
   0   3   6  139.22    6.37
   0   3   6  122.65    5.40
   0  -3  -7  129.95   19.71
   0  -3  -7  125.37    7.23
   0  -3   7   90.08   18.20
   0  -3   7   81.36    5.08
   0  -3   7   78.92    6.34
   0   3  -7  230.77   22.62
   0   3  -7  124.68    7.02
   0   3   7   62.45   18.71
   0   3   7   84.33    6.83
   0   3   7   75.67    5.42
   0  -3  -8   94.14   23.67
   0  -3  -8   64.70    7.17
   0  -3   8   45.57    5.47
   0  -3   8   40.91    5.62
   0   3  -8   64.92   21.45
   0   3  -8   93.70    7.54
   0   3   8   56.05   24.42
   0   3   8   40.51    5.90
   0   3   8   47.42    5.43
   0  -3  -9   68.56   27.06
   0  -3  -9   36.89    6.68
   0  -3   9   28.78    5.25
   0  -3   9   33.65    5.82
   0   3  -9   52.49    6.97
   0   3   9    9.21   35.28
   0   3   9   31.09    6.87
   0   3   9   28.29    5.11
   0  -3  10   17.88    5.99
   0   3  10   16.45    8.71
   0  -4   0 3006.82   25.98
   0   4   0 3290.92   27.18
   0   4   0 2662.99   11.27
   0   4   0 3886.27   13.58
   0  -4  -1  289.41    4.28
   0  -4  -1  329.41    4.49
   0  -4  -1  116.21    1.08
   0  -4  -1  281.42    1.96
   0  -4   1  297.06    8.16
   0  -4   1  427.09    9.73
   0  -4   1  248.49    1.99
   0  -4   1  368.06    2.32
   0  -4   1  290.58    4.51
   0   4  -1  525.59    4.74
   0   4  -1  373.77    5.09
   0   4   1  248.53    4.27
   0  -4  -2   47.84    6.40
   0  -4  -2   57.37    2.81
   0  -4  -2   62.13    1.42
   0  -4   2  115.49    7.20
   0  -4   2   53.42    1.36
   0  -4   2   60.65    2.95
   0   4  -2   78.65    5.72
   0   4  -2   95.81    2.59
   0   4   2   59.14    7.14
   0   4   2   52.68    2.94
   0   4   2   61.88    1.46
   0  -4  -3   88.62    9.79
   0  -4  -3  100.52    6.15
   0  -4  -3  121.89    2.89
   0  -4   3  160.42    9.91
   0  -4   3   90.50    2.34
   0  -4   3   81.74    6.23
   0   4  -3  186.78    9.67
   0   4  -3  158.79    3.86
   0   4   3   89.93   10.24
   0   4   3   86.91    4.01
   0   4   3   90.55    2.56
   0  -4  -4   89.74   11.45
   0  -4  -4   92.38    4.38
   0  -4   4   85.98   11.62
   0  -4   4   67.63    2.60
   0  -4   4   74.37    4.30
   0   4  -4  155.96   11.55
   0   4   4   76.31   11.23
   0   4   4   71.25    4.07
   0   4   4   67.47    2.94
   0  -4  -5  157.56   17.86
   0  -4  -5  168.79    6.39
   0  -4   5  182.90   15.34
   0  -4   5  132.13    4.00
   0  -4   5  126.03    5.83
   0   4  -5  298.86   16.88
   0   4  -5  210.49    5.99
   0   4   5  127.22   15.50
   0   4   5  134.56    6.01
   0   4   5  128.82    4.48
   0  -4  -6    1.56   12.74
   0  -4  -6    4.47    3.00
   0  -4   6    9.05    9.95
   0  -4   6    2.04    1.76
   0  -4   6    3.83    2.86
   0   4  -6   12.42    9.95
   0   4  -6    5.86    2.55
   0   4   6  -23.13   12.40
   0   4   6    3.54    2.89
   0   4   6    3.92    2.29
   0  -4  -7   22.73   17.70
   0  -4  -7   31.67    4.56
   0  -4   7   21.40   14.93
   0  -4   7   23.82    3.14
   0  -4   7   22.10    4.46
   0   4  -7   52.62   14.51
   0   4  -7   38.77    4.71
   0   4   7   13.60   18.70
   0   4   7   17.68    4.41
   0   4   7   29.74    3.98
   0  -4  -8  -10.52   21.98
   0  -4  -8   17.09    5.15
   0  -4   8    8.98    3.13
   0  -4   8    4.50    3.69
   0   4  -8   22.48    4.71
   0   4   8  -42.84   23.96
   0   4   8    0.10    4.60
   0   4   8    8.01    3.46
   0  -4  -9   55.22    7.88
   0  -4   9   35.51    4.75
   0  -4   9   36.01    5.89
   0   4  -9   62.28    7.19
   0   4   9   35.98    7.48
   0  -5   0    1.18    2.92
   0  -5   0    2.85    0.78
   0  -5   0    3.44    0.74
   0  -5   0    2.69    0.84
   0   5   0   -0.58    2.80
   0   5   0    2.64    1.06
   0   5   0    4.10    0.97
   0  -5  -1 1115.74   20.38
   0  -5  -1 1751.82   10.79
   0  -5  -1 2058.39   11.64
   0  -5  -1 1783.10    4.96
   0  -5   1 1692.33   20.74
   0  -5   1 3473.99   29.48
   0  -5   1 1755.54   11.56
   0   5  -1 2777.36   12.23
   0   5   1 1473.64   23.42
   0   5   1 1480.13   11.00
   0  -5  -2  589.42   17.79
   0  -5  -2  644.75    7.96
   0  -5   2  779.64   15.30
   0  -5   2 1294.05   19.57
   0  -5   2  629.86    8.37
   0   5  -2 1143.52    8.52
   0   5   2  544.54   17.07
   0   5   2  542.35    7.80
   0  -5  -3  132.62   12.42
   0  -5  -3  151.43    4.88
   0  -5  -3  175.36    2.93
   0  -5   3  118.75    1.94
   0  -5   3  129.76    4.85
   0   5  -3  223.27   10.46
   0   5  -3  241.29    4.73
   0   5   3  119.50   11.43
   0   5   3  118.15    4.51
   0   5   3  143.75    2.69
   0  -5  -4   45.47    9.91
   0  -5  -4   55.05    3.79
   0  -5  -4   69.34    3.69
   0  -5   4   65.30    8.90
   0  -5   4   38.88    1.86
   0  -5   4   42.16    3.61
   0   5  -4   87.00   10.03
   0   5  -4   68.82    3.89
   0   5   4   48.13   10.21
   0   5   4   39.06    3.70
   0   5   4   39.78    2.36
   0  -5  -5  400.13   22.82
   0  -5  -5  373.32    8.94
   0  -5   5  380.78   19.12
   0  -5   5  261.45    4.68
   0  -5   5  263.67    8.11
   0   5  -5  577.57   21.64
   0   5  -5  496.04    8.84
   0   5   5  246.82   20.39
   0   5   5  267.94    7.89
   0   5   5  266.96    5.73
   0  -5  -6  200.24   24.18
   0  -5  -6  209.48    8.15
   0  -5   6  205.19   19.85
   0  -5   6  137.97    4.24
   0  -5   6  158.49    7.35
   0   5  -6  292.69   20.73
   0   5  -6  268.83    7.86
   0   5   6  160.08   20.55
   0   5   6  108.98    9.07
   0   5   6  141.92    5.28
   0  -5  -7   70.63    6.73
   0  -5   7   45.06   16.02
   0  -5   7   39.75    3.60
   0  -5   7   45.19    5.36
   0   5  -7   89.52   16.62
   0   5  -7   62.27    6.04
   0   5   7   16.68   21.04
   0   5   7   44.19    5.83
   0   5   7   36.34    4.44
   0  -5  -8   35.66   22.99
   0  -5  -8   -2.95    4.58
   0  -5   8   -0.59    2.61
   0  -5   8    2.09    3.70
   0   5  -8   -0.69    4.03
   0   5   8  -47.78   25.97
   0   5   8   -0.84    4.97
   0   5   8    0.03    3.28
   0  -5   9    9.80    3.57
   0  -5   9    6.04    4.92
   0   5  -9   31.34    7.01
   0   5   9   13.85    6.94
   0   5   9   16.46    4.51
   0  -6   0 1393.61   22.04
   0  -6   0 1642.40    8.26
   0  -6   0 2716.02   10.58
   0  -6   0 1646.30    9.41
   0   6   0 1636.12   23.96
   0   6   0 1345.72   10.22
   0   6   0 1883.99   12.00
   0  -6  -1  591.33   16.43
   0  -6  -1  722.44    7.29
   0  -6  -1  906.00    8.10
   0  -6  -1  659.39    3.55
   0  -6   1  598.50   13.99
   0  -6   1  958.02   17.55
   0  -6   1  695.93    7.83
   0   6  -1 1040.85    8.44
   0   6   1  612.95   16.96
   0   6   1  586.78    7.64
   0  -6  -2  929.39    9.79
   0  -6  -2  980.56    9.99
   0  -6   2  933.48   17.76
   0  -6   2 1727.60   23.84
   0  -6   2  853.98   10.18
   0   6  -2 1513.43   10.55
   0   6   2  721.27   20.79
   0   6   2  755.53    9.70
   0  -6  -3  101.84   12.15
   0  -6  -3  120.88    4.59
   0  -6   3  220.00   11.79
   0  -6   3  115.13    4.82
   0   6  -3  192.80    4.48
   0   6   3   88.41   11.41
   0   6   3   90.39    4.44
   0  -6  -4  706.32   26.21
   0  -6  -4  819.59   11.72
   0  -6   4 1160.83   25.28
   0  -6   4  672.28   11.60
   0   6  -4 1106.76   24.31
   0   6  -4 1241.91   12.17
   0   6   4  627.30   25.02
   0   6   4  630.34   11.01
   0   6   4  716.09    6.62
   0  -6  -5  521.70   27.72
   0  -6  -5  597.81   11.36
   0  -6   5  602.75   22.65
   0  -6   5  406.38    4.21
   0  -6   5  436.87   10.50
   0   6  -5  769.69   23.75
   0   6  -5  836.68   11.42
   0   6   5  454.26   25.75
   0   6   5  418.68    9.99
   0   6   5  462.66    6.79
   0  -6  -6  126.92   20.21
   0  -6  -6  134.67    6.96
   0  -6   6  187.36   20.66
   0  -6   6  102.09    3.00
   0  -6   6   98.47    6.46
   0   6  -6  178.54   19.02
   0   6  -6  202.94    7.14
   0   6   6  126.74   20.04
   0   6   6   91.18    6.79
   0  -6  -7  -10.23   20.28
   0  -6  -7   28.83    5.15
   0  -6   7   20.84    2.20
   0  -6   7   19.36    4.44
   0   6  -7   68.22   22.53
   0   6  -7   52.87    5.72
   0   6   7   47.35   25.62
   0   6   7   15.07    4.77
   0   6   7   34.18    3.80
   0  -6  -8   98.30    9.57
   0  -6   8   60.17    6.58
   0   6  -8  109.48    8.37
   0   6   8   84.79    8.80
   0   6   8   69.25    5.71
   0  -6   9  138.80    9.57
   0   6  -9  276.55   12.69
   0   6   9  142.09   13.37
   0   6   9  147.38    8.26
   0  -7   0   12.62    4.58
   0  -7   0    5.28    0.86
   0  -7   0    9.49    1.14
   0  -7   0    1.79    1.07
   0   7   0   -2.07    3.89
   0   7   0    4.05    1.28
   0  -7  -1  171.12   11.11
   0  -7  -1  220.80    4.32
   0  -7  -1  283.51    4.77
   0  -7  -1  181.48    2.16
   0  -7   1  177.02    9.65
   0  -7   1  206.14    4.72
   0   7  -1  275.00    4.97
   0   7   1  184.65   11.56
   0   7   1  168.98    4.71
   0  -7  -2  326.71    6.17
   0  -7  -2  336.91    6.25
   0  -7   2  286.69   11.81
   0  -7   2  566.75   15.39
   0   7  -2  496.34    6.65
   0   7   2  247.44    6.24
   0  -7  -3  181.51   15.43
   0  -7  -3  204.99    5.79
   0  -7  -3  207.25    5.86
   0  -7   3  209.08   11.48
   0  -7   3  397.58   15.16
   0  -7   3  188.90    6.15
   0   7  -3  331.40    6.03
   0   7   3  139.06   14.81
   0   7   3  155.41    5.82
   0  -7  -4   88.76   13.43
   0  -7  -4   97.63    5.14
   0  -7   4  110.99   12.50
   0  -7   4   76.88    5.17
   0   7  -4  150.33    4.94
   0   7   4   71.53   13.29
   0   7   4   63.17    5.07
   0  -7  -5   99.67   17.31
   0  -7  -5  108.81    6.19
   0  -7   5  122.29   13.59
   0  -7   5   75.75    5.95
   0   7  -5  114.09   12.01
   0   7  -5  176.34    5.97
   0   7   5   91.22   16.90
   0   7   5   81.94    5.96
   0   7   5   93.27    3.26
   0  -7  -6  119.95   21.14
   0  -7  -6  155.41    7.71
   0  -7   6  146.70   17.39
   0  -7   6  107.84    7.28
   0   7  -6  184.95   19.49
   0   7  -6  218.79    7.42
   0   7   6  111.04   21.08
   0   7   6  113.19    7.07
   0   7   6  115.18    4.38
   0  -7  -7   82.98   25.30
   0  -7  -7   75.33    7.68
   0  -7   7   53.64    5.90
   0   7  -7  107.20    7.13
   0   7   7   23.47   25.24
   0   7   7   52.18    6.67
   0   7   7   50.69    4.47
   0  -7  -8   26.52    6.30
   0  -7   8   14.07    4.77
   0   7  -8   43.41    6.03
   0   7   8   27.43    6.82
   0   7   8   18.62    3.97
   0  -7   9   77.62    8.31
   0   7  -9  162.63   12.19
   0   7   9   78.39    7.10
   0  -8   0  343.59   14.26
   0  -8   0  529.11    4.20
   0  -8   0  771.36    5.00
   0  -8   0  408.58    5.48
   0   8   0  442.85   15.76
   0   8   0  486.34   11.65
   0  -8  -1  150.52   11.90
   0  -8  -1  209.85    4.30
   0  -8  -1  273.40    4.75
   0  -8  -1  159.25    2.16
   0  -8   1  142.79   10.39
   0  -8   1  246.07   12.50
   0  -8   1  170.85    4.63
   0   8  -1  229.63    5.02
   0   8   1  172.97   12.72
   0   8   1  152.77    4.90
   0  -8  -2   42.56   10.02
   0  -8  -2   38.90    3.00
   0  -8  -2   38.88    2.91
   0  -8   2   26.30    6.17
   0  -8   2   60.92    8.07
   0  -8   2   32.64    3.20
   0   8  -2   48.56    2.91
   0   8   2   24.67    8.95
   0   8   2   29.36    3.46
   0  -8  -3  506.50   23.02
   0  -8  -3  551.92    9.21
   0  -8  -3  556.58    9.20
   0  -8   3  495.49   16.54
   0  -8   3 1033.76   22.92
   0  -8   3  449.33    9.28
   0   8  -3  843.20   10.42
   0   8   3  406.90   21.71
   0   8   3  410.62    9.02
   0  -8  -4  625.42   28.14
   0  -8  -4  705.60   11.54
   0  -8  -4  644.90   11.11
   0  -8   4  709.72   21.51
   0  -8   4 1046.18   25.32
   0  -8   4  559.92   11.46
   0   8  -4 1111.87   12.32
   0   8   4  505.16   26.27
   0   8   4  501.32   10.81
   0  -8  -5  208.73   24.51
   0  -8   5  277.46   19.52
   0  -8   5  160.52    7.65
   0   8  -5  333.24    7.97
   0   8   5  140.57   21.51
   0   8   5  165.47    7.53
   0  -8  -6   95.70   21.51
   0  -8  -6   99.54    7.05
   0  -8   6   73.46    6.31
   0   8  -6   92.07   16.43
   0   8   6   51.38   21.15
   0   8   6   61.83    6.88
   0  -8  -7  104.44    8.68
   0  -8   7   71.66    6.71
   0   8  -7  138.03    7.98
   0   8   7   80.69    8.45
   0   8   7   78.04    4.56
   0  -8  -8   14.79    6.65
   0  -8   8    8.68    4.63
   0   8  -8   28.65    5.85
   0   8   8   12.68    7.11
   0   8   8   16.52    3.55
   0  -9   0    5.55    6.48
   0  -9   0   -0.37    1.26
   0   9   0    6.89    6.10
   0   9   0    2.01    1.61
   0  -9  -1   27.99    7.92
   0  -9  -1   57.05    2.70
   0  -9  -1   81.92    2.91
   0  -9  -1   38.92    1.32
   0  -9   1   32.09    7.15
   0  -9   1   76.31    9.46
   0  -9   1   42.63    3.14
   0   9  -1   56.25    3.33
   0   9   1   44.02    9.17
   0   9   1   34.80    3.60
   0  -9  -2   85.10   12.14
   0  -9  -2   97.58    4.37
   0  -9  -2  104.90    4.08
   0  -9   2   88.79    9.17
   0  -9   2  149.22   12.62
   0  -9   2   76.11    4.36
   0   9  -2  118.39    4.30
   0   9   2   61.77   11.20
   0   9   2   73.28    4.73
   0  -9  -3   17.69    2.83
   0  -9  -3   17.82    2.80
   0  -9   3   -2.42    6.97
   0  -9   3   34.48    9.07
   0  -9   3   11.22    2.69
   0   9  -3   23.96    2.99
   0   9   3   -1.83   10.27
   0   9   3   13.06    3.22
   0  -9  -4  128.58   17.64
   0  -9  -4  162.89    6.60
   0  -9  -4  142.39    6.29
   0  -9   4  117.41   14.59
   0  -9   4  242.90   17.27
   0  -9   4  124.16    6.41
   0   9  -4  235.57    6.49
   0   9   4   87.86   17.32
   0   9   4   94.29    7.43
   0  -9  -5   42.68   18.23
   0  -9  -5   41.21    4.86
   0  -9  -5   35.25    5.16
   0  -9   5    3.90   10.67
   0  -9   5   39.25   13.17
   0  -9   5   26.16    4.45
   0   9  -5   51.03    4.72
   0   9   5   21.16   17.21
   0   9   5   25.24    4.65
   0  -9  -6   17.49    4.58
   0  -9   6   -0.68    3.18
   0   9  -6   11.30    3.53
   0   9   6    6.87    4.69
   0  -9  -7   42.56    6.84
   0  -9   7   23.44    4.97
   0   9  -7   59.38    7.25
   0   9   7   21.60    6.42
   0  -9  -8   22.87    7.23
   0  -9   8   10.83    4.48
   0   9  -8   20.08    6.20
   0   9   8   -4.04   10.10
   0 -10   0  144.33   14.47
   0 -10   0  140.57    3.92
   0  10   0  204.38   14.69
   0  10   0  162.70    5.56
   0 -10  -1   74.43   11.40
   0 -10  -1  142.05    3.37
   0 -10  -1  179.08    3.63
   0 -10   1  106.61   13.05
   0 -10   1  136.75   14.67
   0 -10   1   98.34    4.74
   0  10  -1  119.52    4.73
   0  10   1   98.24   12.73
   0 -10  -2  509.12   24.10
   0 -10  -2  714.73    9.06
   0 -10  -2  841.82    9.73
   0 -10   2  482.18   18.35
   0 -10   2  979.16   24.34
   0 -10   2  502.92    9.34
   0  10  -2  750.49   10.21
   0  10   2  514.57   24.17
   0  10   2  467.07    9.97
   0 -10  -3   45.50   13.65
   0 -10  -3  251.84    6.84
   0 -10  -3  252.54    6.73
   0 -10   3  202.27   15.27
   0 -10   3  394.04   19.13
   0 -10   3  175.35    6.69
   0  10  -3  291.80    6.96
   0  10   3  180.15   19.66
   0  10   3  173.40    7.55
   0 -10  -4  286.83   27.55
   0 -10  -4  379.22    9.20
   0 -10  -4  374.61    9.12
   0 -10   4  278.35   18.53
   0 -10   4  505.56   22.72
   0 -10   4  267.51    8.73
   0  10  -4  499.94    9.37
   0  10   4  327.46   28.24
   0  10   4  243.50    8.84
   0 -10  -5   80.07    6.58
   0 -10  -5   44.19    5.10
   0  10  -5  105.49    6.11
   0  10   5   32.29    5.58
   0 -10  -6   33.82    5.45
   0 -10  -6   38.25    6.10
   0 -10   6   26.67    4.66
   0  10  -6   48.90    5.06
   0  10   6   23.21    5.76
   0 -10  -7   93.69    9.98
   0 -10   7   46.78    6.28
   0  10  -7   87.06    8.23
   0  10   7   38.66    7.71
   0 -11   0   -0.47    9.35
   0 -11   0    6.57    1.85
   0  11   0   -2.80    8.95
   0 -11  -1  112.16   13.83
   0 -11  -1  216.78    4.36
   0 -11  -1  249.28    2.85
   0 -11   1  127.20   15.64
   0 -11   1  193.35   18.04
   0 -11   1  119.16    4.85
   0  11  -1  160.57    5.79
   0  11   1  138.14   17.05
   0 -11  -2   28.80   11.70
   0 -11  -2   55.33    3.57
   0 -11  -2   66.76    3.49
   0 -11   2   45.45    9.92
   0 -11   2   83.32   12.15
   0 -11   2   34.65    4.04
   0  11  -2   50.17    4.13
   0  11   2   52.99   13.10
   0  11   2   31.95    4.10
   0 -11  -3    5.83   15.61
   0 -11  -3   38.83    4.26
   0 -11  -3   46.00    4.15
   0 -11   3   49.50   12.72
   0 -11   3   35.52    4.36
   0  11  -3   41.99    4.28
   0  11   3   11.69   14.12
   0  11   3   25.61    4.68
   0 -11  -4   34.82    4.25
   0 -11  -4   34.64    4.02
   0 -11   4   18.79   11.54
   0 -11   4   27.65    4.45
   0  11  -4   45.28    4.85
   0  11   4   24.10    5.14
   0 -11  -5   -2.59    3.95
   0 -11  -5    1.23    3.98
   0 -11   5   -1.30    3.16
   0  11  -5   -0.09    3.88
   0  11   5    0.27    4.69
   0 -11  -6   49.12    6.33
   0 -11  -6   41.26    6.17
   0 -11   6   26.06    5.26
   0  11  -6   72.43    7.38
   0  11   6   39.69    6.96
   0 -11  -7   18.99    6.74
   0 -11  -7   16.23    7.40
   0 -11   7   18.23    5.01
   0  11  -7   23.67    6.23
   0  11   7   50.28   14.08
   0 -12   0  212.05   20.18
   0 -12   0  193.65    4.63
   0  12   0  273.93   20.09
   0 -12  -1   12.72   13.96
   0 -12   1   25.97   11.14
   0 -12   1   21.31    2.99
   0  12  -1   24.19    3.43
   0  12   1   30.55   18.85
   0 -12  -2  137.18    4.03
   0 -12  -2  149.33    4.08
   0 -12   2   65.45   14.00
   0 -12   2   78.21    5.22
   0  12  -2  106.75    5.65
   0 -12  -3   44.59    4.42
   0 -12  -3   36.37    4.20
   0 -12   3   22.94   11.51
   0 -12   3   21.62    3.81
   0  12  -3   38.38    4.17
   0  12   3   22.32    4.50
   0 -12  -4   32.87    4.24
   0 -12  -4   25.31    4.07
   0 -12   4   19.13    4.29
   0  12   4   21.31    5.65
   0 -12  -5   20.57    5.04
   0 -12  -5   25.24    5.04
   0 -12   5    8.12    3.98
   0  12  -5   25.02    4.44
   0  12   5    7.19    6.22
   0 -12  -6   31.16    6.36
   0 -12  -6    5.17    6.02
   0 -12   6   10.74    4.32
   0  12  -6   36.62    5.70
   0  12   6    6.82    7.50
   0 -13   0    1.14    1.88
   0 -13   1   -0.98    2.62
   0  13  -1    2.54    4.04
   0 -13   2   18.99    3.65
   0 -13  -3   16.68    2.89
   0 -13   3    5.70    3.68
   0  13  -3   11.26    3.66
   0 -13  -4   51.29    6.19
   0 -13  -4   28.36    4.12
   0 -13   4   16.19    4.51
   0  13  -4   38.38    4.97
   0  13   4   23.88    6.72
   0 -13  -5    2.41    4.76
   0 -13  -5   10.98    5.02
   0 -13   5   -4.34    3.86
   0  13  -5   11.15    4.73
   0  13   5   -8.64    6.48
   0 -14   1    2.83    3.02
   0 -14   2   15.87    3.88
   0  14  -2   19.29    4.48
   0 -14  -3   76.30    4.20
   0 -14  -3   77.02    3.40
   0 -14   3   47.69    5.59
   0  14  -3   49.56    5.57
   0 -14  -4    2.34    4.31
   0 -14   4    0.94    4.02
   0  14  -4    3.16    4.54
   0 -15   2   13.34    4.15
   0  15  -2    5.68    5.01
  -1   0  10   24.73    7.36
  -1   0  10    7.25    4.57
  -1   0   9    1.64   28.98
  -1   0   9    7.85    5.32
  -1   0   9   14.92    4.68
   1   0  -9  -10.83   25.95
   1   0  -9   37.75    6.19
  -1   0   8  102.15   22.60
  -1   0   8   39.38    5.19
  -1   0   8   30.00    4.63
   1   0  -8   85.70   22.66
   1   0  -8   71.29    7.05
  -1   0   7  284.69   26.84
  -1   0   7  274.08    8.65
  -1   0   7  266.87    8.64
   1   0  -7  536.70   30.07
   1   0  -7  427.67   10.54
  -1   0   6   29.24    3.74
  -1   0   6   23.09    3.40
   1   0  -6   24.43   11.47
   1   0  -6   41.78    4.38
  -1   0   5   50.59   10.73
  -1   0   5   41.63    3.50
  -1   0   5   39.47    3.27
   1   0  -5   37.75    9.00
   1   0  -5   51.11    3.68
  -1   0   4  749.79   21.72
  -1   0   4  653.12    8.96
  -1   0   4  643.37    8.91
   1   0  -4  924.87   37.14
   1   0  -4  878.40   10.41
  -1   0   3  684.70   17.51
  -1   0   3  549.59    7.06
  -1   0   3  546.16    7.01
   1   0  -3  716.29    8.09
  -1   0   2 3650.23   32.47
  -1   0   2 2734.59   12.89
   1   0  -2 4223.55   35.28
   1   0  -2 3141.33   13.82
  -1   0   1    5.30    1.92
  -1   0   1    1.06    0.57
   1   0  -1    0.46    1.67
   1   0  -1    0.16    0.51
  -1   0   0   20.52    2.06
  -1   0   0   18.96    0.84
   1   0   0   23.16    2.16
   1   0   0   20.89    0.84
  -1   0  -1 5098.43   30.01
  -1   0  -1 5297.88   16.25
   1   0   1 5176.30   30.24
  -1   0  -2  595.46   13.58
  -1   0  -2  530.80    5.92
   1   0   2  542.59   13.01
   1   0   2  506.86    5.53
   1   0   2  531.99    6.48
  -1   0  -3  193.74   10.75
  -1   0  -3  159.34    4.31
   1   0   3  163.61   10.27
   1   0   3  141.86    3.84
   1   0   3  154.61    4.55
  -1   0  -4  648.64   20.27
  -1   0  -4  515.47    8.25
   1   0   4  481.09   18.50
   1   0   4  432.06    7.20
   1   0   4  453.14    8.28
  -1   0  -5  199.32   16.52
  -1   0  -5  187.08    6.10
   1   0   5  164.34   15.81
   1   0   5  135.95    5.00
   1   0   5  136.82    5.51
  -1   0  -6 1172.19   34.77
  -1   0  -6  950.79   14.17
   1   0   6  734.62   29.38
   1   0   6  678.16   11.13
   1   0   6  656.45   12.27
  -1   0  -7  551.44   30.24
  -1   0  -7  425.46   11.16
   1   0   7  317.03   28.54
   1   0   7  307.58    8.83
   1   0   7  287.87    9.61
  -1   0  -8   30.78   19.19
  -1   0  -8    7.65    4.21
   1   0   8   39.96   23.72
   1   0   8   -4.27    3.65
   1   0   8   -4.46    2.93
  -1   0  -9   66.48    7.99
   1   0   9   33.76    5.87
   1   0   9   36.41    5.97
  -1  -1  10  183.33   12.05
  -1  -1  10  179.82    9.66
  -1   1  10  168.95   13.06
  -1   1  10  157.71    9.47
  -1  -1   9   27.20    5.54
  -1  -1   9    5.59    3.90
  -1   1   9   36.15   30.35
  -1   1   9    4.05    5.15
  -1   1   9    3.97    3.86
   1  -1  -9   10.82   28.05
   1  -1  -9   19.01    5.78
   1   1  -9   55.43   35.35
   1   1  -9   16.68    5.67
  -1  -1   8   72.79   22.10
  -1  -1   8   36.14    5.03
  -1  -1   8   34.99    5.05
  -1   1   8   32.69   20.75
  -1   1   8   40.57    5.22
  -1   1   8   35.07    5.09
   1  -1  -8   68.60   21.22
   1  -1  -8   59.14    6.82
   1   1  -8   97.14   21.92
   1   1  -8   59.23    6.33
  -1  -1   7  421.05   29.19
  -1  -1   7  300.11    8.77
  -1  -1   7  286.35    9.16
  -1   1   7  424.85   29.64
  -1   1   7  315.59    9.38
  -1   1   7  291.93    8.54
   1  -1  -7  504.63   11.57
   1   1  -7  610.92   31.06
   1   1  -7  560.89   12.04
  -1  -1   6  166.83   18.03
  -1  -1   6  138.86    5.79
  -1  -1   6  145.60    6.25
  -1   1   6  159.90   18.18
  -1   1   6  141.64    6.28
  -1   1   6  140.18    5.55
   1  -1  -6  277.51   21.14
   1  -1  -6  204.62    6.92
   1   1  -6  222.78   26.10
   1   1  -6  215.69    7.11
  -1  -1   5  324.90   18.28
  -1  -1   5  258.29    6.43
  -1  -1   5  245.94    6.71
  -1   1   5  291.47   18.47
  -1   1   5  250.49    6.58
  -1   1   5  239.36    6.25
   1  -1  -5  472.32   20.57
   1  -1  -5  352.32    7.72
   1   1  -5  495.00   21.37
   1   1  -5  376.05    7.81
  -1  -1   4 1465.40   28.72
  -1  -1   4 1090.63   11.17
  -1  -1   4 1067.45   18.69
  -1   1   4 1187.11   27.03
  -1   1   4 1052.96   11.49
  -1   1   4 1025.99   10.62
   1  -1  -4 1660.69   31.23
   1  -1  -4 1391.16   13.13
   1   1  -4 1972.69   32.99
   1   1  -4 1521.39   13.49
  -1  -1   3  421.66   14.11
  -1  -1   3  367.07    5.78
  -1  -1   3  331.21    5.84
  -1   1   3  348.76   13.20
  -1   1   3  323.41    5.66
  -1   1   3  315.28    5.09
   1  -1  -3  450.75   14.83
   1  -1  -3  426.23    6.44
   1   1  -3  509.58   15.17
   1   1  -3  464.92    6.55
  -1  -1   2 4004.33   33.71
  -1  -1   2 2866.80   13.17
  -1  -1   2 2546.39   13.18
  -1   1   2 2860.61   28.71
  -1   1   2 2427.82   12.36
   1  -1  -2 3483.08   31.81
   1  -1  -2 2965.65   13.51
   1   1  -2 3954.02   33.43
   1   1  -2 3248.80   14.20
  -1  -1   1 6510.40   35.30
  -1   1   1 6281.54   31.74
   1   1  -1 5637.90   32.85
  -1  -1   0 2096.10   18.77
  -1   1   0 2441.07   12.75
  -1   1   0 3000.77   14.17
  -1   1   0 1968.23    8.12
   1  -1   0 1831.30    9.58
   1   1   0 2138.06   18.95
  -1  -1  -1 2510.87   24.13
  -1  -1  -1 2255.51   10.73
  -1  -1  -1 2658.31   11.14
  -1   1  -1 2689.31   18.50
  -1   1  -1 2590.92   11.95
   1  -1   1 2424.65   17.55
   1  -1   1 2493.13   11.79
   1   1   1 2516.51   24.10
   1   1   1 2648.56   11.18
  -1  -1  -2   18.36    4.24
  -1  -1  -2   23.76    1.83
  -1  -1  -2   24.78    2.07
  -1   1  -2   23.51    3.68
  -1   1  -2   22.99    1.53
   1  -1   2   30.89    4.18
   1  -1   2   24.33    1.38
   1  -1   2   23.35    1.93
   1   1   2   25.27    4.54
   1   1   2   26.99    1.90
   1   1   2   28.09    1.95
  -1  -1  -3  316.71    6.03
  -1   1  -3  422.77   13.65
  -1   1  -3  327.62    5.56
   1  -1   3  337.46   12.82
   1  -1   3  289.18    4.76
   1  -1   3  304.82    6.31
   1   1   3  279.57   13.00
   1   1   3  291.03    5.68
   1   1   3  306.02    5.83
  -1  -1  -4  886.35   24.06
  -1  -1  -4  792.39   10.46
  -1   1  -4 1093.14   24.97
  -1   1  -4  806.65    9.91
   1  -1   4  768.69   21.67
   1  -1   4  676.02    8.29
   1  -1   4  686.00   10.30
   1   1   4  691.10   21.71
   1   1   4  682.16    9.45
   1   1   4  650.14   11.40
  -1  -1  -5  136.46   15.19
  -1  -1  -5  103.00    4.92
  -1   1  -5  121.62   14.25
  -1   1  -5  116.64    4.99
   1  -1   5   91.91   12.24
   1  -1   5   90.94    4.10
   1  -1   5   79.93    4.73
   1   1   5   91.31   13.27
   1   1   5   85.57    4.57
   1   1   5   92.24    4.73
  -1  -1  -6  329.57   23.04
  -1   1  -6  427.25   23.34
  -1   1  -6  308.24    8.29
   1  -1   6  235.72   21.51
   1  -1   6  216.14    6.47
   1  -1   6  230.61    7.88
   1   1   6  231.03   22.68
   1   1   6  232.69    7.41
   1   1   6  208.89    7.16
  -1  -1  -7   45.82   16.03
  -1  -1  -7   31.74    4.74
  -1   1  -7   29.85   14.39
  -1   1  -7   33.02    4.53
   1  -1   7   29.12   15.54
   1  -1   7   18.07    3.52
   1  -1   7   16.12    3.94
   1   1   7   11.30   17.89
   1   1   7   19.02    4.01
   1   1   7   19.57    3.95
  -1  -1  -8  -10.53   19.09
  -1  -1  -8   58.91    7.05
  -1   1  -8   28.92   18.67
  -1   1  -8   43.93    5.67
   1  -1   8   26.04    5.12
   1  -1   8   24.00    4.60
   1   1   8   32.30   24.33
   1   1   8   22.48    4.68
   1   1   8   29.99    5.44
  -1  -1  -9    1.01    6.00
  -1   1  -9    7.36    6.30
   1  -1   9    3.63    4.89
   1  -1   9    1.30    3.78
   1   1   9    3.46    5.72
   1   1   9    2.43    3.93
  -1  -2  10   28.89    7.26
  -1  -2  10   19.84    5.52
  -1   2  10   40.99    8.37
  -1   2  10   18.59    5.50
  -1  -2   9    7.86    4.98
  -1  -2   9    5.12    3.90
  -1   2   9   25.37   29.16
  -1   2   9    6.65    5.62
  -1   2   9    3.63    3.71
   1  -2  -9   92.34   29.12
   1  -2  -9   11.10    5.65
   1   2  -9   15.59    5.29
  -1  -2   8  109.37   22.00
  -1  -2   8   95.02    6.83
  -1   2   8  118.89   25.13
  -1   2   8   90.59    7.66
  -1   2   8   94.43    6.49
   1  -2  -8  158.19    8.67
   1   2  -8  219.35   26.28
   1   2  -8  159.88    8.46
  -1  -2   7   41.57   15.32
  -1  -2   7   58.59    5.30
  -1  -2   7   49.39    5.40
  -1   2   7   60.50   16.43
  -1   2   7   40.00    7.58
  -1   2   7   46.31    4.64
   1  -2  -7  142.53   18.82
   1  -2  -7   84.19    6.29
   1   2  -7  169.25   21.20
   1   2  -7   90.84    6.45
  -1  -2   6   54.04   12.36
  -1  -2   6   67.48    4.60
  -1  -2   6   66.22    4.82
  -1   2   6   57.12   13.74
  -1   2   6   66.76    5.11
  -1   2   6   67.36    4.42
   1  -2  -6  107.16   15.02
   1  -2  -6  103.13    5.44
   1   2  -6  145.48   17.01
   1   2  -6  105.65    5.53
  -1  -2   5  499.33   21.15
  -1  -2   5  426.14    7.84
  -1  -2   5  414.19    8.86
  -1   2   5  433.64   20.75
  -1   2   5  392.70    8.31
  -1   2   5  402.05   11.68
   1  -2  -5  637.26   24.05
   1  -2  -5  557.46    9.71
   1   2  -5  813.91   25.47
   1   2  -5  656.37   10.19
  -1  -2   4 1483.75   28.84
  -1  -2   4 1049.41   10.76
  -1  -2   4 1006.19   11.99
  -1   2   4  961.57   24.86
  -1   2   4  964.20   11.33
  -1   2   4  952.07    9.73
   1  -2  -4 1496.87   30.31
   1  -2  -4 1296.24   12.92
   1   2  -4 1876.24   32.28
   1   2  -4 1486.14   13.31
  -1  -2   3 1141.08   22.20
  -1  -2   3  882.74    8.66
  -1  -2   3  804.99    9.41
  -1   2   3  754.61   19.01
  -1   2   3  738.40    8.66
  -1   2   3  736.75    7.10
   1  -2  -3 1044.36   22.15
   1  -2  -3  969.61    9.69
   1   2  -3 1296.04   33.73
   1   2  -3 1126.58   10.10
  -1  -2   2  855.01   16.45
  -1  -2   2  661.19    6.44
  -1  -2   2  616.18    7.05
  -1   2   2  433.17   11.96
  -1   2   2  493.24    5.84
   1  -2  -2  583.22   13.83
   1  -2  -2  596.06    6.22
   1   2  -2  703.87   14.89
   1   2  -2  734.87    7.01
  -1  -2   1  621.58   12.23
  -1  -2   1  718.87    5.93
  -1   2   1  480.14    9.40
  -1   2   1  616.14    4.78
   1  -2  -1  388.88    8.47
   1  -2  -1  685.17    4.65
   1   2  -1  658.10    5.79
  -1  -2   0 1090.63   15.78
  -1  -2   0 1382.47    8.20
  -1   2   0 1318.03    7.54
  -1   2   0 1030.83    6.15
   1  -2   0 2236.80    9.68
   1   2   0 1207.13   16.57
   1   2   0 1278.87    7.96
  -1  -2  -1  638.54   13.90
  -1  -2  -1  579.61    6.10
  -1  -2  -1  711.61    5.70
  -1   2  -1  964.78    9.06
  -1   2  -1  622.29    6.26
   1  -2   1  646.97    7.41
   1  -2   1  636.29    6.34
   1   2   1  624.32   13.84
   1   2   1  569.06    6.05
   1   2   1  780.84    6.00
  -1  -2  -2  344.55   12.57
  -1  -2  -2  319.85    5.38
  -1  -2  -2  356.90    5.02
  -1   2  -2  559.92   13.02
  -1   2  -2  328.47    3.94
   1  -2   2  371.18    9.39
   1  -2   2  328.14    5.65
   1   2   2  299.08   12.08
   1   2   2  317.08    5.32
   1   2   2  352.15    4.93
  -1  -2  -3  466.55   16.69
  -1  -2  -3  427.20   10.82
  -1   2  -3  674.59   16.12
  -1   2  -3  427.31    5.97
   1  -2   3  445.89   13.48
   1  -2   3  364.25    4.63
   1  -2   3  401.96    7.39
   1   2   3  428.99   16.41
   1   2   3  370.17    6.74
   1   2   3  405.25    6.39
  -1  -2  -4  646.19   22.45
  -1  -2  -4  547.38    9.13
  -1   2  -4  819.06   21.27
  -1   2  -4  606.63   12.60
   1  -2   4  562.58   17.75
   1  -2   4  489.77    6.50
   1  -2   4  524.20    9.39
   1   2   4  511.26   20.49
   1   2   4  498.23    8.58
   1   2   4  500.05    8.10
  -1  -2  -5   17.09    9.52
  -1  -2  -5   20.79    3.19
  -1   2  -5   27.31    8.84
  -1   2  -5   25.36    3.16
   1  -2   5   21.06    8.12
   1  -2   5   18.31    2.22
   1  -2   5   20.58    3.32
   1   2   5   29.27   11.53
   1   2   5   18.92    2.95
   1   2   5   22.50    3.11
  -1  -2  -6  181.28   20.64
  -1  -2  -6  171.03    7.00
  -1   2  -6  269.43   20.07
  -1   2  -6  180.08    6.53
   1  -2   6  170.64   17.94
   1  -2   6  127.54    4.99
   1  -2   6  133.50    6.58
   1   2   6  163.61   19.62
   1   2   6  144.08    6.48
   1   2   6  142.13    6.20
  -1  -2  -7  595.36   34.10
  -1  -2  -7  499.76   12.22
  -1   2  -7  556.13   12.14
   1  -2   7  368.30   26.79
   1  -2   7  343.86    8.21
   1  -2   7  377.12   11.20
   1   2   7  346.31   31.93
   1   2   7  378.98   10.55
   1   2   7  366.88   10.01
  -1  -2  -8   40.32   21.61
  -1  -2  -8   24.26    5.16
  -1   2  -8   19.03    4.80
   1  -2   8   11.12    3.68
   1  -2   8   16.32    4.45
   1   2   8  -47.07   23.49
   1   2   8   13.30    4.98
   1   2   8   11.83    4.24
  -1  -2  -9   49.95    7.70
  -1   2  -9   66.04    7.87
   1  -2   9   33.13    5.18
   1  -2   9   34.17    6.04
   1   2   9   37.83    6.90
   1   2   9   27.32    5.15
  -1  -3  10  111.16   10.25
  -1  -3  10  105.16    9.08
  -1   3  10  120.24   14.32
  -1   3  10   94.68    8.06
  -1  -3   9    9.96    4.59
  -1  -3   9    0.44    3.51
  -1   3   9  -16.30   32.25
  -1   3   9    3.82    5.41
   1  -3  -9   24.25   28.62
   1  -3  -9   20.08    5.84
   1   3  -9   11.79    5.26
  -1  -3   8   11.55   19.94
  -1  -3   8    6.69    3.58
  -1  -3   8    5.51    3.49
  -1   3   8   -2.72   21.70
  -1   3   8    9.73    4.66
  -1   3   8   10.72    3.27
   1  -3  -8  -17.40   19.34
   1  -3  -8    2.72    4.07
   1   3  -8   19.77   17.57
   1   3  -8   11.79    3.96
  -1  -3   7  506.40   30.21
  -1  -3   7  391.04    9.20
  -1  -3   7  400.22   10.98
  -1   3   7  369.74   29.98
  -1   3   7  403.01   11.00
  -1   3   7  381.83    9.18
   1  -3  -7  696.08   34.21
   1  -3  -7  639.43   12.97
   1   3  -7  894.30   34.13
   1   3  -7  734.49   13.48
  -1  -3   6  404.23   23.07
  -1  -3   6  301.47    7.37
  -1  -3   6  290.89    8.83
  -1   3   6  320.67   23.22
  -1   3   6  287.76    8.31
  -1   3   6  273.85    7.05
   1  -3  -6  475.81   25.71
   1  -3  -6  466.04   10.32
   1   3  -6  649.20   26.97
   1   3  -6  520.34   10.37
  -1  -3   5  159.67   14.54
  -1  -3   5   93.85    4.17
  -1  -3   5   98.12    5.11
  -1   3   5   92.17   13.35
  -1   3   5   96.20    4.98
  -1   3   5   86.14    3.86
   1  -3  -5  138.62   16.54
   1  -3  -5  129.96    5.39
   1   3  -5  171.25   14.72
   1   3  -5  148.78    5.25
  -1  -3   4  286.72   15.01
  -1  -3   4  193.60    4.81
  -1  -3   4  179.23    5.58
  -1   3   4  160.82   12.80
  -1   3   4  174.16    5.33
  -1   3   4  169.44    4.16
   1  -3  -4  285.70   16.02
   1  -3  -4  242.32    6.06
   1   3  -4  336.81   15.55
   1   3  -4  273.23    5.99
  -1  -3   3 2102.37   30.08
  -1  -3   3 1341.34   10.52
  -1  -3   3 1156.54   11.76
  -1   3   3 1033.44   22.84
  -1   3   3 1039.00   10.55
  -1   3   3 1075.69    7.84
   1  -3  -3 1339.74   25.79
   1  -3  -3 1409.16   11.86
   1   3  -3 1837.77   28.03
   1   3  -3 1757.92   12.79
  -1  -3   2 1478.17   22.23
  -1  -3   2 1235.64    8.91
  -1  -3   2  997.58    9.44
  -1   3   2  752.56   16.43
  -1   3   2  821.58    7.84
  -1   3   2  980.79    5.45
   1  -3  -2 1083.31    8.52
   1   3  -2 1123.06   19.32
   1   3  -2 1329.56    9.77
  -1  -3   1  300.58    9.73
  -1  -3   1  365.21    4.55
  -1   3   1  199.28    6.87
  -1   3   1  262.36    3.40
  -1   3   1  203.53    2.14
   1  -3  -1  245.65    7.54
   1  -3  -1  367.21    3.41
   1   3  -1  312.21    4.40
  -1  -3   0  529.83   12.55
  -1  -3   0  472.46    5.34
  -1  -3   0  797.69    6.88
  -1   3   0  531.34    6.27
  -1   3   0  570.23    4.89
   1  -3   0  707.23    7.18
   1  -3   0  544.66    4.79
   1   3   0  574.43   12.99
   1   3   0  712.99    6.69
  -1  -3  -1  634.53   15.20
  -1  -3  -1  651.86    7.02
  -1  -3  -1  839.65    7.94
  -1  -3  -1  817.18    6.10
  -1   3  -1 1170.94    8.34
  -1   3  -1  722.37    7.15
   1  -3   1  823.43    6.92
   1  -3   1  706.00    7.06
   1   3   1  668.58   15.58
   1   3   1  645.35    7.07
  -1  -3  -2   91.55    8.30
  -1  -3  -2   86.43    3.35
  -1  -3  -2   83.08    2.73
  -1   3  -2  174.32    6.66
  -1   3  -2   88.54    2.08
   1  -3   2  101.21    5.47
   1  -3   2   80.73    3.29
   1   3   2   66.55    7.98
   1   3   2   78.44    3.33
   1   3   2   92.70    2.70
  -1  -3  -3  369.00   15.99
  -1  -3  -3  370.83    7.02
  -1   3  -3  772.11   16.51
  -1   3  -3  413.40    5.63
   1  -3   3  424.50   12.64
   1  -3   3  340.84    7.35
   1   3   3  361.54   16.19
   1   3   3  337.94    6.72
   1   3   3  364.27    5.84
  -1  -3  -4  721.52   23.97
  -1  -3  -4  658.80   10.29
  -1   3  -4 1201.88   24.57
  -1   3  -4  736.97    9.92
   1  -3   4  637.82   19.91
   1  -3   4  561.02    6.04
   1  -3   4  600.72   10.35
   1   3   4  546.49   22.19
   1   3   4  558.91    9.38
   1   3   4  610.70    8.60
  -1  -3  -5  250.83   19.20
  -1  -3  -5  241.19    7.39
  -1   3  -5  396.55   19.02
  -1   3  -5  274.33    6.72
   1  -3   5  253.95   16.16
   1  -3   5  190.75    4.51
   1  -3   5  225.39    7.51
   1   3   5  217.64   18.68
   1   3   5  211.83    6.91
   1   3   5  207.89    6.12
  -1  -3  -6   38.93   13.62
  -1  -3  -6   27.62    4.18
  -1   3  -6   50.80   12.14
  -1   3  -6   36.38    4.44
   1  -3   6   22.11   11.78
   1  -3   6   16.56    2.37
   1  -3   6   19.43    3.76
   1   3   6   37.00   14.24
   1   3   6   25.01    3.97
   1   3   6   18.64    3.28
  -1  -3  -7    8.16   17.04
  -1  -3  -7   21.80    4.57
  -1   3  -7   19.94   15.91
  -1   3  -7   27.40    4.27
   1  -3   7   34.92   16.31
   1  -3   7   20.70    2.91
   1   3   7   -8.55   18.25
   1   3   7   25.16    4.54
   1   3   7   21.48    4.02
  -1  -3  -8   27.93   21.46
  -1  -3  -8  -10.25    4.30
  -1   3  -8    7.03    4.19
   1  -3   8    8.53    3.17
   1  -3   8    1.74    3.47
   1   3   8  -36.38   24.79
   1   3   8    3.70    4.82
   1   3   8   -0.96    3.53
  -1   3  -9   45.06    6.83
   1  -3   9   28.81    5.62
   1   3   9   39.42    7.30
   1   3   9   33.01    5.60
  -1  -4  10   59.78    7.18
  -1  -4  10   66.46    8.03
  -1   4  10   89.46   17.65
  -1   4  10   55.83    6.67
  -1  -4   9   63.27    7.31
  -1  -4   9   62.58    6.86
  -1   4   9   63.80    7.75
  -1   4   9   56.02    6.36
   1  -4  -9  109.95    9.63
   1   4  -9  114.94    9.78
  -1  -4   8   23.37    4.04
  -1  -4   8   22.51    4.85
  -1   4   8    9.38   23.81
  -1   4   8   14.27    5.16
  -1   4   8   25.58    4.21
   1  -4  -8   51.90   22.04
   1  -4  -8   28.13    5.33
   1   4  -8   57.94   18.92
   1   4  -8   38.77    5.19
  -1  -4   7  147.43   19.97
  -1  -4   7   93.38    5.45
  -1  -4   7  104.76    6.76
  -1   4   7  106.88   20.45
  -1   4   7   90.06    6.86
  -1   4   7   89.99    5.14
   1  -4  -7  147.33   21.83
   1  -4  -7  150.18    7.42
   1   4  -7  248.89   24.25
   1   4  -7  191.46    7.92
  -1  -4   6   46.31   12.59
  -1  -4   6   33.43    3.67
  -1  -4   6   28.52    4.27
  -1   4   6   17.87   13.42
  -1   4   6   34.29    4.27
  -1   4   6   29.16    3.42
   1  -4  -6   65.68   14.51
   1  -4  -6   48.36    5.26
   1   4  -6   74.39   13.04
   1   4  -6   50.89    4.71
  -1  -4   5  115.50   13.78
  -1  -4   5   55.23    3.39
  -1  -4   5   53.71    4.27
  -1   4   5   49.10   11.56
  -1   4   5   45.38    4.09
  -1   4   5   46.84    3.09
   1  -4  -5   77.78   12.98
   1  -4  -5   68.90    4.37
   1   4  -5   83.25   12.05
   1   4  -5   88.79    4.58
  -1  -4   4 2543.41   37.82
  -1  -4   4  820.20    9.10
  -1  -4   4  772.56   11.38
  -1   4   4  668.23   22.90
  -1   4   4  710.59   10.35
  -1   4   4  702.43    7.38
   1  -4  -4  843.71   24.89
   1  -4  -4 1036.38   11.99
   1   4  -4 1306.47   27.40
   1   4  -4 1318.31   12.84
  -1  -4   3  325.55   14.13
  -1  -4   3  199.58    4.24
  -1   4   3  128.37   10.47
  -1   4   3  152.90    4.70
  -1   4   3  152.19    2.83
   1  -4  -3  200.82   12.09
   1  -4  -3  201.74    4.87
   1   4  -3  247.31   12.03
   1   4  -3  276.14    5.45
  -1  -4   2  667.10   16.17
  -1  -4   2  619.41    6.49
  -1  -4   2  464.47    6.92
  -1   4   2  380.89    5.82
  -1   4   2  413.02    2.73
   1  -4  -2  517.58    6.14
   1   4  -2  634.68    7.20
  -1  -4   1  472.41    5.47
  -1   4   1  234.54    8.19
  -1   4   1  285.86    3.93
  -1   4   1  240.75    2.27
   1  -4  -1  285.54    8.94
   1  -4  -1  459.45    3.80
   1  -4  -1  309.00    3.13
   1   4  -1  407.91    5.49
  -1  -4   0  517.43   14.43
  -1  -4   0  482.52    5.86
  -1  -4   0  825.27    7.55
  -1   4   0  537.03    8.18
  -1   4   0  718.71    3.53
  -1   4   0  774.00    3.66
  -1   4   0  588.85    5.34
   1  -4   0  583.98    8.49
   1  -4   0  516.40    5.00
   1   4   0  606.68   14.97
   1   4   0  676.92    7.18
  -1  -4  -1  379.95   13.26
  -1  -4  -1  383.28    5.84
  -1  -4  -1  527.26    6.78
  -1  -4  -1  513.47    4.98
   1  -4   1  442.03    5.86
   1  -4   1  903.78    8.24
   1  -4   1  420.74    5.85
   1   4   1  409.58   13.92
   1   4   1  396.66    6.12
  -1  -4  -2  813.64   20.95
  -1  -4  -2  818.68    9.48
  -1  -4  -2  846.48    7.06
  -1   4  -2 1615.46   16.94
  -1   4  -2  925.49    5.79
   1  -4   2 1185.36   14.59
   1  -4   2  812.27    9.57
   1   4   2  801.29   20.82
   1   4   2  767.27    9.36
  -1  -4  -3  339.65   16.47
  -1  -4  -3  310.41    6.72
  -1   4  -3  723.79   15.62
  -1   4  -3  388.10    5.34
   1  -4   3  344.50   11.45
   1  -4   3  308.88    7.01
   1   4   3  290.67   16.25
   1   4   3  298.29    6.70
   1   4   3  341.48    5.45
  -1  -4  -4   61.88   11.36
  -1  -4  -4   65.21    4.08
  -1   4  -4  153.16   11.41
  -1   4  -4   88.34    3.54
   1  -4   4   64.85    7.96
   1  -4   4   55.03    4.02
   1   4   4   69.35   11.93
   1   4   4   59.91    4.06
   1   4   4   62.30    3.24
  -1  -4  -5  350.49   21.79
  -1  -4  -5  348.79    8.95
  -1   4  -5  602.41   21.38
  -1   4  -5  406.29    7.92
   1  -4   5  315.68   17.54
   1  -4   5  266.47    8.21
   1   4   5  294.18   22.48
   1   4   5  267.33    7.85
   1   4   5  296.29    6.86
  -1  -4  -6  348.58    9.97
  -1   4  -6  601.80   25.31
  -1   4  -6  408.00    9.22
   1  -4   6  300.02   21.38
   1  -4   6  257.53    9.04
   1   4   6  216.26   25.50
   1   4   6  202.85   12.96
   1   4   6  272.39    7.54
  -1  -4  -7  129.23   21.28
  -1  -4  -7  102.98    7.45
  -1   4  -7  116.69   19.36
  -1   4  -7  131.46    7.22
   1  -4   7   73.97   17.87
   1  -4   7   72.04    6.37
   1   4   7   97.22   23.64
   1   4   7   77.89    7.14
   1   4   7   78.97    5.53
  -1  -4  -8  281.43   31.82
  -1  -4  -8  178.36   10.12
  -1   4  -8  214.84    9.75
   1  -4   8  130.52    8.50
   1   4   8  129.94   31.20
   1   4   8  101.84    8.52
   1   4   8  135.86    7.45
  -1   4  -9   88.35    9.86
   1  -4   9   28.15    6.22
   1   4   9   33.12    7.69
   1   4   9   33.81    5.74
  -1  -5   9   36.12    4.87
  -1  -5   9   30.28    5.45
  -1   5   9   39.78    7.31
  -1   5   9   40.24    5.23
   1  -5  -9   53.34    7.49
   1   5  -9   76.71    8.16
  -1  -5   8    0.21    3.10
  -1  -5   8    2.09    3.49
  -1   5   8  -49.07   23.56
  -1   5   8   -0.90    4.37
  -1   5   8    0.19    3.03
   1  -5  -8    2.24   21.13
   1  -5  -8    6.55    4.54
   1   5  -8    0.21    4.31
  -1  -5   7  119.42   19.06
  -1  -5   7  117.41    5.40
  -1   5   7  143.73   22.99
  -1   5   7  139.19    7.92
  -1   5   7  115.19    5.47
   1  -5  -7  162.06   21.99
   1  -5  -7  189.06    8.22
   1   5  -7  196.35   22.51
   1   5  -7  248.01    8.78
  -1  -5   6  291.51   22.23
  -1  -5   6  194.18    5.77
  -1  -5   6  190.89    7.76
  -1   5   6  179.98   21.45
  -1   5   6  182.63    7.95
   1  -5  -6  327.31   25.18
   1  -5  -6  269.03   10.45
   1   5  -6  358.27   22.02
   1   5  -6  344.81    8.79
  -1  -5   5  100.03   12.70
  -1  -5   5   58.27    3.44
  -1  -5   5   60.76    4.77
  -1   5   5   57.74   12.74
  -1   5   5   50.47    4.51
  -1   5   5   48.35    2.94
   1  -5  -5   94.98   14.23
   1  -5  -5   77.05    4.68
   1   5  -5   95.01   12.47
   1   5  -5   99.04    4.83
  -1  -5   4  491.49   19.25
  -1  -5   4  292.61    5.45
  -1  -5   4  284.59    7.43
  -1   5   4  245.26   15.74
  -1   5   4  234.59    6.58
  -1   5   4  245.41    4.08
   1  -5  -4  347.61   18.36
   1  -5  -4  362.32    7.54
   1   5  -4  462.60    7.94
  -1  -5   3  698.31   19.56
  -1  -5   3  440.00    5.96
  -1  -5   3  373.24    7.48
  -1   5   3  285.94   13.93
  -1   5   3  312.71    6.58
  -1   5   3  297.27    2.98
   1  -5  -3  334.31   15.37
   1  -5  -3  452.44    7.15
   1   5  -3  445.41   15.75
   1   5  -3  612.82    8.19
  -1  -5   2  265.73   11.64
  -1  -5   2  419.88   14.16
  -1  -5   2  412.15    5.43
  -1  -5   2  289.77    5.92
  -1   5   2  220.67   11.20
  -1   5   2  224.28    4.91
   1  -5  -2  256.92   11.50
   1  -5  -2  359.76    5.29
   1   5  -2  421.07    6.29
  -1  -5   1  176.27    9.47
  -1  -5   1  228.68    4.23
  -1  -5   1  510.41    5.99
  -1  -5   1  380.48    5.77
  -1   5   1  230.28    9.13
  -1   5   1  269.25    4.30
  -1   5   1  353.37    2.83
   1  -5  -1  263.64    9.45
   1  -5  -1  485.26    3.81
   1  -5  -1  378.64    3.36
   1   5  -1  408.12    5.98
  -1  -5   0  333.15    5.32
  -1  -5   0  575.26    6.77
  -1   5   0  373.72    8.42
  -1   5   0  368.09    3.61
  -1   5   0  487.71    4.11
  -1   5   0  418.96    4.92
   1  -5   0  368.20    8.35
   1  -5   0  345.52    4.45
   1   5   0  407.37   13.80
   1   5   0  462.54    6.56
  -1  -5  -1  274.17   12.88
  -1  -5  -1  270.94    5.41
  -1  -5  -1  388.06    6.24
  -1   5  -1  249.91    2.21
  -1   5  -1  522.54    3.10
   1  -5   1  272.60    6.03
   1  -5   1  646.19    8.77
   1  -5   1  274.03    5.10
   1   5   1  300.01   13.15
   1   5   1  257.87    5.49
  -1  -5  -2  418.55   16.78
  -1  -5  -2  417.22    8.82
  -1  -5  -2  517.85    7.95
  -1  -5  -2  440.86    5.07
  -1   5  -2  595.96    4.84
   1  -5   2  701.51   11.48
   1  -5   2  406.86    7.15
   1   5   2  418.99   16.75
   1   5   2  399.58    7.39
  -1  -5  -3   20.59    7.78
  -1  -5  -3   18.53    2.63
  -1  -5  -3   24.24    2.94
  -1   5  -3   39.07    5.41
  -1   5  -3   24.67    1.91
   1  -5   3   12.33    7.65
   1  -5   3   14.78    2.53
   1   5   3   14.11    7.65
   1   5   3   17.83    2.74
  -1  -5  -4   10.50   17.03
  -1  -5  -4    6.95    2.36
  -1   5  -4    7.74    5.77
  -1   5  -4   10.66    1.79
   1  -5   4    2.27    5.59
   1  -5   4    8.11    2.55
   1   5   4   -6.53    8.94
   1   5   4    5.02    2.29
   1   5   4    6.12    1.71
  -1  -5  -5   94.86   15.99
  -1  -5  -5   97.58    5.77
  -1   5  -5  179.12   14.68
  -1   5  -5  131.90    5.05
   1  -5   5  102.07   11.95
   1  -5   5   77.69    5.37
   1   5   5   81.52   16.03
   1   5   5   79.89    5.45
   1   5   5   90.49    5.00
  -1  -5  -6  216.32   24.57
  -1  -5  -6  224.42    8.43
  -1   5  -6  327.54   21.47
  -1   5  -6  285.74    8.01
   1  -5   6  214.16   19.45
   1  -5   6  176.75    8.08
   1   5   6  156.43    7.76
   1   5   6  190.13    6.32
  -1  -5  -7   40.04   20.57
  -1  -5  -7   25.77    4.99
  -1   5  -7   20.76    4.31
   1  -5   7   11.67    4.06
   1   5   7    8.63   22.60
   1   5   7   18.55    4.83
   1   5   7   27.99    4.01
  -1  -5  -8  111.61   30.08
  -1  -5  -8  111.66    9.18
  -1   5  -8  151.38    8.87
   1  -5   8   81.68    7.19
   1   5   8  106.50   34.54
   1   5   8   91.52    9.70
   1   5   8   88.12    6.64
  -1   5  -9   72.19    8.45
   1  -5   9   39.95    6.71
   1   5   9   33.07    8.39
   1   5   9   47.74    6.12
  -1  -6   9    0.88    3.76
  -1  -6   9   -3.52    4.12
  -1   6   9   -4.38    7.09
  -1   6   9    0.10    3.86
   1  -6  -9   -8.39    8.03
   1   6  -9   18.34    6.50
  -1  -6   8   75.49    5.29
  -1  -6   8   73.82    6.70
  -1   6   8   62.40    7.51
  -1   6   8   60.53    5.34
   1  -6  -8  136.72    9.14
   1   6  -8  161.59    9.08
  -1  -6   7   30.35   18.08
  -1  -6   7   18.45    2.79
  -1  -6   7   15.66    3.98
  -1   6   7   36.47   20.71
  -1   6   7   17.07    4.44
  -1   6   7   17.38    3.03
   1  -6  -7   11.15   17.92
   1  -6  -7   30.10    4.83
   1   6  -7   22.21   14.49
   1   6  -7   40.54    5.03
  -1  -6   6  176.86   21.06
  -1  -6   6   88.45    4.16
  -1  -6   6   81.33    6.18
  -1   6   6   71.85   16.85
  -1   6   6   91.73    6.47
  -1   6   6   90.00    4.11
   1  -6  -6  120.95   22.38
   1  -6  -6  158.11    7.18
   1   6  -6  157.72   19.35
   1   6  -6  172.63    7.05
  -1  -6   5  121.68   13.50
  -1  -6   5   81.65    3.58
  -1  -6   5   81.46    5.29
  -1   6   5   58.98   13.58
  -1   6   5   71.10    5.45
  -1   6   5   68.58    3.03
   1  -6  -5  101.26   15.05
   1  -6  -5  126.29    5.86
   1   6  -5  139.27   14.77
   1   6  -5  152.39    5.78
  -1  -6   4   63.74   11.11
  -1  -6   4   40.67    2.55
  -1  -6   4   39.03    3.87
  -1   6   4   37.89    9.88
  -1   6   4   33.55    3.84
  -1   6   4   28.10    2.33
   1  -6  -4   42.49   10.19
   1  -6  -4   53.41    3.82
   1   6  -4   35.98    8.42
   1   6  -4   62.10    3.72
  -1  -6   3  159.58   11.40
  -1  -6   3  253.80   13.75
  -1  -6   3  145.54    3.55
  -1  -6   3  116.32    4.80
  -1   6   3  103.34   12.08
  -1   6   3   97.01    4.33
   1  -6  -3  150.34    4.54
   1   6  -3  191.38    5.28
  -1  -6   2   68.01    8.12
  -1  -6   2  101.30    9.92
  -1  -6   2   89.18    2.82
  -1  -6   2   65.46    3.30
  -1   6   2   53.70    7.83
  -1   6   2   47.48    2.98
   1  -6  -2   55.39    7.26
   1  -6  -2   82.36    2.88
   1  -6  -2   65.14    2.57
   1   6  -2   90.54    3.45
  -1  -6   1 1499.11   25.67
  -1  -6   1 1283.45    9.72
  -1  -6   1 2743.67   14.10
  -1  -6   1 2018.17   13.62
  -1   6   1 1380.04   21.72
  -1   6   1 1411.16   10.33
   1  -6  -1 1622.58   23.47
   1  -6  -1 2356.12    7.34
   1   6  -1 2117.02   30.46
   1   6  -1 2052.67   14.11
  -1  -6   0    0.19    5.45
  -1  -6   0  979.19    9.21
  -1  -6   0 1751.96   12.22
  -1   6   0 1152.62   16.31
  -1   6   0 1001.39    7.09
  -1   6   0 1333.44    8.14
  -1   6   0 1298.43    8.95
   1  -6   0 1053.68   15.66
   1  -6   0 1018.93    7.90
   1   6   0 1301.14   11.66
  -1  -6  -1   56.20    8.20
  -1  -6  -1   69.97    3.33
  -1  -6  -1   97.87    3.64
  -1   6  -1   66.83    1.80
  -1   6  -1  144.52    2.42
   1  -6   1   73.63    4.96
   1  -6   1  140.28    6.02
   1  -6   1   64.67    3.02
   1   6   1   66.12    8.60
  -1  -6  -2  424.77   18.05
  -1  -6  -2  451.13    7.80
  -1  -6  -2  579.50    8.75
  -1  -6  -2  448.18    4.96
  -1   6  -2  813.87    6.18
   1  -6   2  521.62   10.44
   1  -6   2  883.34   13.27
   1   6   2  428.38   17.98
   1   6   2  407.67    7.81
  -1  -6  -3  281.02   18.26
  -1  -6  -3  279.49    6.93
  -1  -6  -3  265.23    4.68
  -1   6  -3  505.98   13.19
  -1   6  -3  425.04    5.70
   1  -6   3  368.19   11.51
   1  -6   3  255.22    6.88
   1   6   3  245.80   16.93
   1   6   3  226.35    6.58
  -1  -6  -4   51.84   12.03
  -1  -6  -4   64.97    4.58
  -1   6  -4   84.81    9.78
  -1   6  -4   86.83    3.81
   1  -6   4   81.61    8.85
   1  -6   4   47.44    4.28
   1   6   4   65.64   12.92
   1   6   4   44.83    4.70
  -1  -6  -5   40.76   13.78
  -1  -6  -5   41.14    4.80
  -1   6  -5   46.24    9.87
  -1   6  -5   57.01    4.00
   1  -6   5   33.14    9.25
   1  -6   5   33.61    4.45
   1   6   5   39.28   14.91
   1   6   5   31.77    4.41
   1   6   5   37.73    3.28
  -1  -6  -6  543.88   34.76
  -1  -6  -6  624.39   13.46
  -1   6  -6  988.97   29.94
  -1   6  -6  828.84   12.59
   1  -6   6  518.21   24.77
   1  -6   6  470.56   12.48
   1   6   6  422.34   32.58
   1   6   6  458.96   11.79
   1   6   6  530.83    9.42
  -1  -6  -7   74.58   22.38
  -1  -6  -7   37.42    5.72
  -1   6  -7   79.10    6.54
   1  -6   7   29.66    4.92
   1   6   7   -9.04   24.16
   1   6   7   33.59    5.56
   1   6   7   44.40    4.82
  -1  -6  -8   11.64    6.27
  -1   6  -8   22.59    5.36
   1  -6   8    4.40    3.92
   1   6   8    5.61    6.33
   1   6   8    8.35    3.80
  -1   6  -9   64.50    8.87
   1  -6   9   35.76    6.43
   1   6   9   42.42   15.61
  -1  -7   9   44.56    7.01
  -1   7   9   29.18   13.54
  -1   7   9   53.32    5.46
   1   7  -9   59.77    8.16
  -1  -7   8    5.76    2.69
  -1  -7   8    5.74    4.12
  -1   7   8    7.88    5.59
  -1   7   8    5.34    3.08
   1  -7  -8   16.72    5.64
   1   7  -8   13.00    5.20
  -1  -7   7   78.64    4.12
  -1  -7   7   81.34    6.82
  -1   7   7    3.09   22.01
  -1   7   7   84.71    7.63
   1  -7  -7  131.49   30.59
   1  -7  -7  140.02    8.12
   1   7  -7  167.54    7.99
  -1  -7   6  192.02   22.11
  -1  -7   6  120.58    4.05
  -1  -7   6  123.90    7.41
  -1   7   6   83.77   19.73
  -1   7   6  113.61    6.99
  -1   7   6  121.55    4.01
   1  -7  -6  168.53   21.77
   1  -7  -6  197.63    8.03
   1   7  -6  177.81   19.10
  -1  -7   5 1438.29   34.12
  -1  -7   5  779.15    8.13
  -1  -7   5  807.57   14.33
  -1   7   5  658.50   29.18
  -1   7   5  724.04   12.98
  -1   7   5  792.63    6.33
   1  -7  -5 1105.27   35.40
   1  -7  -5 1208.11   15.26
   1   7  -5 1099.47   30.40
   1   7  -5 1511.71   16.29
  -1  -7   4  229.99   16.84
  -1  -7   4  117.76    3.30
  -1  -7   4  109.87    5.50
  -1   7   4   93.39   13.58
  -1   7   4  100.02    5.42
   1  -7  -4  165.38   17.29
   1  -7  -4  143.42    5.39
   1   7  -4  200.88    5.96
  -1  -7   3  257.01   14.46
  -1  -7   3  519.71   18.93
  -1  -7   3  297.77    4.59
  -1  -7   3  267.94    7.07
  -1   7   3  179.61   19.13
  -1   7   3  218.61    6.23
   1  -7  -3    6.43    7.61
   1  -7  -3  327.51    7.67
   1  -7  -3  265.49    5.78
   1   7  -3  406.43    7.40
  -1  -7   2  276.93   13.49
  -1  -7   2  551.22   18.30
  -1  -7   2  261.92    4.40
  -1  -7   2  528.46    6.05
  -1   7   2  273.72   14.21
  -1   7   2  292.30    6.19
   1  -7  -2  355.19   15.18
   1  -7  -2  501.98    6.19
   1  -7  -2  400.36    5.54
   1   7  -2  480.06    8.01
  -1  -7   1  467.01   16.27
  -1  -7   1  462.76    6.09
  -1  -7   1  998.41    8.72
  -1  -7   1  682.34    8.44
  -1   7   1  463.09   14.55
  -1   7   1  469.97    6.64
   1  -7  -1  547.23   15.32
   1   7  -1  696.83   19.55
   1   7  -1  713.58   13.76
  -1  -7   0  187.84   11.72
  -1  -7   0  205.28    4.64
  -1  -7   0  403.33    6.24
  -1  -7   0  328.44    5.14
  -1   7   0  244.91    9.36
  -1   7   0  204.24    3.92
  -1   7   0  275.96    4.42
  -1   7   0  318.59    5.04
   1  -7   0  223.70    9.30
   1  -7   0  221.15    4.10
   1   7   0  253.31   13.86
   1   7   0  268.71    5.95
  -1  -7  -1  203.19    5.16
  -1  -7  -1  311.66    6.15
  -1   7  -1  354.00    4.42
   1  -7   1  199.22    7.67
   1  -7   1  368.62   11.73
   1  -7   1  199.34    4.84
   1   7   1  183.14   13.62
  -1  -7  -2  300.97   17.86
  -1  -7  -2  309.85    6.83
  -1  -7  -2  401.07    7.71
  -1  -7  -2  308.07    4.07
  -1   7  -2  607.19    5.99
   1  -7   2  300.60    9.01
   1  -7   2  623.67   12.34
   1  -7   2  276.19    6.50
   1   7   2  286.62   17.13
   1   7   2  282.52    7.15
  -1  -7  -3   94.04   13.59
  -1  -7  -3   70.31    4.47
  -1  -7  -3   85.73    4.70
  -1  -7  -3   72.40    2.96
  -1   7  -3  131.07    3.58
   1  -7   3   98.64    8.20
   1  -7   3  106.60    8.78
   1  -7   3   69.42    4.48
   1   7   3   58.14   11.31
   1   7   3   70.15    4.88
  -1  -7  -4  109.53   16.21
  -1  -7  -4   95.71    5.68
  -1   7  -4  207.19   12.20
   1  -7   4  113.44   11.50
   1  -7   4   85.63    5.53
   1   7   4   80.82   14.72
   1   7   4   78.67    5.42
  -1  -7  -5   60.97   16.87
  -1  -7  -5   60.83    5.51
  -1   7  -5   62.02    9.90
  -1   7  -5   83.66    4.60
   1  -7   5   73.61   11.07
   1  -7   5   47.94    5.48
   1   7   5   32.20   15.61
   1   7   5   37.94    4.69
  -1  -7  -6  104.25   21.33
  -1  -7  -6  116.24    7.70
  -1   7  -6  151.97   18.94
  -1   7  -6  158.40    6.65
   1  -7   6   70.40    5.93
   1   7   6   72.05   21.69
   1   7   6   79.82    6.90
   1   7   6   99.32    4.78
  -1  -7  -7   82.64    8.26
  -1   7  -7   94.63    7.13
   1  -7   7   43.93    6.25
   1   7   7   86.97   34.57
   1   7   7   49.80    6.96
   1   7   7   58.06    5.09
  -1  -7  -8   -4.96    6.04
  -1   7  -8    3.15    4.91
   1  -7   8    1.99    4.02
   1   7   8    4.23    6.54
   1   7   8    2.35    3.66
  -1  -8   8   19.47    4.90
  -1   8   8   20.90    6.76
   1  -8  -8   35.15    6.74
   1   8  -8   69.33    8.62
  -1  -8   7   20.42    2.20
  -1  -8   7   24.65    4.82
  -1   8   7   13.93    5.27
  -1   8   7   23.37    2.68
   1  -8  -7   44.95    5.59
   1   8  -7   50.47    5.54
  -1  -8   6    5.44    1.31
  -1  -8   6    3.82    4.03
  -1   8   6   43.12   19.12
  -1   8   6    3.87    3.59
   1  -8  -6   -3.23   16.58
   1  -8  -6    0.92    3.43
   1   8  -6    7.12   13.46
   1   8  -6    6.27    3.24
  -1  -8   5  248.54   20.44
  -1  -8   5  125.71    2.88
  -1  -8   5  125.67    6.90
  -1   8   5  109.93   17.66
   1  -8  -5  224.33   23.27
   1  -8  -5  207.32    7.26
   1   8  -5  239.14    7.39
  -1  -8   4  480.81   20.31
  -1  -8   4  783.63   26.19
  -1  -8   4  319.06    4.14
  -1  -8   4  372.82    4.38
  -1  -8   4  378.41    9.47
  -1   8   4  377.93   22.21
  -1   8   4  326.50    8.67
   1  -8  -4  417.20   24.09
   1  -8  -4  571.75    9.70
   1   8  -4  674.06   10.59
  -1  -8   3   33.20    7.92
  -1  -8   3   77.03   10.84
  -1  -8   3   25.25    1.86
  -1  -8   3   36.56    1.88
  -1  -8   3   34.04    3.70
  -1   8   3   29.38    9.39
  -1   8   3   25.34    3.19
   1  -8  -3   42.81   10.01
   1  -8  -3   50.87    4.36
   1  -8  -3   33.24    3.03
   1   8  -3   51.84    3.64
  -1  -8   2   31.67    7.81
  -1  -8   2   39.30    9.53
  -1  -8   2   23.09    1.88
  -1  -8   2   39.31    2.03
  -1  -8   2   25.57    3.03
  -1   8   2   23.13    7.57
  -1   8   2   20.20    2.50
   1  -8  -2   26.48    7.88
   1  -8  -2   40.99    2.31
   1  -8  -2   36.48    2.15
   1   8  -2   38.18    3.13
  -1  -8   1  177.74   12.67
  -1  -8   1  189.60    4.14
  -1  -8   1  407.68    5.70
  -1  -8   1  246.96    5.54
  -1   8   1  182.51   11.35
  -1   8   1  184.61    4.81
   1  -8  -1  215.09   11.81
   1   8  -1  268.80    6.18
  -1  -8   0   12.95    7.19
  -1  -8   0   22.88    2.44
  -1  -8   0   38.11    2.60
  -1  -8   0   31.48    2.34
  -1   8   0   19.19    2.16
  -1   8   0   27.41    2.18
   1  -8   0   25.36    5.06
   1  -8   0   20.13    2.07
   1   8   0   27.74    7.93
   1   8   0   26.94    2.94
  -1  -8  -1  106.54    5.71
  -1  -8  -1  169.41    4.92
  -1  -8  -1  161.23    3.30
  -1   8  -1  165.37    3.66
   1  -8   1  108.36    7.66
   1  -8   1  185.43    8.99
   1  -8   1  114.18    4.06
   1   8   1  132.25   15.84
  -1  -8  -2  320.81   19.36
  -1  -8  -2  327.21    7.30
  -1  -8  -2  428.26    8.13
  -1  -8  -2  308.25    3.80
  -1   8  -2  593.21    6.60
   1  -8   2  307.71    9.94
   1  -8   2  701.07   14.05
   1  -8   2  300.74    7.07
   1   8   2  278.37   18.13
   1   8   2  288.83    7.73
  -1  -8  -3  233.13   20.50
  -1  -8  -3  284.29    7.56
  -1  -8  -3  328.62    8.13
  -1  -8  -3  273.81    3.61
  -1   8  -3  513.21    6.90
   1  -8   3  270.72   11.10
   1  -8   3  415.98   13.10
   1  -8   3  238.15    7.32
   1   8   3  233.04   20.42
   1   8   3  233.45    7.78
  -1  -8  -4   13.08   12.74
  -1  -8  -4   20.83    3.66
  -1  -8  -4   31.33    4.06
  -1  -8  -4   24.17    2.89
  -1   8  -4   39.37    3.18
   1  -8   4   32.67    7.39
   1  -8   4   33.87    8.00
   1  -8   4   28.14    4.27
   1   8   4   28.49   13.97
   1   8   4   11.22    3.54
  -1  -8  -5  461.12   31.32
  -1  -8  -5  513.52   11.96
  -1   8  -5  745.15   10.80
   1  -8   5  459.61   20.16
   1  -8   5  373.31   10.81
   1   8   5  296.18   30.54
   1   8   5  398.32   11.32
  -1  -8  -6   -2.76   21.61
  -1  -8  -6   11.91    4.58
  -1   8  -6   14.55    3.49
   1  -8   6    9.31    4.11
   1   8   6   -4.60   21.22
   1   8   6   20.53    5.15
  -1  -8  -7   50.23    7.05
  -1   8  -7   66.58    6.80
   1  -8   7   25.52    5.19
   1   8   7   43.53    7.05
  -1   8  -8   14.40    5.77
   1  -8   8   -0.14    4.37
   1   8   8    4.31    8.08
  -1  -9   8  120.01    8.93
  -1   9   8  106.56   12.88
   1  -9  -8  223.37   12.66
   1   9  -8  241.91   11.54
  -1  -9   7   37.80    5.81
  -1   9   7   44.50    6.88
   1  -9  -7   81.45    8.16
   1   9  -7   89.07    7.64
  -1  -9   6   31.83    5.11
  -1   9   6   29.86    5.83
   1  -9  -6   40.46    4.82
   1   9  -6   56.14    6.09
  -1  -9   5  219.98   21.41
  -1  -9   5  470.89   26.20
  -1  -9   5  175.86    8.06
  -1   9   5  160.14   21.49
  -1   9   5  152.70    7.92
   1  -9  -5  265.53   27.10
   1  -9  -5  282.19    8.38
   1   9  -5  338.25    8.87
  -1  -9   4   70.75   12.18
  -1  -9   4  128.57   15.12
  -1  -9   4   49.21    5.00
  -1   9   4   27.10   13.51
  -1   9   4   33.03    4.21
   1  -9  -4   68.10    4.60
   1  -9  -4   49.27    4.20
   1   9  -4   73.09    4.80
  -1  -9   3  465.45   20.72
  -1  -9   3  952.07   26.91
  -1  -9   3  493.85   10.03
  -1   9   3  422.27   21.96
  -1   9   3  419.44    9.29
   1  -9  -3  544.36   23.84
   1  -9  -3  776.60    9.84
   1  -9  -3  603.56    8.36
   1   9  -3  739.46   10.90
  -1  -9   2  256.12   16.15
  -1  -9   2  490.78   20.74
  -1  -9   2  241.32    3.58
  -1  -9   2  381.38    4.30
  -1  -9   2  280.07    7.01
  -1   9   2  204.73   15.80
  -1   9   2  229.10    6.46
   1  -9  -2  266.31   16.61
   1  -9  -2  465.85    5.40
   1  -9  -2  406.98    5.01
   1   9  -2  360.66    7.60
  -1  -9   1   67.73   10.04
  -1  -9   1   76.69    2.92
  -1  -9   1  140.39    3.52
  -1  -9   1   86.18    3.92
  -1   9   1   71.19    8.45
  -1   9   1   68.89    3.80
   1  -9  -1   75.26    9.24
   1   9  -1   91.24    4.41
  -1  -9   0  121.02   14.44
  -1  -9   0  112.58    3.90
  -1  -9   0  226.72    4.98
  -1  -9   0  150.73    4.10
  -1   9   0  141.88   10.29
  -1   9   0  103.16    3.84
  -1   9   0  147.25    4.25
   1  -9   0  106.70   10.10
   1  -9   0  115.07    3.50
   1   9   0   96.03   11.44
   1   9   0  153.37    5.52
  -1  -9  -1   43.54    9.88
  -1  -9  -1   63.03    3.77
  -1  -9  -1   95.68    4.16
  -1  -9  -1   78.49    2.65
  -1   9  -1   82.36    3.16
   1  -9   1   60.43    6.62
   1  -9   1   93.27    9.45
   1  -9   1   55.38    3.47
   1   9   1   61.96   11.64
  -1  -9  -2  213.20   19.65
  -1  -9  -2  230.26    6.52
  -1  -9  -2  305.23    7.23
  -1  -9  -2  225.08    2.78
  -1  -9  -2  201.89    2.53
  -1   9  -2  342.09    5.71
   1  -9   2  187.14    9.81
   1  -9   2  500.01   13.34
   1  -9   2  191.72    6.18
   1   9   2  220.30   19.51
  -1  -9  -3  -29.84   11.92
  -1  -9  -3   22.95    3.55
  -1  -9  -3   23.17    3.43
  -1   9  -3   41.55    3.03
   1  -9   3   14.34    7.23
   1  -9   3   46.95    7.24
   1  -9   3   23.31    3.74
   1   9   3  -11.98   11.10
   1   9   3   21.87    4.02
  -1  -9  -4   10.31   14.48
  -1  -9  -4    5.67    3.20
  -1   9  -4   19.25    2.50
   1  -9   4   15.57    7.29
   1  -9   4    8.42    7.54
   1  -9   4    6.02    3.23
   1   9   4   15.18   14.79
   1   9   4    6.21    3.48
  -1  -9  -5   67.49   20.26
  -1  -9  -5   72.60    6.58
  -1  -9  -5   95.71    7.11
  -1   9  -5  128.00    5.60
   1  -9   5   69.15   11.16
   1  -9   5   47.97    6.08
   1   9   5   49.07   19.56
   1   9   5   69.37    6.93
  -1  -9  -6   70.15    7.26
   1  -9   6   51.07    6.09
   1   9   6   57.39    6.97
  -1  -9  -7   51.10    7.24
  -1   9  -7   95.83    7.72
   1  -9   7   41.55    6.23
   1   9   7   52.82    8.00
  -1   9  -8   13.91    6.10
   1 -10  -8   61.99    8.39
   1  10  -8   73.97    8.50
  -1 -10   7    9.30    4.23
  -1  10   7    8.66    6.36
   1 -10  -7   22.82    6.02
   1  10  -7   27.61    5.56
  -1 -10   6  103.71    7.42
  -1  10   6  120.54    8.72
   1 -10  -6  147.72    8.15
   1  10  -6  205.99    8.79
  -1 -10   5   31.09   17.43
  -1 -10   5   40.57    6.24
  -1  10   5   47.48    5.91
   1 -10  -5   65.81    5.75
   1 -10  -5   43.56    5.24
   1  10  -5   62.44    5.65
  -1 -10   4   29.49   11.29
  -1 -10   4   -1.32   12.95
  -1 -10   4    4.11    3.23
  -1  10   4   -0.67   13.43
   1 -10  -4   17.18   12.76
   1 -10  -4   10.67    2.83
   1 -10  -4    2.12    2.26
   1  10  -4    9.29    2.82
  -1 -10   3   58.09   12.01
  -1 -10   3  179.39   17.98
  -1 -10   3   75.81    5.14
  -1  10   3   49.65   12.22
  -1  10   3   72.62    5.55
   1 -10  -3   94.79   14.28
   1 -10  -3  132.98    4.51
   1 -10  -3  104.97    4.03
   1  10  -3  120.68    5.47
  -1 -10   2  145.49   15.88
  -1 -10   2  315.47   20.31
  -1 -10   2  175.26    6.08
  -1  10   2  149.88   15.70
  -1  10   2  147.24    5.89
   1 -10  -2  183.42   17.01
   1 -10  -2  323.50    3.74
   1 -10  -2  291.79    3.11
   1  10  -2  223.06    6.70
  -1 -10   1  347.30   19.11
  -1 -10   1  465.28    5.44
  -1 -10   1  801.66    6.95
  -1 -10   1  454.35    8.29
  -1  10   1  422.34   20.11
  -1  10   1  390.04    7.87
   1 -10  -1  455.03   19.23
   1  10  -1  555.63    9.92
  -1 -10   0   62.21   11.46
  -1 -10   0   57.46    3.21
  -1 -10   0  104.05    3.71
  -1 -10   0   67.28    3.31
  -1  10   0   85.70   10.64
   1 -10   0   57.05    8.80
   1 -10   0   47.17    2.86
   1  10   0   65.51   12.32
   1  10   0   60.19    4.56
  -1 -10  -1  272.61   20.76
  -1 -10  -1  330.99    6.88
  -1 -10  -1  545.50    8.54
  -1 -10  -1  348.89    4.67
   1 -10   1  302.53   13.26
   1 -10   1  595.10   16.86
   1 -10   1  301.66    8.96
   1  10   1  318.92   21.13
  -1 -10  -2   34.70    4.11
  -1 -10  -2   50.73    4.21
  -1  10  -2   52.78    4.72
   1 -10   2   31.61    6.37
   1 -10   2   82.77   10.30
   1 -10   2   25.89    3.37
   1  10   2   28.05   11.97
  -1 -10  -3  270.92   26.41
  -1 -10  -3  296.38    8.35
  -1 -10  -3  336.02    8.69
  -1  10  -3  414.66    7.22
   1 -10   3  231.70   11.99
   1 -10   3  406.77   14.09
   1 -10   3  229.34    7.72
   1  10   3  199.93   23.43
  -1 -10  -4  173.91   22.30
  -1 -10  -4  174.07    7.68
  -1 -10  -4  174.49    9.22
  -1  10  -4  272.81    6.69
   1 -10   4  138.14   13.13
   1 -10   4  153.61   14.36
   1 -10   4  128.43    6.70
   1  10   4  137.45   21.40
   1  10   4  150.90    8.34
  -1 -10  -5   37.20    5.10
  -1 -10  -5   40.06    5.32
  -1  10  -5   68.60    5.16
   1 -10   5   36.67   10.62
   1 -10   5   33.93    5.14
   1  10   5   38.05    5.77
  -1 -10  -6   70.52    7.35
  -1 -10  -6   68.45    7.28
  -1  10  -6  125.27    7.02
   1 -10   6   55.00    6.36
   1  10   6   43.58    7.13
  -1 -10  -7   12.04    7.21
  -1 -10  -7   18.72    7.04
  -1  10  -7   39.61    5.80
   1 -10   7   10.08    4.71
   1  10   7    5.00    8.17
  -1 -11   7    6.88    4.31
  -1  11   7   -2.56    7.52
   1 -11  -7   23.64    6.53
   1 -11  -7   22.61    6.50
   1  11  -7   28.20    6.59
  -1 -11   6   30.31    5.07
  -1  11   6   38.98    6.95
   1 -11  -6   77.42    8.05
   1 -11  -6   40.22    5.63
   1  11  -6   63.33    7.47
  -1 -11   5   16.64    4.05
  -1  11   5   13.76    4.89
   1 -11  -5   53.05    6.06
   1 -11  -5   33.92    4.48
   1  11  -5   36.22    4.89
  -1 -11   4    1.23   12.97
  -1 -11   4   13.48    3.79
  -1  11   4   10.78    4.17
   1 -11  -4   30.19    3.54
   1 -11  -4   19.83    2.98
   1  11  -4   18.18    4.90
  -1 -11   3   33.99   11.86
  -1 -11   3  134.77   20.31
  -1 -11   3   67.96    5.34
  -1  11   3   64.35   13.77
  -1  11   3   47.65    5.54
   1 -11  -3   80.30   15.33
   1 -11  -3  115.96    4.05
   1 -11  -3   95.73    3.62
   1  11  -3   96.38    5.75
  -1 -11   2   34.28   11.82
  -1 -11   2   64.53   13.46
  -1 -11   2   37.46    4.01
  -1  11   2   36.91   10.99
  -1  11   2   27.65    3.76
   1 -11  -2   36.13   12.39
   1  11  -2   43.79    4.55
  -1 -11   1   53.34   12.15
  -1 -11   1   86.02   14.67
  -1 -11   1   75.52    4.31
  -1  11   1   71.35   10.47
  -1  11   1   53.34    4.53
   1 -11  -1   67.32   11.19
   1  11  -1   74.86    5.09
  -1 -11   0    6.70   10.75
  -1 -11   0   35.01    2.80
  -1 -11   0   54.60    2.92
  -1 -11   0   29.09    2.76
  -1  11   0   25.21    7.91
   1 -11   0   41.82    9.06
   1 -11   0   27.19    2.56
   1  11   0   28.68   10.79
  -1 -11  -1   43.30   13.04
  -1 -11  -1   98.02    5.84
  -1 -11  -1  139.61    4.83
  -1 -11  -1   71.77    2.56
  -1 -11  -1   81.58    3.13
  -1  11  -1   94.14    4.35
   1 -11   1   75.37    9.37
   1 -11   1  126.30   13.36
   1 -11   1   77.88    4.35
   1  11   1   53.70   13.30
  -1 -11  -2  121.64   18.12
  -1 -11  -2  170.75    6.24
  -1 -11  -2  229.26    6.72
  -1  11  -2  213.17    5.70
   1 -11   2  145.90   11.68
   1 -11   2  321.82   14.42
   1 -11   2  131.58    5.84
   1  11   2  137.58   18.34
  -1 -11  -3   67.91    5.67
  -1 -11  -3   78.99    5.68
  -1  11  -3   86.66    4.48
   1 -11   3   54.28    7.55
   1 -11   3   80.29    9.29
   1 -11   3   44.80    4.99
   1  11   3   44.36   27.24
  -1 -11  -4   15.32    4.14
  -1 -11  -4   18.16    4.43
  -1  11  -4   17.20    2.99
   1 -11   4   21.11    7.93
   1 -11   4    8.78    3.94
  -1 -11  -5   62.95    7.63
  -1 -11  -5   51.79    6.67
  -1  11  -5   84.49    5.93
   1 -11   5   45.57   11.51
   1 -11   5   38.85    5.55
   1  11   5   36.04    6.65
  -1 -11  -6   63.86    7.74
  -1 -11  -6   73.50    8.06
  -1  11  -6  113.68    7.61
   1 -11   6   54.26    6.72
   1  11   6   52.17    8.31
  -1 -12   6   23.53    4.94
  -1  12   6   20.14    6.70
   1 -12  -6   45.49    6.10
   1 -12  -6   41.06    6.02
   1  12  -6   42.10    6.10
  -1 -12   5   35.60    5.28
  -1  12   5   27.39    6.30
   1 -12  -5   54.50    6.63
   1 -12  -5   43.94    4.58
   1  12  -5   45.15    5.38
  -1 -12   4   20.34    4.62
  -1  12   4   18.44    5.25
   1 -12  -4   28.98    3.51
   1 -12  -4   32.31    4.02
   1  12  -4   25.98    4.46
  -1 -12   3    4.13    3.19
  -1  12   3    9.67    3.86
   1 -12  -3   10.13    1.58
   1 -12  -3   12.77    1.39
   1  12  -3   11.47    3.49
  -1 -12   2   27.57   12.89
  -1 -12   2   65.35    5.09
  -1  12   2   72.61   13.84
  -1  12   2   50.91    5.81
   1 -12  -2   72.64   15.49
   1  12  -2   86.88    6.58
  -1 -12   1   -6.78   12.98
  -1 -12   1    9.86    2.74
  -1  12   1   27.09   10.61
   1 -12  -1   -2.14   10.86
   1  12  -1    8.81    3.34
  -1 -12   0   50.12   14.27
  -1 -12   0   55.96    2.54
  -1 -12   0   84.19    2.83
  -1 -12   0   49.39    3.59
   1 -12   0   56.15   11.57
   1 -12   0   42.96    3.15
   1  12   0   67.56   13.94
  -1 -12  -1   28.49    4.60
  -1 -12  -1   51.22    3.78
  -1  12  -1   26.92    3.25
   1 -12   1   19.83    8.66
   1 -12   1   52.47   12.77
   1 -12   1   28.00    3.32
   1  12   1   56.33   19.24
  -1 -12  -2  113.81    5.68
  -1 -12  -2  150.63    5.92
  -1  12  -2  120.43    5.16
   1 -12   2   96.08    9.50
   1 -12   2   87.95    5.58
  -1 -12  -3   28.06    4.17
  -1 -12  -3   22.45    3.65
  -1  12  -3   20.34    3.13
   1 -12   3    7.30    7.10
   1 -12   3    8.92    3.53
  -1 -12  -4    3.97    4.22
  -1 -12  -4   13.97    4.53
  -1  12  -4    8.43    3.08
   1 -12   4   11.32    8.65
  -1 -12  -5  235.01   10.94
  -1 -12  -5  268.92   11.20
   1 -12   5  180.74    9.09
  -1 -12  -6  136.29   11.53
  -1 -12  -6  115.57   11.60
  -1  12  -6  151.98    9.23
   1 -12   6   77.65    7.57
  -1 -13   5   18.18    4.73
  -1  13   5   33.54    7.14
   1 -13  -5   24.88    4.26
   1 -13  -5   29.93    4.36
   1  13  -5   32.88    5.75
  -1 -13   4    6.93    3.96
  -1  13   4   -0.68    5.35
   1 -13  -4    6.18    2.34
   1 -13  -4    6.34    2.49
   1  13  -4    2.02    4.15
  -1 -13   3   46.07    5.33
  -1  13   3   33.11    5.68
   1  13  -3   59.69    6.46
  -1 -13   2   69.03    5.51
  -1  13   2   67.40    7.57
   1  13  -2   90.06    6.89
  -1 -13   1   -0.42    2.58
   1  13  -1    4.88    3.77
  -1 -13   0   13.42    2.51
   1 -13   0   22.40   12.09
   1 -13   0   14.76    2.22
  -1 -13  -1   76.01    3.72
  -1 -13  -1   99.43    3.88
   1 -13   1   33.98   11.10
   1 -13   1   48.19    4.54
  -1 -13  -2   27.96    3.58
  -1 -13  -2   33.27    3.63
  -1  13  -2   27.85    3.68
   1 -13   2   24.93    8.81
   1 -13   2   26.91    4.12
  -1 -13  -3   -1.57    3.73
  -1 -13  -3    3.75    3.79
  -1  13  -3    3.42    3.04
   1 -13   3    6.21    3.82
  -1 -13  -4   81.38    8.05
  -1 -13  -4   89.64    7.77
  -1  13  -4   95.88    7.19
   1 -13   4   52.14    6.20
  -1 -13  -5   15.06    6.28
  -1 -13  -5   22.59    6.39
  -1  13  -5   14.19    4.62
   1 -13   5   17.61    5.14
  -1 -14   4   77.50    7.25
  -1  14   4  103.22   11.40
   1  14  -4  127.99    9.25
  -1 -14   3    8.99    4.13
  -1  14   3   19.66    6.14
   1  14  -3    8.90    4.87
  -1 -14   2    8.09    3.69
   1  14  -2    5.42    4.49
  -1 -14   1   36.92    4.05
   1 -14   1   37.70    4.01
  -1 -14  -2   73.14    5.87
  -1 -14  -2   98.86    5.21
   1 -14   2   55.49    5.78
  -1 -14  -3    5.15    4.06
  -1 -14  -3    3.93    4.05
  -1  14  -3   10.03    4.83
   1 -14   3    3.89    4.32
  -1 -14  -4  198.33   15.51
  -1 -14  -4  221.43   10.10
  -1  14  -4  166.60    8.39
   1 -14   4  126.05    8.22
   1  15  -3   40.42    6.98
  -1 -15   2   11.69    4.15
   1  15  -2   12.49    5.51
  -1 -15   1   47.37    5.32
   1 -15   2   26.83    4.78
  -2   0  10   -0.97    6.91
  -2   0  10    8.61    5.00
  -2   0   9   94.70   31.53
  -2   0   9   62.17    7.13
  -2   0   9   63.30    6.77
   2   0  -9  163.08   28.43
   2   0  -9  129.41    8.93
  -2   0   8  185.36   26.86
  -2   0   8  163.54    8.27
  -2   0   8  158.87    7.64
   2   0  -8  293.64   29.25
   2   0  -8  275.16    9.77
  -2   0   7    8.83   14.57
  -2   0   7   18.65    3.73
  -2   0   7   18.25    3.59
   2   0  -7   51.26   15.82
   2   0  -7   28.04    4.19
  -2   0   6   56.37   13.43
  -2   0   6   39.38    4.45
  -2   0   6   48.15    4.03
   2   0  -6   99.63   15.34
   2   0  -6   74.91    4.97
  -2   0   5  121.37   14.58
  -2   0   5  105.49    4.86
  -2   0   5   90.40    4.33
   2   0  -5  171.83   15.71
   2   0  -5  138.15    5.23
  -2   0   4   -0.75    6.51
  -2   0   4    4.49    1.72
  -2   0   4    2.55    1.65
   2   0  -4   12.59    6.69
   2   0  -4    5.25    1.80
  -2   0   3  489.79    7.12
   2   0  -3  629.08   17.79
   2   0  -3  598.85    7.81
  -2   0   2 5713.17   44.18
   2   0  -2 5107.65   41.68
   2   0  -2 4483.09   18.06
  -2   0   1 2967.78   27.83
  -2   0   1 2551.64   12.06
   2   0  -1 2390.99   24.98
   2   0  -1 2214.16   10.92
  -2   0   0  671.93   12.67
  -2   0   0  756.63    6.23
  -2   0   0  719.03    7.06
   2   0   0  790.26   13.77
  -2   0  -1  560.43   12.67
   2   0   1  596.58   13.22
   2   0   1  680.85    7.59
  -2   0  -2  769.51   17.12
  -2   0  -2  719.31    7.73
   2   0   2  779.05   17.44
   2   0   2  792.58    9.30
  -2   0  -3   16.87    5.72
  -2   0  -3   15.82    2.04
   2   0   3   13.91    6.16
   2   0   3   23.48    2.84
  -2   0  -4  136.00   13.17
  -2   0  -4  123.82    4.74
   2   0   4  116.02   13.43
   2   0   4  118.27    5.02
  -2   0  -5   24.87    9.58
  -2   0  -5    5.17    2.58
   2   0   5    5.38    9.52
   2   0   5    4.70    2.34
  -2   0  -6  252.62   22.69
  -2   0  -6  203.47    7.47
   2   0   6  195.91   20.52
   2   0   6  160.59    7.14
  -2   0  -7  119.29   19.28
  -2   0  -7   90.11    6.62
   2   0   7   65.39   19.96
   2   0   7   62.68    6.25
  -2   0  -8    9.23    4.96
   2   0   8    3.71    3.59
   2   0   9    4.28    4.07
  -2  -1  10   48.16    7.94
  -2  -1  10   42.01    6.29
  -2   1  10   57.13    8.53
  -2   1  10   54.20    6.96
  -2  -1   9   70.15   29.83
  -2  -1   9   33.84    6.22
  -2  -1   9   40.15    5.44
  -2   1   9   32.13   28.77
  -2   1   9   44.54    6.47
  -2   1   9   44.98    5.92
   2  -1  -9  102.49   28.10
   2  -1  -9   78.21    8.27
   2   1  -9   85.86   25.58
   2   1  -9   87.75    8.86
  -2  -1   8   -3.96   19.08
  -2  -1   8   10.02    4.13
  -2  -1   8    7.16    3.63
  -2   1   8   10.05   19.83
  -2   1   8   11.19    4.35
  -2   1   8    7.94    3.60
   2  -1  -8   29.07   20.92
   2  -1  -8   10.46    4.11
   2   1  -8   15.46   18.86
   2   1  -8   26.95    4.94
  -2  -1   7  136.89   19.95
  -2  -1   7  136.79    6.76
  -2  -1   7  123.95    6.77
  -2   1   7  119.89   21.70
  -2   1   7  116.28   10.34
  -2   1   7  125.57    6.34
   2  -1  -7  275.56   28.60
   2  -1  -7  214.72    8.10
   2   1  -7  245.43   26.54
   2   1  -7  228.70    8.19
  -2  -1   6  176.64   21.04
  -2  -1   6  113.98    5.62
  -2  -1   6  116.09    5.78
  -2   1   6  145.85   17.87
  -2   1   6  119.68    5.77
  -2   1   6  108.59    5.11
   2  -1  -6  230.43   20.69
   2  -1  -6  180.62    6.57
   2   1  -6  241.89   22.12
   2   1  -6  188.09    6.87
  -2  -1   5   74.37   12.21
  -2  -1   5   90.68    4.41
  -2  -1   5   71.03    4.29
  -2   1   5  101.78   13.20
  -2   1   5   81.23    4.56
  -2   1   5   86.12    4.19
   2  -1  -5  131.22   14.78
   2  -1  -5  103.92    4.67
   2   1  -5  141.18   14.77
   2   1  -5  116.47    4.89
  -2  -1   4  600.64   20.20
  -2  -1   4  472.40    7.92
  -2  -1   4  462.55    8.17
  -2   1   4  460.55   18.31
  -2   1   4  446.56    7.89
  -2   1   4  445.28    7.33
   2  -1  -4  733.88   22.04
   2  -1  -4  604.29    8.92
   2   1  -4  736.11   23.12
   2   1  -4  608.75    8.97
  -2  -1   3  353.97   14.20
  -2  -1   3  281.72    5.61
  -2   1   3  256.93   12.46
  -2   1   3  253.77    5.35
   2  -1  -3  333.44   13.72
   2  -1  -3  297.26    5.56
   2   1  -3  286.52   12.80
   2   1  -3  319.52    5.92
  -2  -1   2   51.61    6.40
  -2  -1   2   32.47    2.00
  -2   1   2   38.72    5.35
  -2   1   2   30.35    1.89
   2  -1  -2   51.55    5.85
   2  -1  -2   31.98    1.91
   2   1  -2   55.53    6.46
   2   1  -2   31.12    2.00
  -2  -1   1 5163.26   39.20
  -2   1   1 6501.76   45.03
   2  -1  -1    7.53    2.74
   2   1  -1 4394.58   16.77
  -2  -1   0 8524.47   49.13
  -2   1   0 8615.36   39.23
  -2   1   0 8799.52   24.19
   2   1   0 9696.51   52.36
  -2  -1  -1  730.47   15.81
  -2   1  -1  724.80   12.72
   2  -1   1  822.15   13.54
   2  -1   1  810.55    8.40
   2   1   1  813.04   16.88
   2   1   1  956.52    8.85
  -2  -1  -2  103.84   10.47
  -2  -1  -2  107.09    3.65
  -2   1  -2  117.72    7.35
  -2   1  -2  101.91    3.02
   2  -1   2  106.47    7.36
   2  -1   2  118.45    4.13
   2   1   2   93.87    8.51
   2   1   2  105.08    3.71
  -2  -1  -3   29.18    6.80
  -2  -1  -3   26.53    2.81
  -2   1  -3   28.62    5.80
  -2   1  -3   29.19    2.48
   2  -1   3   20.23    6.24
   2  -1   3   24.03    2.92
   2   1   3   26.20    7.52
   2   1   3   23.47    3.18
  -2  -1  -4  412.31   18.81
  -2  -1  -4  358.16    7.70
  -2   1  -4  401.11   17.79
  -2   1  -4  351.71    7.03
   2  -1   4  313.67   15.83
   2  -1   4  346.52    8.16
   2   1   4  368.04   18.77
   2   1   4  344.67    7.71
  -2  -1  -5  179.74   18.21
  -2  -1  -5  180.84    6.58
  -2   1  -5  217.60   17.06
  -2   1  -5  174.49    6.09
   2  -1   5  148.71   17.01
   2  -1   5  155.03    6.44
   2   1   5  197.12   19.32
   2   1   5  162.87    5.90
   2   1   5  168.62    6.48
  -2  -1  -6  131.30   17.54
  -2  -1  -6   87.28    6.12
  -2   1  -6   93.82   15.54
   2  -1   6   93.08   15.78
   2  -1   6   77.32    5.75
   2   1   6   58.36   15.45
   2   1   6   82.05    5.46
   2   1   6   75.30    5.31
  -2  -1  -7  138.81   21.31
  -2  -1  -7   91.62    6.93
  -2   1  -7  172.32   20.91
  -2   1  -7  107.14    7.06
   2  -1   7   77.37   20.10
   2   1   7   81.31   22.39
   2   1   7   81.61    6.53
  -2  -1  -8   31.28    5.81
  -2   1  -8   28.01    5.77
   2  -1   8   23.38    4.88
   2   1   8   15.10    4.57
  -2   1  -9    5.23   10.37
   2  -1   9   -5.74    3.97
   2   1   9   -2.53    4.01
  -2  -2  10    8.99    6.56
  -2  -2  10   -1.51    4.14
  -2   2  10   27.71    8.18
  -2   2  10   11.74    5.02
  -2  -2   9   11.58    5.24
  -2  -2   9   21.13    4.80
  -2   2   9   17.43   28.24
  -2   2   9   23.28    6.21
  -2   2   9   14.63    7.08
   2  -2  -9   28.35   28.38
   2  -2  -9   41.39    6.50
   2   2  -9   76.52   25.36
   2   2  -9   49.50    6.41
  -2  -2   8   63.60   22.51
  -2  -2   8   69.50    6.48
  -2  -2   8   57.60    9.48
  -2   2   8   32.61   22.77
  -2   2   8   59.34    6.47
  -2   2   8   61.09    5.61
   2  -2  -8  132.88   25.60
   2  -2  -8  125.53    7.63
   2   2  -8  227.88   27.67
   2   2  -8  114.25    7.33
  -2  -2   7  926.68   36.26
  -2  -2   7  729.99   12.83
  -2  -2   7  668.89   13.44
  -2   2   7  751.54   35.33
  -2   2   7  678.12   13.85
  -2   2   7  675.36   12.12
   2  -2  -7 1189.80   17.09
   2   2  -7 1428.36   41.48
   2   2  -7 1197.14   16.95
  -2  -2   6  164.45   19.07
  -2  -2   6  113.27    5.38
  -2  -2   6  107.13    5.64
  -2   2   6  121.02   15.63
  -2   2   6  115.58    5.94
  -2   2   6  110.44    5.03
   2  -2  -6  207.40   21.10
   2  -2  -6  180.43    6.68
   2   2  -6  209.78   20.87
   2   2  -6  184.91    6.86
  -2  -2   5   96.27   12.58
  -2  -2   5   72.64    4.15
  -2  -2   5   69.92    4.38
  -2   2   5   94.00   13.34
  -2   2   5   76.83    4.58
  -2   2   5   74.66    3.88
   2  -2  -5  100.37    4.68
   2   2  -5  144.20   14.83
   2   2  -5  117.79    5.08
  -2  -2   4   29.56    8.27
  -2  -2   4   27.36    2.85
  -2  -2   4   25.30    2.86
  -2   2   4   21.95    7.04
  -2   2   4   25.00    2.96
  -2   2   4   25.57    2.41
   2  -2  -4   33.09    8.30
   2  -2  -4   36.76    3.08
   2   2  -4   41.57    8.38
   2   2  -4   38.97    3.01
  -2  -2   3  268.87   13.27
  -2  -2   3  211.64    4.95
  -2   2   3  166.90   11.13
  -2   2   3  170.92    4.56
   2  -2  -3  240.96   12.66
   2  -2  -3  227.62    4.94
   2   2  -3  236.77   12.61
   2   2  -3  235.47    5.31
  -2  -2   2  153.72    9.36
  -2  -2   2  140.18    3.66
  -2   2   2  116.17    7.56
  -2   2   2  131.08    3.28
   2  -2  -2  143.09    3.22
   2   2  -2  106.12    8.00
   2   2  -2  118.32    3.46
  -2  -2   1 1445.29   22.68
  -2  -2   1 1932.83   25.85
  -2  -2   1 1753.66   11.46
  -2   2   1 1861.58    9.08
   2  -2  -1 2226.76   21.74
   2  -2  -1 1435.65    6.72
   2   2  -1 1520.39   10.69
  -2  -2   0 1536.73   23.05
  -2  -2   0 1978.02   12.20
  -2   2   0 1802.55   15.45
  -2   2   0 2895.47   19.61
  -2   2   0 1608.86   10.52
   2  -2   0 1734.39   10.96
   2   2   0 1800.40   24.94
   2   2   0 1768.33   11.47
  -2  -2  -1   22.73    4.96
  -2  -2  -1   25.37    2.00
  -2   2  -1   22.51    2.77
   2  -2   1   16.77    2.69
   2  -2   1   17.12    1.93
   2   2   1   15.09    4.62
  -2  -2  -2  414.33   14.99
  -2  -2  -2  390.34    6.66
  -2   2  -2  486.59   11.77
  -2   2  -2  386.68    4.78
   2  -2   2  412.61   10.90
   2  -2   2  413.57    7.20
   2   2   2  419.94   15.27
   2   2   2  474.12    7.05
  -2  -2  -3  560.74   19.19
  -2  -2  -3  558.06    8.72
  -2   2  -3  673.91   16.89
  -2   2  -3  561.01    7.10
   2  -2   3  559.90   15.71
   2  -2   3  546.10    9.19
   2   2   3  505.58   18.82
   2   2   3  606.55    8.83
  -2  -2  -4   96.85   12.46
  -2  -2  -4   88.81    4.67
  -2   2  -4  109.07   11.34
  -2   2  -4   82.17    3.75
   2  -2   4   56.23    8.77
   2  -2   4   80.63    4.60
   2   2   4   96.87   12.52
   2   2   4   74.35    4.28
   2   2   4   89.05    4.47
  -2  -2  -5  282.63   21.19
  -2  -2  -5  241.76    7.70
  -2   2  -5  346.56   18.92
  -2   2  -5  253.10    6.90
   2  -2   5  172.40   16.46
   2  -2   5  212.27    7.54
   2   2   5  238.38   20.77
   2   2   5  219.41    7.04
   2   2   5  224.66    7.13
  -2  -2  -6  130.43   18.39
  -2  -2  -6   97.48    6.15
  -2   2  -6  157.71   19.11
  -2   2  -6   88.30    5.59
   2  -2   6   62.28   14.19
   2  -2   6   80.76    5.87
   2   2   6   98.20   18.42
   2   2   6   76.36    5.92
   2   2   6   83.23    5.63
  -2  -2  -7   36.53   18.57
  -2  -2  -7   48.15    5.93
  -2   2  -7   75.70   18.09
  -2   2  -7   51.62    6.22
   2  -2   7   23.40   18.62
   2  -2   7   36.27    5.17
   2   2   7   41.37   21.09
   2   2   7   37.05    5.16
   2   2   7   30.13    4.58
  -2  -2  -8   40.36    6.34
  -2   2  -8   32.51    5.76
   2  -2   8   24.81    5.29
   2   2   8   28.84    5.16
  -2   2  -9  153.51   11.64
   2  -2   9  111.38    9.12
   2   2   9  105.02    8.21
  -2  -3  10   44.30    7.82
  -2  -3  10   40.05    6.58
  -2   3  10   27.37    9.28
  -2   3  10   54.73    6.98
  -2  -3   9   44.33    6.57
  -2  -3   9   40.53    6.07
  -2   3   9   53.45   38.66
  -2   3   9   46.23    7.14
  -2   3   9   35.73    5.53
   2  -3  -9  151.86   54.51
   2  -3  -9   83.17    8.54
   2   3  -9   99.21    9.37
  -2  -3   8   45.39   21.26
  -2  -3   8   31.14    4.93
  -2  -3   8   37.04    5.10
  -2   3   8   22.08   20.02
  -2   3   8   32.18    5.51
  -2   3   8   31.24    4.27
   2  -3  -8   78.52   23.34
   2  -3  -8   65.67    7.23
   2   3  -8   54.98   18.03
   2   3  -8   66.42    6.63
  -2  -3   7   25.33   15.20
  -2  -3   7    9.37    3.15
  -2  -3   7    5.39    3.21
  -2   3   7   18.95   15.95
  -2   3   7    4.76    3.43
  -2   3   7    4.85    2.64
   2  -3  -7  -11.70   15.23
   2  -3  -7   15.68    3.70
   2   3  -7   29.04   13.21
   2   3  -7    9.72    3.40
  -2  -3   6  843.98   30.61
  -2  -3   6  674.75   11.22
  -2  -3   6  614.86   12.23
  -2   3   6  587.66   26.70
  -2   3   6  610.92   11.74
  -2   3   6  570.34    9.67
   2  -3  -6 1373.39   38.36
   2  -3  -6  958.35   14.11
   2   3  -6 1083.96   33.16
   2   3  -6 1032.76   14.46
  -2  -3   5  367.86   21.21
  -2  -3   5  268.05    6.78
  -2  -3   5  237.94    7.16
  -2   3   5  221.66   18.34
  -2   3   5  215.61    6.64
  -2   3   5  228.69    5.63
   2  -3  -5  369.06   20.23
   2  -3  -5  338.52    7.77
   2   3  -5  415.23   20.10
   2   3  -5  374.89    8.21
  -2  -3   4  492.62   20.16
  -2  -3   4  350.83    6.89
  -2  -3   4  308.44    7.22
  -2   3   4  275.82   15.72
  -2   3   4  289.18    6.73
  -2   3   4  310.76    5.55
   2  -3  -4  408.80   18.30
   2  -3  -4  413.36    7.51
   2   3  -4  438.87   18.17
   2   3  -4  456.91    8.08
  -2  -3   3 1486.25   28.19
  -2  -3   3 1194.26   11.28
  -2   3   3  780.19   19.87
  -2   3   3  906.57    9.93
   2  -3  -3 2392.42   34.02
   2  -3  -3 1191.57   10.66
   2   3  -3 1099.33   24.11
  -2  -3   2 3499.09   38.83
  -2  -3   2 3377.18   17.47
  -2   3   2 2534.34   29.31
  -2   3   2 2896.08   14.63
   2  -3  -2 3304.48   14.10
   2   3  -2 3031.24   16.94
  -2  -3   1 1244.35   22.31
  -2  -3   1 1795.32   12.29
  -2   3   1 1645.32   18.55
  -2   3   1 1955.52    9.09
  -2   3   1 1191.44    8.20
   2  -3  -1 2383.07   22.22
   2   3  -1 1485.35   11.33
  -2  -3   0  247.34   10.97
  -2  -3   0  367.30    5.78
  -2   3   0  329.32    5.65
  -2   3   0  839.48    8.83
  -2   3   0  249.20    4.51
   2  -3   0  283.08    4.68
   2   3   0  292.38   11.73
   2   3   0  302.06    5.33
  -2  -3  -1  237.04   11.48
  -2  -3  -1  203.48    4.80
  -2  -3  -1  283.40    5.49
  -2   3  -1  237.40    5.04
   2  -3   1  276.74    5.12
   2  -3   1  220.33    4.84
   2   3   1  265.51   12.25
  -2  -3  -2  354.25   15.15
  -2  -3  -2  341.72    6.70
  -2   3  -2  505.07   10.62
  -2   3  -2  341.24    3.96
   2  -3   2  336.37    9.00
   2  -3   2  355.37    6.89
   2   3   2  370.52   15.88
   2   3   2  434.52    6.65
  -2  -3  -3  500.01   19.49
  -2  -3  -3  498.97    8.66
  -2   3  -3  805.72   17.29
  -2   3  -3  497.35    6.33
   2  -3   3  518.90   14.21
   2  -3   3  520.52    9.28
   2   3   3  523.07   20.41
   2   3   3  568.40    8.37
  -2  -3  -4   17.07    8.98
  -2  -3  -4   29.38    3.49
  -2   3  -4   45.82    7.75
  -2   3  -4   25.17    2.89
   2  -3   4   27.20    6.88
   2  -3   4   31.23    3.73
   2   3   4   31.13   10.48
   2   3   4   23.21    3.08
   2   3   4   30.23    3.08
  -2  -3  -5  206.08    7.44
  -2   3  -5  348.90   18.25
  -2   3  -5  220.14    6.36
   2  -3   5  210.23   16.62
   2  -3   5  170.00    7.05
   2   3   5  179.04   19.31
   2   3   5  187.28    6.91
   2   3   5  185.58    6.38
  -2  -3  -6   42.23   15.27
  -2  -3  -6   53.23    5.75
  -2   3  -6   72.81   13.85
  -2   3  -6   41.48    4.91
   2  -3   6   23.51   11.99
   2  -3   6   44.19    5.21
   2   3   6   60.50   18.39
   2   3   6   41.69    5.06
   2   3   6   47.96    4.87
  -2  -3  -7    7.75   19.54
  -2  -3  -7    8.16    4.22
  -2   3  -7    2.04   17.11
  -2   3  -7    8.59    3.87
   2  -3   7    5.80    3.87
   2   3   7  -46.38   20.39
   2   3   7    8.56    4.07
   2   3   7    2.60    3.21
  -2  -3  -8  110.74   29.14
  -2  -3  -8   77.52    9.26
  -2   3  -8   76.75    8.12
   2  -3   8   72.96    7.07
   2   3   8   61.30    6.76
  -2   3  -9   34.31    7.77
   2  -3   9   21.51    5.82
   2   3   9   27.37    5.75
  -2  -4  10    1.12    6.12
  -2  -4  10    4.95    5.07
  -2   4  10    7.18    4.71
  -2  -4   9   35.95    5.83
  -2  -4   9   36.29    5.80
  -2   4   9   45.15    7.32
  -2   4   9   45.44    5.54
   2  -4  -9  101.24    9.63
   2   4  -9   75.04    9.12
  -2  -4   8  312.85   37.64
  -2  -4   8  183.86    9.07
  -2   4   8  189.77   29.31
  -2   4   8  184.05    9.28
  -2   4   8  173.67    7.30
   2  -4  -8  349.78   11.47
   2   4  -8  340.42   32.39
   2   4  -8  360.37   11.48
  -2  -4   7  247.77   28.06
  -2  -4   7  134.51    6.55
  -2  -4   7  117.12    6.95
  -2   4   7  125.51   20.19
  -2   4   7  119.94    7.49
  -2   4   7  118.93    5.65
   2  -4  -7  369.65   28.97
   2  -4  -7  216.52    8.59
   2   4  -7  216.20   23.33
   2   4  -7  222.45    8.61
  -2  -4   6  751.84   30.43
  -2  -4   6  503.13    9.68
  -2  -4   6  451.63   10.87
  -2   4   6  467.68   25.45
  -2   4   6  476.16   10.76
  -2   4   6  436.51    8.16
   2  -4  -6  775.87   51.86
   2  -4  -6  721.17   12.37
   2   4  -6  797.46   29.46
   2   4  -6  811.57   13.16
  -2  -4   5    5.42    8.98
  -2  -4   5   -1.38    1.79
  -2  -4   5    3.49    2.30
  -2   4   5   14.39    9.53
  -2   4   5   -0.69    2.28
  -2   4   5   -1.37    1.44
   2  -4  -5   -5.10    8.84
   2  -4  -5    0.40    2.01
   2   4  -5  -13.03    7.76
   2   4  -5    1.53    2.03
  -2  -4   4  749.61   24.42
  -2  -4   4  543.38    8.44
  -2  -4   4  455.50    8.97
  -2   4   4  383.67   17.65
  -2   4   4  401.88    7.97
  -2   4   4  449.17    6.19
   2  -4  -4  581.24   21.36
   2  -4  -4  621.43    9.12
   2   4  -4  611.55   21.30
   2   4  -4  684.68   10.01
  -2  -4   3 1160.26   26.12
  -2  -4   3  997.37   10.47
  -2  -4   3  793.01   10.58
  -2   4   3  589.59   18.32
  -2   4   3  681.06    8.84
   2  -4  -3 1025.16    9.89
   2   4  -3  813.39   21.83
   2   4  -3 1011.37   11.08
  -2  -4   2 2090.61   31.78
  -2  -4   2 2860.48   37.02
  -2  -4   2 2950.40   16.88
  -2   4   2 1784.25   25.46
  -2   4   2 2198.60   13.14
   2  -4  -2 2930.54   32.34
   2  -4  -2 2823.63   12.55
   2   4  -2 2465.06   16.05
  -2  -4   1  454.93   15.08
  -2  -4   1  790.18    8.69
  -2   4   1  483.41   10.67
  -2   4   1  798.22    6.03
  -2   4   1  433.25    5.09
   2  -4  -1  965.26   14.76
   2   4  -1  605.27   17.03
   2   4  -1  618.89    7.94
  -2  -4   0  205.99   11.40
  -2  -4   0  320.03    5.82
  -2   4   0  205.00    3.86
   2  -4   0  219.30    4.32
   2   4   0  219.92   11.30
   2   4   0  253.20    5.35
  -2  -4  -1   61.01    8.39
  -2  -4  -1   61.75    3.40
  -2  -4  -1   89.96    3.74
   2  -4   1   62.83    3.07
   2   4   1   58.70    7.86
  -2  -4  -2  133.76   11.65
  -2  -4  -2  111.55    4.44
  -2   4  -2  269.28    7.05
  -2   4  -2  111.59    2.07
   2  -4   2  121.63    5.24
   2  -4   2  115.59    5.42
   2   4   2  126.16   11.85
  -2  -4  -3  107.73   13.22
  -2  -4  -3  109.52    4.86
  -2   4  -3  220.68    9.83
  -2   4  -3   95.39    2.96
   2  -4   3   79.41    8.56
   2  -4   3   94.16    4.67
   2   4   3   85.32   11.59
   2   4   3  116.03    4.15
  -2  -4  -4  129.58   15.37
  -2  -4  -4  116.40    5.37
  -2   4  -4  124.66    4.89
   2  -4   4  118.89   11.21
   2  -4   4  112.31    5.72
   2   4   4   94.33   14.47
   2   4   4  119.61    5.50
   2   4   4  118.51    4.74
  -2  -4  -5   10.51   12.04
  -2  -4  -5   21.95    3.73
  -2   4  -5   36.96    9.34
  -2   4  -5   25.82    3.03
   2  -4   5   23.13    8.81
   2  -4   5   22.08    4.01
   2   4   5   21.57   14.02
   2   4   5   28.41    4.00
   2   4   5   26.04    3.49
  -2  -4  -6  279.25   27.47
  -2  -4  -6  238.79    8.75
  -2   4  -6  458.63   23.83
  -2   4  -6  264.20    7.86
   2  -4   6  194.21   21.53
   2  -4   6  193.77    8.50
   2   4   6  178.98   24.89
   2   4   6  208.30    8.68
   2   4   6  218.76    7.58
  -2  -4  -7   65.49   21.87
  -2  -4  -7   54.20    6.41
  -2   4  -7   65.65    6.57
   2  -4   7   32.14    5.09
   2   4   7   61.87   24.69
   2   4   7   41.94    5.76
   2   4   7   42.00    4.98
  -2  -4  -8   13.14   28.28
  -2  -4  -8   88.27   10.12
  -2   4  -8  100.57    8.71
   2  -4   8   82.74    7.87
   2   4   8   29.30   38.79
   2   4   8   69.42    7.92
  -2   4  -9   22.65    7.71
   2  -4   9    6.80    5.27
   2   4   9   10.51    5.09
  -2  -5   9   12.89    4.83
  -2  -5   9    5.61    4.28
  -2   5   9    9.97    6.22
  -2   5   9    6.48    3.88
   2  -5  -9   17.09    6.15
   2   5  -9    6.37    5.82
  -2  -5   8   26.76    4.44
  -2  -5   8   28.91    5.32
  -2   5   8   63.65   31.52
  -2   5   8   35.44    5.84
  -2   5   8   30.36    4.07
   2  -5  -8   33.96   27.10
   2  -5  -8   65.77    7.71
   2   5  -8   20.38   32.62
   2   5  -8   46.29    5.99
  -2  -5   7   38.73   17.19
  -2  -5   7   25.97    3.67
  -2   5   7   22.52   18.17
  -2   5   7   16.83    4.53
  -2   5   7   26.67    3.42
   2  -5  -7   68.04   18.03
   2  -5  -7   43.56    5.25
   2   5  -7   37.67   15.09
   2   5  -7   38.63    4.89
  -2  -5   6  140.76   17.72
  -2  -5   6   66.40    4.62
  -2  -5   6   65.93    5.61
  -2   5   6   79.70   16.47
  -2   5   6   60.70    5.39
  -2   5   6   59.32    6.06
   2  -5  -6   84.67   16.11
   2  -5  -6   99.17    5.84
   2   5  -6  125.64   16.09
  -2  -5   5   29.60   11.83
  -2  -5   5   29.25    3.21
  -2  -5   5   22.65    3.56
  -2   5   5   46.09   11.05
  -2   5   5   25.23    3.57
  -2   5   5   23.86    2.57
   2  -5  -5   38.27   11.11
   2  -5  -5   38.78    3.99
   2   5  -5   52.25   11.00
   2   5  -5   43.64    4.13
  -2  -5   4   -3.14    8.60
  -2  -5   4    6.02    1.99
  -2  -5   4    3.30    2.04
  -2   5   4   -7.33    6.60
  -2   5   4    2.99    1.94
  -2   5   4    2.81    1.26
   2  -5  -4   19.96    7.73
   2  -5  -4    3.88    1.79
   2   5  -4    3.27    7.50
   2   5  -4    1.40    1.75
  -2  -5   3  314.50   16.32
  -2  -5   3  278.52    5.84
  -2  -5   3  218.97    6.16
  -2   5   3  151.59   11.52
  -2   5   3  182.15    5.09
   2  -5  -3   53.64    8.56
   2   5  -3  265.70    6.10
  -2  -5   2  297.90   14.00
  -2  -5   2  464.81   17.63
  -2  -5   2  534.22    7.59
  -2   5   2  253.95   11.19
  -2   5   2  355.17    5.70
  -2   5   2  266.96    3.55
   2  -5  -2  459.63   14.07
   2  -5  -2  524.62    5.19
   2   5  -2  425.70    7.32
  -2  -5   1  186.68   11.49
  -2  -5   1  304.80    5.75
  -2   5   1  169.67    7.33
  -2   5   1  269.03    3.88
  -2   5   1  164.65    3.42
   2  -5  -1  342.02    9.81
   2   5  -1  247.38   12.77
   2   5  -1  242.95    8.74
  -2  -5   0  341.27   14.92
  -2  -5   0  332.09    6.35
  -2  -5   0  524.07    7.70
  -2   5   0  345.92    5.52
   2  -5   0  725.54    6.74
   2  -5   0  361.36    5.54
   2   5   0  411.91   16.10
   2   5   0  425.27    7.65
  -2  -5  -1  131.36   11.29
  -2  -5  -1  106.98    4.24
  -2  -5  -1  153.61    4.78
   2  -5   1  112.84    3.94
   2   5   1  108.93   11.05
  -2  -5  -2  164.16   13.68
  -2  -5  -2  158.20    5.17
  -2  -5  -2  211.40    5.84
  -2   5  -2  155.53    2.01
   2  -5   2  164.40    3.80
   2  -5   2  156.76    5.21
   2   5   2  202.53   14.70
  -2  -5  -3   65.79   10.95
  -2  -5  -3   56.13    4.14
  -2   5  -3  132.05    7.96
  -2   5  -3   62.59    2.43
   2  -5   3   63.75    6.86
   2  -5   3   60.24    4.02
   2   5   3   39.22   10.11
  -2  -5  -4   12.64   10.70
  -2  -5  -4   28.00    3.63
  -2   5  -4   66.61    8.29
  -2   5  -4   31.28    2.76
   2  -5   4   31.64    7.11
   2  -5   4   31.90    3.95
   2   5   4   10.36   11.17
   2   5   4   22.95    3.71
   2   5   4   29.73    3.22
  -2  -5  -5  181.52   21.12
  -2  -5  -5  148.10    6.89
  -2   5  -5  306.29   17.16
  -2   5  -5  176.67    5.69
   2  -5   5  134.34   14.79
   2  -5   5  140.57    6.92
   2   5   5  139.94   22.64
   2   5   5  139.23    7.00
   2   5   5  147.33    5.75
  -2  -5  -6   42.06   18.06
  -2  -5  -6    0.73    3.70
  -2   5  -6   33.48   12.51
  -2   5  -6    8.38    3.01
   2  -5   6   -0.63   12.32
   2   5   6   -6.48   18.48
   2   5   6    2.83    3.83
   2   5   6    4.72    3.01
  -2  -5  -7    4.64   21.87
  -2  -5  -7   -1.08    4.54
  -2   5  -7   10.56    3.98
   2  -5   7    1.61    3.26
   2   5   7   54.80   25.15
   2   5   7    6.90    5.22
   2   5   7    1.99    3.31
  -2  -5  -8  -38.63   30.07
  -2  -5  -8   12.18    6.32
  -2   5  -8   12.19    5.16
   2  -5   8   -2.17    3.73
   2   5   8   -6.39   35.12
   2   5   8    0.76    4.96
  -2  -6   9   22.66    5.10
  -2  -6   9   14.61    5.13
  -2   6   9   30.76    8.00
  -2   6   9   26.14    4.66
   2  -6  -9   50.89    7.46
   2   6  -9   44.59    7.72
  -2  -6   8   57.83    6.09
  -2  -6   8   58.01    6.22
  -2   6   8   61.20    7.33
  -2   6   8   63.18    5.21
   2  -6  -8  133.92    9.17
   2   6  -8  104.72    8.61
  -2  -6   7  186.26   23.50
  -2  -6   7  150.42    6.42
  -2  -6   7  145.90    8.01
  -2   6   7  145.68   24.53
  -2   6   7  140.05    8.54
  -2   6   7  125.16    5.27
   2  -6  -7  207.45   24.63
   2  -6  -7  243.86    9.19
   2   6  -7  188.99   22.71
   2   6  -7  295.38    9.82
  -2  -6   6   69.00   14.77
  -2  -6   6   31.72    3.48
  -2  -6   6   30.30    4.70
  -2   6   6   52.19   15.56
  -2   6   6   34.70    4.63
  -2   6   6   26.78    3.12
   2  -6  -6   20.40   14.95
   2  -6  -6   54.19    5.50
   2   6  -6   61.78   13.74
   2   6  -6   48.48    5.11
  -2  -6   5  656.39   27.84
  -2  -6   5  424.55    8.00
  -2  -6   5  358.37    9.53
  -2   6   5  292.44   21.42
  -2   6   5  346.79    9.04
  -2   6   5  310.39    5.23
   2  -6  -5  537.17   25.43
   2  -6  -5  542.66    9.99
   2   6  -5  497.07   22.84
   2   6  -5  608.03   10.94
  -2  -6   4  287.28   18.99
  -2  -6   4  205.87    5.51
  -2  -6   4  161.26    6.28
  -2   6   4  150.69   15.94
  -2   6   4  138.74    5.41
  -2   6   4  140.62    2.97
   2  -6  -4  206.84   16.99
   2  -6  -4  244.65    6.09
   2   6  -4  249.29    6.85
  -2  -6   3  524.16   20.24
  -2  -6   3  495.50    7.71
  -2  -6   3  340.15    7.67
  -2   6   3  240.43   14.28
  -2   6   3  301.77    6.61
  -2   6   3  348.68    3.33
  -2   6   3  278.48    3.03
   2  -6  -3  408.15   17.33
   2  -6  -3  512.89    6.97
   2   6  -3  465.42    8.29
  -2  -6   2  485.22   22.29
  -2  -6   2  781.88   22.60
  -2  -6   2  906.14    9.99
  -2   6   2  412.77   14.31
  -2   6   2  525.50    7.19
  -2   6   2  428.66    3.97
   2  -6  -2  684.50   17.79
   2  -6  -2  846.47    5.79
   2  -6  -2  558.57    4.72
   2   6  -2  672.50    9.44
  -2  -6   1  842.82   22.96
  -2  -6   1 1510.27   12.91
  -2   6   1  764.85   14.75
  -2   6   1 1030.44    7.97
  -2   6   1  811.18    6.94
   2  -6  -1 1436.08   19.88
   2   6  -1 1192.68   26.67
   2   6  -1 1097.07   11.82
  -2  -6   0  124.14   11.87
  -2  -6   0  120.44    4.54
  -2  -6   0  226.13    5.49
  -2   6   0  155.94    4.53
  -2   6   0  235.44    2.47
  -2   6   0  182.62    2.20
   2  -6   0  301.10    5.83
   2  -6   0  143.57    3.79
   2   6   0  148.41   12.63
   2   6   0  170.62    5.17
  -2  -6  -1  283.84   16.04
  -2  -6  -1  285.37    6.54
  -2  -6  -1  444.20    7.96
   2  -6   1  303.92    6.14
   2   6   1  355.45   17.19
  -2  -6  -2    5.46    7.95
  -2  -6  -2   10.18    2.33
  -2  -6  -2   12.28    2.37
  -2   6  -2   10.84    0.87
   2  -6   2   12.19    2.42
   2   6   2   22.34    8.67
  -2  -6  -3  146.47   16.56
  -2  -6  -3  148.58    5.85
  -2  -6  -3  193.50    6.54
  -2   6  -3  242.26    8.16
  -2   6  -3  183.37    3.61
   2  -6   3  154.81    7.45
   2  -6   3  148.43    5.82
   2   6   3  154.01   16.78
  -2  -6  -4   11.55   12.30
  -2  -6  -4    7.15    3.04
  -2   6  -4    6.67    5.65
  -2   6  -4    5.84    1.73
   2  -6   4   12.03    5.92
   2  -6   4    3.13    2.65
   2   6   4    7.17   12.39
  -2  -6  -5   81.23   18.35
  -2  -6  -5   54.26    5.57
  -2   6  -5  106.60   13.24
  -2   6  -5   66.75    4.26
   2  -6   5   48.13   10.21
   2  -6   5   42.81    5.11
   2   6   5   86.43   17.49
   2   6   5   44.32    5.19
   2   6   5   55.25    4.20
  -2  -6  -6   24.90   20.47
  -2  -6  -6   32.55    5.12
  -2   6  -6   62.01   13.26
  -2   6  -6   45.91    4.99
   2  -6   6   33.33    5.14
   2   6   6   24.05   20.24
   2   6   6   27.84    5.30
   2   6   6   38.59    4.51
  -2  -6  -7   -5.82    4.97
  -2   6  -7    9.76    4.03
   2  -6   7    7.67    4.00
   2   6   7  -15.16   27.16
   2   6   7    4.69    5.34
   2   6   7    6.03    3.42
  -2   6  -8    3.59    5.30
   2  -6   8    7.92    4.77
   2   6   8   17.80    4.70
  -2  -7   9    7.60    4.43
  -2  -7   9   17.04    5.37
  -2   7   9    2.62    7.64
  -2   7   9   16.93    4.24
   2  -7  -9   21.18    7.63
   2   7  -9   43.99   10.96
  -2  -7   8   21.05    3.94
  -2  -7   8   22.94    5.21
  -2   7   8   18.56    5.86
  -2   7   8   24.80    3.71
   2  -7  -8   54.21    6.70
   2   7  -8   55.02    7.02
  -2  -7   7   46.51    4.81
  -2  -7   7   52.71    5.99
  -2   7   7   55.59    6.56
  -2   7   7   42.61    3.88
   2  -7  -7   94.34    7.41
   2   7  -7  104.26    7.44
  -2  -7   6  166.65   19.77
  -2  -7   6   79.33    4.63
  -2  -7   6   82.36    6.48
  -2   7   6   83.98   18.49
  -2   7   6   68.30    6.39
  -2   7   6   66.76    3.31
   2  -7  -6  125.07   18.93
   2   7  -6  108.37   17.39
   2   7  -6  133.65    6.96
  -2  -7   5  873.97   32.30
  -2  -7   5  508.33    8.53
  -2  -7   5  425.60   10.79
  -2   7   5  348.97   24.66
  -2   7   5  387.63    9.85
  -2   7   5  362.19    4.42
   2  -7  -5  648.28   28.95
   2  -7  -5  688.80   11.19
   2   7  -5  720.25   12.19
  -2  -7   4  636.38   23.56
  -2  -7   4 1147.63   31.61
  -2  -7   4  804.55   10.05
  -2  -7   4  639.29   11.86
  -2   7   4  537.83   10.16
   2  -7  -4  978.82   11.42
   2   7  -4  952.04   12.90
  -2  -7   3   37.19    9.11
  -2  -7   3  116.24   13.31
  -2  -7   3  112.36    4.16
  -2  -7   3   77.24    4.56
  -2   7   3   58.30   10.06
  -2   7   3   67.43    4.01
   2  -7  -3   81.92   10.89
   2  -7  -3  115.34    3.60
   2  -7  -3   70.13    2.96
   2   7  -3   96.33    4.58
  -2  -7   2   29.39    8.42
  -2  -7   2   44.54    3.04
  -2  -7   2   26.25    2.94
  -2   7   2   15.58    5.96
  -2   7   2   18.03    2.12
  -2   7   2   21.24    1.17
   2  -7  -2   29.30    6.45
   2   7  -2   31.09    3.15
  -2  -7   1  577.26   22.02
  -2  -7   1  531.15   12.89
  -2  -7   1 1143.72   11.66
  -2   7   1  526.51   13.68
  -2   7   1  647.51    6.99
  -2   7   1  634.84    6.29
   2  -7  -1  929.21   17.41
   2   7  -1  806.29   23.95
   2   7  -1  778.17   10.63
  -2  -7   0  444.89   19.42
  -2  -7   0  427.05    7.65
  -2  -7   0  793.56   10.20
  -2   7   0  588.34    9.43
  -2   7   0  551.99    4.86
  -2   7   0  580.20    4.97
   2  -7   0  946.80   11.60
   2  -7   0  494.13    6.79
   2   7   0  521.93   20.31
   2   7   0  573.00    9.40
  -2  -7  -1   95.72   11.90
  -2  -7  -1   92.76    4.42
  -2  -7  -1  139.03    5.06
  -2   7  -1   93.78    2.05
  -2   7  -1  198.79    1.76
   2  -7   1  103.84    4.08
   2   7   1  101.57   12.40
  -2  -7  -2   30.82    9.83
  -2  -7  -2   12.19    2.55
  -2  -7  -2   19.65    2.98
  -2   7  -2   18.59    1.17
   2  -7   2   16.92    2.81
   2   7   2   12.64    9.27
  -2  -7  -3  326.86   21.40
  -2  -7  -3  332.16    8.53
  -2  -7  -3  410.72    9.40
  -2   7  -3  446.19    5.45
   2  -7   3  353.12    7.59
   2  -7   3  312.80    6.69
   2  -7   3  301.36    8.08
   2   7   3  336.76   22.78
  -2  -7  -4  288.55   25.34
  -2  -7  -4  284.12    8.67
  -2  -7  -4  331.84    9.44
  -2   7  -4  403.67   12.98
  -2   7  -4  378.70    6.45
   2  -7   4  304.87   12.47
   2  -7   4  253.27    8.35
   2   7   4  247.80   24.25
  -2  -7  -5   22.21   17.71
  -2  -7  -5   21.45    4.42
  -2   7  -5   42.43    9.15
  -2   7  -5   37.37    3.86
   2  -7   5   29.29    9.69
   2  -7   5   22.29    4.35
   2   7   5    1.03   16.45
  -2  -7  -6    0.67   21.59
  -2  -7  -6   12.41    4.61
  -2   7  -6    9.42    3.19
   2  -7   6    3.49    3.17
   2   7   6  -29.34   21.58
  -2  -7  -7   25.70    6.23
  -2   7  -7   30.31    4.79
   2  -7   7   13.39    4.62
  -2   7  -8   56.99    6.93
   2  -7   8   21.86    5.47
   2   7   8   30.71    5.22
  -2  -8   8   76.36    5.60
  -2  -8   8   83.44    7.53
  -2   8   8   71.99    8.35
  -2   8   8   84.14    5.24
   2  -8  -8  179.72   10.51
   2   8  -8  135.87   10.26
  -2  -8   7   -0.69    2.58
  -2  -8   7   -1.47    3.44
  -2   8   7   -5.53    4.47
  -2   8   7   -0.48    2.05
   2  -8  -7    1.15    4.28
   2   8  -7    2.96    4.08
  -2  -8   6  -13.61   14.67
  -2  -8   6    2.42    2.24
  -2  -8   6    5.70    3.12
  -2   8   6   14.71   17.48
  -2   8   6   12.31    4.13
   2  -8  -6  -19.91   14.84
   2   8  -6    6.62    3.73
  -2  -8   5   92.00   14.29
  -2  -8   5  122.70   17.50
  -2  -8   5   78.10    4.18
  -2  -8   5   71.76    5.83
  -2   8   5   50.17   15.21
  -2   8   5   64.51    5.97
   2  -8  -5   87.13   16.97
   2  -8  -5  125.88    5.85
  -2  -8   4  849.31   28.57
  -2  -8   4 1608.67   38.01
  -2  -8   4 1047.33   11.12
  -2  -8   4  819.70   13.81
  -2   8   4  630.69   26.18
  -2   8   4  728.61   12.20
   2  -8  -4 1083.14   31.89
   2  -8  -4 1374.43   13.24
   2   8  -4 1261.07   15.36
  -2  -8   3   17.99    9.36
  -2  -8   3   38.64   11.12
  -2  -8   3   23.76    2.96
  -2  -8   3   23.47    3.26
  -2   8   3   18.40    8.77
  -2   8   3   16.66    2.68
   2  -8  -3   26.80    9.26
   2  -8  -3   26.34    2.31
   2  -8  -3   19.75    2.14
   2   8  -3   25.08    3.28
  -2  -8   2  135.58   14.74
  -2  -8   2  249.91   17.94
  -2  -8   2  325.35    6.46
  -2  -8   2  238.57    6.56
  -2   8   2  159.55   12.26
  -2   8   2  166.95    5.00
   2  -8  -2  221.44   13.35
   2   8  -2  237.68    6.63
  -2  -8   1  185.61    5.30
  -2  -8   1  413.01    7.42
  -2   8   1  214.48   10.43
  -2   8   1  207.56    4.57
  -2   8   1  266.81    4.43
   2  -8  -1  319.03   12.17
   2   8  -1  273.14   17.58
   2   8  -1  276.07    7.05
  -2  -8   0   59.25   10.87
  -2  -8   0   49.30    3.66
  -2  -8   0   90.16    4.32
  -2   8   0   71.66    5.71
  -2   8   0   48.92    2.19
   2  -8   0   94.69    6.37
   2  -8   0   49.15    2.88
   2   8   0   72.34   11.57
   2   8   0   57.51    4.05
  -2  -8  -1   33.34   10.25
  -2  -8  -1   25.12    3.01
  -2  -8  -1   53.36    4.05
  -2   8  -1   31.39    1.55
  -2   8  -1   55.13    1.79
   2  -8   1   28.58    3.13
   2   8   1   25.79    9.83
  -2  -8  -2   58.92   12.80
  -2  -8  -2   66.37    4.73
  -2  -8  -2   94.33    5.23
  -2   8  -2  134.90    2.66
   2  -8   2   69.37    4.38
   2   8   2   80.40   14.01
  -2  -8  -3   65.23   14.91
  -2  -8  -3   59.42    5.27
  -2  -8  -3   70.76    5.43
  -2   8  -3   94.42    3.04
   2  -8   3   48.66    4.62
   2   8   3   70.68   15.30
  -2  -8  -4  117.53   20.05
  -2  -8  -4  107.96    6.76
  -2  -8  -4  120.35    8.69
  -2   8  -4  173.83    5.25
   2  -8   4  119.85    8.99
   2  -8   4   88.68    9.14
   2  -8   4   94.64    6.21
   2   8   4  100.46   19.02
  -2  -8  -5   36.60   19.65
  -2  -8  -5   17.62    4.56
  -2  -8  -5   37.00    5.09
  -2   8  -5   45.03    4.00
   2  -8   5   42.36    9.82
   2   8   5   13.69   18.41
  -2  -8  -6  157.97    9.64
  -2   8  -6  261.18    8.11
   2  -8   6  118.74    7.48
  -2  -8  -7  114.56   10.30
  -2   8  -7  162.74    8.60
   2  -8   7   92.74    7.57
  -2   8  -8  127.65   10.60
  -2  -9   8    9.78    2.93
  -2  -9   8    3.21    4.53
  -2   9   8   -5.04    7.12
   2  -9  -8   17.04    6.80
   2   9  -8   18.78    6.42
  -2  -9   7   44.16    4.04
  -2  -9   7   55.24    6.49
  -2   9   7   50.70    6.87
   2  -9  -7   76.33    8.00
   2   9  -7   82.92    8.30
  -2  -9   6   69.49    4.01
  -2  -9   6   72.31    6.60
  -2   9   6   55.96    6.31
   2  -9  -6  130.05    9.49
   2   9  -6  119.60    7.29
  -2  -9   5  456.74   26.62
  -2  -9   5  795.94   34.19
  -2  -9   5  376.72    6.69
  -2  -9   5  326.62   10.11
  -2   9   5  264.27   25.84
  -2   9   5  328.92   10.15
   2  -9  -5  613.47   10.60
   2   9  -5  557.40   11.71
  -2  -9   4  383.52   23.95
  -2  -9   4  745.57   29.88
  -2  -9   4  470.25    7.33
  -2  -9   4  382.82   10.07
  -2   9   4  310.85   23.57
  -2   9   4  346.11    9.24
   2  -9  -4  519.06   25.93
   2  -9  -4  397.59    7.27
   2   9  -4  579.12   11.27
  -2  -9   3  215.94   18.58
  -2  -9   3  366.82   22.88
  -2  -9   3  163.72    4.83
  -2  -9   3  307.40    6.20
  -2  -9   3  203.48    6.91
  -2   9   3  145.74   16.54
  -2   9   3  187.08    6.40
   2  -9  -3  272.18   18.52
   2  -9  -3  356.12    4.81
   2  -9  -3  244.60    4.04
   2   9  -3  277.56    7.81
  -2  -9   2  228.46   18.31
  -2  -9   2  366.99   21.29
  -2  -9   2  437.40    7.39
  -2  -9   2  274.60    7.25
  -2   9   2  172.56   13.71
  -2   9   2  220.07    6.10
   2  -9  -2  339.05   16.68
   2   9  -2  309.34    7.87
  -2  -9   1  329.69   20.28
  -2  -9   1  470.50    8.03
  -2  -9   1 1028.31   11.55
  -2  -9   1  777.55   10.56
  -2   9   1  489.15   15.19
  -2   9   1  477.04    7.23
   2  -9  -1  752.82   18.32
   2   9  -1  661.77   11.07
  -2  -9   0  213.76    6.19
  -2  -9   0  435.42    8.25
  -2   9   0  217.81    4.38
   2  -9   0  358.32   11.30
   2  -9   0  247.56    5.32
   2   9   0  260.31   19.98
   2   9   0  303.46    8.01
  -2  -9  -1   31.82   11.45
  -2  -9  -1   24.69    3.40
  -2  -9  -1   38.29    3.88
  -2   9  -1   19.31    1.83
  -2   9  -1   34.85    2.05
   2  -9   1   20.50    2.73
   2   9   1   19.45   10.99
  -2  -9  -2  199.90   21.31
  -2  -9  -2  213.60    7.19
  -2  -9  -2  295.73    8.16
  -2   9  -2  396.70    4.96
   2  -9   2  195.64    6.56
   2   9   2  234.91   21.42
  -2  -9  -3  493.71   30.28
  -2  -9  -3  773.37   13.23
  -2   9  -3 1099.74    9.23
   2  -9   3  520.37   11.08
   2   9   3  533.52   31.02
  -2  -9  -4  272.60   27.84
  -2  -9  -4  259.77    9.30
  -2  -9  -4  283.33    9.52
  -2   9  -4  397.02    7.96
   2  -9   4  210.51    8.45
   2   9   4  199.49   24.57
  -2  -9  -5   61.89    7.50
  -2  -9  -5   65.15    7.31
  -2   9  -5  104.99    5.14
   2  -9   5   74.02    9.04
   2  -9   5   50.82    5.85
   2   9   5   44.81   27.31
  -2  -9  -6   12.14    5.36
  -2  -9  -6   10.04    5.80
  -2   9  -6   21.88    3.90
   2  -9   6   15.96   12.36
   2  -9   6    9.40    3.95
  -2  -9  -7   -4.36    7.21
  -2   9  -7   -1.66    4.51
   2  -9   7    5.69    4.63
  -2 -10   8   43.18    6.76
   2 -10  -8   60.74    7.56
   2  10  -8   56.31    9.56
  -2 -10   7   19.48    4.78
  -2  10   7   14.17    6.60
   2 -10  -7   38.77    6.08
   2  10  -7   32.70    6.11
  -2 -10   6   12.52    1.59
  -2 -10   6   14.82    1.68
  -2 -10   6   15.07    4.17
  -2  10   6   18.21    5.10
   2 -10  -6   17.32    4.06
   2  10  -6   27.94    4.84
  -2 -10   5   64.36    3.21
  -2 -10   5   74.42    3.21
  -2  10   5   65.68    6.79
   2 -10  -5   79.95    5.17
   2  10  -5  106.33    6.91
  -2 -10   4   49.94   14.74
  -2 -10   4   83.15   17.22
  -2 -10   4   38.72    3.12
  -2 -10   4   47.47    3.02
  -2 -10   4   37.26    4.76
  -2  10   4   33.64   13.94
  -2  10   4   30.06    4.15
   2 -10  -4   59.21   15.46
   2 -10  -4   67.40    3.93
   2 -10  -4   53.99    3.50
   2  10  -4   69.75    5.66
  -2 -10   3   27.56   12.00
  -2 -10   3   52.81   14.46
  -2 -10   3   26.85    3.04
  -2 -10   3   59.62    3.29
  -2 -10   3   39.91    4.44
  -2  10   3   33.23   11.01
  -2  10   3   40.11    4.56
   2 -10  -3   40.98   12.18
   2  10  -3   42.42    5.26
  -2 -10   2   19.03   10.58
  -2 -10   2   17.56   12.20
  -2 -10   2   19.95    3.64
  -2 -10   2   32.55    3.22
  -2 -10   2   29.61    3.76
  -2  10   2   34.62    8.74
  -2  10   2   15.89    2.83
   2 -10  -2   22.37    8.87
   2  10  -2   22.18    3.49
  -2 -10   1  269.35   20.96
  -2 -10   1  287.65    6.61
  -2 -10   1  621.92    9.16
  -2 -10   1  404.93    8.14
  -2  10   1  274.50   14.08
  -2  10   1  291.02    6.42
   2 -10  -1  472.77   16.84
   2  10  -1  395.61    9.43
  -2 -10   0  182.55    6.01
  -2 -10   0  344.43    7.61
  -2 -10   0  260.25    6.23
  -2  10   0  162.67    4.41
   2 -10   0  280.87   10.79
   2 -10   0  187.48    4.96
  -2 -10  -1   79.89   15.81
  -2 -10  -1   69.75    4.91
  -2 -10  -1  121.58    5.64
  -2  10  -1   90.41    3.25
   2 -10   1   68.13    4.27
   2  10   1   86.20   15.45
  -2 -10  -2  154.79   19.75
  -2 -10  -2  156.57    6.84
  -2 -10  -2  244.71    7.88
  -2  10  -2  265.46    4.76
   2 -10   2  161.08    6.30
   2  10   2  140.90   18.37
  -2 -10  -3  124.93   20.65
  -2 -10  -3  124.98    7.03
  -2 -10  -3  155.93    8.76
  -2  10  -3  210.53    4.75
   2 -10   3  105.08    6.10
   2  10   3  106.61   20.28
  -2 -10  -4   11.86    4.09
  -2 -10  -4    3.51    4.13
  -2  10  -4    6.70    2.18
   2 -10   4    1.12    3.38
  -2 -10  -5   65.05    8.05
  -2 -10  -5   63.94    7.10
  -2  10  -5  101.19    5.36
   2 -10   5   36.08    5.50
  -2 -10  -6   40.22    6.97
  -2 -10  -6   16.18    6.60
   2 -10   6   15.43    4.80
  -2 -10  -7   10.20    8.55
  -2  10  -7   17.79    5.38
   2 -10   7    9.19    4.94
  -2 -11   7   28.71    5.45
  -2  11   7   15.96    7.56
   2 -11  -7   46.23    6.22
   2 -11  -7   50.03    6.75
   2  11  -7   51.86    7.16
  -2 -11   6   43.64    5.89
  -2  11   6   45.15    6.88
   2 -11  -6   98.38   11.43
   2 -11  -6   60.41    6.58
   2  11  -6   78.08    8.18
  -2 -11   5   14.69    4.09
  -2  11   5    5.61    4.30
   2 -11  -5   24.87    3.60
   2 -11  -5   13.21    2.99
   2  11  -5   14.56    4.19
  -2 -11   4   63.39    2.65
  -2 -11   4   79.64    2.24
  -2 -11   4   66.64    6.12
  -2  11   4   60.85    6.31
   2 -11  -4  142.82    4.11
   2 -11  -4  111.03    3.69
   2  11  -4  102.80    6.90
  -2 -11   3   24.99   14.45
  -2 -11   3   27.21    2.76
  -2 -11   3   55.87    2.99
  -2 -11   3   40.88    4.83
  -2  11   3   11.57   14.67
  -2  11   3   36.21    4.50
   2 -11  -3   17.86   13.85
   2  11  -3   46.48    5.29
  -2 -11   2  205.36   21.87
  -2 -11   2  419.95   27.63
  -2 -11   2  241.94    5.54
  -2 -11   2  460.41    7.09
  -2 -11   2  308.09    8.20
  -2  11   2  262.13   18.14
  -2  11   2  223.98    7.04
   2 -11  -2  336.95   21.29
   2  11  -2  331.27    9.25
  -2 -11   1    2.04   12.68
  -2 -11   1   21.38   13.70
  -2 -11   1    2.67    2.18
  -2 -11   1    1.84    2.03
  -2 -11   1    3.06    2.37
  -2  11   1    5.67    7.49
  -2  11   1    2.75    2.12
   2  11  -1   -1.82    2.70
  -2 -11   0  109.43   15.87
  -2 -11   0  154.72    5.85
  -2 -11   0  307.08    7.27
  -2  11   0  133.20    4.64
   2 -11   0  254.57   11.91
   2 -11   0  249.95   12.22
   2 -11   0  164.36    4.84
   2  11   0  191.39   23.02
  -2 -11  -1   63.70    5.15
  -2 -11  -1   95.17    5.71
  -2 -11  -1   78.98    3.76
  -2  11  -1   71.87    3.48
   2 -11   1   53.13    4.30
   2  11   1   58.68   15.74
  -2 -11  -2   80.30   20.72
  -2 -11  -2   80.54    6.11
  -2 -11  -2  118.39    6.48
  -2 -11  -2   94.73    3.36
  -2  11  -2   97.50    3.72
   2 -11   2   72.05    5.13
   2  11   2   74.90   18.08
  -2 -11  -3   14.80    4.12
  -2 -11  -3   16.35    4.13
   2 -11   3   13.87    3.86
  -2 -11  -4   54.31    6.34
  -2 -11  -4   53.92    6.12
  -2  11  -4   92.14    4.75
  -2 -11  -5   42.12    6.74
  -2 -11  -5   46.09    7.05
  -2  11  -5   69.52    5.40
   2 -11   5   24.97    5.01
  -2 -11  -6   13.14    7.19
  -2 -11  -6   28.28    7.48
  -2  11  -6   18.75    4.64
   2 -11   6    6.47    4.41
  -2 -12   6   76.34    7.26
  -2  12   6   64.83    8.15
   2 -12  -6  121.85    7.66
   2 -12  -6   90.14    7.23
   2  12  -6   94.97    9.47
  -2 -12   5   76.90    7.00
  -2  12   5   71.97    7.75
   2 -12  -5  100.97    5.22
   2  12  -5   80.87    8.19
  -2 -12   4   29.53    6.18
  -2  12   4   22.53    4.97
   2  12  -4   30.24    4.82
  -2 -12   3   19.30    3.97
  -2  12   3   17.26    4.26
   2  12  -3   25.49    4.63
  -2 -12   2   56.06    3.24
  -2 -12   2   91.58    3.47
  -2 -12   2   63.84    5.11
  -2  12   2   59.90   12.82
  -2  12   2   47.13    5.10
   2 -12  -2   57.54   15.69
   2  12  -2   55.74    6.05
  -2 -12   1   48.74    6.05
  -2 -12   1  102.45    4.51
  -2 -12   1   66.03    4.75
  -2  12   1   80.38   10.89
  -2  12   1   49.72    4.60
   2 -12  -1   67.93   11.69
   2  12  -1   67.88    6.32
  -2 -12   0   10.16    2.88
  -2 -12   0    9.81    2.70
  -2 -12   0   -1.06    3.78
   2 -12   0   12.57    7.07
   2 -12   0   -0.29    7.82
   2 -12   0    3.32    2.23
  -2 -12  -1   44.74    5.16
  -2 -12  -1   79.44    5.42
  -2 -12  -1   49.20    3.45
   2 -12   1   42.90    4.30
  -2 -12  -2    3.36    3.50
  -2 -12  -2    2.53    3.62
  -2  12  -2    1.16    2.00
   2 -12   2    3.01    3.05
  -2 -12  -3   37.30    5.47
  -2 -12  -3   71.63    7.17
  -2  12  -3   62.38    4.22
   2 -12   3   36.03    4.95
  -2 -12  -4    6.19    5.16
  -2 -12  -4   12.81    5.58
  -2  12  -4   25.58    3.43
   2 -12   4   13.19    4.54
  -2 -12  -5   20.01    6.41
  -2 -12  -5   20.46    6.73
  -2  12  -5   35.49    4.41
   2 -12   5   20.69    4.79
  -2 -13   5   31.40    5.32
  -2  13   5   17.99    6.82
   2  13  -5   43.84    6.32
  -2 -13   4   21.25    5.02
  -2  13   4   21.42    5.50
   2  13  -4   22.80    5.07
  -2 -13   3  171.17    8.08
  -2  13   3  157.25    8.63
   2  13  -3  189.72    9.13
  -2 -13   2   50.04    5.13
  -2  13   2   40.53    4.90
   2  13  -2   43.10    5.68
  -2 -13   1    6.04    1.97
  -2 -13   1    7.77    2.05
  -2 -13   1    1.16    2.84
  -2  13   1   24.29   10.98
  -2  13   1    7.49    3.41
   2 -13  -1   -7.30   12.03
   2  13  -1    2.72    4.16
  -2 -13   0    3.66    2.73
  -2 -13   0    1.73    2.56
   2 -13   0   12.32    7.94
  -2 -13  -1   26.21    4.07
  -2 -13  -1   32.13    3.96
  -2 -13  -1   16.81    2.44
   2 -13   1   17.22    3.34
  -2 -13  -2   31.87    6.22
  -2 -13  -2   57.84    6.67
  -2  13  -2   40.43    4.38
   2 -13   2   25.54    4.31
  -2 -13  -3   41.68    5.84
  -2 -13  -3   67.36    7.78
  -2  13  -3   48.07    4.65
   2 -13   3   40.02    5.54
  -2 -13  -4   18.07    5.86
  -2 -13  -4   27.87    6.32
  -2  13  -4   29.63    3.97
   2 -13   4   15.89    4.59
  -2 -14   4   67.24    6.98
  -2  14   4   67.42    8.04
   2  14  -4   80.50    7.79
  -2 -14   3   20.76    4.80
  -2  14   3   28.27    5.87
   2  14  -3   17.32    5.84
  -2 -14   2   13.12    4.07
  -2  14   2   12.78    4.91
   2  14  -2   11.37    5.45
  -2 -14   1   -0.09    3.27
  -2 -14   0  192.42    6.18
  -2 -14   0  303.44    6.31
  -2 -14  -1   27.80    3.97
  -2 -14  -1   59.79    5.64
   2 -14   1   24.93    3.98
  -2 -14  -2  146.44    8.39
  -2 -14  -2  216.94    8.87
  -2  14  -2  123.49    6.41
   2 -14   2  111.06    7.18
  -2 -14  -3   22.57    5.63
  -2 -14  -3   35.20    6.24
  -2  14  -3   26.36    4.18
   2 -14   3   17.59    5.62
  -2 -15   2   10.27    4.42
   2  15  -2    8.13    6.48
  -2 -15   1   16.60    3.94
  -3   0  10   -3.69    7.16
  -3   0  10    8.70    4.84
  -3   0   9   52.25   31.05
  -3   0   9   47.25    6.78
  -3   0   9   34.87    5.43
   3   0  -9  117.61   27.28
   3   0  -9   95.97    9.06
  -3   0   8   42.15   22.45
  -3   0   8    5.27    4.11
  -3   0   8   12.83    3.81
   3   0  -8   17.05   20.00
   3   0  -8   15.32    4.28
  -3   0   7   59.75   17.43
  -3   0   7   60.36    6.88
  -3   0   7   60.97    5.27
   3   0  -7  169.08   23.15
   3   0  -7  105.79    6.74
  -3   0   6   11.42   12.33
  -3   0   6    8.68    3.02
  -3   0   6    8.92    2.80
   3   0  -6    0.59   10.80
   3   0  -6    6.27    2.64
  -3   0   5 1016.19   29.99
  -3   0   5  888.25   12.48
  -3   0   5  828.70   11.92
   3   0  -5 1219.50   32.45
   3   0  -5 1176.42   14.15
  -3   0   4 1387.90   14.07
   3   0  -4 1730.00   34.21
   3   0  -4 1581.50   14.78
  -3   0   3  438.66   16.97
  -3   0   3  383.61    6.91
   3   0  -3  372.54   15.16
   3   0  -3  379.48    7.13
  -3   0   2 3252.87   37.65
  -3   0   2 2763.53   16.28
   3   0  -2 2569.30   33.58
   3   0  -2 2310.27   14.37
  -3   0   1 1050.29   23.99
  -3   0   1 1455.13   23.74
  -3   0   1 1316.83   10.43
   3   0  -1 1047.56    8.84
  -3   0   0 1380.50   22.33
  -3   0   0 1695.32   11.53
   3   0   0 1680.09   24.51
  -3   0  -1  192.93    9.79
   3   0   1  199.72   10.49
   3   0   1  218.35    5.48
  -3   0  -2  373.95   14.61
   3   0   2  370.70   14.46
   3   0   2  415.02    7.89
  -3   0  -3   88.56   10.20
  -3   0  -3   77.22    3.83
   3   0   3   85.90    4.43
  -3   0  -4  526.41   21.95
  -3   0  -4  462.50    8.87
   3   0   4  454.72   20.75
   3   0   4  467.43    9.99
  -3   0  -5  165.71   17.49
  -3   0  -5  145.78    6.43
   3   0   5  161.47   17.27
   3   0   5  145.09    6.92
  -3   0  -6  579.59   29.65
  -3   0  -6  457.55   10.97
   3   0   6  368.09   28.10
   3   0   6  415.22   11.35
  -3   0  -7   29.58    5.27
   3   0   7   19.85    4.26
  -3   0  -8   29.87    6.65
   3   0   8   30.43    5.64
  -3  -1  10   13.60    7.60
  -3  -1  10   14.38    4.80
  -3   1  10   15.49    7.60
  -3   1  10   14.42    4.99
  -3  -1   9  143.83   33.72
  -3  -1   9   85.54    9.00
  -3  -1   9   90.59    7.14
  -3   1   9   98.81   33.90
  -3   1   9   82.72    9.51
  -3   1   9   94.08    7.14
   3  -1  -9  204.07   30.29
   3  -1  -9  166.63   10.47
   3   1  -9  162.23   28.07
   3   1  -9  191.66   10.72
  -3  -1   8  179.57   26.75
  -3  -1   8  157.59    8.09
  -3  -1   8  140.39    8.98
  -3   1   8  214.26   28.34
  -3   1   8  161.84    8.71
  -3   1   8  137.53    7.18
   3  -1  -8  351.10   35.71
   3  -1  -8  270.83    9.85
   3   1  -8  254.05   30.23
   3   1  -8  283.15   10.31
  -3  -1   7  440.57   29.69
  -3  -1   7  320.37    9.47
  -3   1   7  310.94   28.84
  -3   1   7  332.43    9.94
  -3   1   7  322.15    9.15
   3  -1  -7  633.51   34.36
   3  -1  -7  552.29   12.12
   3   1  -7  563.40   31.12
   3   1  -7  552.59   12.06
  -3  -1   6  507.70   26.59
  -3  -1   6  442.87    9.85
  -3  -1   6  432.71    9.94
  -3   1   6  444.05   25.32
  -3   1   6  445.40    9.99
  -3   1   6  415.25    9.12
   3  -1  -6  727.80   30.56
   3  -1  -6  697.08   12.19
   3   1  -6  721.76   29.36
   3   1  -6  680.79   12.21
  -3  -1   5  153.85   15.95
  -3  -1   5  111.00    5.14
  -3  -1   5  102.95    4.90
  -3   1   5  110.93   13.85
  -3   1   5  104.86    5.02
  -3   1   5  111.81    4.71
   3  -1  -5  188.77   16.37
   3  -1  -5  148.10    5.57
   3   1  -5  161.95   15.75
   3   1  -5  157.40    5.86
  -3  -1   4  611.56   22.82
  -3  -1   4  541.75    8.99
  -3   1   4  545.63   20.46
  -3   1   4  507.53    8.68
   3  -1  -4  707.55   22.71
   3  -1  -4  605.91    9.14
   3   1  -4  590.15   21.25
   3   1  -4  609.07    9.48
  -3  -1   3   95.69   10.87
  -3  -1   3   83.17    3.72
  -3   1   3   70.87    9.04
  -3   1   3   80.71    3.68
   3  -1  -3   87.78   10.03
   3  -1  -3   82.08    3.38
   3   1  -3   72.17    9.34
   3   1  -3   74.73    3.45
  -3  -1   2 1532.16   27.12
  -3  -1   2 1518.72   12.53
  -3   1   2 1817.04   27.75
  -3   1   2 1546.57   11.89
   3  -1  -2 1451.22   26.22
   3  -1  -2 1261.27   10.11
   3   1  -2 1179.40   23.91
   3   1  -2 1242.22   11.13
  -3  -1   1 1614.15   26.10
  -3  -1   1 2016.40   29.34
  -3  -1   1 2084.67   13.87
  -3   1   1 2478.10   28.83
  -3   1   1 2039.46   12.20
   3  -1  -1 1572.34    9.71
   3   1  -1 1643.35   11.98
  -3  -1   0   54.92   11.85
  -3  -1   0   69.22    2.93
  -3   1   0   71.04    6.17
  -3   1   0   70.40    2.50
   3   1   0   70.73    7.44
  -3  -1  -1  338.01   13.45
  -3  -1  -1  458.59    6.95
  -3   1  -1  328.36   11.03
   3  -1   1  407.25   12.38
   3  -1   1  425.59    7.47
   3   1   1  376.57   14.25
  -3  -1  -2  541.67   17.99
  -3  -1  -2  538.93    8.19
  -3   1  -2  608.75   16.47
   3  -1   2  586.18   16.16
   3  -1   2  613.64    9.60
   3   1   2  614.82   19.10
   3   1   2  690.57    9.89
  -3  -1  -3    3.95    6.85
  -3  -1  -3   12.37    2.33
  -3   1  -3   16.93    6.28
  -3   1  -3   11.17    1.97
   3  -1   3   -2.33    5.71
   3  -1   3   15.56    2.79
   3   1   3   16.89    7.72
   3   1   3   14.15    2.70
  -3  -1  -4  258.92   17.35
  -3  -1  -4  221.49    6.76
  -3   1  -4  243.83   15.57
  -3   1  -4  224.17    6.26
   3  -1   4  217.03   16.17
   3  -1   4  212.84    7.18
   3   1   4  184.31   17.38
   3   1   4  208.80    6.89
  -3  -1  -5   70.47   13.00
  -3  -1  -5   50.98    5.24
  -3   1  -5   83.21   12.41
  -3   1  -5   55.24    4.75
   3  -1   5   47.15   13.23
   3  -1   5   62.93    5.42
   3   1   5   52.26   14.28
   3   1   5   46.25    4.71
  -3  -1  -6  369.83   28.54
  -3  -1  -6  364.55   10.49
  -3   1  -6  492.37   27.13
  -3   1  -6  371.62    9.99
   3  -1   6  266.24   25.73
   3  -1   6  317.94   10.32
   3   1   6  264.36   29.00
   3   1   6  315.70    9.90
  -3  -1  -7   99.23   22.12
  -3  -1  -7   94.94    7.90
  -3   1  -7   95.23    7.89
   3  -1   7   61.97    6.61
   3   1   7   62.16    6.05
  -3  -1  -8   81.12    8.54
  -3   1  -8   72.88    7.87
   3  -1   8   41.11    6.35
   3   1   8   57.33    6.80
  -3  -2  10  204.28   12.81
  -3  -2  10  187.75   10.35
  -3   2  10  194.30   13.93
  -3   2  10  178.39    9.61
  -3  -2   9   55.90   33.63
  -3  -2   9   84.41    8.81
  -3  -2   9   63.61    6.37
  -3   2   9   81.13   33.29
  -3   2   9   80.70    8.30
  -3   2   9   62.88    7.62
   3  -2  -9  208.70   42.34
   3  -2  -9  144.12   10.21
   3   2  -9   88.77   25.14
   3   2  -9  138.63    9.37
  -3  -2   8  167.86   26.83
  -3  -2   8  118.62    7.95
  -3  -2   8  106.68    6.85
  -3   2   8  173.23   26.82
  -3   2   8  112.93    7.71
  -3   2   8  102.89    6.71
   3  -2  -8  231.38   30.21
   3  -2  -8  200.37    8.89
   3   2  -8  190.27   24.11
   3   2  -8  201.96    9.04
  -3  -2   7  106.64   19.37
  -3  -2   7   53.56    8.45
  -3  -2   7   59.99    5.30
  -3   2   7   45.05   17.16
  -3   2   7   53.42    5.61
  -3   2   7   63.21    5.12
   3  -2  -7  128.29   21.70
   3  -2  -7  105.13    6.73
   3   2  -7  126.68   18.67
   3   2  -7  113.13    6.98
  -3  -2   6  311.28   24.44
  -3  -2   6  285.76    8.25
  -3  -2   6  240.30    8.09
  -3   2   6  264.55   22.72
  -3   2   6  260.30    8.22
  -3   2   6  260.29    7.24
   3  -2  -6  427.98   26.50
   3  -2  -6  408.05    9.61
   3   2  -6  385.81   23.88
   3   2  -6  393.65   10.67
  -3  -2   5 1580.65   16.43
  -3  -2   5 1358.63   16.16
  -3   2   5 1398.90   34.77
  -3   2   5 1385.24   15.68
  -3   2   5 1381.59   14.27
   3  -2  -5 2186.99   42.75
   3  -2  -5 1897.11   17.59
   3   2  -5 1924.60   40.00
   3   2  -5 1961.17   18.57
  -3  -2   4   37.07   10.42
  -3  -2   4   47.13    3.62
  -3   2   4   29.08    8.46
  -3   2   4   37.89    3.23
   3  -2  -4   59.68   10.04
   3  -2  -4   51.00    3.37
   3   2  -4   48.25    9.15
   3   2  -4   48.07    3.61
  -3  -2   3  755.48   22.19
  -3  -2   3  678.94    9.40
  -3   2   3  642.75   19.13
  -3   2   3  623.32    8.73
   3  -2  -3  719.20   20.04
   3  -2  -3  614.57    7.98
   3   2  -3  554.93   19.04
   3   2  -3  616.18    8.92
  -3  -2   2 3353.82   41.21
  -3  -2   2 3224.39   18.82
  -3   2   2 3766.08   38.93
  -3   2   2 3234.60   16.71
   3  -2  -2  575.60   15.69
   3  -2  -2 2597.70   13.57
   3   2  -2 2674.08   17.05
  -3  -2   1 1749.38   28.66
  -3  -2   1 2276.31   32.81
  -3  -2   1 2408.72   15.72
  -3   2   1 3247.99   31.14
  -3   2   1 2442.69   12.56
   3  -2  -1 3418.94   31.82
   3  -2  -1 1745.29    8.53
   3   2  -1 1961.32   13.98
  -3  -2   0  306.53   13.03
  -3  -2   0  416.37    6.72
  -3   2   0  318.10    9.52
  -3   2   0  527.31   12.01
  -3   2   0  386.42    4.63
   3   2   0  418.39   15.16
   3   2   0  367.26    6.22
  -3  -2  -1   55.96    7.77
  -3  -2  -1   77.81    3.50
  -3   2  -1   61.01    5.73
   3  -2   1   75.65    6.33
   3  -2   1   69.64    3.69
   3   2   1   66.17    8.42
  -3  -2  -2   14.32    6.23
  -3  -2  -2   35.35    3.17
  -3   2  -2   29.24    5.01
   3  -2   2   33.45    5.30
   3  -2   2   37.23    3.25
   3   2   2   40.55    8.26
   3   2   2   39.37    3.06
  -3  -2  -3  358.46   18.02
  -3  -2  -3  354.43    7.74
  -3   2  -3  434.79   16.26
  -3   2  -3  353.38    6.31
   3  -2   3  347.60   14.33
   3  -2   3  375.11    8.56
   3   2   3  363.23   19.29
   3   2   3  401.84    8.25
  -3  -2  -4  738.61   27.00
  -3  -2  -4  648.32   11.24
  -3   2  -4  787.84   22.97
  -3   2  -4  662.89    9.73
   3  -2   4  591.62   21.07
   3  -2   4  650.32   12.07
   3   2   4  664.93   26.05
   3   2   4  676.72   11.50
  -3  -2  -5  594.22   27.90
  -3  -2  -5  594.49   11.98
  -3   2  -5  786.07   26.73
  -3   2  -5  585.05   10.49
   3  -2   5  579.54   24.04
   3  -2   5  528.86   12.00
   3   2   5  545.72   28.21
   3   2   5  565.45   11.51
  -3  -2  -6   41.89   16.61
  -3  -2  -6   68.40    6.15
  -3   2  -6   92.91   16.19
  -3   2  -6   65.86    5.88
   3  -2   6   48.35   15.20
   3  -2   6   54.24    6.69
   3   2   6   53.31   18.73
   3   2   6   54.85    5.63
  -3  -2  -7  208.10   26.91
  -3  -2  -7  161.86    9.42
  -3   2  -7  185.11    8.84
   3  -2   7  142.49    8.12
   3   2   7  144.86   30.05
   3   2   7  142.38    7.89
  -3  -2  -8   37.84    6.92
  -3   2  -8   38.23    6.69
   3  -2   8   24.29    5.42
   3   2   8   30.93    5.55
  -3  -3  10   59.87    8.23
  -3  -3  10   46.39    6.92
  -3   3  10   45.65    9.71
  -3   3  10   42.27    6.38
  -3  -3   9   18.46    5.67
  -3  -3   9   16.31    4.64
  -3   3   9   -0.54    5.53
  -3   3   9   12.94    4.39
   3  -3  -9   13.32    5.49
   3   3  -9   16.42    6.09
  -3  -3   8   78.00   24.40
  -3  -3   8   64.33    7.03
  -3  -3   8   38.41    5.17
  -3   3   8   91.53   24.59
  -3   3   8   58.32    6.49
  -3   3   8   51.93    5.35
   3  -3  -8   96.87   24.58
   3  -3  -8   94.74    7.73
   3   3  -8   43.33   19.04
   3   3  -8   96.14    7.70
  -3  -3   7  187.56   22.47
  -3  -3   7  138.60    7.43
  -3  -3   7  134.85    7.24
  -3   3   7  150.99   22.38
  -3   3   7  133.46    7.49
  -3   3   7  127.61    6.02
   3  -3  -7  197.75   24.01
   3  -3  -7  209.56    8.17
   3   3  -7  219.08   23.53
   3   3  -7  225.71    8.73
  -3  -3   6  266.05   22.11
  -3  -3   6  198.63    7.25
  -3  -3   6  160.73    6.96
  -3   3   6  147.46   17.39
  -3   3   6  174.94    7.20
  -3   3   6  175.80    6.05
   3  -3  -6  295.52   22.40
   3  -3  -6  275.58    7.96
   3   3  -6  234.78   21.96
  -3  -3   5 1169.85   34.07
  -3  -3   5  960.24   12.97
  -3  -3   5  805.45   12.94
  -3   3   5  769.18   27.12
  -3   3   5  786.67   12.08
  -3   3   5  828.26   10.79
   3  -3  -5 1331.94   34.40
   3  -3  -5 1211.47   14.13
   3   3  -5 1103.91   31.25
   3   3  -5 1160.76   14.58
  -3  -3   4   18.39    9.01
  -3  -3   4   20.71    2.74
  -3   3   4   14.78    7.67
  -3   3   4   13.33    2.32
   3  -3  -4   15.39    8.14
   3  -3  -4   19.11    2.36
   3   3  -4   27.94    8.41
   3   3  -4   24.40    2.91
  -3  -3   3  308.70   16.04
  -3  -3   3  307.87    6.66
  -3   3   3  220.64   13.05
  -3   3   3  258.79    5.75
   3  -3  -3  281.99    5.39
   3   3  -3  230.23   14.60
   3   3  -3  273.67    6.40
  -3  -3   2 1142.71   25.70
  -3  -3   2 1538.25   29.77
  -3  -3   2 1640.13   13.97
  -3   3   2 1487.38   24.18
  -3   3   2 1626.10   11.76
   3  -3  -2 1766.18   26.00
   3  -3  -2 1338.30    8.95
   3   3  -2 1328.05   12.63
  -3  -3   1  178.65   11.62
  -3  -3   1  287.30    6.01
  -3   3   1  380.31   11.10
  -3   3   1  301.10    4.34
   3  -3  -1  290.39    9.60
   3   3  -1  240.72    6.59
  -3  -3   0   89.73    9.61
  -3  -3   0  126.00    4.33
  -3   3   0   96.51    5.32
  -3   3   0  183.07    6.99
  -3   3   0  118.68    2.35
   3  -3   0  107.64    3.85
   3   3   0  113.71   10.18
   3   3   0  111.98    6.11
  -3  -3  -1  433.37   17.83
  -3  -3  -1  548.70    8.54
  -3   3  -1  370.85    9.03
   3  -3   1  595.83   11.21
   3  -3   1  496.92   12.96
   3   3   1  498.72   18.31
  -3  -3  -2  223.16   15.18
  -3  -3  -2  231.93    6.13
  -3   3  -2  285.60    9.82
   3  -3   2  258.38    9.50
   3  -3   2  262.11    6.74
   3   3   2  259.31   15.96
  -3  -3  -3  121.51   14.19
  -3  -3  -3  109.74    4.99
  -3   3  -3  126.93    9.63
  -3   3  -3  105.78    3.61
   3  -3   3  108.20    9.52
   3  -3   3  111.15    5.20
   3   3   3  122.01   15.04
   3   3   3  139.22    5.27
  -3  -3  -4  200.63    7.14
  -3   3  -4  281.48   14.81
  -3   3  -4  197.66    5.54
   3  -3   4  172.41   13.69
   3  -3   4  187.18    7.13
   3   3   4  162.48   18.98
   3   3   4  208.73    6.66
  -3  -3  -5   85.86   16.15
  -3  -3  -5  109.06    6.48
  -3   3  -5  175.77   16.23
  -3   3  -5  107.23    5.29
   3  -3   5  105.15   13.32
   3  -3   5   90.20    6.03
   3   3   5  111.08   18.46
   3   3   5  115.17    6.10
  -3  -3  -6   22.96   18.06
  -3  -3  -6   31.57    4.83
  -3   3  -6   40.69   13.10
  -3   3  -6   40.37    5.30
   3  -3   6   25.51   15.89
   3  -3   6   30.23    5.07
   3   3   6   10.36   18.50
   3   3   6   32.13    4.62
  -3  -3  -7   37.84   21.38
  -3  -3  -7   12.99    5.07
  -3   3  -7   23.82    4.77
   3  -3   7   14.79    4.24
   3   3   7  -25.46   24.70
  -3  -3  -8   61.77   12.86
  -3   3  -8   70.18    7.64
   3  -3   8   32.86    5.85
   3   3   8   62.82    7.25
  -3  -4  10   18.07    7.05
  -3  -4  10   21.82    5.61
  -3   4  10   19.50    5.25
  -3  -4   9   22.85    6.16
  -3  -4   9   13.06    4.53
  -3   4   9   16.18    6.36
  -3   4   9   12.95    4.42
   3  -4  -9   26.88    6.28
   3   4  -9   44.19    6.99
  -3  -4   8   37.05   23.26
  -3  -4   8   27.12    4.87
  -3  -4   8   28.31    4.97
  -3   4   8   39.75   23.17
  -3   4   8   22.31    5.21
  -3   4   8   32.99    4.33
   3  -4  -8   42.11   24.29
   3  -4  -8   58.27    6.34
   3   4  -8   13.47   19.74
   3   4  -8   58.47    6.58
  -3  -4   7  490.01   33.02
  -3  -4   7  356.94    9.91
  -3  -4   7  319.07   10.42
  -3   4   7  299.35   28.63
  -3   4   7  310.24   10.15
  -3   4   7  310.70    8.22
   3  -4  -7  506.08   35.19
   3  -4  -7  551.24   12.23
   3   4  -7  477.10   29.39
   3   4  -7  536.49   12.33
  -3  -4   6  128.88   18.25
  -3  -4   6   87.70    5.80
  -3  -4   6   69.80    5.43
  -3   4   6   63.09   15.32
  -3   4   6   69.59    5.34
  -3   4   6   72.41    4.32
   3  -4  -6  143.10   19.96
   3  -4  -6  132.37    6.26
   3   4  -6  156.46   18.44
   3   4  -6  113.06    6.09
  -3  -4   5   70.72   13.85
  -3  -4   5   39.19    4.19
  -3  -4   5   33.22    3.90
  -3   4   5   27.46   10.28
  -3   4   5   31.84    3.90
  -3   4   5   35.10    3.08
   3  -4  -5   40.65   12.84
   3  -4  -5   55.18    4.07
   3   4  -5   45.56    4.35
  -3  -4   4  420.47   21.36
  -3  -4   4  362.92    7.78
  -3   4   4  240.60   16.02
  -3   4   4  267.63    6.77
   3  -4  -4  419.05   19.10
   3  -4  -4  376.13    7.12
   3   4  -4  266.98   16.91
   3   4  -4  362.87    8.03
  -3  -4   3  434.99   19.07
  -3  -4   3  416.26    7.81
  -3   4   3  259.47   13.69
  -3   4   3  331.67    6.51
   3  -4  -3  422.94   16.37
   3  -4  -3  382.01    5.98
   3   4  -3  354.41    7.39
  -3  -4   2  190.66   12.98
  -3  -4   2  210.88   14.78
  -3  -4   2  258.30    6.00
  -3   4   2  186.47   10.25
  -3   4   2  254.63    4.89
   3  -4  -2  277.01   11.21
   3  -4  -2  201.92    3.15
   3   4  -2  203.11    5.50
  -3  -4   1  519.18   18.73
  -3  -4   1  875.58   10.51
  -3   4   1  854.46   15.09
  -3   4   1 1006.37    7.46
   3  -4  -1  926.20   15.53
   3   4  -1  689.45    9.44
  -3  -4   0  267.44   14.29
  -3  -4   0  419.41    7.53
  -3   4   0  305.12    6.96
  -3   4   0  937.89   13.70
  -3   4   0  370.12    3.30
   3  -4   0  350.45    6.44
   3   4   0  368.82   16.37
   3   4   0  353.25    6.96
  -3  -4  -1  465.56   19.56
  -3  -4  -1  402.97    7.75
  -3  -4  -1  597.52    9.28
  -3   4  -1  475.97    7.17
  -3   4  -1  947.10   10.02
   3  -4   1  485.04    8.65
   3   4   1  511.72   19.92
  -3  -4  -2  210.71   15.45
  -3  -4  -2  217.13    6.34
  -3  -4  -2  302.23    7.29
  -3   4  -2  333.60    8.90
   3  -4   2  252.75    9.53
   3  -4   2  247.98    6.65
   3   4   2  260.06   16.57
  -3  -4  -3  164.43   17.08
  -3  -4  -3  156.27    5.95
  -3   4  -3  269.05   11.14
  -3   4  -3  150.39    3.90
   3  -4   3  152.08    9.68
   3  -4   3  154.37    6.07
   3   4   3  163.02   17.43
  -3  -4  -4   57.01   13.22
  -3  -4  -4   53.06    5.99
  -3   4  -4  117.79   11.58
  -3   4  -4   51.26    3.47
   3  -4   4   75.27    8.97
   3  -4   4   51.14    4.75
   3   4   4   76.53   15.17
   3   4   4   69.24    4.59
  -3  -4  -5   56.51   15.93
  -3  -4  -5   55.28    5.86
  -3   4  -5   91.01   12.08
  -3   4  -5   41.44    4.24
   3  -4   5   47.78   11.01
   3  -4   5   30.92    4.48
   3   4   5   37.43   16.42
   3   4   5   47.13    4.70
  -3  -4  -6  189.95   23.23
  -3  -4  -6  199.36    9.24
  -3   4  -6  507.97   25.54
   3  -4   6  176.61    8.47
   3   4   6  160.98   25.31
   3   4   6  209.50    8.19
  -3  -4  -7  -12.98   24.54
  -3  -4  -7    4.95    5.15
  -3   4  -7   -3.43    3.91
   3  -4   7    4.30    3.92
   3   4   7   -0.61   27.56
   3   4   7    4.87    4.84
  -3   4  -8    7.78    5.96
   3  -4   8    7.37    4.98
   3   4   8    3.29    4.32
  -3  -5   9   13.58    5.56
  -3  -5   9   14.54    4.82
  -3   5   9   20.06    6.75
  -3   5   9   16.29    4.38
   3  -5  -9   31.77    6.45
   3   5  -9   34.20    7.29
  -3  -5   8   41.07    5.29
  -3  -5   8   23.59    4.89
  -3   5   8   25.98    5.99
  -3   5   8   30.73    4.32
   3  -5  -8   60.88    7.59
   3   5  -8   41.72   20.63
   3   5  -8   56.73    7.08
  -3  -5   7   50.66   18.67
  -3  -5   7   37.52    4.50
  -3  -5   7   37.61    5.36
  -3   5   7   27.25   19.04
  -3   5   7   35.43    5.13
  -3   5   7   35.58    4.23
   3  -5  -7   39.79   20.27
   3  -5  -7   48.85    5.35
   3   5  -7   70.93   17.87
   3   5  -7   62.74    6.40
  -3  -5   6  166.16    6.91
  -3  -5   6  153.85    7.33
  -3   5   6  146.95   19.24
  -3   5   6  125.03    7.79
  -3   5   6  133.42    5.05
   3  -5  -6  303.55   25.20
   3  -5  -6  232.03    7.66
   3   5  -6  201.31   22.19
   3   5  -6  223.75    8.27
  -3  -5   5   58.89   14.79
  -3  -5   5   46.57    4.48
  -3  -5   5   36.85    4.21
  -3   5   5   39.99   12.19
  -3   5   5   41.54    4.41
  -3   5   5   35.97    3.00
   3  -5  -5   36.15   11.83
   3  -5  -5   48.50    4.18
   3   5  -5   59.93   12.69
   3   5  -5   54.20    4.73
  -3  -5   4  116.03   15.03
  -3  -5   4   77.62    4.40
  -3  -5   4   59.99    4.32
  -3   5   4   43.54    9.88
  -3   5   4   59.50    4.18
   3  -5  -4   75.31    3.76
   3   5  -4   77.24   12.68
   3   5  -4   69.83    4.51
  -3  -5   3   12.34    7.21
  -3  -5   3   13.92    8.42
  -3  -5   3    9.50    2.20
  -3   5   3    3.11    6.25
  -3   5   3    8.84    2.01
   3  -5  -3    4.02    6.34
   3  -5  -3   13.18    1.61
   3   5  -3    9.55    2.17
  -3  -5   2   98.95   11.95
  -3  -5   2  123.64   14.04
  -3  -5   2  182.92    5.45
  -3   5   2  118.75    9.01
  -3   5   2  164.95    4.10
   3  -5  -2  207.67   10.88
   3   5  -2  138.87    4.99
  -3  -5   1  270.68   15.76
  -3  -5   1  483.62    8.31
  -3   5   1  321.37    9.72
  -3   5   1  543.89    5.55
   3  -5  -1  560.36   12.11
   3   5  -1  409.74   17.99
   3   5  -1  357.06    7.35
  -3  -5   0  422.55   18.68
  -3  -5   0  635.77    9.63
  -3   5   0  412.05    5.11
  -3   5   0  421.96    5.35
  -3   5   0  565.42    3.31
   3  -5   0  479.14    7.54
   3   5   0  476.45   19.27
   3   5   0  499.99    8.66
  -3  -5  -1   47.62    9.38
  -3  -5  -1   41.28    3.61
  -3  -5  -1   56.00    3.73
   3  -5   1   41.47    3.13
   3   5   1   52.36   10.28
  -3  -5  -2   58.25   11.09
  -3  -5  -2   41.65    3.77
  -3  -5  -2   63.26    4.13
   3  -5   2   48.79    3.91
   3   5   2   57.81   11.40
  -3  -5  -3  120.15   15.07
  -3  -5  -3  123.64    5.87
  -3  -5  -3  146.49    6.05
  -3   5  -3  233.30    9.44
  -3   5  -3  105.26    3.18
   3  -5   3  113.38    8.06
   3  -5   3  105.93    5.42
   3   5   3  155.78   17.65
  -3  -5  -4   60.32   14.46
  -3  -5  -4   61.55    5.35
  -3   5  -4   92.71   11.36
  -3   5  -4   64.87    4.00
   3  -5   4   59.30    8.49
   3  -5   4   57.57    5.12
  -3  -5  -5   37.40   16.74
  -3  -5  -5   25.57    4.40
  -3   5  -5   65.46   11.50
  -3   5  -5   36.51    4.00
   3  -5   5   26.42   10.27
   3  -5   5   41.42    5.32
   3   5   5    4.60   18.37
   3   5   5   39.41    4.47
  -3  -5  -6  118.18   24.19
  -3  -5  -6  136.07    8.52
  -3   5  -6  149.19    7.20
   3  -5   6  125.42    7.82
   3   5   6   67.46   24.89
   3   5   6  161.94    7.22
  -3  -5  -7   20.00   25.04
  -3  -5  -7   13.88    5.57
  -3   5  -7   15.34    4.52
   3  -5   7    9.85    4.33
   3   5   7    6.96   29.90
   3   5   7   15.85    4.31
  -3   5  -8   24.97    6.78
   3  -5   8   15.06    5.22
   3   5   8   20.49    4.88
  -3  -6   9   71.39    7.17
  -3  -6   9   60.19    7.59
  -3   6   9   57.83    8.63
  -3   6   9   55.79    6.45
   3  -6  -9  112.29   10.84
   3   6  -9  132.41   16.04
  -3  -6   8   10.71    4.46
  -3  -6   8   10.02    4.21
  -3   6   8    3.05    5.20
  -3   6   8    3.47    3.32
   3  -6  -8   17.31    4.91
   3   6  -8   17.11    5.52
  -3  -6   7  160.10   23.18
  -3  -6   7  113.72    6.77
  -3  -6   7  106.58    7.28
  -3   6   7   58.83   20.88
  -3   6   7  108.19    7.70
  -3   6   7   95.40    5.05
   3  -6  -7  173.60    7.91
   3   6  -7  141.75   21.83
   3   6  -7  173.96    8.30
  -3  -6   6  178.21   22.56
  -3  -6   6  162.29    6.80
  -3  -6   6  129.24    7.05
  -3   6   6  111.92   17.16
  -3   6   6  147.72    7.36
  -3   6   6  132.84    4.80
   3  -6  -6  206.98   25.43
   3  -6  -6  251.04    7.98
   3   6  -6  186.91   20.92
   3   6  -6  240.13    8.66
  -3  -6   5  574.45   29.11
  -3  -6   5  382.33    8.67
  -3  -6   5  292.18    8.98
  -3   6   5  274.36   20.88
  -3   6   5  284.32    8.34
  -3   6   5  273.71    5.42
   3  -6  -5  450.73    8.86
   3   6  -5  356.46   22.92
   3   6  -5  457.33   13.55
  -3  -6   4   10.61    9.96
  -3  -6   4   31.16   11.70
  -3  -6   4   11.39    2.59
  -3  -6   4   11.16    3.06
  -3   6   4   13.47    9.13
  -3   6   4   11.45    2.71
   3  -6  -4   -1.85    9.08
   3   6  -4   17.48    3.05
  -3  -6   3   39.07   10.20
  -3  -6   3  100.36   14.04
  -3  -6   3   83.08    4.38
  -3   6   3   33.13    7.53
  -3   6   3   60.61    3.68
  -3   6   3   41.16    2.95
   3  -6  -3  111.30   12.15
   3  -6  -3   80.12    2.78
   3   6  -3   63.89    4.17
  -3  -6   2   43.37    9.70
  -3  -6   2   45.21   10.52
  -3  -6   2   66.14    3.72
  -3   6   2   22.34    5.31
  -3   6   2   49.13    2.77
   3  -6  -2   65.96    7.70
   3   6  -2   48.42    3.70
  -3  -6   1  110.01   12.60
  -3  -6   1  222.35    6.07
  -3   6   1  119.96    7.00
  -3   6   1  236.56    3.91
   3  -6  -1  243.67    8.89
   3   6  -1  188.56   14.43
   3   6  -1  158.90    5.43
  -3  -6   0   15.32    7.88
  -3  -6   0   24.64    2.89
  -3  -6   0   43.79    3.46
  -3   6   0   45.99    1.12
   3  -6   0   29.77    2.79
   3   6   0   38.26    8.50
   3   6   0   42.42    3.63
  -3  -6  -1  459.07   21.55
  -3  -6  -1  423.24    8.64
  -3  -6  -1  657.23   10.65
   3  -6   1  467.99    8.44
   3   6   1  489.61   21.85
  -3  -6  -2   63.05   12.24
  -3  -6  -2   72.34    4.92
  -3  -6  -2   97.84    5.37
   3  -6   2   74.21    4.57
   3   6   2   83.18   13.79
  -3  -6  -3   52.01   13.29
  -3  -6  -3   70.70    5.34
  -3  -6  -3   92.41    5.87
  -3   6  -3  126.56    5.05
  -3   6  -3   72.84    2.65
   3  -6   3   88.74    4.45
   3  -6   3   75.03    5.23
   3   6   3   79.83   14.96
  -3  -6  -4   44.37   15.46
  -3  -6  -4   45.80    5.12
  -3  -6  -4   55.48    6.27
  -3   6  -4  113.00    9.73
  -3   6  -4   52.69    3.98
   3  -6   4   44.17    7.06
   3  -6   4   54.42    5.19
   3   6   4   56.46   16.38
  -3  -6  -5  194.64   24.00
  -3  -6  -5  170.48    8.35
  -3   6  -5  353.45   17.25
  -3   6  -5  179.35    6.00
   3  -6   5  139.15   12.94
   3   6   5  160.14   25.13
  -3  -6  -6   99.84   24.45
  -3  -6  -6   55.75    6.33
  -3   6  -6   83.97    6.13
   3  -6   6   56.73    6.13
   3   6   6   -3.76   24.99
  -3  -6  -7   71.93   29.30
  -3  -6  -7   77.44    8.55
  -3   6  -7   75.12    7.53
   3  -6   7   58.64    6.64
   3   6   7   74.19   34.17
   3   6   7   73.39    6.59
  -3   6  -8    7.99    6.41
   3  -6   8    0.39    4.45
   3   6   8    0.93    4.44
  -3  -7   9    6.08    5.33
  -3  -7   9   -0.22    4.33
  -3   7   9  -13.46    7.69
  -3   7   9   -8.40    3.68
   3  -7  -9   -0.88    6.39
  -3  -7   8   40.83    5.34
  -3  -7   8   37.80    5.84
  -3   7   8   34.94    6.93
  -3   7   8   35.72    4.16
   3  -7  -8   71.73    8.38
   3   7  -8   68.55    8.53
  -3  -7   7   47.85    5.89
  -3  -7   7   30.81    5.03
  -3   7   7   42.60    6.21
   3  -7  -7   71.31    6.68
   3   7  -7   41.09   20.49
   3   7  -7   74.05    7.22
  -3  -7   6  -21.88   17.22
  -3  -7   6   17.62    3.53
  -3   7   6  -23.69   14.97
  -3   7   6    8.04    3.72
  -3   7   6    9.75    2.21
   3  -7  -6   -9.30   15.08
   3  -7  -6   22.13    3.67
   3   7  -6    4.90   15.45
   3   7  -6   20.19    4.31
  -3  -7   5  185.47   22.03
  -3  -7   5  343.80   27.18
  -3  -7   5  224.63    7.06
  -3  -7   5  165.63    7.54
  -3   7   5  152.26   18.02
  -3   7   5  160.23    7.15
  -3   7   5  154.41    3.90
   3  -7  -5  281.58    7.22
   3   7  -5  269.47    8.54
  -3  -7   4  242.10   21.24
  -3  -7   4  477.91   26.03
  -3  -7   4  385.49    8.32
  -3  -7   4  283.63    8.59
  -3   7   4  189.53   18.28
  -3   7   4  234.84    7.04
  -3   7   4  285.21    4.31
  -3   7   4  221.15    4.20
   3  -7  -4  430.73    7.13
   3   7  -4  362.00    9.03
  -3  -7   3  216.99   18.29
  -3  -7   3  442.28   23.74
  -3  -7   3  448.04    8.64
  -3   7   3  205.21   14.49
  -3   7   3  276.06    6.62
  -3   7   3  209.14    4.08
   3  -7  -3  381.29    4.41
   3  -7  -3  254.11    3.65
   3   7  -3  341.66    8.32
  -3  -7   2   89.56   12.99
  -3  -7   2  166.04   16.37
  -3  -7   2  188.46    5.94
  -3   7   2   84.16    9.67
  -3   7   2  122.96    4.07
  -3   7   2   97.57    4.25
   3  -7  -2  197.22   12.00
   3   7  -2  122.36    5.19
  -3  -7   1  786.60   26.25
  -3  -7   1 1542.61   15.47
  -3   7   1  738.84   13.93
  -3   7   1 1246.73    9.14
   3  -7  -1 1814.38   20.86
   3   7  -1 1091.44   29.87
   3   7  -1 1065.18   13.69
  -3  -7   0  290.94   18.67
  -3  -7   0  256.12    6.88
  -3  -7   0  479.18    9.13
  -3   7   0  585.33    4.11
   3  -7   0  320.63    6.53
   3   7   0  383.39   20.69
   3   7   0  354.70    8.36
  -3  -7  -1   40.87   11.06
  -3  -7  -1   44.97    4.27
  -3  -7  -1   68.05    4.71
   3  -7   1   52.63    3.78
   3   7   1   42.86   11.42
  -3  -7  -2  340.38   23.09
  -3  -7  -2  321.60    8.54
  -3  -7  -2  457.93    9.89
   3  -7   2  336.68    8.35
   3   7   2  329.92   22.60
  -3  -7  -3   89.73   16.24
  -3  -7  -3   88.87    6.03
  -3  -7  -3  112.73    6.12
  -3   7  -3   95.81    2.82
   3  -7   3   87.63    5.70
   3   7   3  113.18   16.94
  -3  -7  -4   44.10   17.05
  -3  -7  -4   76.30    6.21
  -3  -7  -4   96.35    6.88
  -3   7  -4  106.75    7.31
  -3   7  -4   84.72    3.76
   3  -7   4   70.78    7.26
   3  -7   4   75.32    5.83
   3   7   4  106.31   20.88
  -3  -7  -5   99.48   21.75
  -3  -7  -5   58.91    7.22
  -3  -7  -5   64.31    7.39
  -3   7  -5   93.82   10.09
  -3   7  -5   74.36    4.64
   3  -7   5   53.64    9.92
   3  -7   5   54.69    5.77
   3   7   5   60.75   22.06
  -3  -7  -6   61.33   24.84
  -3  -7  -6   36.38    6.02
  -3   7  -6   50.99    4.93
   3  -7   6   21.41    4.98
   3   7   6   -2.65   27.72
  -3   7  -7   30.77    5.26
   3  -7   7   11.18    4.39
  -3  -8   8   49.86    6.88
  -3   8   8   51.52    7.76
  -3   8   8   54.22    5.49
   3  -8  -8   90.62    9.18
   3   8  -8   78.06    9.32
  -3  -8   7   33.74    4.37
  -3  -8   7   29.93    4.95
  -3   8   7   20.39    5.52
  -3   8   7   23.94    2.67
   3  -8  -7   41.73    5.18
   3   8  -7   49.80    6.12
  -3  -8   6  386.04   34.85
  -3  -8   6  258.67    7.91
  -3  -8   6  221.44    9.00
  -3   8   6  211.47    8.74
  -3   8   6  183.91    3.73
   3  -8  -6  414.04    9.82
   3   8  -6  337.77   10.49
  -3  -8   5  561.59   44.34
  -3  -8   5 1245.15   41.78
  -3  -8   5  872.66   12.38
  -3  -8   5  687.87   14.13
  -3   8   5  468.85   27.36
  -3   8   5  578.80   12.01
  -3   8   5  534.72    3.84
   3  -8  -5 1129.50   35.49
   3  -8  -5 1073.47   12.74
   3   8  -5  986.61   15.53
  -3  -8   4  128.89   17.14
  -3  -8   4  198.23   22.75
  -3  -8   4  160.38    6.03
  -3  -8   4  111.54    6.09
  -3   8   4   85.26   14.03
  -3   8   4  100.33    5.62
   3  -8  -4  142.37   16.96
   3  -8  -4  177.48    4.69
   3   8  -4  102.89    8.03
  -3  -8   3  382.14   22.53
  -3  -8   3  632.80   27.68
  -3  -8   3  633.29   10.25
  -3  -8   3  443.35    9.84
  -3   8   3  326.95   17.73
  -3   8   3  373.09    7.90
  -3   8   3  323.97    3.78
   3  -8  -3  728.48   22.97
   3   8  -3  512.67   10.53
  -3  -8   2   76.40   13.55
  -3  -8   2   91.65   14.36
  -3  -8   2  125.53    5.33
  -3   8   2   49.32    7.61
  -3   8   2   64.13    3.58
  -3   8   2   53.00    3.36
   3   8  -2   66.69    4.84
  -3  -8   1 1121.79   33.21
  -3  -8   1 1090.32   13.48
  -3  -8   1 2278.52   19.22
  -3   8   1 1127.13   17.33
  -3   8   1 1467.42   10.69
   3  -8  -1 2731.86   25.89
   3   8  -1 1681.18   39.04
   3   8  -1 1519.00   17.05
  -3  -8   0   31.28   11.22
  -3  -8   0   25.45    3.36
  -3  -8   0   50.30    4.36
  -3   8   0   42.91    1.76
   3  -8   0   30.32    3.50
   3   8   0   20.26   10.24
   3   8   0   33.95    4.22
  -3  -8  -1   53.11   12.37
  -3  -8  -1   74.22    5.14
  -3  -8  -1  116.86    5.63
   3  -8   1   83.41    4.53
   3   8   1   79.56   13.10
  -3  -8  -2  801.14   34.16
  -3  -8  -2  795.64   13.89
  -3  -8  -2 1218.06   16.23
   3  -8   2  822.10   12.83
   3   8   2  851.64   33.38
  -3  -8  -3  118.90   19.17
  -3  -8  -3  161.40    7.33
  -3  -8  -3  231.75    9.65
  -3   8  -3  220.38    3.86
   3  -8   3  179.18    7.21
   3   8   3  127.87   19.07
  -3  -8  -4    9.25   17.87
  -3  -8  -4   -1.93    3.64
  -3  -8  -4    2.16    3.69
  -3   8  -4    4.44    1.83
   3  -8   4   -0.15    3.12
   3   8   4  -17.11   17.20
  -3  -8  -5    5.89   21.60
  -3  -8  -5   30.05    5.40
  -3  -8  -5   39.38    5.89
  -3   8  -5   59.97    4.49
   3  -8   5   24.94    4.85
   3   8   5   49.71   24.23
  -3  -8  -6  117.30   10.29
  -3  -8  -6  140.31   10.54
  -3   8  -6  182.24    7.48
   3  -8   6  114.75    8.12
  -3  -8  -7   24.15    8.15
  -3   8  -7   32.38    5.68
   3  -8   7   10.04    4.65
  -3  -9   8   -4.76    4.03
  -3  -9   8    4.14    4.22
  -3   9   8  -10.18    6.80
   3  -9  -8  -10.68    5.36
   3   9  -8    5.43    6.46
  -3  -9   7   23.20    4.02
  -3  -9   7   17.94    4.52
  -3   9   7    3.03    5.61
   3  -9  -7   44.75    5.60
   3   9  -7   27.87    5.70
  -3  -9   6   73.56    5.47
  -3  -9   6   54.20    6.20
  -3   9   6   61.24    6.58
   3  -9  -6   99.58    6.42
   3   9  -6   78.52    7.26
  -3  -9   5   34.44   19.08
  -3  -9   5   15.66   19.01
  -3  -9   5   18.08    3.10
  -3  -9   5   17.53    4.19
  -3   9   5    2.47   14.74
  -3   9   5   10.72    3.85
   3  -9  -5   24.21   16.57
   3  -9  -5   18.38    2.96
   3   9  -5   17.07    4.00
  -3  -9   4  452.26   27.59
  -3  -9   4  344.46    8.01
  -3  -9   4  234.45    8.45
  -3   9   4  191.59   20.14
  -3   9   4  203.93    7.60
   3  -9  -4  377.91   22.78
   3  -9  -4  354.34    5.35
   3  -9  -4  239.90    4.48
   3   9  -4  300.35    9.06
  -3  -9   3  172.63   19.41
  -3  -9   3  133.25    5.55
  -3  -9   3   94.44    5.40
  -3   9   3   63.72   17.89
  -3   9   3   81.19    4.80
   3  -9  -3  194.89   16.24
   3   9  -3   89.70    5.81
  -3  -9   2   38.03   13.38
  -3  -9   2   75.83   15.20
  -3  -9   2   29.78    3.43
  -3  -9   2   84.99    4.96
  -3  -9   2   58.90    4.48
  -3   9   2   30.10    7.42
  -3   9   2   43.25    3.48
  -3   9   2   42.78    2.89
   3  -9  -2   86.36    9.84
  -3  -9   1   72.25   13.84
  -3  -9   1   88.13    5.11
  -3  -9   1  185.60    6.48
  -3   9   1   85.05    8.24
  -3   9   1  101.29    3.64
   3  -9  -1  187.81   14.98
  -3  -9   0  206.03   21.66
  -3  -9   0  181.00    6.67
  -3  -9   0  334.75    8.53
  -3   9   0  209.13    3.76
   3  -9   0  215.15    7.80
   3   9   0  259.02   21.83
  -3  -9  -1   14.41   12.85
  -3  -9  -1   18.98    3.51
  -3  -9  -1   32.36    3.99
  -3   9  -1   20.24    1.32
  -3   9  -1   24.23    1.33
   3  -9   1   20.14    3.01
   3   9   1    8.03   12.98
  -3  -9  -2   45.97   15.26
  -3  -9  -2   34.37    4.43
  -3  -9  -2   59.99    5.46
  -3   9  -2   73.75    1.81
   3  -9   2   34.99    4.36
   3   9   2   46.79   16.12
  -3  -9  -3   61.76   18.16
  -3  -9  -3  100.20    7.16
  -3  -9  -3  143.71    7.71
  -3   9  -3  156.81    3.49
   3  -9   3   96.37    6.35
   3   9   3   79.66   19.75
  -3  -9  -4  198.30   25.51
  -3  -9  -4  174.97    8.97
  -3  -9  -4  243.10   10.10
  -3   9  -4  274.67    5.78
   3  -9   4  155.33    9.20
   3   9   4  286.56   35.68
  -3  -9  -5   25.60    5.65
  -3  -9  -5   11.15    5.70
  -3   9  -5   29.52    3.38
   3  -9   5   16.50    3.99
  -3  -9  -6   21.85    6.87
  -3  -9  -6   17.03    6.56
  -3   9  -6   21.39    4.87
   3  -9   6   10.35    4.11
  -3   9  -7   16.99    5.40
   3 -10  -8   52.53    6.95
  -3 -10   7  100.83    6.06
  -3 -10   7   89.86    7.55
  -3  10   7   88.07   10.48
   3  10  -7  155.40   10.60
  -3 -10   6   85.04    5.46
  -3 -10   6   72.13    6.84
  -3  10   6   66.73    7.39
   3 -10  -6  131.50    6.96
   3 -10  -6   72.84    5.79
   3  10  -6  105.38    8.27
  -3 -10   5   10.97    2.89
  -3 -10   5   14.22    3.91
  -3  10   5    2.69    4.23
   3 -10  -5   11.60    2.49
   3  10  -5   22.96    4.44
  -3 -10   4   69.19   19.04
  -3 -10   4   25.25    3.35
  -3 -10   4   43.42    4.30
  -3 -10   4   37.49    4.90
  -3  10   4    4.53   13.90
  -3  10   4   28.39    4.19
   3 -10  -4   69.61   15.34
   3  10  -4   39.63    5.03
  -3 -10   3   16.07   14.43
  -3 -10   3  164.25   20.06
  -3 -10   3   82.10    5.06
  -3 -10   3  184.89    6.28
  -3 -10   3  127.45    6.51
  -3  10   3  101.28   13.14
  -3  10   3   94.56    5.45
   3 -10  -3  195.08   18.43
   3  10  -3  146.35    7.21
  -3 -10   2  260.34   25.75
  -3 -10   2  163.85    6.28
  -3 -10   2  360.60    8.33
  -3 -10   2  245.53    7.65
  -3  10   2  197.80   14.65
  -3  10   2  188.26    5.86
   3  10  -2  223.21    8.24
  -3 -10   1   -4.33   13.19
  -3 -10   1    1.64    2.52
  -3 -10   1    6.81    2.94
  -3  10   1    6.77    5.02
  -3  10   1    2.25    1.61
   3 -10  -1   19.65    5.99
   3  10  -1    5.52    2.89
  -3 -10   0   86.55   16.49
  -3 -10   0   98.09    5.86
  -3 -10   0  184.26    7.08
  -3  10   0  103.99    3.29
   3 -10   0  119.13    4.80
   3  10   0   86.92   15.86
  -3 -10  -1   92.74   17.23
  -3 -10  -1   98.17    7.58
  -3 -10  -1  166.11    7.23
  -3  10  -1   89.79    2.65
  -3  10  -1  123.92    2.85
   3 -10   1  101.79    5.26
   3  10   1  118.61   18.66
  -3 -10  -2  157.93   21.33
  -3 -10  -2  162.91    7.71
  -3 -10  -2  245.48    8.87
  -3  10  -2  271.42    3.70
   3 -10   2  159.53    6.84
   3  10   2  131.18   22.19
  -3 -10  -3  108.90   25.91
  -3 -10  -3   82.18    7.05
  -3 -10  -3  102.01    7.37
  -3  10  -3  152.09    3.67
   3 -10   3   76.24    6.19
   3  10   3   59.93   21.27
  -3 -10  -4   -1.06    4.39
  -3 -10  -4   10.49    5.31
   3 -10   4    6.31    3.51
  -3 -10  -5   38.33    6.35
  -3 -10  -5   32.33    6.51
  -3  10  -5   42.06    4.80
   3 -10   5   13.36    4.35
  -3 -10  -6   -1.88    7.59
   3 -10   6    2.25    3.96
  -3 -11   7   20.93    5.22
  -3  11   7    9.11    7.36
   3 -11  -7    8.41    5.26
   3 -11  -7    8.29    5.25
   3  11  -7   -4.34    6.60
  -3 -11   6    9.62    4.16
  -3 -11   6   23.15    3.29
  -3 -11   6   32.67    5.63
  -3  11   6   15.96    6.42
   3 -11  -6   49.00    5.90
   3 -11  -6   21.25    3.72
   3  11  -6   49.55    6.77
  -3 -11   5    2.65    2.80
  -3 -11   5    1.06    2.72
  -3 -11   5    0.58    3.18
  -3  11   5    3.32    4.44
   3 -11  -5    3.38    1.81
   3 -11  -5   -0.31    1.91
   3  11  -5   -2.53    4.28
  -3 -11   4   14.99    3.04
  -3 -11   4   23.22    3.10
  -3 -11   4    9.38    3.78
   3  11  -4   22.19    4.68
  -3 -11   3    5.95    2.81
  -3 -11   3    9.72    2.74
  -3 -11   3    2.53    3.32
  -3  11   3   30.38   12.21
  -3  11   3    1.36    3.04
   3 -11  -3  -10.30   11.98
   3  11  -3    5.41    3.63
  -3 -11   2   35.51   18.82
  -3 -11   2    7.95    3.07
  -3 -11   2   30.28    3.67
  -3 -11   2   13.69    3.39
  -3  11   2   12.47    2.72
   3 -11  -2   15.21   10.12
   3  11  -2   18.98    3.97
  -3 -11   1   42.05   20.05
  -3 -11   1   60.35    5.24
  -3 -11   1  111.47    5.89
  -3 -11   1   78.68    5.06
  -3  11   1   62.59    7.29
  -3  11   1   55.41    3.81
   3 -11  -1  119.68   11.05
   3  11  -1   68.65    6.24
  -3 -11   0   29.77   16.48
  -3 -11   0   61.70    5.76
  -3 -11   0  156.67    6.98
  -3  11   0   68.89    3.52
   3  11   0   84.39   18.51
  -3 -11  -1   55.84    5.56
  -3 -11  -1   76.02    6.39
   3 -11   1   65.15    4.96
  -3 -11  -2   11.40    4.02
  -3 -11  -2   10.91    4.32
  -3  11  -2   14.58    1.70
   3 -11   2   10.89    3.37
  -3 -11  -3   14.86    5.04
  -3 -11  -3   32.34    5.63
  -3  11  -3   29.04    2.80
   3 -11   3   13.25    3.98
  -3 -11  -4   39.78    6.29
  -3 -11  -4   47.42    6.63
  -3  11  -4   69.10    4.12
   3 -11   4   25.98    4.70
  -3 -11  -5   20.47    6.86
  -3 -11  -5   19.63    7.34
  -3  11  -5   35.13    3.89
   3 -11   5    9.80    4.31
  -3 -12   6   37.91    6.32
  -3  12   6   24.02    7.13
   3  12  -6   39.99    7.06
  -3 -12   5   22.46    2.71
  -3 -12   5   32.70    4.06
  -3 -12   5   22.78    4.83
  -3  12   5   20.09    5.89
   3  12  -5   21.19    5.57
  -3 -12   4    3.87    2.63
  -3 -12   4    1.25    3.22
  -3  12   4    9.83    4.63
   3  12  -4    3.56    4.36
  -3 -12   3   74.93    5.32
  -3 -12   3  178.85    6.20
  -3 -12   3  105.44    6.96
  -3  12   3   80.70    6.42
   3  12  -3  118.48    8.12
  -3 -12   2   36.50    4.12
  -3 -12   2   97.12    5.51
  -3 -12   2   63.25    5.57
  -3  12   2   45.51   10.90
  -3  12   2   42.12    4.67
   3 -12  -2   50.68   12.39
   3  12  -2   57.91    6.90
  -3 -12   1    5.14    3.30
  -3 -12   1   -1.80    3.05
  -3 -12   1   -1.05    2.81
  -3  12   1   -2.72    2.24
   3 -12  -1    2.20    6.60
   3  12  -1    0.15    3.93
  -3 -12   0    1.16    3.50
  -3 -12   0    2.21    3.50
  -3 -12   0    3.93    2.92
  -3  12   0    0.24    2.03
  -3 -12  -1   27.79    4.74
  -3 -12  -1   49.86    5.66
  -3 -12  -1   51.03    4.32
   3 -12   1   31.66    4.07
  -3 -12  -2   26.49    5.26
  -3 -12  -2   30.78    5.14
  -3  12  -2   24.32    2.34
   3 -12   2   20.00    4.08
  -3 -12  -3   49.72    6.73
  -3 -12  -3   74.38    8.81
  -3  12  -3   69.98    3.79
  -3 -12  -4   36.46    6.89
  -3 -12  -4   32.77    7.33
  -3  12  -4   64.12    4.63
   3 -12   4   27.03    5.05
  -3 -12  -5   16.82    7.77
  -3 -12  -5   14.47    7.87
  -3 -13   5  110.36    8.19
  -3  13   5   94.32    9.32
   3  13  -5  121.35   11.08
  -3 -13   4   -1.63    1.96
  -3 -13   4    1.20    1.99
  -3 -13   4   -0.86    3.51
  -3  13   4    0.77    5.19
   3  13  -4    0.79    5.10
  -3 -13   3   23.95    3.13
  -3 -13   3   26.03    5.03
  -3  13   3   15.81    4.68
   3  13  -3   20.49    5.53
  -3 -13   2   49.43    5.44
  -3 -13   2   94.05    5.65
  -3 -13   2   61.13    6.07
  -3  13   2   48.46    5.07
   3  13  -2   55.76    6.71
  -3 -13   1   20.56    3.92
  -3 -13   1   29.47    4.18
  -3 -13   1   11.60    3.74
  -3  13   1   11.10    3.18
  -3 -13   0   27.01    4.63
  -3 -13   0   56.25    6.41
  -3 -13   0   34.94    4.13
  -3 -13  -1  132.76    8.51
  -3 -13  -1  249.63    9.55
   3 -13   1  149.51    6.86
  -3 -13  -2   39.62    5.79
  -3 -13  -2   84.43    8.95
   3 -13   2   45.34    5.27
  -3 -13  -3   21.24    6.14
  -3 -13  -3   36.26    7.08
  -3  13  -3   29.72    3.08
   3 -13   3   17.80    4.76
  -3 -13  -4  203.65   13.30
  -3 -13  -4  284.43   13.75
  -3 -14   4   31.84    5.53
  -3  14   4   19.98    6.57
   3  14  -4   42.01    7.88
  -3 -14   3   92.56    7.30
  -3  14   3   76.12    8.53
   3  14  -3  109.06    9.59
  -3 -14   2  102.03    5.33
  -3 -14   2   60.14    6.56
   3  14  -2   53.92    7.18
  -3 -14   1   45.94    4.53
  -3 -14   1  116.16    6.51
  -3 -14   1   77.95    6.32
  -3  14   1   51.15    6.36
  -3 -14   0    9.30    4.52
  -3 -14   0   17.33    4.55
  -3 -14   0   13.81    3.56
  -3 -14  -1   15.62    5.08
  -3 -14  -1   15.15    5.31
   3 -14   1    5.38    3.91
  -3 -14  -2   81.91    9.65
  -3 -14  -2  132.41    9.95
   3 -14   2   71.19    7.16
  -4   0  10   -8.41    7.29
  -4   0  10   -2.51    4.58
  -4   0   9  361.69   42.12
  -4   0   9  340.96   12.53
  -4   0   9  323.27   11.33
   4   0  -9  575.18   43.33
   4   0  -9  571.97   15.63
  -4   0   8    5.38   21.80
  -4   0   8    6.38    4.49
  -4   0   8    9.46    4.39
   4   0  -8    5.01   18.71
   4   0  -8   13.49    4.25
  -4   0   7   23.35   21.63
  -4   0   7   25.26    4.34
  -4   0   7   21.63    4.07
   4   0  -7   40.00   16.15
   4   0  -7   27.63    4.54
  -4   0   6  416.53   26.13
  -4   0   6  459.41   10.70
  -4   0   6  404.62    9.80
   4   0  -6  641.56   30.60
  -4   0   5  204.47   18.45
  -4   0   5  168.30    6.35
   4   0  -5  183.49   20.02
   4   0  -5  195.76    6.64
  -4   0   4  151.85   16.49
  -4   0   4  138.11    5.25
   4   0  -4  114.08   13.64
   4   0  -4  134.92    5.17
  -4   0   3  185.57   14.51
  -4   0   3  171.71    5.41
   4   0  -3  149.21   12.98
   4   0  -3  141.88    4.76
  -4   0   2    2.18    5.55
  -4   0   2    9.98    1.98
   4   0  -2    6.64    1.65
  -4   0   1 1040.13   23.24
  -4   0   1 1447.43   27.35
  -4   0   1 1412.20   12.54
   4   0  -1 1065.03   10.08
  -4   0   0  641.85   18.40
  -4   0   0  847.54    9.68
   4   0   0  870.51   21.48
  -4   0  -1   -0.46    5.25
  -4   0  -1   10.19    1.98
   4   0   1    9.70    6.01
   4   0   2  348.42   16.75
   4   0   2  406.41    8.91
  -4   0  -3   43.65    9.03
  -4   0  -3   29.84    3.60
   4   0   3   32.10   10.00
   4   0   3   30.04    3.86
  -4   0  -4   53.30   11.43
  -4   0  -4   48.31    4.57
   4   0   4   52.33   12.10
   4   0   4   54.51    5.03
  -4   0  -5  143.55   17.53
  -4   0  -5   91.17    6.29
   4   0   5   82.61   17.19
   4   0   5   95.25    6.47
  -4   0  -6   -5.48   17.32
  -4   0  -6    0.03    3.60
   4   0   6    7.20    3.83
  -4   0  -7   13.10    5.20
   4   0   7   14.39    4.62
   4   0   8   20.15    5.60
  -4  -1  10   14.73    8.17
  -4  -1  10   25.08    5.75
  -4   1  10   17.13    8.47
  -4   1  10   25.77    5.59
  -4  -1   9   28.75   33.16
  -4  -1   9   80.24    9.83
  -4  -1   9   59.22    6.53
  -4   1   9   61.49    7.23
  -4   1   9   61.28    6.48
   4  -1  -9  111.36    9.75
   4   1  -9   57.96   26.36
   4   1  -9  113.20    9.77
  -4  -1   8  344.25   40.54
  -4  -1   8  260.50   10.38
  -4  -1   8  219.39    9.51
  -4   1   8  239.28   31.40
  -4   1   8  239.73   10.27
  -4   1   8  241.69    9.33
   4  -1  -8  428.97   37.00
   4  -1  -8  406.96   11.94
   4   1  -8  369.92   34.95
   4   1  -8  414.24   12.21
  -4  -1   7   22.08   18.22
  -4  -1   7   18.71    4.38
  -4  -1   7   19.29    4.16
  -4   1   7   43.18   17.92
  -4   1   7   20.34    4.18
  -4   1   7   19.18    3.88
   4  -1  -7   43.44   16.21
   4  -1  -7   34.51    4.76
   4   1  -7   33.89   15.74
   4   1  -7   32.40    4.70
  -4  -1   6  732.03   32.57
  -4  -1   6  560.20   11.49
  -4  -1   6  506.67   11.16
  -4   1   6  578.19   29.22
  -4   1   6  541.13   11.38
  -4   1   6  530.95   10.77
   4  -1  -6  790.25   30.91
   4  -1  -6  723.53   13.32
   4   1  -6  731.46   31.23
   4   1  -6  695.69   13.17
  -4  -1   5   42.00   12.83
  -4  -1   5   33.69    3.90
  -4   1   5   32.33   10.50
  -4   1   5   31.40    3.81
   4  -1  -5   31.89   11.14
   4  -1  -5   34.70    3.80
   4   1  -5    9.17   10.42
   4   1  -5   30.00    3.74
  -4  -1   4  195.61   17.01
  -4  -1   4  179.42    6.08
  -4   1   4  160.72   15.37
  -4   1   4  168.49    5.64
   4  -1  -4  146.95   14.61
   4  -1  -4  178.38    5.58
   4   1  -4  159.85   14.89
   4   1  -4  149.25    5.41
  -4  -1   3    1.84    6.84
  -4  -1   3    3.44    1.90
  -4   1   3   -4.78    7.16
  -4   1   3    2.74    1.71
   4  -1  -3    7.78    6.43
   4  -1  -3    0.53    1.39
   4   1  -3   -0.36    6.73
   4   1  -3    2.61    1.66
  -4  -1   2  123.25   11.56
  -4  -1   2  110.75   12.00
  -4  -1   2  133.29    4.61
  -4   1   2  171.39   12.17
  -4   1   2  139.50    4.41
   4  -1  -2  105.19    3.59
   4   1  -2  102.64    4.05
  -4  -1   1 1123.79   25.23
  -4  -1   1 1618.35   30.34
  -4  -1   1 1637.16   14.15
  -4   1   1 1236.06   23.99
  -4   1   1 1856.50   29.24
  -4   1   1 1638.22   12.86
   4  -1  -1 1200.72    9.67
   4   1  -1 1225.99   11.66
  -4  -1   0  368.91   15.39
  -4  -1   0  508.04    8.08
  -4   1   0  356.60   13.45
  -4   1   0  532.70   16.23
  -4   1   0  479.24    6.96
   4   1   0  482.74   17.53
  -4  -1  -1  159.78   12.62
  -4  -1  -1  231.29    5.78
  -4   1  -1  178.28   11.05
  -4   1  -1  222.87    5.08
   4  -1   1  226.72   12.07
   4   1   1  195.48   13.82
  -4  -1  -2  269.26   15.59
  -4   1  -2  238.15   13.35
   4  -1   2  283.31   14.57
   4  -1   2  279.04    7.56
   4   1   2  261.43   16.64
  -4  -1  -3   45.43   10.16
  -4  -1  -3   32.83    3.93
  -4   1  -3   36.71    8.58
  -4   1  -3   34.27    3.50
   4  -1   3   52.24   10.15
   4  -1   3   44.88    4.36
   4   1   3   33.08   10.33
   4   1   3   45.12    4.22
  -4  -1  -4   11.23   11.35
  -4  -1  -4   31.15    3.74
  -4   1  -4   25.77    9.73
  -4   1  -4   38.66    4.18
   4  -1   4   35.83   11.22
   4  -1   4   38.10    4.69
   4   1   4   42.74   12.63
   4   1   4   37.88    4.67
  -4  -1  -5  309.66   26.10
  -4  -1  -5  273.94    9.04
  -4   1  -5  308.42   22.38
   4  -1   5  258.70   24.09
   4  -1   5  268.42    9.64
   4   1   5  289.88   25.64
   4   1   5  305.81   10.03
  -4  -1  -6   53.79   18.02
  -4  -1  -6   30.26    4.99
  -4   1  -6   29.83    4.70
   4  -1   6   26.85    4.99
   4   1   6   38.79   24.62
   4   1   6   26.06    5.00
  -4  -1  -7   40.78    6.60
  -4   1  -7   31.66    5.78
   4  -1   7   28.12    5.73
   4   1   7   25.84    5.13
  -4   1  -8   -0.12    7.23
   4  -1   8    4.74    4.72
   4   1   8   -1.88    4.51
  -4  -2  10   41.67    8.52
  -4  -2  10   15.12    5.04
  -4   2  10   13.56    9.73
  -4   2  10   23.90    5.49
  -4  -2   9  143.11   36.45
  -4  -2   9  128.36    9.62
  -4  -2   9  134.26    8.62
  -4   2   9  109.48    9.39
  -4   2   9  126.21    7.96
   4  -2  -9  213.08   11.03
   4   2  -9  161.22   28.30
   4   2  -9  215.10   10.93
  -4  -2   8  100.21   26.46
  -4  -2   8   75.56    7.76
  -4  -2   8   63.24    6.50
  -4   2   8   97.43   26.85
  -4   2   8   66.53    7.12
  -4   2   8   76.62    6.43
   4  -2  -8   97.04   24.14
   4  -2  -8  113.39    8.30
   4   2  -8  148.41   24.29
   4   2  -8  128.90    8.46
  -4  -2   7  -33.55   16.28
  -4  -2   7    6.68    3.79
  -4  -2   7   13.50    3.71
  -4   2   7    3.11   17.43
  -4   2   7   11.24    4.09
  -4   2   7   16.05    3.41
   4  -2  -7   26.20   16.78
   4  -2  -7   14.46    3.85
   4   2  -7    9.82   15.70
   4   2  -7   24.03    4.29
  -4  -2   6  223.69   25.43
  -4  -2   6  158.42    6.94
  -4  -2   6  131.25    6.60
  -4   2   6  144.50   18.80
  -4   2   6  135.42    6.54
  -4   2   6  131.92    5.96
   4  -2  -6  210.56   21.23
   4  -2  -6  188.09    7.05
   4   2  -6  216.84   20.96
   4   2  -6  180.63    7.34
  -4  -2   5  552.75   27.05
  -4  -2   5  404.49    9.41
  -4   2   5  387.63   29.40
  -4   2   5  371.23    8.89
   4  -2  -5  510.95   24.63
   4  -2  -5  418.09    8.75
   4   2  -5  377.58   22.15
   4   2  -5  442.74    9.67
  -4  -2   4  176.14   17.35
  -4  -2   4  157.39    5.84
  -4   2   4  131.54   14.64
  -4   2   4  134.51    5.25
   4  -2  -4  192.26   15.75
   4  -2  -4  151.40    5.08
   4   2  -4  140.34   15.56
   4   2  -4  130.04    5.40
  -4  -2   3  484.27   21.00
  -4  -2   3  449.18    8.48
  -4   2   3  457.31   19.10
  -4   2   3  465.38    8.06
   4  -2  -3  388.30    6.69
   4   2  -3  356.91   18.17
   4   2  -3  374.30    7.73
  -4  -2   2  200.98   14.04
  -4  -2   2  275.34   15.97
  -4  -2   2  270.94    6.53
  -4   2   2  324.33   14.69
  -4   2   2  280.40    5.79
   4  -2  -2  223.49   12.02
   4  -2  -2  194.09    4.21
   4   2  -2  201.64    5.50
  -4  -2   1  663.41   20.99
  -4  -2   1  899.01   24.12
  -4  -2   1  980.89   11.48
  -4   2   1  767.21   18.25
  -4   2   1 1244.93   23.08
  -4   2   1  985.24    9.56
   4   2  -1  770.74    9.91
  -4  -2   0  431.17   17.62
  -4  -2   0  619.66    9.26
  -4   2   0  431.85   13.62
  -4   2   0  690.10   16.71
  -4   2   0  576.79    7.06
   4   2   0  575.35   20.52
  -4  -2  -1  625.21   21.85
  -4  -2  -1  909.87   11.57
  -4   2  -1  648.85   16.51
   4  -2   1  761.99   22.44
   4  -2   1  800.39   11.54
   4   2   1  774.98   23.73
  -4  -2  -2   70.05   10.73
  -4  -2  -2   50.86    3.75
  -4  -2  -2   75.81    4.36
  -4   2  -2   58.97    7.97
   4  -2   2   60.82    7.59
   4  -2   2   57.20    4.19
  -4  -2  -3   53.98   11.52
  -4  -2  -3   44.18    4.16
  -4   2  -3   54.91    8.34
  -4   2  -3   49.67    3.64
   4  -2   3   59.68    9.29
   4  -2   3   60.84    4.82
   4   2   3   50.47   12.34
   4   2   3   69.17    4.72
  -4  -2  -4   59.21   12.75
  -4   2  -4   76.70   10.95
  -4   2  -4   51.04    4.27
   4  -2   4   32.40   10.32
   4  -2   4   68.25    5.72
   4   2   4   65.94   14.80
   4   2   4   67.91    5.46
  -4  -2  -5  239.65   23.99
  -4  -2  -5  198.28    8.44
  -4   2  -5  248.93   20.76
  -4   2  -5  207.38    7.45
   4  -2   5  262.47   23.10
   4  -2   5  196.91    8.60
   4   2   5  184.45   22.47
   4   2   5  203.62    8.26
  -4  -2  -6   10.04   19.03
  -4  -2  -6   36.70    5.48
  -4   2  -6   27.48    4.50
   4  -2   6   22.14    4.72
   4   2   6   38.31   22.27
   4   2   6   26.94    5.46
  -4  -2  -7    7.16    5.35
  -4   2  -7    3.27    4.66
   4  -2   7   -1.13    3.97
   4   2   7   -0.39    3.77
  -4   2  -8   99.40   11.81
   4  -2   8   91.15    8.50
   4   2   8   84.40    8.59
  -4  -3  10   48.20    8.80
  -4  -3  10   49.90    7.00
  -4   3  10   47.94    6.74
  -4  -3   9   14.77    6.28
  -4  -3   9   14.60    4.65
  -4   3   9    4.46    5.94
   4  -3  -9   11.55    5.93
   4   3  -9  -18.15   26.27
   4   3  -9   26.00    6.65
  -4  -3   8  118.11   27.73
  -4  -3   8   95.13    7.72
  -4  -3   8   81.47    6.91
  -4   3   8   77.08   26.14
  -4   3   8   97.91    8.27
  -4   3   8   67.34    6.03
   4  -3  -8  218.16   32.13
   4  -3  -8  137.80    8.44
   4   3  -8  155.63   23.90
   4   3  -8  146.43    8.96
  -4  -3   7  244.98   30.35
  -4  -3   7  196.46    8.63
  -4  -3   7  176.70    8.48
  -4   3   7  230.71   26.58
  -4   3   7  176.66    8.52
  -4   3   7  166.73    6.99
   4  -3  -7  327.97   31.28
   4  -3  -7  269.27    9.31
   4   3  -7  267.50   28.12
   4   3  -7  259.22    9.22
  -4  -3   6  420.65   10.41
  -4  -3   6  335.64    9.95
  -4   3   6  351.05   25.43
  -4   3   6  350.78    9.58
  -4   3   6  364.69    8.65
   4  -3  -6  574.34   30.04
   4  -3  -6  530.04   10.85
   4   3  -6  410.10   27.32
   4   3  -6  476.37   11.14
  -4  -3   5  156.11   19.09
  -4  -3   5  102.14    5.74
  -4   3   5  104.28   14.02
  -4   3   5   86.42    5.45
   4  -3  -5  150.07   18.02
   4  -3  -5  101.10    5.09
   4   3  -5   90.50   14.55
   4   3  -5  100.13    5.65
  -4  -3   4  107.83   14.64
  -4  -3   4   85.84    4.89
  -4   3   4   48.05   10.04
  -4   3   4   71.12    4.35
   4  -3  -4   97.97   12.14
   4  -3  -4   67.32    3.80
   4   3  -4   55.61   11.40
   4   3  -4   70.27    4.38
  -4  -3   3   62.20   10.85
  -4  -3   3  109.93   13.79
  -4  -3   3  110.25    4.95
  -4   3   3   92.42   10.78
  -4   3   3   95.24    4.11
   4  -3  -3   79.00    9.55
   4  -3  -3   81.12    3.32
   4   3  -3   78.50    4.19
  -4  -3   2  707.38   23.58
  -4  -3   2 1042.50   28.26
  -4  -3   2 1126.87   13.01
  -4   3   2 1269.09   24.94
  -4   3   2 1181.60   11.12
   4  -3  -2  972.18   21.51
   4  -3  -2  752.24    6.95
   4   3  -2  819.37   11.06
  -4  -3   1  445.27   18.72
  -4  -3   1  723.30   10.34
  -4   3   1  568.40   15.08
  -4   3   1  999.87   19.78
  -4   3   1  756.84    8.01
   4   3  -1  545.05    8.86
  -4  -3   0   20.23    8.20
  -4  -3   0   34.30    3.32
  -4   3   0   31.46    5.31
  -4   3   0   43.19    5.81
  -4   3   0   30.70    2.03
   4   3   0   36.55    8.34
  -4  -3  -1   78.24   10.90
  -4  -3  -1  104.17    4.72
  -4   3  -1   72.39    8.29
   4  -3   1   97.55    4.69
   4   3   1  130.72   14.13
  -4  -3  -2  136.35   14.96
  -4  -3  -2  126.81    5.59
  -4  -3  -2  180.41    6.32
  -4   3  -2  149.15    9.97
   4  -3   2  159.88   10.39
   4  -3   2  150.63    6.00
   4   3   2  189.58   17.35
  -4  -3  -3  165.70   18.71
  -4  -3  -3  152.88    6.57
  -4   3  -3  193.58   12.30
  -4   3  -3  154.98    4.84
   4  -3   3  172.52   12.64
   4  -3   3  182.06    7.29
   4   3   3  191.77   19.55
  -4  -3  -4   87.20   15.87
  -4  -3  -4   80.94    5.96
  -4   3  -4   80.22   11.28
  -4   3  -4   70.52    4.42
   4  -3   4   56.36   10.63
   4  -3   4   74.40    5.71
   4   3   4  104.23   18.03
   4   3   4   87.79    5.66
  -4  -3  -5  205.36   25.31
  -4  -3  -5  162.02    7.77
  -4   3  -5  242.68   19.44
  -4   3  -5  188.46    7.01
   4  -3   5  185.70   21.28
   4   3   5  153.52   21.79
   4   3   5  190.29    7.89
  -4  -3  -6   77.28   21.11
  -4  -3  -6   83.87    7.68
  -4   3  -6   79.24    6.67
   4  -3   6   75.22    6.59
   4   3   6   -7.52   22.56
  -4  -3  -7   34.28    6.96
  -4   3  -7   72.93    8.36
   4  -3   7   40.47    6.31
   4   3   7   64.78    6.84
  -4   3  -8   23.86    7.19
   4  -3   8   11.09    5.36
   4   3   8   15.54    5.25
  -4  -4   9  -11.19    5.30
  -4  -4   9    2.31    4.03
  -4   4   9    0.74    6.04
  -4   4   9    6.11    4.17
   4  -4  -9   -1.77    5.59
   4   4  -9   14.93    6.10
  -4  -4   8   36.47   24.71
  -4  -4   8   12.37    4.82
  -4  -4   8    4.40    3.42
  -4   4   8   12.53    5.01
  -4   4   8    3.94    3.38
   4  -4  -8   17.82    4.70
   4   4  -8   60.09   22.34
   4   4  -8    7.19    4.44
  -4  -4   7  342.17   33.92
  -4  -4   7  260.47    9.54
  -4  -4   7  204.72    9.06
  -4   4   7  181.38   23.70
  -4   4   7  213.55    9.28
  -4   4   7  210.26    7.39
   4  -4  -7  364.34   10.39
   4   4  -7  234.95   29.20
   4   4  -7  353.83   10.65
  -4  -4   6  100.36   20.81
  -4  -4   6   86.64    6.05
  -4  -4   6   59.71    5.68
  -4   4   6   78.06   17.39
  -4   4   6   74.77    4.63
   4  -4  -6  129.80   18.96
   4  -4  -6  102.53    5.98
   4   4  -6  121.21   18.52
   4   4  -6   89.06    6.43
  -4  -4   5   58.93   16.06
  -4  -4   5   40.35    4.37
  -4   4   5   47.95   12.13
  -4   4   5   24.20    3.71
   4  -4  -5   55.12   13.46
   4  -4  -5   28.25    3.40
   4   4  -5   25.94   12.91
  -4  -4   4   99.65   14.59
  -4  -4   4   76.69    4.90
  -4   4   4   66.77   11.28
  -4   4   4   73.49    4.41
   4  -4  -4   71.96    3.78
   4   4  -4   67.91    4.50
  -4  -4   3  228.24   16.18
  -4  -4   3  328.87   20.76
  -4  -4   3  374.65    8.34
  -4   4   3  293.57   15.77
  -4   4   3  331.69    6.88
   4  -4  -3  410.66   17.53
   4  -4  -3  280.45    5.11
   4   4  -3  273.33    7.24
  -4  -4   2  460.88   33.12
  -4  -4   2  708.35   25.03
  -4  -4   2  813.28   11.48
  -4   4   2  749.43   19.18
  -4   4   2  856.14    9.39
   4  -4  -2  748.95   18.84
   4  -4  -2  511.02    4.15
   4   4  -2  603.23   10.00
  -4  -4   1  260.34   16.69
  -4  -4   1  416.66    8.30
  -4   4   1  529.65   14.32
  -4   4   1  484.76    6.22
   4   4  -1  317.90    7.28
  -4  -4   0  234.59   16.26
  -4  -4   0  361.48    7.97
  -4   4   0  232.24    8.83
  -4   4   0  519.36   12.35
  -4   4   0  324.37    4.58
   4   4   0  290.35   17.61
  -4  -4  -1   27.00    9.15
  -4  -4  -1   38.14    3.91
  -4   4  -1   29.49    4.48
  -4   4  -1   58.45    5.64
   4  -4   1   33.08    3.68
   4   4   1   37.01   10.08
  -4  -4  -2  632.29   25.81
  -4  -4  -2  639.33   11.21
  -4  -4  -2  926.92   13.44
  -4   4  -2  787.16   21.04
   4  -4   2  947.99   17.04
   4  -4   2  755.23   12.42
   4   4   2  721.71   27.41
  -4  -4  -3  121.31   16.44
  -4  -4  -3   94.89    9.28
  -4  -4  -3  138.67    6.34
  -4   4  -3  129.22   10.74
  -4   4  -3   96.36    4.40
   4  -4   3  129.09   11.05
   4  -4   3  108.53    6.02
   4   4   3  136.34   17.74
  -4  -4  -4  254.25   24.57
  -4  -4  -4  270.77    9.04
  -4   4  -4  408.34   17.30
  -4   4  -4  245.32    6.43
   4  -4   4  287.41   16.78
   4  -4   4  271.78    9.24
   4   4   4  251.80   25.76
  -4  -4  -5   -4.31   16.08
  -4  -4  -5    8.23    3.78
  -4   4  -5   13.00   10.84
  -4   4  -5    3.59    2.78
   4  -4   5   14.96   12.82
   4  -4   5   13.78    3.72
   4   4   5    6.01   19.07
   4   4   5   10.44    3.71
  -4  -4  -6    6.17   21.49
  -4  -4  -6    9.42    4.84
  -4   4  -6    8.20    3.81
   4  -4   6    4.21    3.84
   4   4   6  -40.43   23.31
   4   4   6    8.01    4.38
  -4  -4  -7   31.55    7.50
  -4   4  -7   44.17    5.86
   4  -4   7   25.68    5.99
   4   4   7   37.68    5.48
  -4  -5   9  138.47   10.92
  -4  -5   9  119.58    8.71
  -4   5   9  112.11   12.06
  -4   5   9  118.89    7.71
   4  -5  -9  229.52   11.87
  -4  -5   8  283.77   10.85
  -4  -5   8  250.86   10.37
  -4   5   8  238.23   11.13
  -4   5   8  231.53    8.29
   4  -5  -8  432.41   12.42
   4   5  -8  395.19   38.24
   4   5  -8  408.11   12.70
  -4  -5   7  417.08   36.00
  -4  -5   7  317.39   10.16
  -4  -5   7  256.52    9.87
  -4   5   7  298.96   32.07
  -4   5   7  280.32   10.15
  -4   5   7  265.87    7.81
   4  -5  -7  524.28   37.19
   4  -5  -7  448.14   11.42
   4   5  -7  308.87   30.44
   4   5  -7  405.60   11.52
  -4  -5   6   -8.04   17.99
  -4  -5   6    6.66    3.49
  -4  -5   6    5.79    3.21
  -4   5   6   27.70   16.74
  -4   5   6    5.12    3.40
  -4   5   6    7.08    2.48
   4  -5  -6   10.13   16.22
   4  -5  -6    6.99    3.03
   4   5  -6   -8.36   13.80
   4   5  -6    7.69    3.38
  -4  -5   5  358.70   27.68
  -4  -5   5  263.15    8.20
  -4  -5   5  188.05    7.48
  -4   5   5  148.64   17.23
  -4   5   5  209.39    7.57
   4  -5  -5  314.25   23.16
   4  -5  -5  289.60    7.27
   4   5  -5  200.18   20.93
   4   5  -5  250.31    8.07
  -4  -5   4  172.68   18.70
  -4  -5   4  355.96   24.53
  -4  -5   4  305.15    8.22
  -4   5   4  217.52   17.26
  -4   5   4  246.25    6.97
   4  -5  -4  330.87   19.26
   4  -5  -4  269.99    7.80
   4   5  -4  248.67    7.69
  -4  -5   3  263.48   18.82
  -4  -5   3  337.73   22.22
  -4  -5   3  347.17    8.18
  -4   5   3  205.31   14.16
  -4   5   3  297.97    6.65
   4  -5  -3  337.19   16.14
   4  -5  -3  255.10    4.34
   4   5  -3  251.55    7.35
  -4  -5   2  175.35   16.20
  -4  -5   2  195.09   17.35
  -4  -5   2  296.94    7.51
  -4   5   2  214.98   11.86
  -4   5   2  307.48    5.83
   4  -5  -2  311.10   13.29
   4   5  -2  209.34    6.43
  -4  -5   1  133.42   22.85
  -4  -5   1  207.72    6.45
  -4   5   1  198.17    9.38
  -4   5   1  226.47    4.30
   4   5  -1  151.41    5.74
  -4  -5   0  148.21   15.39
  -4  -5   0  222.18    6.74
  -4   5   0  237.99    7.50
  -4   5   0  204.93    3.43
   4   5   0  154.58   15.87
  -4  -5  -1   30.84   10.27
  -4  -5  -1   20.51    3.22
  -4  -5  -1   31.41    3.80
  -4   5  -1   48.26    3.88
   4  -5   1   21.35    3.19
   4   5   1   21.14   10.47
  -4  -5  -2   -2.58   10.21
  -4  -5  -2    7.34    2.92
  -4  -5  -2   17.78    3.26
  -4   5  -2    9.94    3.25
  -4   5  -2   22.61    3.82
   4  -5   2   10.94    2.99
   4   5   2   10.54   12.12
  -4  -5  -3   16.89    3.44
  -4  -5  -3   26.74    4.17
  -4   5  -3   30.78    5.76
  -4   5  -3   24.36    2.64
   4  -5   3   24.14    5.89
   4  -5   3   18.28    3.81
   4   5   3   29.12   13.84
  -4  -5  -4   23.52   16.02
  -4  -5  -4   55.75    5.71
  -4  -5  -4   76.74    6.13
  -4   5  -4  103.08   12.24
  -4   5  -4   51.18    3.81
   4  -5   4   76.48    9.34
   4  -5   4   61.97    6.03
   4   5   4   47.63   17.56
  -4  -5  -5   61.46   19.93
  -4  -5  -5   39.58    5.67
  -4   5  -5   40.68   11.18
  -4   5  -5   49.30    4.79
   4  -5   5   46.25    5.70
   4   5   5   70.95   22.35
  -4  -5  -6   72.14   26.20
  -4  -5  -6   39.01    6.24
  -4   5  -6   41.11    4.89
   4  -5   6   43.29    5.96
   4   5   6  -13.19   27.19
  -4   5  -7   49.63    6.26
   4  -5   7   34.63    6.04
  -4  -6   9   20.49    6.76
  -4  -6   9   14.16    5.03
  -4   6   9   15.14    7.67
  -4   6   9   19.34    4.78
   4  -6  -9   38.29    7.29
  -4  -6   8   14.01    5.10
  -4  -6   8   10.31    4.38
  -4   6   8   17.57    5.93
  -4   6   8    7.16    3.55
   4  -6  -8   17.82    5.35
   4   6  -8   12.12    5.55
  -4  -6   7   52.79   22.34
  -4  -6   7    0.79    3.69
  -4  -6   7    2.14    2.95
  -4   6   7   -8.72    4.06
  -4   6   7   -1.67    2.57
   4  -6  -7    8.24    3.76
   4   6  -7   -3.34   18.91
   4   6  -7   -1.85    3.98
  -4  -6   6  -10.17   19.15
  -4  -6   6    8.71    6.07
  -4   6   6    4.44   16.97
  -4   6   6    7.23    3.64
  -4   6   6    6.46    2.46
   4  -6  -6   21.15   16.98
   4  -6  -6    8.02    3.08
   4   6  -6    0.11   14.96
   4   6  -6   15.28    3.91
  -4  -6   5  230.59   28.36
  -4  -6   5  182.24    7.34
  -4  -6   5  131.86    6.88
  -4   6   5  123.24    6.15
   4  -6  -5   -8.37   13.26
   4  -6  -5  188.46    6.07
   4   6  -5  182.59    7.67
  -4  -6   4   -9.02   11.18
  -4  -6   4   24.53   13.29
  -4  -6   4   11.20    2.98
  -4   6   4   -9.59    9.40
  -4   6   4    9.65    2.65
   4  -6  -4   10.97    9.53
   4  -6  -4    6.67    1.82
  -4  -6   3  400.40   22.92
  -4  -6   3  684.74   27.92
  -4  -6   3  750.55   12.04
  -4   6   3  388.28   17.84
  -4   6   3  585.15    9.21
   4  -6  -3  792.45   22.78
   4  -6  -3  489.22    4.06
   4   6  -3  526.03   10.55
  -4  -6   2  188.84   18.26
  -4  -6   2  262.16   20.01
  -4  -6   2  316.77    7.98
  -4   6   2  172.25   18.99
  -4   6   2  310.27    5.94
   4  -6  -2  344.60   13.88
   4   6  -2  219.00    7.09
  -4  -6   1  368.83   21.33
  -4  -6   1  663.14   11.12
  -4   6   1  420.66   11.55
  -4   6   1  785.16    7.57
   4   6  -1  499.28    9.99
  -4  -6   0  468.62   23.12
  -4  -6   0  766.99   12.15
  -4   6   0  792.90    5.99
   4   6   0  570.99   24.95
  -4  -6  -1  485.89   24.81
  -4  -6  -1  440.30    9.91
  -4  -6  -1  697.89   12.03
   4  -6   1  530.27   10.16
   4   6   1  540.58   25.36
  -4  -6  -2   43.20   12.74
  -4  -6  -2   14.94    4.07
  -4  -6  -2   29.59    3.91
   4  -6   2   15.05    3.52
   4   6   2   -3.62   11.88
  -4  -6  -3   46.74   17.92
  -4  -6  -3   34.99    4.48
  -4  -6  -3   62.58    5.53
  -4   6  -3   39.44    2.68
   4  -6   3   49.84    5.05
   4   6   3   49.62   15.19
  -4  -6  -4   65.87   19.33
  -4  -6  -4   47.88    5.47
  -4  -6  -4   60.09    6.08
  -4   6  -4  109.05    9.29
  -4   6  -4   41.34    3.67
   4  -6   4   55.75    7.75
   4  -6   4   46.63    5.57
   4   6   4   58.43   19.32
  -4  -6  -5   68.30   23.14
  -4  -6  -5   60.42    7.04
  -4  -6  -5   66.95    7.21
  -4   6  -5   58.86    4.96
   4  -6   5   58.62    6.01
   4   6   5   55.70   24.49
  -4  -6  -6   12.33   28.33
  -4  -6  -6   37.39    6.69
  -4   6  -6   57.38    6.39
   4  -6   6   42.92    6.20
   4   6   6   53.05   32.97
  -4   6  -7    1.52    5.23
   4  -6   7    5.05    4.77
  -4  -7   9   16.98    6.49
  -4  -7   9    3.91    4.37
  -4   7   9    4.52    4.22
   4  -7  -9   12.08    7.06
  -4  -7   8  230.68   10.51
  -4  -7   8  202.94   10.25
  -4   7   8  204.39   12.04
  -4   7   8  177.88    7.03
   4  -7  -8  376.23   12.43
   4   7  -8  286.11   12.60
  -4  -7   7    8.25    4.46
  -4  -7   7   11.45    4.02
  -4   7   7    3.77    4.63
  -4   7   7    7.98    2.87
   4  -7  -7   23.67    4.52
   4   7  -7    7.82    4.48
  -4  -7   6  125.94   24.80
  -4  -7   6   67.79    9.78
  -4  -7   6   70.48    6.34
  -4   7   6   43.14   17.73
  -4   7   6   65.72    6.31
  -4   7   6   67.57    4.22
   4  -7  -6  100.19    6.07
   4   7  -6   92.60    7.05
  -4  -7   5   33.31   15.82
  -4  -7   5   69.07   19.47
  -4  -7   5   49.22    5.45
  -4  -7   5   44.30    5.33
  -4   7   5   30.15   12.91
  -4   7   5   31.81    4.42
  -4   7   5   43.91    3.31
   4  -7  -5   67.36   15.52
   4  -7  -5   52.84    4.22
   4   7  -5   44.21    5.35
  -4  -7   4  349.37   24.34
  -4  -7   4  735.27   33.73
  -4  -7   4  675.61   11.97
  -4   7   4  340.15   19.71
  -4   7   4  441.44    9.45
   4  -7  -4  737.71   27.08
   4  -7  -4  553.47    6.85
   4   7  -4  521.45   11.25
  -4  -7   3  111.13   15.34
  -4  -7   3  161.32   19.44
  -4  -7   3  204.62    7.11
  -4   7   3  103.09   11.50
  -4   7   3  144.51    5.34
   4  -7  -3  244.15   16.39
  -4  -7   2   60.10   13.03
  -4  -7   2  138.17   17.95
  -4  -7   2  177.74    6.72
  -4   7   2   99.87   10.36
  -4   7   2  144.35    4.44
   4  -7  -2  195.91   11.90
   4   7  -2  109.07    5.64
  -4  -7   1   61.30   13.38
  -4  -7   1  130.23    5.81
  -4   7   1   73.70    6.79
  -4   7   1  136.13    3.54
   4   7  -1   80.44    5.32
  -4  -7   0    7.21   11.33
  -4  -7   0   24.09    3.67
  -4  -7   0   36.18    4.43
  -4   7   0   47.00    1.83
   4   7   0   18.97   11.04
  -4  -7  -1  202.97   20.53
  -4  -7  -1  166.42   10.77
  -4  -7  -1  272.78    8.48
   4  -7   1  191.66    6.78
   4   7   1  201.57   21.28
  -4  -7  -2   44.11   14.94
  -4  -7  -2   15.27    3.80
  -4  -7  -2   21.17    6.42
   4  -7   2    8.43    3.19
   4   7   2    7.58   14.15
  -4  -7  -3   11.77   16.06
  -4  -7  -3   46.56    5.64
  -4  -7  -3   54.49    5.84
  -4   7  -3   38.16    2.56
   4  -7   3   39.02    4.86
   4   7   3   41.16   25.36
  -4  -7  -4   49.15   20.52
  -4  -7  -4   40.14    5.46
  -4  -7  -4   53.09    6.51
  -4   7  -4   45.36    3.54
   4   7   4   53.44   22.47
  -4  -7  -5   25.97   23.75
  -4  -7  -5    1.82    4.84
  -4  -7  -5    6.78    4.95
  -4   7  -5    3.94    2.80
   4  -7   5    4.79    3.70
   4   7   5  -17.93   25.39
  -4  -7  -6   37.02    6.91
  -4  -7  -6   42.80    7.35
  -4   7  -6   41.17    5.13
   4  -7   6   29.58    5.77
  -4   7  -7   35.39    6.24
   4  -7   7    7.37    5.21
  -4  -8   8   75.27    7.18
  -4  -8   8   59.75    6.88
  -4   8   8   68.28    8.30
  -4   8   8   55.70    6.84
   4  -8  -8  106.57    9.61
   4   8  -8  113.07   13.07
  -4  -8   7   12.47    4.68
  -4  -8   7   13.29    4.26
  -4   8   7   14.42    6.01
  -4   8   7    4.11    2.81
   4  -8  -7   22.49    4.67
   4   8  -7   13.81    5.54
  -4  -8   6   68.05   28.47
  -4  -8   6   39.40    6.09
  -4  -8   6   47.76    5.93
  -4   8   6   42.76    5.50
  -4   8   6   31.25    3.54
   4  -8  -6   66.90    5.65
   4   8  -6   57.69    6.47
  -4  -8   5   13.61   17.22
  -4  -8   5   39.07   20.49
  -4  -8   5   28.29    4.26
  -4  -8   5   17.44    4.64
  -4   8   5   16.07   14.70
  -4   8   5   12.12    4.04
  -4   8   5   24.66    2.84
   4  -8  -5   15.80   15.81
   4   8  -5   19.33    4.44
  -4  -8   4    2.90   14.44
  -4  -8   4   38.14   17.99
  -4  -8   4   41.60    5.02
  -4  -8   4   26.50    4.32
  -4   8   4   20.59   11.22
  -4   8   4   23.64    3.69
   4  -8  -4   27.96   12.89
   4  -8  -4   25.55    1.67
   4  -8  -4   18.32    1.60
   4   8  -4   33.88    4.74
  -4  -8   3   19.88   13.49
  -4  -8   3   74.01   17.11
  -4  -8   3   61.40    5.22
  -4   8   3   20.08    8.71
  -4   8   3   31.42    3.36
   4  -8  -3   63.16   11.30
   4   8  -3   35.40    4.50
  -4  -8   2   83.87   15.61
  -4  -8   2  129.35   19.17
  -4  -8   2  194.55    7.21
  -4   8   2   99.11   11.00
  -4   8   2  133.18    4.55
   4  -8  -2  193.18   13.07
   4   8  -2  115.43    6.13
  -4  -8   1  243.14   22.84
  -4  -8   1  511.19   10.63
  -4   8   1  245.59    8.46
  -4   8   1  454.99    6.21
   4   8  -1  326.43    9.03
  -4  -8   0   18.20   13.45
  -4  -8   0   18.01    4.39
  -4  -8   0   27.47    4.08
  -4   8   0   32.98    1.74
   4   8   0   22.92   13.21
  -4  -8  -1   66.84   15.54
  -4  -8  -1   45.48    4.86
  -4  -8  -1   90.37    6.33
   4  -8   1   59.39    4.85
   4   8   1   81.27   16.56
  -4  -8  -2   32.60   16.06
  -4  -8  -2   43.45    5.07
  -4  -8  -2   57.92    5.73
   4  -8   2   47.15    5.19
   4   8   2   50.75   16.73
  -4  -8  -3  663.99   36.59
  -4  -8  -3  656.48   14.09
  -4  -8  -3  913.01   16.12
  -4   8  -3  652.90    6.56
   4  -8   3  704.49   14.10
  -4  -8  -4   31.63   22.04
  -4  -8  -4   14.13    4.55
  -4  -8  -4    9.11    4.66
   4  -8   4    9.12    3.58
   4   8   4  -17.81   21.64
  -4  -8  -5   14.33    5.65
  -4  -8  -5   20.74    5.98
  -4   8  -5   21.15    3.44
   4  -8   5   14.76    4.40
  -4  -8  -6   18.32    7.31
  -4   8  -6   34.64    4.94
   4  -8   6   19.44    4.99
  -4  -9   8   41.94    6.29
  -4  -9   8   22.59    5.50
  -4   9   8   27.07    8.67
   4  -9  -8   67.74    7.40
  -4  -9   7    5.17    4.39
  -4  -9   7    1.14    3.73
  -4   9   7   -7.41    5.83
   4  -9  -7    7.07    5.46
   4   9  -7    2.42    5.18
  -4  -9   6   18.55    5.24
  -4  -9   6   19.37    4.21
  -4   9   6   17.71    5.18
   4  -9  -6   19.63    3.59
   4   9  -6   22.07    5.05
  -4  -9   5  408.23   39.03
  -4  -9   5  305.67    9.30
  -4  -9   5  237.50    9.21
  -4   9   5  214.16    8.74
   4  -9  -5  329.12    5.90
   4  -9  -5  220.03    4.97
   4   9  -5  285.90   10.12
  -4  -9   4   68.83   17.92
  -4  -9   4  121.04   21.23
  -4  -9   4  108.85    6.48
  -4  -9   4   70.70    6.09
  -4   9   4   67.56    5.72
  -4   9   4   82.95    3.23
   4  -9  -4   98.92   15.98
   4   9  -4   86.97    6.59
  -4  -9   3   65.06   17.03
  -4  -9   3  141.72   22.12
  -4  -9   3  115.19    6.39
  -4   9   3   50.28   10.73
  -4   9   3   70.01    4.78
   4  -9  -3  136.93   14.66
   4   9  -3   68.67    6.04
  -4  -9   2  119.00   18.27
  -4  -9   2  159.90   22.04
  -4  -9   2  191.63    7.44
  -4   9   2   80.52    9.34
  -4   9   2  122.39    4.74
   4  -9  -2  160.42   18.12
   4   9  -2  108.68    6.49
  -4  -9   1   99.46   16.95
  -4  -9   1   68.60    6.74
  -4  -9   1  175.16    7.37
  -4   9   1  124.81    3.84
   4   9  -1  116.29    6.72
  -4  -9   0  196.70   22.67
  -4  -9   0  188.16    7.70
  -4  -9   0  388.48   10.47
  -4   9   0  330.35    4.36
   4   9   0  245.32   27.15
  -4  -9  -1   46.80   17.77
  -4  -9  -1   92.74    6.27
  -4  -9  -1  168.29    7.84
   4  -9   1  119.74    6.02
   4   9   1  135.52   20.80
  -4  -9  -2   56.23   18.88
  -4  -9  -2   30.56    4.68
  -4  -9  -2   39.04    5.22
   4  -9   2   34.20    4.46
   4   9   2   36.53   18.63
  -4  -9  -3  186.84   26.46
  -4  -9  -3  181.77    9.33
  -4  -9  -3  278.84   10.56
  -4   9  -3  230.38    3.97
   4  -9   3  216.95    8.91
   4   9   3  136.56   26.26
  -4  -9  -4    9.68    4.90
  -4  -9  -4    2.28    4.93
  -4   9  -4   12.59    3.06
   4  -9   4   11.27    4.19
  -4  -9  -5    0.16    6.27
  -4  -9  -5   11.18    6.43
  -4   9  -5    8.16    3.05
   4  -9   5    5.55    4.44
  -4  -9  -6    1.08    9.20
  -4   9  -6   16.38    5.26
   4  -9   6   14.60    5.09
  -4 -10   7    7.03    4.72
  -4 -10   7    7.60    4.44
  -4  10   7   18.94    7.40
   4 -10  -7    3.44    4.74
   4  10  -7    3.87    6.62
  -4 -10   6   18.34    4.74
  -4  10   6   21.88    5.69
   4 -10  -6   42.02    5.05
   4 -10  -6   24.37    3.22
   4  10  -6   29.81    5.57
  -4 -10   5   13.27    3.96
  -4 -10   5   12.29    3.99
  -4  10   5   10.85    4.57
   4  10  -5   19.96    4.76
  -4 -10   4    7.27    3.56
  -4  10   4    5.94    3.40
   4  10  -4   10.43    4.03
  -4 -10   3  268.28   31.21
  -4 -10   3  315.26    9.18
  -4 -10   3  198.47    8.05
  -4  10   3  152.94   18.07
  -4  10   3  157.50    6.35
   4 -10  -3  365.84   23.31
   4  10  -3  204.58    8.77
  -4 -10   2   46.82   17.19
  -4 -10   2   50.65   20.20
  -4 -10   2  127.29    6.78
  -4  10   2   53.09    8.66
  -4  10   2   65.60    4.29
   4 -10  -2  109.14   13.48
   4  10  -2   67.33    6.05
  -4 -10   1   99.92   18.77
  -4 -10   1   56.82    6.03
  -4 -10   1  136.38    7.39
  -4  10   1   76.98    3.63
   4  10  -1   78.35    6.32
  -4 -10   0  162.57   20.90
  -4 -10   0  144.12    7.34
  -4 -10   0  287.21    9.39
  -4  10   0  177.29    3.75
   4  10   0  169.66   22.87
  -4 -10  -1   91.86   20.38
  -4 -10  -1  101.60    7.32
  -4 -10  -1  138.97    7.94
  -4  10  -1   95.49    2.03
   4 -10   1   96.43    5.84
   4  10   1  100.27   21.86
  -4 -10  -2   90.61    7.64
  -4 -10  -2   96.36    7.93
   4 -10   2   73.38    5.88
  -4 -10  -3   49.59    6.13
  -4 -10  -3   70.21    7.35
  -4  10  -3   66.43    2.66
  -4 -10  -4   41.73    6.97
  -4 -10  -4   51.31    7.44
  -4  10  -4   72.17    4.03
   4 -10   4   32.57    5.19
  -4 -10  -5   32.97    8.10
  -4  10  -5   32.30    3.74
   4 -10   5   11.34    4.32
  -4  11   7   21.58    8.56
  -4 -11   6    3.21    5.06
  -4 -11   6    5.55    4.38
  -4  11   6   22.30    6.92
   4 -11  -6    0.97    2.63
   4 -11  -6   -1.36    2.14
   4  11  -6   -4.49    5.79
  -4 -11   5   84.21    6.77
  -4 -11   5   55.11    6.18
  -4  11   5   48.90    6.48
   4  11  -5   61.67    6.93
  -4 -11   4  123.39    8.51
  -4 -11   4  238.28    8.53
  -4 -11   4  176.01    8.29
   4  11  -4  177.08    9.42
  -4 -11   3    4.04    3.62
  -4 -11   3    2.78    3.52
  -4  11   3    1.89    3.00
   4 -11  -3    3.35   13.46
   4  11  -3   -0.95    3.85
  -4 -11   2   39.86    4.75
  -4 -11   2   76.72    8.78
  -4 -11   2   55.00    5.53
  -4  11   2   27.91    8.31
  -4  11   2   42.81    4.32
   4 -11  -2   82.90   10.22
   4  11  -2   39.80    5.35
  -4 -11   1   26.11   23.75
  -4 -11   1   25.29    4.38
  -4 -11   1   41.43    5.05
  -4  11   1   23.04    2.73
   4  11  -1   29.29    4.91
  -4 -11   0   13.39    4.07
  -4 -11   0   37.14    5.37
  -4  11   0   23.43    2.30
  -4 -11  -1    8.95    4.36
  -4 -11  -1   17.46    5.05
  -4  11  -1    6.82    1.33
   4 -11   1    7.39    3.41
  -4 -11  -2   24.45    5.48
  -4 -11  -2   58.75    6.97
  -4  11  -2   44.63    1.72
   4 -11   2   32.95    4.91
  -4 -11  -3   73.59    9.09
  -4 -11  -3  123.07   10.28
  -4  11  -3  139.11    3.33
   4 -11   3   66.50    6.61
  -4 -11  -4   24.19    7.23
  -4 -11  -4   14.84    7.17
  -4  11  -4   38.73    3.70
   4 -11   4    8.11    4.27
  -4 -11  -5   61.65   10.74
  -4 -12   6   58.63    8.04
  -4 -12   6   38.43    6.51
  -4  12   6   31.26    7.61
  -4 -12   5    5.82    4.33
  -4 -12   5   32.90    4.93
  -4 -12   5   27.77    5.37
  -4  12   5   20.87    6.23
   4  12  -5   21.41    6.19
  -4 -12   4   77.32    7.07
  -4 -12   4  152.18    7.70
  -4 -12   4   96.38    7.02
  -4  12   4   75.22    8.04
   4  12  -4  101.29    9.62
  -4 -12   3   91.28    7.18
  -4  12   3   60.53    6.39
   4  12  -3   71.79    7.58
  -4 -12   2  101.41    7.45
  -4 -12   2  210.41   13.29
  -4 -12   2  148.03    7.56
  -4  12   2  143.68   13.55
  -4  12   2  103.36    5.90
   4 -12  -2  167.71   14.83
   4  12  -2  113.86    8.83
  -4 -12   1    7.18    4.28
  -4 -12   1   21.77    4.78
  -4 -12   1   19.51    3.98
  -4  12   1    7.19    2.70
  -4 -12   0   39.18    5.60
  -4 -12   0  101.46    8.10
  -4  12   0   44.57    3.46
  -4 -12  -1   28.70    5.74
  -4 -12  -1   42.93    6.46
   4 -12   1   20.99    4.19
  -4 -12  -2   21.72    6.03
  -4 -12  -2   37.70    6.38
   4 -12   2   28.12    5.14
  -4 -12  -3   76.17    8.61
  -4 -12  -3  112.83   10.83
  -4  12  -3  101.96    3.29
   4 -12   3   70.60    7.07
  -4 -12  -4  153.61   13.49
   4 -12   4  107.81    8.24
  -4 -13   4   11.80    4.54
  -4 -13   4   18.26    4.45
  -4 -13   4   13.39    4.41
  -4  13   4   -0.02    5.45
   4  13  -4   12.07    7.61
  -4 -13   3   33.89    6.65
  -4 -13   3   92.85    7.41
  -4 -13   3   59.29    6.82
   4  13  -3   53.04    7.41
  -4 -13   2   23.86    5.06
  -4 -13   2   50.15    6.93
  -4 -13   2   35.64    5.41
  -4  13   2   18.27    3.94
   4  13  -2   35.96    6.61
  -4 -13   1    9.65    5.09
  -4 -13   1   45.79    5.93
  -4 -13   1   27.71    4.77
  -4  13   1   18.02    3.38
  -4 -13   0    2.16    4.96
  -4 -13   0    9.84    5.06
  -4 -13   0    9.18    3.57
  -4  13   0    7.97    2.60
  -4 -13  -1   13.36    5.80
  -4 -13  -1    9.55    6.06
  -4 -13  -2   23.84    6.67
  -4 -13  -2   60.65    8.32
  -4  14   3  122.63    9.84
  -4 -14   2   86.00    8.79
  -4  14   2   65.95    6.20
  -4 -14   1   21.93    5.79
  -4 -14   1   29.10    5.94
  -4 -14   1   23.74    5.01
  -4  14   1   18.93    4.04
  -4 -14   0   44.15    6.53
  -4 -14   0   70.37    7.45
  -4 -14   0   53.33    6.45
  -4 -14  -1  106.78   10.86
  -4 -14  -1  131.03   11.24
  -5   0  10    7.80    4.99
  -5   0   9   29.26    7.07
  -5   0   9   22.01    4.76
   5   0  -9   36.27    6.85
  -5   0   8  586.00   44.92
  -5   0   8  447.73   13.33
  -5   0   8  405.95   12.07
   5   0  -8  654.24   42.65
   5   0  -8  591.61   14.47
  -5   0   7  101.09   22.05
  -5   0   7   85.30    7.34
  -5   0   7   79.49    5.95
   5   0  -7  121.72   21.73
   5   0  -7  122.44    7.49
  -5   0   6  218.28   22.69
  -5   0   6  224.56    8.36
   5   0  -6  306.76   26.43
   5   0  -6  254.23    8.65
  -5   0   5  626.75   12.03
   5   0  -5  567.60   27.88
   5   0  -5  575.58   10.99
  -5   0   4   -1.84   10.56
  -5   0   4    1.58    2.35
   5   0  -4    7.84    8.60
   5   0  -4   -1.00    1.97
  -5   0   3    5.57    8.28
  -5   0   3    1.51    1.92
   5   0  -3  -13.46    7.86
   5   0  -3    4.02    1.97
  -5   0   2 2041.61   37.40
  -5   0   2 3317.84   47.50
  -5   0   2 3002.29   21.24
   5   0  -2 2060.42   16.18
  -5   0   1  153.89   13.53
  -5   0   1  228.74   16.28
  -5   0   1  214.50    6.04
  -5   0   0   15.10    7.95
  -5   0   0   38.82    3.41
  -5   0  -1   15.18    8.01
  -5   0  -1   14.20    2.54
   5   0   1   11.32    8.48
  -5   0  -2    4.99    8.71
  -5   0  -2   10.67    2.69
   5   0   2   -0.28    8.84
  -5   0  -3  106.17   14.26
  -5   0  -3   95.26    5.58
   5   0   3  142.98   17.71
   5   0   3  114.04    6.40
  -5   0  -4   90.07   16.06
  -5   0  -4  103.02    6.30
   5   0   4   72.34   15.83
   5   0   4  120.34    7.03
  -5   0  -5   51.54   16.72
  -5   0  -5   45.92    5.43
   5   0   5   34.46    5.18
  -5   0  -6  106.47    8.69
   5   0   6  113.06    7.89
  -5   0  -7    6.63    7.09
   5   0   7    8.08    4.96
  -5  -1  10   34.73   14.00
  -5  -1  10   31.32    6.37
  -5   1  10   33.56    5.83
  -5  -1   9   41.16    7.23
  -5  -1   9   52.93    6.60
  -5   1   9   43.79    7.27
  -5   1   9   66.98    6.88
   5  -1  -9   90.37   10.14
   5   1  -9   59.06    7.66
  -5  -1   8   35.46   26.80
  -5  -1   8   14.12    5.37
  -5  -1   8   20.19    4.62
  -5   1   8   34.33   25.63
  -5   1   8   17.61    5.19
   5  -1  -8   12.61    5.19
   5   1  -8  -14.05   20.40
   5   1  -8   15.94    5.16
  -5  -1   7   17.67   18.63
  -5  -1   7   12.83    4.37
  -5  -1   7   13.35    3.86
  -5   1   7   30.73   20.41
  -5   1   7   14.66    4.39
  -5   1   7    8.21    3.48
   5  -1  -7    4.77   16.78
   5  -1  -7   17.75    4.32
   5   1  -7   17.50   17.47
   5   1  -7   21.19    4.47
  -5  -1   6  492.97   30.00
  -5  -1   6  228.54    8.64
  -5   1   6  199.81   24.65
  -5   1   6  205.50    8.28
   5  -1  -6  274.17   32.13
   5  -1  -6  227.45    8.05
   5   1  -6  197.83   24.60
   5   1  -6  236.14    8.54
  -5  -1   5 1151.53   37.49
  -5  -1   5 1019.88   15.05
  -5   1   5 1456.58   39.39
  -5   1   5  985.01   14.64
   5  -1  -5  961.11   32.56
   5  -1  -5  983.43   13.80
   5   1  -5  876.66   32.33
   5   1  -5  929.52   13.97
  -5  -1   4   60.60   13.65
  -5  -1   4   47.76    4.64
  -5   1   4   58.64   12.56
  -5   1   4   44.06    4.33
   5  -1  -4   37.62   10.95
   5  -1  -4   39.77    3.79
   5   1  -4   32.15   11.67
   5   1  -4   34.78    3.97
  -5  -1   3  423.95   20.57
  -5  -1   3  384.70    8.52
  -5   1   3  423.65   20.96
  -5   1   3  382.29    8.16
   5  -1  -3  332.25   18.37
   5  -1  -3  272.09    6.38
   5   1  -3  291.48    7.23
  -5  -1   2 1094.77   29.16
  -5  -1   2 1649.76   35.22
  -5  -1   2 1663.24   16.41
  -5   1   2 1601.03   41.17
  -5   1   2 1720.61   15.72
   5  -1  -2 1151.50   11.52
   5   1  -2 1163.09   12.95
  -5  -1   1  310.42   17.75
  -5  -1   1  428.41   19.98
  -5  -1   1  455.43    8.70
  -5   1   1  317.25   16.61
  -5   1   1  531.76   19.61
  -5   1   1  464.43    8.11
   5   1  -1  327.32    6.91
  -5  -1   0   90.62   19.05
  -5  -1   0  122.73    5.06
  -5   1   0   96.23   11.31
  -5   1   0  148.02   12.91
  -5   1   0  117.06    4.46
   5   1   0  118.84   13.66
  -5  -1  -1  149.03   14.52
  -5  -1  -1  221.73    6.58
  -5   1  -1  171.94   13.21
  -5   1  -1  225.76    5.99
   5  -1   1  239.48   15.12
   5   1   1  199.23   16.00
  -5  -1  -2  181.77   16.41
  -5  -1  -2  251.99    7.44
  -5   1  -2  166.23   14.37
  -5   1  -2  228.21    6.41
   5  -1   2  230.73   16.38
   5   1   2  216.56   18.98
  -5  -1  -3   74.07   14.07
  -5  -1  -3   65.37    5.35
  -5   1  -3   75.32   12.40
  -5   1  -3   77.71    5.07
   5  -1   3   83.89   13.28
   5  -1   3   81.32    5.86
   5   1   3   62.51   13.93
  -5  -1  -4   57.91   14.98
  -5  -1  -4   38.32    4.78
  -5   1  -4   30.01   12.66
   5  -1   4   33.97   13.88
   5  -1   4   33.65    5.00
   5   1   4   32.93   14.72
   5   1   4   51.03    5.52
  -5  -1  -5   55.11   18.80
  -5  -1  -5   80.44    7.29
  -5   1  -5   87.73    6.71
   5  -1   5  101.01    7.58
   5   1   5   96.35    6.87
  -5  -1  -6  109.30    8.87
  -5   1  -6  114.41    8.59
   5  -1   6  124.29    8.78
   5   1   6  135.99    8.26
  -5  -1  -7    9.63    6.79
  -5   1  -7   11.44    6.44
   5  -1   7    1.19    4.53
   5   1   7   -2.61    4.34
  -5  -2  10   -7.57   10.21
  -5  -2   9   20.80    6.69
  -5  -2   9   17.52    4.94
  -5   2   9   13.74    6.52
  -5   2   9   18.33    4.79
   5  -2  -9   32.23    6.64
   5   2  -9   23.08    6.55
  -5  -2   8  -31.79   25.18
  -5  -2   8    5.60    4.67
  -5  -2   8    2.79    3.66
  -5   2   8    7.39    4.83
  -5   2   8    2.79    3.81
   5  -2  -8    2.32    4.37
   5   2  -8   33.95   22.48
   5   2  -8    2.33    4.77
  -5  -2   7  122.75   22.72
  -5  -2   7   95.22    7.76
  -5   2   7  132.80   23.02
  -5   2   7  104.44    7.83
  -5   2   7   94.67    6.33
   5  -2  -7  108.57   21.69
   5  -2  -7  109.64    7.08
   5   2  -7   86.60   21.16
   5   2  -7  112.29    7.71
  -5  -2   6   81.11   19.76
  -5  -2   6   32.30    4.57
  -5   2   6   38.17   15.53
  -5   2   6   32.94    4.45
   5  -2  -6   37.08   14.08
   5  -2  -6   28.60    7.50
   5   2  -6   60.63   16.00
   5   2  -6   30.61    4.55
  -5  -2   5   39.81   15.02
  -5  -2   5   42.41    4.77
  -5   2   5   29.96   12.09
  -5   2   5   37.40    4.34
   5  -2  -5   22.22   12.64
   5  -2  -5   38.03    4.39
   5   2  -5   49.18   13.41
   5   2  -5   14.61    6.05
  -5  -2   4  255.15   21.59
  -5  -2   4  224.89    7.53
  -5   2   4  215.22    6.79
   5  -2  -4  193.09   18.17
   5  -2  -4  177.36    5.76
   5   2  -4  151.03   17.69
   5   2  -4  176.21    6.36
  -5  -2   3  721.86   26.65
  -5  -2   3 1091.63   31.65
  -5  -2   3 1115.36   14.33
  -5   2   3 1133.65   32.68
  -5   2   3 1159.21   13.53
   5  -2  -3  827.66   11.66
   5   2  -3  771.83   11.64
  -5  -2   2  215.14   16.66
  -5  -2   2  353.06   19.95
  -5  -2   2  365.04    8.24
  -5   2   2  286.58   15.67
  -5   2   2  415.64   18.43
  -5   2   2  370.98    7.40
   5  -2  -2  244.01    5.05
   5   2  -2  260.09    6.89
  -5  -2   1  195.97   15.92
  -5  -2   1  270.68   17.75
  -5  -2   1  245.06    6.81
  -5   2   1  196.97   13.12
  -5   2   1  298.67   15.07
  -5   2   1  260.01    5.97
   5   2  -1  193.07    5.86
  -5  -2   0   56.03   11.09
  -5  -2   0  100.08    4.96
  -5   2   0   76.88    9.16
  -5   2   0  130.14   11.69
  -5   2   0  105.20    4.10
   5   2   0   87.00   13.76
  -5  -2  -1   41.62   10.07
  -5  -2  -1   68.01    4.67
  -5   2  -1   51.15    7.86
  -5   2  -1   62.89    3.62
   5   2   1   68.72   12.62
  -5  -2  -2  145.57   16.98
  -5  -2  -2  191.88    6.98
  -5   2  -2  124.64   12.74
   5  -2   2  140.35   13.96
   5  -2   2  170.22    7.01
   5   2   2  157.39   17.21
  -5  -2  -3   20.19   12.58
  -5  -2  -3   55.57    5.21
  -5  -2  -3   63.12    5.56
  -5   2  -3   41.97   10.34
  -5   2  -3   44.25    4.29
   5  -2   3   63.43   10.86
   5  -2   3   56.53    5.36
   5   2   3   55.03   14.57
  -5  -2  -4  245.18   23.88
  -5  -2  -4  259.13    9.11
  -5   2  -4  294.60   20.98
  -5   2  -4  261.19    7.94
   5  -2   4  266.51   21.74
   5  -2   4  263.75   11.39
   5   2   4  217.87   26.00
  -5  -2  -5   35.35   19.04
  -5  -2  -5   19.53    4.54
  -5   2  -5   15.88    4.17
   5  -2   5   10.86    3.87
   5   2   5   35.85   21.49
   5   2   5   20.89    4.68
  -5  -2  -6   14.69    5.52
  -5   2  -6   20.00    4.82
   5  -2   6    9.82    4.59
   5   2   6   12.52    4.32
  -5   2  -7   17.28    6.72
   5  -2   7   17.69    5.45
   5   2   7   27.27    5.73
  -5  -3   9   14.09    6.65
  -5  -3   9   13.72    4.53
  -5   3   9   20.35    7.16
  -5   3   9    8.21    4.26
   5  -3  -9   20.28    6.59
   5   3  -9  -32.21   33.59
  -5  -3   8   87.36   28.17
  -5  -3   8   43.07    6.50
  -5  -3   8   33.65    5.55
  -5   3   8   43.50    6.55
  -5   3   8   48.25    5.65
   5  -3  -8   45.50    6.07
   5   3  -8   77.39   24.82
   5   3  -8   64.02    7.07
  -5  -3   7   65.18   21.85
  -5  -3   7   39.37    5.39
  -5  -3   7   29.48    4.74
  -5   3   7   29.98   20.37
  -5   3   7   33.78    5.37
  -5   3   7   41.99    5.01
   5  -3  -7   41.13    5.11
   5   3  -7   57.47   19.51
   5   3  -7   40.17    5.20
  -5  -3   6   11.33   20.20
  -5  -3   6   12.39    3.90
  -5   3   6   -4.29   14.71
  -5   3   6   11.08    3.72
   5  -3  -6    1.77   14.20
   5  -3  -6   17.96    3.68
   5   3  -6   16.47   15.58
   5   3  -6    8.72    3.51
  -5  -3   5  282.48   26.03
  -5  -3   5  226.34    8.20
  -5   3   5  175.90   19.75
  -5   3   5  200.04    7.52
   5  -3  -5  266.06   22.96
   5  -3  -5  200.94    6.67
   5   3  -5  314.34   24.04
   5   3  -5  190.02    7.59
  -5  -3   4   25.34   12.17
  -5  -3   4   39.28    4.41
  -5   3   4   56.64   11.84
  -5   3   4   34.92    3.84
   5  -3  -4   33.36    3.38
   5   3  -4   30.65    3.91
  -5  -3   3   62.64   12.45
  -5  -3   3  103.05   14.20
  -5  -3   3  121.48    5.64
  -5   3   3  131.60    5.21
   5  -3  -3  116.40   13.90
   5  -3  -3   90.31    3.65
   5   3  -3  102.06    5.18
  -5  -3   2  213.98   17.42
  -5  -3   2  382.91   22.32
  -5  -3   2  362.38    8.60
  -5   3   2  413.17   17.83
  -5   3   2  403.15    7.53
   5  -3  -2  231.65    4.15
   5   3  -2  271.99    7.38
  -5  -3   1   31.43    9.89
  -5  -3   1   51.33   12.03
  -5  -3   1   49.59    4.19
  -5   3   1   34.75    7.28
  -5   3   1   87.14   10.51
  -5   3   1   49.78    3.20
   5   3  -1   33.83    3.80
  -5  -3   0  231.92   18.29
  -5  -3   0  347.32    8.47
  -5   3   0  228.65   12.37
  -5   3   0  439.78   15.77
  -5   3   0  321.17    6.11
   5   3   0  281.08   22.89
  -5  -3  -1   57.96   12.78
  -5  -3  -1   77.18    5.26
  -5   3  -1   45.02    6.96
  -5   3  -1   61.61    3.34
   5   3   1   71.84   12.80
  -5  -3  -2   36.98   11.98
  -5  -3  -2   25.23    4.33
  -5  -3  -2   39.62    4.43
  -5   3  -2   15.56    7.14
   5  -3   2   42.47    8.62
   5  -3   2   45.27    4.73
   5   3   2   26.21   12.77
  -5  -3  -3   36.67   14.69
  -5  -3  -3   44.81    5.01
  -5  -3  -3   57.16    5.67
  -5   3  -3   58.76   10.28
  -5   3  -3   40.83    3.93
   5  -3   3   38.10    9.21
   5  -3   3   46.38    5.23
   5   3   3   55.02   15.98
  -5  -3  -4   40.80   17.25
  -5  -3  -4   27.57    4.51
  -5  -3  -4   27.59    4.53
  -5   3  -4    9.03    9.36
  -5   3  -4   25.23    3.66
   5  -3   4   19.76   11.71
   5   3   4   27.09   18.41
  -5  -3  -5  233.43   26.37
  -5  -3  -5  190.59    9.57
  -5   3  -5  210.93    8.09
   5  -3   5  196.00    9.19
   5   3   5  207.19   29.25
  -5  -3  -6   24.51    6.29
  -5   3  -6   39.28    5.76
   5  -3   6   24.24    5.38
   5   3   6   35.73    5.41
  -5   3  -7   15.26    6.26
   5  -3   7   22.62    5.88
   5   3   7   24.45    5.54
  -5  -4   9   48.13    7.91
  -5  -4   9   36.61    6.32
  -5   4   9   41.79    8.06
  -5   4   9   28.04    5.29
   5  -4  -9   45.64    7.46
  -5  -4   8  -32.09   27.06
  -5  -4   8    7.24    5.39
  -5  -4   8   11.00    4.35
  -5   4   8    7.23    5.39
  -5   4   8    5.08    3.87
   5  -4  -8   16.21    5.02
   5   4  -8   24.97   24.58
   5   4  -8    7.17    5.29
  -5  -4   7   36.59   21.70
  -5  -4   7  157.39    8.74
  -5  -4   7  112.90    7.35
  -5   4   7  122.02    8.48
  -5   4   7  132.67    6.66
   5  -4  -7  179.50    8.26
   5   4  -7  102.70   21.17
   5   4  -7  173.03    9.03
  -5  -4   6   87.67   22.28
  -5  -4   6   66.48    6.49
  -5   4   6   20.43   15.56
  -5   4   6   48.74    5.35
   5  -4  -6   66.98   16.20
   5  -4  -6   55.17    5.45
   5   4  -6   39.33   16.59
   5   4  -6   49.47    5.47
  -5  -4   5   35.76   16.70
  -5  -4   5   12.28    5.89
  -5   4   5   37.64   13.55
  -5   4   5   13.31    3.73
   5  -4  -5  -15.65   10.87
   5  -4  -5   13.07    2.90
   5   4  -5    9.16    3.19
  -5  -4   4  120.49   16.57
  -5  -4   4  234.20   22.07
  -5  -4   4  184.85    7.13
  -5   4   4  122.62   14.78
  -5   4   4  158.57    6.17
   5  -4  -4  141.48   16.95
   5  -4  -4  128.25    4.67
  -5  -4   3  178.86   19.76
  -5  -4   3  237.04   21.10
  -5  -4   3  254.53    7.74
  -5   4   3  229.77   15.89
  -5   4   3  251.03    6.61
   5  -4  -3  204.99   15.44
   5  -4  -3  168.25    4.08
   5   4  -3  180.32    6.69
  -5  -4   2  400.77   22.00
  -5  -4   2  667.48   27.39
  -5  -4   2  697.94   11.81
  -5   4   2  747.81    9.83
   5   4  -2  477.94    9.75
  -5  -4   1   35.08   10.90
  -5  -4   1   21.99   11.28
  -5  -4   1   34.79    4.26
  -5   4   1   29.24    6.47
  -5   4   1   54.00    8.13
  -5   4   1   41.04    2.96
   5   4  -1   32.84    3.72
  -5  -4   0  179.99   18.50
  -5  -4   0  308.33    8.27
  -5   4   0  185.07   10.83
  -5   4   0  447.20   14.45
  -5   4   0  295.25    5.56
   5   4   0  267.33   19.89
  -5  -4  -1   57.40    5.06
  -5   4  -1   46.62    6.51
  -5   4  -1   97.96    9.54
  -5   4  -1   44.28    2.85
   5   4   1   53.15   12.87
  -5  -4  -2   20.40   12.48
  -5  -4  -2    9.11    3.11
  -5  -4  -2   16.02    3.36
  -5   4  -2    7.01    5.80
   5  -4   2   17.76    3.65
   5   4   2   20.90   13.21
  -5  -4  -3  130.10   18.45
  -5  -4  -3   78.29    6.07
  -5  -4  -3  120.67    7.09
  -5   4  -3  102.82   12.48
  -5   4  -3   80.78    4.40
   5  -4   3  119.87   13.62
   5  -4   3  102.74    6.59
   5   4   3   79.11   18.02
  -5  -4  -4    4.84   16.82
  -5  -4  -4   25.21    4.79
  -5  -4  -4   24.08    4.99
  -5   4  -4   22.56   10.21
  -5   4  -4   17.00    3.16
   5  -4   4   43.62   13.65
   5  -4   4   20.14    4.42
   5   4   4  -12.61   17.45
  -5  -4  -5   15.10   21.59
  -5  -4  -5   33.57    5.93
  -5  -4  -5   28.05    5.52
  -5   4  -5   17.38    4.77
   5  -4   5   25.35    4.71
   5   4   5   26.98   24.53
  -5  -4  -6    4.87    5.91
  -5   4  -6   10.13    4.62
   5  -4   6    4.19    3.90
  -5   4  -7    4.11    6.05
   5  -4   7    3.84    5.08
  -5  -5   9  185.10   12.26
  -5  -5   9  158.78    9.76
  -5   5   9  125.24   11.96
  -5   5   9  148.39    8.52
   5  -5  -9  248.90   12.77
  -5  -5   8  177.86   10.94
  -5  -5   8  161.32    9.05
  -5   5   8  158.53   10.94
  -5   5   8  141.85    7.41
   5  -5  -8  250.87   10.73
   5   5  -8  188.94   32.11
   5   5  -8  233.80   11.12
  -5  -5   7  420.13   45.86
  -5  -5   7  272.17   10.38
  -5  -5   7  220.86    9.50
  -5   5   7  213.04   10.22
  -5   5   7  227.79    7.87
   5  -5  -7  339.14   10.14
   5   5  -7  394.06   36.30
   5   5  -7  311.92   11.45
  -5  -5   6  481.03   37.78
  -5  -5   6  393.30   11.08
  -5  -5   6  314.27   10.40
  -5   5   6  282.46   28.80
  -5   5   6  308.12   10.10
   5  -5  -6  436.71   29.55
   5  -5  -6  429.51    9.78
   5   5  -6  279.31   28.67
   5   5  -6  387.60   11.25
  -5  -5   5   86.78   17.84
  -5  -5   5  164.83   22.77
  -5  -5   5  101.09    6.81
  -5   5   5   47.89   23.89
  -5   5   5   83.29    6.19
   5  -5  -5  -12.38   10.66
   5  -5  -5   89.40    4.86
   5   5  -5   79.41    5.93
  -5  -5   4  228.85   22.84
  -5  -5   4  380.73   27.96
  -5  -5   4  346.98    9.34
  -5   5   4  257.24   19.56
  -5   5   4  297.37    8.10
   5  -5  -4  320.62   19.32
   5  -5  -4  245.43    5.52
   5   5  -4  248.48    8.30
  -5  -5   3   82.00   14.40
  -5  -5   3  128.44   17.62
  -5  -5   3  147.05    6.73
  -5   5   3  121.51   14.49
  -5   5   3  143.51    5.41
   5  -5  -3  122.60   14.40
   5  -5  -3   87.77    2.36
   5   5  -3   84.45    8.74
  -5  -5   2   92.00   14.87
  -5  -5   2  185.27   20.11
  -5  -5   2  211.94    7.45
  -5   5   2  184.23   13.03
  -5   5   2  211.65    5.61
   5  -5  -2  156.00   12.51
   5   5  -2  154.41    6.48
  -5  -5   1  214.77   19.44
  -5  -5   1  353.09    8.96
  -5   5   1  250.72   11.90
  -5   5   1  422.09   14.59
  -5   5   1  390.63    6.45
   5   5  -1  253.51    7.77
  -5  -5   0   26.51   11.70
  -5  -5   0   20.49    3.50
  -5   5   0   14.01    4.66
  -5   5   0   27.44    5.85
  -5   5   0   18.76    1.97
   5   5   0   30.00   12.03
  -5  -5  -1  147.10   18.61
  -5  -5  -1  257.81    8.38
  -5   5  -1  169.01    8.36
  -5   5  -1  393.60   11.44
  -5   5  -1  221.49    4.65
   5  -5   1  214.57    7.52
   5   5   1  173.36   20.62
  -5  -5  -2   74.92   15.89
  -5  -5  -2   84.49    6.24
  -5  -5  -2   94.02    8.11
  -5   5  -2   86.64    8.22
   5  -5   2  104.36    6.48
   5   5   2   97.00   18.05
  -5  -5  -3   24.32   15.17
  -5  -5  -3   15.40    4.12
  -5  -5  -3   19.41    4.42
  -5   5  -3   18.90    6.40
  -5   5  -3   18.54    2.58
   5  -5   3   18.13    4.18
   5   5   3   17.60   17.19
  -5  -5  -4   88.08   21.34
  -5  -5  -4   72.30    7.20
  -5  -5  -4   72.77    7.19
  -5   5  -4   88.41   11.42
  -5   5  -4   54.12    4.63
   5  -5   4   81.84    6.97
   5   5   4   64.58   23.20
  -5  -5  -5    3.38   23.95
  -5  -5  -5   21.97    5.71
  -5  -5  -5   30.03    6.22
  -5   5  -5   20.13    5.55
   5  -5   5   24.19    5.24
   5   5   5   30.45   27.91
  -5  -5  -6   14.49    9.50
  -5  -5  -6    4.22    6.27
  -5   5  -6   14.54    4.67
   5  -5   6    4.02    4.46
  -5  -6   9   31.55    7.97
  -5  -6   9   19.69    5.97
  -5   6   9   26.09    5.43
   5  -6  -9   53.58    8.26
  -5  -6   8   71.62    7.63
  -5  -6   8   63.21    7.03
  -5   6   8   57.55    7.94
  -5   6   8   66.15    6.30
   5  -6  -8  102.15    9.14
   5   6  -8   96.03    9.40
  -5  -6   7   99.02   31.05
  -5  -6   7  102.96    8.76
  -5  -6   7   69.46    6.69
  -5   6   7   70.12    8.18
  -5   6   7   75.43    5.63
   5  -6  -7   96.51    7.16
   5   6  -7  100.05    8.64
  -5  -6   6  274.44   30.53
  -5  -6   6  332.71   34.61
  -5  -6   6  303.31   10.28
  -5  -6   6  243.91    9.62
  -5   6   6  244.43    9.49
  -5   6   6  266.24    7.53
   5  -6  -6  315.32    8.54
   5   6  -6  297.39   10.57
  -5  -6   5  214.78   23.55
  -5  -6   5  312.98   32.87
  -5  -6   5  273.73    9.43
  -5   6   5  201.65   23.04
  -5   6   5  212.25    7.91
   5  -6  -5  339.06   23.98
   5  -6  -5  229.16    6.26
   5   6  -5  216.34    8.58
  -5  -6   4   50.88   16.05
  -5  -6   4  119.36   19.26
  -5  -6   4  108.68    7.96
  -5   6   4   74.34   13.55
  -5   6   4   86.29    5.49
   5  -6  -4  137.19   17.09
   5  -6  -4   84.59    3.27
   5   6  -4   84.45    5.86
  -5  -6   3   -9.55   12.89
  -5  -6   3   30.79   16.07
  -5  -6   3   44.45    4.81
  -5   6   3   35.76    8.97
  -5   6   3   32.90    3.84
   5  -6  -3   32.53    8.84
   5   6  -3   30.06    4.14
  -5  -6   2  -11.95   12.16
  -5  -6   2   23.66   13.76
  -5  -6   2   35.95    4.30
  -5   6   2   16.93    7.10
  -5   6   2   36.05    3.24
   5  -6  -2   35.78    7.66
   5   6  -2   19.24    3.58
  -5  -6   1  343.87   25.23
  -5  -6   1  599.43   11.90
  -5   6   1  361.21   12.53
  -5   6   1  446.99   13.69
  -5   6   1  686.46    8.22
   5   6  -1  365.88   10.67
  -5  -6   0  102.42   16.26
  -5  -6   0  201.72    7.70
  -5   6   0  103.07    5.97
  -5   6   0  132.93    8.29
  -5   6   0  194.82    4.21
   5   6   0  180.43   20.79
  -5  -6  -1  120.32   18.49
  -5  -6  -1  113.37    6.78
  -5   6  -1  152.12    3.68
   5  -6   1  150.02    6.78
  -5  -6  -2   40.91   16.28
  -5  -6  -2   32.98    4.81
  -5  -6  -2   50.40    5.54
   5  -6   2   38.02    4.75
   5   6   2   54.22   17.42
  -5  -6  -3  183.50   23.44
  -5  -6  -3  148.01    8.33
  -5  -6  -3  205.67    9.26
  -5   6  -3  146.81    4.81
   5  -6   3  171.84    8.62
   5   6   3  159.03   25.26
  -5  -6  -4   41.70   21.11
  -5  -6  -4   34.37    5.68
  -5  -6  -4   45.98    6.38
  -5   6  -4  105.68   11.87
  -5   6  -4   38.47    4.27
   5  -6   4   37.64    5.44
   5   6   4   66.29   24.12
  -5  -6  -5   30.57   26.71
  -5  -6  -5    9.62    5.79
  -5  -6  -5    7.86    5.60
  -5   6  -5   16.85    3.77
   5  -6   5    9.05    4.26
   5   6   5   21.71   28.61
  -5  -6  -6   20.91    7.51
  -5   6  -6   22.38    5.01
   5  -6   6   25.91    5.94
  -5  -7   8   10.40    6.24
  -5  -7   8    2.08    4.12
  -5   7   8   11.77    6.39
  -5   7   8    7.24    3.91
   5  -7  -8    6.67    5.48
  -5  -7   7  159.74    9.76
  -5  -7   7  126.47    8.18
  -5   7   7  115.16    9.17
  -5   7   7  120.58    6.16
   5  -7  -7  177.99    8.44
   5   7  -7  149.02   10.15
  -5  -7   6  111.60   29.29
  -5  -7   6  102.03    7.76
  -5  -7   6   72.70    6.18
  -5   7   6   63.64    7.23
  -5   7   6   81.49    5.02
   5  -7  -6   89.96    5.76
   5   7  -6   89.72    7.76
  -5  -7   5  181.69   23.52
  -5  -7   5  292.47   35.13
  -5  -7   5  302.27    9.96
  -5   7   5  130.51   18.03
  -5   7   5  194.73    9.38
   5  -7  -5  271.93   24.20
   5  -7  -5  224.77    8.13
   5   7  -5  220.53    8.83
  -5  -7   4  -12.29   15.18
  -5  -7   4   -2.76   15.36
  -5  -7   4   -3.40    3.36
  -5   7   4    7.91   10.92
  -5   7   4    2.67    2.75
   5  -7  -4   16.10   12.48
   5   7  -4   -1.28    2.92
  -5  -7   3  118.55   18.68
  -5  -7   3  201.10   23.68
  -5  -7   3  178.95   12.04
  -5   7   3  121.23   15.15
  -5   7   3  146.01    5.68
   5  -7  -3  196.47   16.35
   5   7  -3  128.00    6.77
  -5  -7   2  267.16   25.08
  -5  -7   2  411.69   27.70
  -5  -7   2  474.46   11.40
  -5   7   2  261.27   14.28
  -5   7   2  480.90    8.00
   5  -7  -2  530.94   17.58
   5   7  -2  305.95    9.18
  -5  -7   1  187.64   23.03
  -5  -7   1  399.92   12.30
  -5   7   1  229.71    9.35
  -5   7   1  220.38   14.85
  -5   7   1  436.69    6.61
   5   7  -1  264.94    8.87
  -5  -7   0    5.76   13.82
  -5  -7   0   -5.43    2.92
  -5  -7   0   -1.60    3.24
  -5   7   0    0.80    1.14
   5   7   0    3.00   14.78
  -5  -7  -1  137.00   19.92
  -5  -7  -1  115.72    7.21
  -5  -7  -1  175.34    7.84
  -5   7  -1  155.12    3.38
   5  -7   1  130.37    6.62
   5   7   1  152.09   25.32
  -5  -7  -2  337.06   30.40
  -5  -7  -2  287.28    9.73
  -5  -7  -2  420.89   11.68
   5  -7   2  333.85   10.14
   5   7   2  345.29   32.93
  -5  -7  -3   51.15   20.39
  -5  -7  -3   82.93    7.67
  -5  -7  -3  111.62    7.87
  -5   7  -3   73.53    3.68
   5  -7   3   71.97   10.00
   5   7   3   60.35   24.41
  -5  -7  -4   51.15   24.38
  -5  -7  -4   27.33    5.53
  -5  -7  -4   41.65    6.43
  -5   7  -4   27.61    3.24
   5  -7   4   23.21    4.76
   5   7   4   30.98   27.28
  -5  -7  -5    1.52   30.32
  -5  -7  -5   22.51    6.26
  -5  -7  -5   11.22    6.19
  -5   7  -5    6.63    3.41
   5  -7   5   10.27    4.38
   5   7   5   27.35   34.56
  -5   7  -6   48.53    5.91
   5  -7   6   45.34    6.65
  -5  -8   8    7.73    6.44
  -5  -8   8    2.02    4.46
  -5   8   8   -3.23    7.44
  -5   8   8    0.26    3.69
   5  -8  -8   12.94    5.65
  -5  -8   7   90.77    9.45
  -5  -8   7   77.07    7.47
  -5   8   7   68.53    7.88
  -5   8   7   67.70    5.28
   5  -8  -7   95.94    9.69
   5   8  -7   87.28    9.60
  -5  -8   6  103.41    8.20
  -5  -8   6   71.78    6.47
  -5   8   6   79.77    7.72
  -5   8   6   96.92    7.00
   5  -8  -6  102.04    5.64
   5   8  -6   67.79    7.60
  -5  -8   5    3.86   25.56
  -5  -8   5   20.52    4.61
  -5  -8   5    9.37    3.61
  -5   8   5    4.78    4.04
   5  -8  -5   11.26    1.82
   5   8  -5    3.53    3.84
  -5  -8   4  149.65   26.28
  -5  -8   4  224.68   26.97
  -5  -8   4  231.77    9.02
  -5   8   4  114.02   14.34
  -5   8   4  152.79    6.99
   5  -8  -4  254.27   22.23
   5   8  -4  154.05    7.82
  -5  -8   3  -19.51   15.64
  -5  -8   3    7.79   18.02
  -5  -8   3    8.18    3.82
  -5   8   3    0.76    9.06
  -5   8   3    2.31    2.42
   5  -8  -3    8.62    9.56
   5   8  -3    7.93    3.51
  -5  -8   2   46.89   17.05
  -5  -8   2   37.52   18.33
  -5  -8   2   27.54    4.53
  -5   8   2   11.17   10.83
  -5   8   2   28.17    3.29
   5  -8  -2   27.06    7.70
   5   8  -2   21.88    4.30
  -5  -8   1   35.08   16.28
  -5  -8   1   62.88    5.90
  -5   8   1   57.60    3.17
   5   8  -1   46.65    5.28
  -5  -8   0  109.13   19.63
  -5  -8   0  110.21    7.16
  -5  -8   0  214.40    8.44
  -5   8   0  241.95    4.29
   5   8   0  201.50   25.13
  -5  -8  -1   66.72   19.38
  -5  -8  -1   73.92    6.97
  -5  -8  -1  123.96    7.70
  -5   8  -1  111.30    2.75
   5  -8   1   84.23    6.03
   5   8   1  124.78   21.79
  -5  -8  -2    2.46   18.94
  -5  -8  -2    5.76    4.14
  -5  -8  -2    9.90    4.32
   5  -8   2    3.27    3.65
   5   8   2  -28.89   19.20
  -5  -8  -3   -8.80   21.95
  -5  -8  -3   18.03    5.12
  -5  -8  -3   16.68    5.35
  -5   8  -3   12.83    2.03
   5  -8   3   16.58    4.31
   5   8   3   40.85   24.75
  -5  -8  -4  113.22   32.35
  -5  -8  -4  104.12    9.99
  -5  -8  -4  154.59   10.14
  -5   8  -4  113.91    5.01
   5  -8   4  112.57    7.97
   5   8   4  113.97   34.41
  -5  -8  -5   55.43    8.89
  -5   8  -5   28.87    4.29
   5  -8   5   36.17    6.01
  -5  -9   7   14.48    6.04
  -5  -9   7   10.95    4.65
  -5   9   7   17.81    6.64
   5  -9  -7   19.12    4.58
  -5  -9   6   39.41    6.10
  -5  -9   6   25.17    5.21
  -5   9   6   20.05    5.98
  -5   9   6   23.58    2.96
   5  -9  -6   30.20    4.67
   5   9  -6   30.96    6.16
  -5  -9   5  102.82    7.86
  -5  -9   5   69.93    6.43
  -5   9   5   67.50    6.92
  -5   9   5   79.96    4.18
   5   9  -5   72.92    7.34
  -5  -9   4   18.22   24.35
  -5  -9   4   28.13    4.72
  -5   9   4   18.86   13.75
  -5   9   4   19.42    3.81
   5   9  -4   11.82    4.23
  -5  -9   3   14.56   18.61
  -5  -9   3   45.61   21.93
  -5  -9   3   40.12    5.04
  -5   9   3   17.59   10.12
  -5   9   3   26.96    3.60
   5  -9  -3   30.70   16.60
   5   9  -3   25.67    4.61
  -5  -9   2   42.26   19.01
  -5  -9   2   53.21   21.32
  -5  -9   2   63.96    6.71
  -5   9   2   23.52    7.25
  -5   9   2   55.12    4.07
   5   9  -2   40.39    5.22
  -5  -9   1  203.83   24.34
  -5  -9   1  176.58    8.07
  -5  -9   1  370.77   10.65
  -5   9   1  323.63    7.12
   5   9  -1  233.04    9.45
  -5  -9   0  -26.09   18.13
  -5  -9   0    2.63    3.71
  -5  -9   0   -2.53    3.86
  -5   9   0    3.23    1.34
   5   9   0   -2.59   17.72
  -5  -9  -1  196.36   25.56
  -5  -9  -1  213.04    9.60
  -5  -9  -1  390.13   11.58
  -5   9  -1  426.89    4.30
   5   9   1  306.01   31.56
  -5  -9  -2   80.57   24.63
  -5  -9  -2  137.30    8.94
  -5  -9  -2  192.95    9.81
   5  -9   2  143.58    7.80
   5   9   2  118.62   26.68
  -5  -9  -3   87.00    8.57
  -5  -9  -3  172.45   10.47
  -5   9  -3  114.24    3.71
   5  -9   3  129.67    7.75
  -5  -9  -4   45.69    7.64
  -5  -9  -4   69.95    8.44
  -5   9  -4   51.31    4.38
   5  -9   4   48.08    6.58
  -5  -9  -5   62.61   11.12
  -5   9  -5   56.00    5.62
   5  -9   5   48.28    6.97
  -5 -10   7   53.16    7.26
  -5 -10   7   39.77    6.43
  -5  10   7   36.29    7.93
  -5 -10   6  196.29   10.30
  -5 -10   6  144.49    8.61
  -5  10   6  135.60   10.39
   5  10  -6  159.80   11.07
  -5 -10   5   31.77    5.70
  -5 -10   5   14.49    4.54
  -5  10   5   22.40    5.00
   5  10  -5   25.79    5.99
  -5 -10   4   62.99    7.60
  -5 -10   4   41.73    5.47
  -5  10   4   31.21    4.56
   5  10  -4   26.55    5.69
  -5 -10   3   53.60   27.51
  -5 -10   3   61.29    7.26
  -5  10   3   -0.12   10.71
  -5  10   3   37.99    4.18
   5 -10  -3   53.11   12.55
   5  10  -3   42.76    5.90
  -5 -10   2   72.74   25.69
  -5 -10   2   45.43    5.52
  -5 -10   2  107.01    7.91
  -5  10   2   47.19    7.25
  -5  10   2   62.08    4.62
   5  10  -2   61.48    7.33
  -5 -10   1   33.70   24.35
  -5 -10   1   54.88    6.69
  -5 -10   1  114.23    8.27
  -5  10   1   77.13    3.98
   5  10  -1   59.03    7.09
  -5 -10   0   72.91    7.29
  -5 -10   0  136.24    8.91
  -5  10   0  106.15    3.38
  -5 -10  -1   16.70    5.30
  -5 -10  -1   41.34    6.11
  -5  10  -1   35.62    1.84
  -5 -10  -2   64.47    7.89
  -5 -10  -2   85.06    8.43
  -5 -10  -3    7.69    6.27
  -5 -10  -3    5.86    6.26
  -5  10  -3    3.45    1.70
   5 -10   3    6.26    4.27
  -5 -10  -4   72.25    9.76
  -5  10  -4   64.92    5.21
   5 -10   4   32.63    5.79
  -5 -11   6  160.20   10.29
  -5 -11   6  100.06    8.21
  -5  11   6  122.29   11.20
  -5 -11   5   22.31    5.81
  -5 -11   5   16.28    4.51
  -5  11   5   18.11    5.82
   5  11  -5   20.38    6.48
  -5 -11   4   -6.75    4.52
  -5 -11   4    1.39    3.57
  -5  11   4    1.84    4.10
   5  11  -4   -0.34    4.97
  -5 -11   3  186.72    9.60
  -5 -11   3  447.94   12.49
  -5  11   3  201.73   22.70
  -5  11   3  232.00    8.13
   5  11  -3  260.13   11.44
  -5 -11   2   82.20    7.82
  -5 -11   2  202.75    9.91
  -5  11   2  111.42    5.77
   5  11  -2  113.04    9.09
  -5 -11   1   43.29    5.67
  -5 -11   1   83.45    8.47
  -5  11   1   47.42    4.04
  -5 -11   0   15.31    5.34
  -5 -11   0   46.84    6.84
  -5  11   0   37.24    2.97
  -5 -11  -1   -4.95    4.89
  -5 -11  -1    6.93    5.85
  -5  11  -1    2.21    1.18
  -5 -11  -2   89.17   10.03
  -5 -11  -2  162.07   11.31
   5 -11   2  110.05    7.53
  -5 -11  -3   22.35    7.25
  -5 -11  -3    2.29    6.88
   5 -11   3    0.45    4.22
  -5 -12   5   13.00    6.13
  -5 -12   5   48.47    6.62
  -5 -12   5   30.03    5.62
  -5  12   5   13.42    6.57
  -5 -12   4   23.09    5.78
  -5 -12   4   82.06    8.66
  -5 -12   4   43.96    6.01
  -5  12   4   41.39    5.85
  -5 -12   3    0.63    5.16
  -5 -12   3    0.87    5.16
  -5 -12   3    4.84    3.78
  -5  12   3    5.26    3.92
   5  12  -3    2.99    5.77
  -5 -12   2    3.62    5.35
  -5 -12   2   -2.84    5.15
  -5  12   2    4.49    3.13
   5  12  -2   -6.11    5.24
  -5 -12   1   -0.53    5.09
  -5 -12   1    8.31    6.04
  -5  12   1    6.00    2.63
  -5 -12   0   41.77    6.89
  -5 -12   0   88.61    9.95
  -5  12   0   36.76    3.53
  -5 -12  -1   35.19    6.92
  -5 -12  -1   87.08    9.09
  -5 -12  -2   14.70    7.12
  -5 -12  -2   13.18    7.76
   5 -12   2   11.06    4.63
  -5 -13   3   12.33    5.90
  -5 -13   3    9.92    5.89
  -5 -13   3   21.23    5.22
  -5  13   3   14.76    8.10
  -5 -13   2   41.00    6.67
  -5 -13   2   74.60    7.93
  -5 -13   2   42.36    5.66
  -5  13   2   40.88    4.88
  -5 -13   1   17.27    6.33
  -5 -13   1   43.51    7.63
  -5 -13   1   27.47    5.56
  -5  13   1   23.19    3.67
  -5 -13   0   57.78    7.88
  -5 -13   0  133.47   11.88
  -5 -13  -1   32.23    7.89
  -5 -13  -1   24.16    8.32
  -6   0   9    1.86    6.97
  -6   0   9   -1.82    3.89
   6   0  -9   -2.40    7.36
  -6   0   8   43.22    6.86
  -6   0   8   53.10    6.35
   6   0  -8   81.60    8.70
  -6   0   7  231.11   29.30
  -6   0   7  211.70    9.65
   6   0  -7  210.20   26.85
   6   0  -7  215.99    9.15
  -6   0   6  780.34   37.48
  -6   0   6  391.82   11.40
   6   0  -6  374.32   28.79
   6   0  -6  368.83   10.45
  -6   0   5  129.24   21.24
  -6   0   5  110.94    6.92
   6   0  -5   99.70   17.23
  -6   0   4  185.66   20.63
  -6   0   4  163.50    7.22
   6   0  -4  121.83    5.89
  -6   0   3  257.48   19.95
  -6   0   3  373.20   23.52
  -6   0   3  372.04    9.26
   6   0  -3  239.74    6.92
  -6   0   2   24.17   10.14
  -6   0   2   11.09   10.17
  -6   0   2   19.60    3.48
   6   0  -2   16.26    2.81
  -6   0   1  975.77   29.69
  -6   0   1 1510.42   37.96
  -6   0   1 1523.44   16.60
  -6   0   0   47.02   11.66
  -6   0   0   78.42   12.87
  -6   0   0   55.60    4.67
  -6   0  -1  574.66   24.78
  -6   0  -1  844.17   12.89
   6   0   1  889.53   29.14
  -6   0  -2   -1.21   10.59
  -6   0  -2    7.56    3.29
   6   0   2   20.28   12.74
  -6   0  -3    2.24   12.87
  -6   0  -3    2.77    3.43
  -6   0  -3    5.82    3.41
   6   0   3   11.85   13.61
  -6   0  -4   53.33    6.65
  -6   0  -5   82.56    8.20
   6   0   5  115.63    8.52
  -6   0  -6   -6.68    6.09
   6   0   6    2.59    4.35
  -6  -1   9  152.05   11.92
  -6  -1   9  158.39    9.62
  -6   1   9  165.76   12.37
  -6   1   9  173.90    9.55
  -6  -1   8   10.32    5.74
  -6  -1   8    3.69    3.73
  -6   1   8    7.86    5.50
  -6   1   8    3.87    3.82
   6  -1  -8    5.09    4.99
   6   1  -8    1.28    4.92
  -6  -1   7   -2.00   21.29
  -6  -1   7   15.37    4.80
  -6   1   7  -14.08   25.58
  -6   1   7   10.20    4.78
   6  -1  -7    9.56    4.53
   6   1  -7   57.65   21.43
   6   1  -7   15.51    4.56
  -6  -1   6  487.81   36.72
  -6  -1   6  399.39   11.62
  -6   1   6  387.29   31.36
  -6   1   6  384.04   10.97
   6  -1  -6  374.26   31.00
   6  -1  -6  381.24   10.37
   6   1  -6  380.09   30.63
   6   1  -6  374.39   10.72
  -6  -1   5   35.82   17.90
  -6  -1   5   40.40    4.82
  -6   1   5   50.85   16.38
  -6   1   5   26.08    4.91
   6  -1  -5   25.83   13.84
   6  -1  -5   29.31    3.89
   6   1  -5   67.69   15.75
   6   1  -5   27.47    4.23
  -6  -1   4  169.15   20.62
  -6  -1   4  168.84    7.33
  -6   1   4  188.58   20.61
  -6   1   4  151.66    6.65
   6  -1  -4  164.97   20.35
   6  -1  -4  118.50    5.59
   6   1  -4  112.24    5.96
  -6  -1   3  179.06   19.78
  -6  -1   3  300.81   23.20
  -6  -1   3  284.38    8.45
  -6   1   3  209.35   18.96
  -6   1   3  258.60   21.11
  -6   1   3  291.82    8.15
   6  -1  -3  187.08    5.95
   6   1  -3  192.30    6.72
  -6  -1   2  660.00   27.02
  -6  -1   2 1109.61   33.56
  -6  -1   2 1097.17   14.87
  -6   1   2  658.57   25.40
  -6   1   2 1210.17   32.94
  -6   1   2 1099.27   14.11
   6  -1  -2  688.18    9.51
   6   1  -2  719.04   11.16
  -6  -1   1   89.00   13.60
  -6  -1   1  126.02   16.01
  -6  -1   1   95.34    5.56
  -6   1   1   55.32   11.10
  -6   1   1  120.81   14.19
  -6   1   1  101.16    5.13
  -6  -1   0   12.92   10.14
  -6  -1   0   46.45    4.39
  -6   1   0   23.35   10.04
  -6   1   0   80.95   12.03
  -6   1   0   44.31    4.15
  -6  -1  -1   51.78   12.38
  -6  -1  -1   56.77    5.03
  -6   1  -1   27.37   10.89
  -6   1  -1   52.76    4.51
   6   1   1   49.58   13.45
  -6  -1  -2  291.17   22.84
  -6  -1  -2  394.16    9.94
  -6   1  -2  275.93   20.43
  -6   1  -2  397.65    9.36
   6  -1   2  344.49   22.34
   6   1   2  398.51   26.38
  -6  -1  -3   49.44   15.47
  -6  -1  -3   50.26    6.15
  -6  -1  -3   71.29    6.49
  -6   1  -3   18.24   12.25
  -6   1  -3   52.13    5.47
  -6   1  -3   63.09    5.59
   6  -1   3   76.04   16.21
   6   1   3   97.27   17.88
  -6  -1  -4   -1.28    3.88
  -6  -1  -4   -2.61    3.77
  -6   1  -4    2.35    3.74
   6  -1   4    3.98    3.65
  -6  -1  -5    8.56    5.00
  -6   1  -5   15.86    4.91
   6  -1   5   13.28    4.76
  -6  -1  -6   20.22    7.11
  -6   1  -6   27.77    6.72
   6  -1   6   25.51    5.97
   6   1   6   20.90    5.13
  -6  -2   9    3.19    7.56
  -6  -2   9   -7.45    4.09
  -6   2   9    7.25    7.19
  -6   2   9    1.92    4.30
   6  -2  -9   -9.89    6.50
  -6  -2   8   87.46    9.83
  -6  -2   8   62.35    6.64
  -6   2   8   94.81    9.66
  -6   2   8   74.81    7.08
   6  -2  -8  106.40    9.27
   6   2  -8   84.20    8.68
  -6  -2   7  -24.24   22.79
  -6  -2   7    2.22    4.42
  -6   2   7   15.26    4.87
   6  -2  -7   10.26    4.53
   6   2  -7   25.71   20.87
   6   2  -7    7.54    4.44
  -6  -2   6   21.91   22.33
  -6  -2   6    1.07    3.90
  -6   2   6   49.10   17.43
  -6   2   6    1.13    3.67
   6  -2  -6   -1.57   15.51
   6  -2  -6    5.87    3.40
   6   2  -6   18.11   18.09
   6   2  -6    1.38    3.58
  -6  -2   5   83.47   20.28
  -6  -2   5   63.60    6.22
  -6   2   5   11.39   13.43
   6  -2  -5   78.91   15.51
   6  -2  -5   48.22    4.79
   6   2  -5   13.92   14.95
   6   2  -5   48.41    5.18
  -6  -2   4   81.44   16.38
  -6  -2   4  156.72   20.40
  -6  -2   4  149.20    8.53
  -6   2   4  156.92   18.89
  -6   2   4  155.64    6.61
   6  -2  -4   86.66   15.21
   6  -2  -4  100.73    5.13
  -6  -2   3   67.87   13.85
  -6  -2   3  136.34   17.59
  -6  -2   3  151.85    6.71
  -6   2   3  177.50   19.20
  -6   2   3  144.88    6.19
   6  -2  -3   99.58    4.47
   6   2  -3   91.79    5.57
  -6  -2   2   45.34   12.51
  -6  -2   2   57.07   13.30
  -6  -2   2   62.81    5.35
  -6   2   2   33.59   10.39
  -6   2   2   82.53   13.22
  -6   2   2   64.62    4.49
   6   2  -2   46.09    4.28
  -6  -2   1   13.70   11.02
  -6  -2   1   16.41   11.64
  -6  -2   1   12.01    3.16
  -6   2   1   10.56    8.13
  -6   2   1   20.39    8.91
  -6   2   1   11.63    2.64
  -6  -2   0   64.15   13.13
  -6  -2   0   70.62    5.36
  -6   2   0   32.41    8.73
  -6   2   0   73.53   10.93
  -6   2   0   73.57    4.51
  -6  -2  -1   -8.02   11.31
  -6  -2  -1   -1.00    2.84
  -6   2  -1    1.56    8.31
  -6   2  -1    5.39    8.70
  -6   2  -1    2.96    2.25
   6   2   1  -13.59   11.70
  -6  -2  -2   30.13   14.17
  -6  -2  -2   55.63    6.55
  -6   2  -2   51.80   10.82
  -6   2  -2   56.10    4.62
   6  -2   2   81.25   12.10
   6   2   2   84.39   16.98
  -6  -2  -3   63.28   17.69
  -6  -2  -3   63.44    6.34
  -6  -2  -3   98.03    6.99
  -6   2  -3   64.68   13.08
  -6   2  -3   67.93    5.68
  -6   2  -3   82.68    5.80
   6  -2   3   86.19   18.00
   6   2   3   60.55   18.35
  -6  -2  -4   14.42   23.77
  -6  -2  -4   44.77    5.75
  -6  -2  -4   84.79    7.59
  -6   2  -4   56.90    6.19
   6  -2   4   77.45    6.66
  -6  -2  -5  149.27   10.26
  -6  -2  -5  193.10   10.76
  -6   2  -5  132.53    8.71
   6  -2   5  183.65    9.86
  -6   2  -6    3.30    5.82
   6  -2   6   16.05    5.53
  -6  -3   9   19.15    7.85
  -6  -3   9   -4.62    4.08
  -6   3   9   13.41    8.18
  -6   3   9    9.37    4.58
   6  -3  -9   16.76    6.95
  -6  -3   8  166.27   11.14
  -6  -3   8  146.28    8.95
  -6   3   8  165.55   10.95
  -6   3   8  156.51    8.33
   6  -3  -8  186.21   10.31
   6   3  -8  189.79   11.09
  -6  -3   7   30.03   27.71
  -6  -3   7   41.67    5.95
  -6  -3   7   47.95    5.57
  -6   3   7   48.02    6.21
   6  -3  -7   58.93    6.16
   6   3  -7    5.04   23.00
   6   3  -7   49.12    6.47
  -6  -3   6  203.09   28.57
  -6  -3   6  174.91    8.52
  -6   3   6  127.39   22.65
  -6   3   6  148.64    7.77
   6  -3  -6  216.24   25.91
   6   3  -6  174.08   25.60
   6   3  -6  185.75    8.60
  -6  -3   5  240.29   30.03
  -6  -3   5  280.93    9.42
  -6   3   5  202.04   23.89
   6  -3  -5  219.75   23.73
   6  -3  -5  200.78    6.93
   6   3  -5  221.67    8.39
  -6  -3   4  152.18   19.36
  -6  -3   4  237.01   24.65
  -6  -3   4  223.62    8.56
  -6   3   4  356.22   24.15
  -6   3   4  241.56    8.00
   6  -3  -4   53.76   11.95
   6  -3  -4  153.42    5.51
   6   3  -4  154.36    7.15
  -6  -3   3   53.78   14.19
  -6  -3   3  104.20   17.00
  -6  -3   3  108.26    6.10
  -6   3   3  115.80   15.68
  -6   3   3   99.48    5.49
   6  -3  -3   63.17    3.48
   6   3  -3   71.13    6.26
  -6  -3   2  384.68   24.51
  -6  -3   2  608.19   29.03
  -6  -3   2  666.91   12.53
  -6   3   2  405.82   19.98
  -6   3   2  732.49   25.30
  -6   3   2  693.70   10.82
   6   3  -2  428.53    9.78
  -6  -3   1  313.44   23.31
  -6  -3   1  481.71   26.48
  -6  -3   1  582.67   11.76
  -6   3   1  358.74   17.31
  -6   3   1  731.89   23.35
  -6   3   1  615.55    9.79
  -6  -3   0   95.05   15.49
  -6  -3   0  152.51    6.91
  -6   3   0   82.96   10.40
  -6   3   0  148.92    5.37
   6   3   0  143.17   18.43
  -6  -3  -1  139.53   18.11
  -6  -3  -1  228.60    8.40
  -6   3  -1  146.95   14.49
  -6   3  -1  290.86   17.37
  -6   3  -1  236.75    6.52
   6   3   1  169.94   20.32
  -6  -3  -2   58.89   16.16
  -6  -3  -2   94.06    6.74
  -6  -3  -2  144.40    7.48
  -6   3  -2   82.79   11.89
  -6   3  -2  128.54    5.58
   6   3   2  121.05   20.51
  -6  -3  -3  109.66   20.25
  -6  -3  -3  150.07    8.21
  -6  -3  -3  194.31    8.96
  -6   3  -3  126.10   14.67
  -6   3  -3  156.01    6.62
   6  -3   3  185.89    8.53
   6   3   3  187.68   24.51
  -6  -3  -4   16.56   20.52
  -6  -3  -4   62.37    7.43
  -6  -3  -4   63.77    6.82
  -6   3  -4   53.90    5.97
   6  -3   4   48.13    5.78
  -6  -3  -5   19.69    5.74
  -6  -3  -5   11.31    5.98
  -6   3  -5    6.30    4.44
   6  -3   5   22.32    5.07
  -6  -3  -6   15.46    7.04
  -6   3  -6    1.47    6.01
   6  -3   6    2.44    5.03
  -6  -4   9   34.67    8.34
  -6  -4   9   31.96    6.55
  -6   4   9   48.72    6.57
   6  -4  -9   51.06    7.85
  -6  -4   8  244.41   49.72
  -6  -4   8  197.82   11.37
  -6  -4   8  167.48    9.77
  -6   4   8  164.79   11.40
   6  -4  -8  219.22   10.48
   6   4  -8  189.04   49.59
   6   4  -8  213.16   12.12
  -6  -4   7  192.51   34.57
  -6  -4   7  109.91    8.98
  -6  -4   7   70.07    6.64
  -6   4   7   73.61    7.91
   6  -4  -7  100.17    7.50
   6   4  -7  106.24   25.71
   6   4  -7   80.40    7.95
  -6  -4   6   50.72   25.28
  -6  -4   6   61.30    7.00
  -6   4   6   46.68    5.68
   6  -4  -6   48.09    4.93
   6   4  -6   43.35    5.75
  -6  -4   5   48.48   28.07
  -6  -4   5   96.99   22.63
  -6  -4   5   78.37    6.68
  -6   4   5   69.23   19.37
   6  -4  -5   48.97    4.68
   6   4  -5   40.49    4.88
  -6  -4   4    1.35   16.07
  -6  -4   4    7.76    3.54
  -6   4   4   11.93   12.12
  -6   4   4   12.41    3.42
   6  -4  -4   17.49   10.94
   6  -4  -4    9.00    2.89
   6   4  -4   15.14    3.66
  -6  -4   3  158.89   21.04
  -6   4   3  158.55   17.02
  -6   4   3  169.44    6.35
   6  -4  -3   92.06    3.22
   6   4  -3  115.32    6.42
  -6  -4   2   32.91   13.53
  -6  -4   2   71.55   16.75
  -6  -4   2   71.46    5.66
  -6   4   2   56.30   10.14
  -6   4   2   90.63   13.09
  -6   4   2   78.04    4.61
   6   4  -2   48.32    5.81
  -6  -4   1  118.75   17.72
  -6  -4   1  161.64   19.85
  -6  -4   1  194.04    7.86
  -6   4   1  141.36   13.55
  -6   4   1  248.65   16.67
  -6   4   1  190.65    5.86
   6   4  -1  125.55    7.26
  -6  -4   0  197.75   22.20
  -6  -4   0  307.32   14.86
  -6   4   0  222.05   14.43
  -6   4   0  402.73   17.32
  -6   4   0  327.99    6.99
   6   4   0  288.54   25.01
  -6  -4  -1    4.71   13.83
  -6  -4  -1   -0.08    3.36
  -6   4  -1   -3.90    6.97
  -6   4  -1    4.93    7.74
  -6   4  -1   -0.22    1.85
   6   4   1   10.74   14.79
  -6  -4  -2  -18.73   14.55
  -6  -4  -2    8.20    3.89
  -6  -4  -2    5.17    3.59
  -6   4  -2    6.91    8.11
  -6   4  -2    5.09    9.03
  -6   4  -2    4.10    2.32
   6   4   2   12.56   16.78
  -6  -4  -3   26.62   19.17
  -6  -4  -3   43.64    5.68
  -6  -4  -3   73.24    7.65
  -6   4  -3   31.38   11.37
  -6   4  -3   50.89    4.89
   6  -4   3   46.13    5.67
   6   4   3   72.68   22.40
  -6  -4  -4   78.34   24.07
  -6  -4  -4  100.88    8.26
  -6  -4  -4  133.95    8.94
   6  -4   4  127.13    8.02
  -6  -4  -5    5.14    5.80
  -6  -4  -5    0.79    5.93
  -6   4  -5    6.45    4.48
   6  -4   5   -0.35    3.83
  -6  -4  -6   47.96    8.94
  -6   4  -6   46.05    6.78
   6  -4   6   48.41    7.21
  -6  -5   9   23.81    8.87
   6  -5  -9   22.81    7.47
  -6  -5   8   15.40    6.73
  -6  -5   8   14.67    5.11
  -6   5   8   36.78    7.42
  -6   5   8   28.99    5.10
   6  -5  -8   35.30    6.24
   6   5  -8   18.34   34.14
  -6  -5   7  243.06   39.01
  -6  -5   7  196.62   10.82
  -6  -5   7  162.65    8.80
  -6   5   7  173.54   10.35
  -6   5   7  156.18    7.70
   6  -5  -7  180.73    8.65
   6   5  -7  174.18   10.19
  -6  -5   6   97.39   27.43
  -6  -5   6   39.44    5.90
  -6   5   6   38.07    5.46
   6  -5  -6   33.47    4.09
   6   5  -6   29.16    5.09
  -6  -5   5   66.45   19.84
  -6  -5   5   91.40   23.45
  -6  -5   5   46.90    5.81
  -6   5   5    8.79   15.02
  -6   5   5   38.48    6.43
   6  -5  -5   67.71   16.78
   6  -5  -5   43.01    4.16
   6   5  -5   42.14    5.41
  -6  -5   4   52.13   17.93
  -6  -5   4  126.61   23.06
  -6  -5   4  117.49    7.30
  -6   5   4  103.28   14.99
  -6   5   4   99.89    6.08
   6  -5  -4  104.38   14.96
   6  -5  -4   65.91    3.37
   6   5  -4   83.77    6.54
  -6  -5   3  376.19   28.90
  -6  -5   3  650.87   33.72
  -6  -5   3  693.69   13.64
  -6   5   3  528.17   23.74
  -6   5   3  690.87   11.34
   6  -5  -3  511.98   22.79
   6   5  -3  446.96   10.96
  -6  -5   2   81.62   18.30
  -6  -5   2   85.09    6.08
  -6   5   2   55.17    9.85
  -6   5   2   98.33   11.81
  -6   5   2   92.79    4.81
   6   5  -2   62.15    5.46
  -6  -5   1  212.12   24.23
  -6  -5   1  278.73   27.92
  -6  -5   1  345.43   10.03
  -6   5   1  209.63   14.08
  -6   5   1  404.27   17.20
  -6   5   1  371.13    7.44
   6   5  -1  233.31    8.30
  -6  -5   0  197.68   23.87
  -6  -5   0  404.83   10.95
  -6   5   0  216.21   12.64
  -6   5   0  598.85   18.21
  -6   5   0  409.05    7.47
   6   5   0  392.08   29.55
  -6  -5  -1   77.95   16.94
  -6  -5  -1   89.18    6.84
  -6   5  -1   52.34    7.73
  -6   5  -1  143.99   12.57
  -6   5  -1   86.08    4.22
   6   5   1   47.99   18.33
  -6  -5  -2   61.86   18.62
  -6  -5  -2   53.80    5.91
  -6  -5  -2   61.56    6.60
  -6   5  -2   48.82    8.26
  -6   5  -2  101.47    9.96
  -6   5  -2   53.45    4.02
   6   5   2   84.80   22.13
  -6  -5  -3   79.59   21.58
  -6  -5  -3   75.97    8.14
  -6  -5  -3  170.20    9.59
  -6   5  -3  195.08   15.72
  -6   5  -3   91.59    5.34
   6  -5   3  137.99    8.14
   6   5   3  112.50   24.99
  -6  -5  -4   22.40   23.78
  -6  -5  -4    5.59    5.22
  -6  -5  -4    3.35    5.28
  -6   5  -4   -4.59    3.34
   6  -5   4    4.78    3.82
  -6  -5  -5   13.03    6.53
  -6   5  -5   19.54    4.76
   6  -5   5    7.46    4.55
  -6  -6   8  168.23   12.80
  -6  -6   8  135.87    9.53
  -6   6   8  146.31   12.29
  -6   6   8  149.87    8.30
   6  -6  -8  180.93   10.44
  -6  -6   7  168.72   41.93
  -6  -6   7  145.81    9.87
  -6  -6   7  112.80    8.16
  -6   6   7  110.40    9.54
  -6   6   7  112.72    6.82
   6  -6  -7  149.33    8.29
   6   6  -7  114.56    9.75
  -6  -6   6  -23.43   26.84
  -6  -6   6   12.32    5.23
  -6   6   6    4.91    4.35
   6  -6  -6    7.78    3.29
   6   6  -6   12.85    4.73
  -6  -6   5   90.88   23.04
  -6  -6   5  107.32   26.50
  -6  -6   5  120.09    7.81
  -6   6   5  106.42    6.95
   6   6  -5   88.32    7.09
  -6  -6   4   46.99   19.71
  -6  -6   4  127.23   23.46
  -6  -6   4  131.31    7.75
  -6   6   4   88.75   14.50
  -6   6   4  111.06    6.41
   6  -6  -4   95.79   15.24
   6   6  -4   71.51    6.26
  -6  -6   3  209.59   24.32
  -6  -6   3  331.09   31.35
  -6  -6   3  335.98   10.45
  -6   6   3  223.76   18.48
  -6   6   3  305.45    8.02
   6  -6  -3  260.75   18.81
   6   6  -3  214.78    8.43
  -6  -6   2  104.66   18.64
  -6  -6   2  108.33    6.88
  -6   6   2   64.61    9.92
  -6   6   2   72.96   10.77
  -6   6   2  111.31    5.11
   6   6  -2   81.71    6.43
  -6  -6   1   22.05   16.16
  -6  -6   1   58.62   18.91
  -6  -6   1   53.95    5.67
  -6   6   1   14.68    6.73
  -6   6   1   37.14    8.24
  -6   6   1   54.65    3.84
   6   6  -1   31.59    4.55
  -6  -6   0   72.86   18.64
  -6  -6   0   86.53    6.43
  -6   6   0   58.86    6.77
  -6   6   0  102.86    9.94
  -6   6   0  113.75    4.31
   6   6   0   75.00   19.62
  -6  -6  -1  204.06   23.99
  -6  -6  -1  178.56    8.41
  -6  -6  -1  305.39   10.30
  -6   6  -1  202.47    7.26
  -6   6  -1  365.67    8.97
  -6   6  -1  268.01    5.91
   6   6   1  275.10   30.74
  -6  -6  -2   28.33   19.36
  -6  -6  -2   26.06    5.17
  -6  -6  -2   26.79    5.27
  -6   6  -2   10.02    1.22
  -6   6  -2   35.10    3.62
   6   6   2   11.53   22.17
  -6  -6  -3   56.00   22.93
  -6  -6  -3   40.12    6.19
  -6  -6  -3   77.80    8.45
  -6   6  -3   84.15    7.63
  -6   6  -3  108.42    8.63
  -6   6  -3   45.87    4.58
   6  -6   3   56.68    5.94
   6   6   3   62.63   27.29
  -6  -6  -4  108.45   28.70
  -6  -6  -4  111.10    9.89
  -6  -6  -4  123.25   10.75
  -6   6  -4  119.19   14.15
  -6   6  -4   98.06    6.17
   6  -6   4   81.87    7.14
  -6  -6  -5   29.55    8.07
  -6   6  -5   24.73    4.82
   6  -6   5   24.61    5.91
  -6  -7   8   29.32    7.62
  -6  -7   8   24.54    6.07
  -6   7   8   28.29    8.07
  -6   7   8   37.96    5.17
   6  -7  -8   36.50    6.49
  -6  -7   7   33.94    7.05
  -6  -7   7   21.25    4.72
  -6   7   7   16.77    6.52
  -6   7   7   36.38    4.74
   6  -7  -7   28.78    5.01
   6   7  -7   27.67    6.54
  -6  -7   6   49.91   34.07
  -6  -7   6   39.82    6.27
  -6  -7   6   23.23    4.82
  -6   7   6   31.58    5.90
   6  -7  -6   35.41    3.88
   6   7  -6   25.50    5.82
  -6  -7   5   47.70   26.19
  -6  -7   5   20.69    5.29
  -6   7   5   12.04    4.24
   6  -7  -5    8.64    1.71
   6   7  -5   14.63    4.93
  -6  -7   4  182.73   25.80
  -6  -7   4  348.14   37.13
  -6  -7   4  306.89   11.06
  -6   7   4  191.35   21.47
  -6   7   4  247.37    8.49
   6  -7  -4  239.86   23.05
   6   7  -4  195.73    9.18
  -6  -7   3   22.46   18.58
  -6  -7   3   16.79   21.26
  -6  -7   3    1.02    3.71
  -6   7   3   -6.26   10.26
  -6   7   3    4.39    2.69
   6  -7  -3    8.00   10.67
   6   7  -3    2.09    3.50
  -6  -7   2   19.87   17.51
  -6  -7   2   25.52   19.74
  -6  -7   2   40.05    5.21
  -6   7   2   30.59    9.13
  -6   7   2   21.75   10.93
  -6   7   2   35.84    3.84
   6   7  -2   24.79    4.72
  -6  -7   1  108.59   23.33
  -6  -7   1  186.98    8.58
  -6   7   1   81.91    9.85
  -6   7   1  109.39   10.84
  -6   7   1  213.17    5.65
  -6  -7   0   50.52   19.42
  -6  -7   0   81.33    7.14
  -6   7   0   78.30    3.75
   6   7   0   87.31   21.78
  -6  -7  -1   80.72   20.62
  -6  -7  -1   67.89    7.45
  -6  -7  -1  111.57    7.85
  -6   7  -1  106.28    4.08
   6   7   1   87.20   23.56
  -6  -7  -2    7.37   21.90
  -6  -7  -2   10.82    4.71
  -6  -7  -2   16.59    4.92
  -6   7  -2   11.29    2.30
   6  -7   2   15.38    3.96
   6   7   2  -45.54   21.98
  -6  -7  -3   85.66   27.03
  -6  -7  -3  129.19    9.87
  -6  -7  -3  202.64   10.70
  -6   7  -3  131.58    5.55
   6  -7   3  159.44    8.49
   6   7   3  173.42   34.20
  -6  -7  -4   84.56   31.11
  -6  -7  -4   26.45    8.90
  -6  -7  -4   13.61    6.78
  -6   7  -4   12.73    3.60
   6  -7   4   25.99    5.10
  -6   7  -5   45.29    5.35
   6  -7   5   34.77    6.66
  -6  -8   7   19.52    7.01
  -6  -8   7   11.65    5.00
  -6   8   7   17.50    7.27
  -6   8   7   16.26    4.07
   6  -8  -7   14.80    4.23
  -6  -8   6   12.06    6.14
  -6  -8   6   14.08    4.57
  -6   8   6   21.70    5.94
   6  -8  -6   18.08    2.65
   6   8  -6   11.19    5.80
  -6  -8   5   67.57   30.25
  -6  -8   5   49.94    6.44
  -6   8   5   30.17    5.53
   6   8  -5   33.24    6.10
  -6  -8   4   40.82   25.51
  -6  -8   4    0.68    4.80
  -6   8   4   -0.04    3.29
   6   8  -4    5.77    4.23
  -6  -8   3   53.49   21.51
  -6  -8   3  125.88   27.22
  -6  -8   3   96.54    8.27
  -6   8   3   40.89   11.83
  -6   8   3   63.28    5.13
   6  -8  -3   55.28   12.43
   6   8  -3   59.43    6.46
  -6  -8   2   11.19   19.34
  -6  -8   2    8.09   22.02
  -6  -8   2   65.18    7.57
  -6   8   2   53.72    9.07
  -6   8   2   56.92    9.04
  -6   8   2   80.03    4.66
   6   8  -2   54.74    6.21
  -6  -8   1   95.10   22.25
  -6  -8   1  127.04   27.34
  -6  -8   1  177.34    9.18
  -6   8   1  202.52    5.58
  -6  -8   0   63.06   21.93
  -6  -8   0    2.71    4.36
  -6  -8   0    9.46    4.85
  -6   8   0   10.94    2.09
   6   8   0   -6.30   21.76
  -6  -8  -1   41.39   22.46
  -6  -8  -1   60.38    6.84
  -6  -8  -1  110.86    8.23
  -6   8  -1   92.63    3.74
   6   8   1  120.98   25.89
  -6  -8  -2   17.25   24.18
  -6  -8  -2   11.13    5.61
  -6  -8  -2   25.72    6.29
  -6   8  -2   14.45    2.30
   6   8   2   -1.79   26.92
  -6  -8  -3   10.76    6.14
  -6  -8  -3    9.12    5.77
  -6   8  -3    1.74    2.42
   6  -8   3    9.79    4.37
  -6  -8  -4   -7.52    6.96
  -6   8  -4    4.92    3.41
   6  -8   4    4.02    4.14
  -6  -9   7   11.98    7.02
  -6  -9   7   -1.08    4.11
  -6   9   7   15.70    7.32
  -6  -9   6  109.33   10.85
  -6  -9   6   78.76    7.19
  -6   9   6   73.80    7.85
  -6   9   6   84.74    5.73
  -6  -9   5   22.59    5.92
  -6   9   5    6.91    4.74
   6   9  -5    0.26    5.12
  -6  -9   4  134.67   33.63
  -6  -9   4  126.24    9.29
  -6   9   4   93.95    7.20
   6   9  -4   72.29    8.30
  -6  -9   3   70.21   28.96
  -6  -9   3   22.98    5.50
  -6   9   3   -7.65   11.00
  -6   9   3   17.08    3.61
   6   9  -3   19.63    5.21
  -6  -9   2    6.35   25.74
  -6  -9   2   20.70    5.41
  -6   9   2    8.49    7.35
  -6   9   2   14.99    2.85
   6   9  -2    5.60    4.66
  -6  -9   1  102.78   30.38
  -6  -9   1   73.95    7.41
  -6  -9   1  145.89    9.47
  -6   9   1  131.84    4.93
  -6  -9   0   34.98    5.96
  -6  -9   0   54.16    6.86
  -6   9   0   64.12    3.61
  -6  -9  -1   38.45    6.18
  -6  -9  -1  106.79    9.46
  -6   9  -1  103.53    3.75
  -6  -9  -2   10.47    6.13
  -6  -9  -2   28.06    6.86
  -6   9  -2   27.21    3.12
  -6  -9  -3  139.28   12.09
  -6   9  -3   96.48    4.69
  -6   9  -3  114.30    4.85
   6  -9   3  129.40    8.82
   6  -9   4   34.59    6.07
  -6 -10   6   99.96   11.33
  -6 -10   6   38.79    6.48
  -6  10   6   46.71    7.85
  -6 -10   5   53.37    7.77
  -6 -10   5   42.18    5.91
  -6  10   5   33.41    6.17
  -6 -10   4   55.84    7.73
  -6  10   4   37.55    5.40
   6  10  -4   43.84    6.97
  -6 -10   3  226.76   11.05
  -6  10   3  140.47    7.40
   6  10  -3  116.91   10.00
  -6 -10   2   22.11   32.80
  -6 -10   2    7.64    5.55
  -6 -10   2   35.27    6.27
  -6  10   2   18.61    3.39
   6  10  -2   19.14    5.57
  -6 -10   1  -52.97   30.54
  -6 -10   1    5.44    5.27
  -6 -10   1   14.73    5.81
  -6  10   1   15.59    2.89
  -6 -10   0   91.94    9.30
  -6 -10   0  157.19   10.69
  -6  10   0  175.25    4.72
  -6 -10  -1   56.77    7.33
  -6 -10  -1  108.62   10.49
  -6  10  -1  130.17    3.67
  -6 -10  -2   38.78    7.96
  -6 -10  -2   65.98    8.83
  -6  10  -2   41.69    2.96
  -6  10  -2   67.02    3.10
  -6 -10  -3  167.06   15.37
   6 -10   3   89.79    7.74
  -6 -11   5    8.91    7.15
  -6 -11   5    6.84    4.65
  -6  11   5   11.90    6.32
  -6 -11   4  109.77   11.01
  -6 -11   4   75.82    7.60
  -6  11   4   78.11    8.47
  -6 -11   3   10.23    5.86
  -6 -11   3   30.05    7.03
  -6  11   3   15.72    4.50
  -6 -11   2   43.42    7.07
  -6 -11   2  107.65   10.52
  -6  11   2   62.65    5.73
   6  11  -2   76.53   11.88
  -6 -11   1   27.41    6.35
  -6 -11   1   51.21    7.64
  -6  11   1   36.35    3.69
  -6 -11   0   11.23    6.13
  -6 -11   0   23.59    7.28
  -6  11   0   28.45    2.75
  -6 -11  -1   12.28    6.73
  -6 -11  -1    6.64    7.24
  -6  11  -1    1.73    2.10
  -6 -11  -2   17.72    9.01
  -6 -12   3   15.96    7.04
  -6 -12   3   51.21    7.74
  -6  12   3   15.50    5.32
  -6 -12   2   38.17    7.49
  -6 -12   2   20.37    7.48
  -6  12   2   17.10    4.19
  -6 -12   1   10.26    6.81
  -6 -12   1   16.94    7.78
  -6  12   1    2.64    3.51
  -6 -12   0   15.59    7.87
  -6 -12   0   37.44    8.39
  -7   0   9    7.85    4.91
  -7   0   8   14.17    6.72
  -7   0   8    5.43    4.06
   7   0  -8    0.97    6.12
  -7   0   7   12.70    5.35
   7   0  -7   12.09    5.19
  -7   0   6   40.58    5.99
   7   0  -6   17.12    4.73
  -7   0   5  -10.23   19.40
  -7   0   5   12.00    4.21
   7   0  -5    3.07    3.35
  -7   0   4   52.25   15.32
  -7   0   4   70.03   19.16
  -7   0   4   62.79    6.35
   7   0  -4   54.46    5.41
  -7   0   3  -21.55   12.69
  -7   0   3   -5.70   14.08
   7   0  -3   -0.10    2.57
  -7   0   2  250.25   23.09
  -7   0   2  484.89   27.95
  -7   0   2  469.06   11.01
  -7   0   1   13.05   12.42
  -7   0   1    1.04   13.21
  -7   0   1    9.51    3.45
  -7   0   0   49.36   12.95
  -7   0   0   68.39   16.21
  -7   0   0   70.31    5.81
  -7   0  -1   51.24   14.13
  -7   0  -1    3.89    3.32
  -7   0  -2  117.03   21.74
  -7   0  -2  191.43    8.30
  -7   0  -3   24.09    4.97
  -7   0  -3   38.32    5.62
  -7   0  -4    7.51    5.05
  -7   0  -4    9.36    5.54
  -7   0  -5   45.90    7.94
  -7   0  -5   66.52    8.40
  -7  -1   8   56.28    8.03
  -7  -1   8   72.48    7.69
  -7   1   8   58.20    8.27
  -7   1   8   70.67    7.41
   7  -1  -8   79.22    9.61
   7   1  -8   68.36    8.00
  -7  -1   7   12.31    5.49
  -7   1   7    7.39    5.34
   7  -1  -7   11.07    4.95
   7   1  -7    8.23    5.02
  -7  -1   6   60.99    6.74
  -7   1   6   61.08    7.32
   7  -1  -6   55.30    6.50
   7   1  -6   62.22    6.91
  -7  -1   5   43.03   19.61
  -7  -1   5  129.85   23.71
  -7  -1   5  123.81    8.11
  -7   1   5  113.23   23.00
  -7   1   5  138.40    8.01
   7  -1  -5   87.47   20.30
   7  -1  -5   82.74    6.40
   7   1  -5   83.42    6.34
  -7  -1   4    1.27   15.20
  -7  -1   4   -0.02   16.92
  -7  -1   4   34.03    5.13
  -7   1   4    7.37   14.92
  -7   1   4   46.21   18.34
  -7   1   4   29.68    4.54
   7  -1  -4   19.62    3.45
   7   1  -4   14.59    3.85
  -7  -1   3  262.54   24.12
  -7  -1   3  475.07   31.29
  -7  -1   3  445.81   11.20
  -7   1   3  246.89   24.70
  -7   1   3  462.73   28.64
  -7   1   3  450.53   10.95
   7  -1  -3  254.53    7.24
   7   1  -3  281.39    8.45
  -7  -1   2  234.15   23.53
  -7  -1   2  381.12   27.79
  -7   1   2  267.30   22.22
  -7   1   2  521.55   28.35
  -7   1   2  472.61   10.79
   7   1  -2  286.39    8.18
  -7  -1   1   40.48   14.76
  -7  -1   1   44.11   14.98
  -7  -1   1   58.87    6.26
  -7   1   1   20.35   11.93
  -7   1   1   60.41   13.56
  -7   1   1   63.30    5.44
  -7  -1   0    6.65   12.75
  -7  -1   0   71.16   17.64
  -7   1   0   80.68   14.62
  -7   1   0   32.12   13.12
  -7   1   0   49.24    5.35
  -7  -1  -1   19.56   13.83
  -7  -1  -1    2.10    3.62
  -7   1  -1    7.25   12.03
  -7   1  -1    6.06   13.45
  -7   1  -1   10.23    3.66
  -7  -1  -2    6.03   17.11
  -7  -1  -2   61.85    6.61
  -7   1  -2   59.74    9.21
  -7  -1  -3   19.34    5.12
  -7  -1  -3   32.76    5.86
  -7   1  -3   22.69    4.71
  -7   1  -3   41.65    5.79
  -7  -1  -4   17.37    5.50
  -7  -1  -4   16.16    5.80
  -7   1  -4   30.50    5.30
  -7   1  -4   13.29    5.44
  -7  -1  -5   21.91    7.45
  -7  -1  -5   24.49    7.60
  -7   1  -5   11.32    6.72
  -7   1  -5   18.68    6.82
  -7  -2   8   73.22    8.87
  -7  -2   8   38.09    6.04
  -7   2   8   56.19    8.54
  -7   2   8   50.18    6.42
   7  -2  -8   85.22    9.51
   7   2  -8   50.65    7.78
  -7  -2   7   19.52    5.98
  -7   2   7   25.84    6.04
   7  -2  -7   38.61    5.93
   7   2  -7   21.41    6.04
  -7  -2   6    4.39   33.52
  -7  -2   6   14.81    4.99
  -7   2   6   20.07    5.39
   7  -2  -6   13.36    4.19
   7   2  -6   25.89    5.37
  -7  -2   5  111.68   20.70
  -7  -2   5  134.61   26.95
  -7  -2   5  121.36    7.78
  -7   2   5   48.65   24.54
  -7   2   5  122.64    7.43
   7  -2  -5   98.97    6.24
   7   2  -5   95.81    7.18
  -7  -2   4  317.64   28.92
  -7  -2   4  474.36   33.07
  -7  -2   4  429.67   11.62
  -7   2   4  459.28   31.27
  -7   2   4  453.26   11.42
   7  -2  -4  268.01    7.54
   7   2  -4  278.42    9.30
  -7  -2   3   45.46   16.86
  -7  -2   3  157.69   20.92
  -7  -2   3  134.87    7.54
  -7   2   3   71.75   14.52
  -7   2   3  138.72   18.82
  -7   2   3  138.79    7.04
   7  -2  -3   76.12    4.58
   7   2  -3   85.64    6.15
  -7  -2   2  144.21   19.32
  -7  -2   2  292.67   26.25
  -7  -2   2  260.30    9.09
  -7   2   2  196.50   20.18
  -7   2   2  282.63   22.72
  -7   2   2  276.81    8.48
   7   2  -2  174.39    7.36
  -7  -2   1  108.06   17.43
  -7  -2   1  154.29   21.16
  -7  -2   1  136.51    7.45
  -7   2   1   48.36   12.22
  -7   2   1  152.75   16.54
  -7   2   1  120.14    6.32
  -7  -2   0   96.55   17.91
  -7  -2   0  214.47   26.36
  -7  -2   0  186.82    8.33
  -7   2   0  119.92   15.81
  -7   2   0  278.63   21.70
  -7   2   0  201.67    7.32
  -7  -2  -1   58.79   15.91
  -7  -2  -1   93.74    7.01
  -7   2  -1   12.46   11.73
  -7   2  -1   83.97    5.95
   7   2   1   82.83   19.50
  -7  -2  -2   39.48   17.91
  -7  -2  -2    2.02    4.14
  -7   2  -2    4.27    3.24
  -7  -2  -3   15.94    5.02
  -7  -2  -3   34.21    5.72
  -7   2  -3   14.36    4.52
  -7   2  -3   28.53    4.84
  -7  -2  -4   11.16    5.93
  -7  -2  -4   15.23    6.38
  -7   2  -4   26.57    5.21
  -7   2  -4    5.65    5.19
  -7  -2  -5   20.19    7.31
  -7   2  -5   11.14    6.26
  -7   2  -5   14.79    6.55
  -7  -3   8   10.40    7.01
  -7  -3   8    7.66    4.82
  -7   3   8   -1.67    6.44
  -7   3   8    2.00    3.90
   7  -3  -8    4.04    6.10
  -7  -3   7   31.80    6.62
  -7   3   7   23.55    6.35
   7  -3  -7   11.51    4.85
   7   3  -7    7.39    5.44
  -7  -3   6  110.85   25.35
  -7  -3   6  132.20   31.90
  -7  -3   6  153.81    9.78
  -7   3   6  132.45    9.13
   7  -3  -6  112.22    7.25
   7   3  -6  120.23    8.12
  -7  -3   5  142.57   23.96
  -7  -3   5  347.63   38.67
  -7  -3   5  320.35   11.41
  -7   3   5  290.08    9.88
   7  -3  -5  210.39    7.45
   7   3  -5  222.74    9.31
  -7  -3   4   92.17   21.44
  -7  -3   4  182.98   24.49
  -7  -3   4  148.06    8.72
  -7   3   4  141.01   19.73
  -7   3   4  150.62    9.78
   7  -3  -4   92.03    4.94
   7   3  -4   98.21    7.24
  -7  -3   3   53.91   18.02
  -7  -3   3   73.69   19.44
  -7  -3   3  128.73    7.47
  -7   3   3   62.46   15.00
  -7   3   3  160.03   19.22
  -7   3   3  139.49    6.97
   7   3  -3   80.35    6.21
  -7  -3   2   80.73   18.89
  -7  -3   2  252.81   27.90
  -7  -3   2  248.20    9.07
  -7   3   2  117.24   14.96
  -7   3   2  261.74   22.44
  -7   3   2  254.86    8.06
   7   3  -2  156.75    7.50
  -7  -3   1   39.00   16.30
  -7  -3   1   30.31   17.24
  -7  -3   1   45.63    5.67
  -7   3   1   20.71   10.21
  -7   3   1   43.92   12.73
  -7   3   1   40.44    4.95
  -7  -3   0  122.91   20.11
  -7  -3   0  177.65    8.41
  -7   3   0   92.02   13.37
  -7   3   0  241.66   20.53
  -7   3   0  180.73    6.97
  -7  -3  -1   61.13   18.00
  -7  -3  -1  119.75    8.00
  -7   3  -1   51.85   12.52
  -7   3  -1  150.33   16.31
  -7   3  -1  111.03    6.11
   7   3   1  121.19   22.73
  -7  -3  -2    4.34   19.17
  -7  -3  -2   25.42    5.14
  -7  -3  -2   26.08    5.41
  -7   3  -2   13.81   13.89
  -7   3  -2   25.01    4.01
   7   3   2   15.54   23.17
  -7  -3  -3   46.57    6.38
  -7  -3  -3   67.11    7.25
  -7   3  -3   49.16    5.51
  -7   3  -3   68.32    7.53
  -7  -3  -4   99.93   10.76
  -7  -3  -4  151.03   10.43
  -7   3  -4   93.45    8.39
  -7   3  -4  133.44    8.93
  -7  -3  -5   54.05    9.19
  -7   3  -5   39.31    6.92
  -7  -4   8  304.83   15.15
  -7  -4   8  234.74   11.23
  -7   4   8  228.74   13.52
   7  -4  -8  285.71   12.27
  -7  -4   7  217.00   12.37
  -7   4   7  183.43   11.48
   7  -4  -7  192.78    9.39
   7   4  -7  172.27   11.12
  -7  -4   6   92.51   26.33
  -7  -4   6  112.00   32.96
  -7  -4   6  113.14    9.06
  -7   4   6   99.46    8.45
   7  -4  -6   95.27    6.76
   7   4  -6   81.41    7.93
  -7  -4   5   46.41   22.19
  -7  -4   5   66.59   26.00
  -7  -4   5   40.29    5.97
  -7   4   5   43.85    5.65
   7  -4  -5   32.03    3.84
   7   4  -5   29.75    5.29
  -7  -4   4  295.16   30.28
  -7  -4   4  402.88   36.62
  -7  -4   4  410.24   12.22
  -7   4   4  361.94   25.75
   7  -4  -4  235.49    7.96
   7   4  -4  247.80    9.28
  -7  -4   3  171.42   23.11
  -7  -4   3  226.39   27.85
  -7  -4   3  241.17    9.84
  -7   4   3  150.11   16.98
  -7   4   3  261.62    8.57
   7   4  -3  138.18    7.68
  -7  -4   2   77.93   19.06
  -7  -4   2   45.65   19.81
  -7  -4   2  101.59    7.40
  -7   4   2   49.54   11.71
  -7   4   2  115.19   17.27
  -7   4   2   98.08    6.02
   7   4  -2   55.22    5.72
  -7  -4   1  126.02   20.42
  -7  -4   1  209.40   25.69
  -7  -4   1  208.31    9.04
  -7   4   1   91.75   12.79
  -7   4   1  255.82   21.06
  -7   4   1  214.72    7.20
  -7  -4   0    0.49   17.15
  -7  -4   0    4.40    4.04
  -7   4   0    6.02   10.22
  -7   4   0    4.85   10.61
  -7   4   0   12.34    3.02
  -7  -4  -1  -12.85   17.46
  -7  -4  -1    7.97    4.34
  -7   4  -1    8.51   11.41
  -7   4  -1    2.14    2.61
   7   4   1  -29.30   18.86
  -7  -4  -2   25.61   21.32
  -7  -4  -2   36.32    6.14
  -7  -4  -2   65.81    7.88
  -7   4  -2   43.84   13.12
  -7   4  -2   61.43    5.54
   7   4   2   -3.06   24.13
  -7  -4  -3   37.44    6.76
  -7  -4  -3   51.39    7.27
  -7   4  -3   33.49    4.81
  -7   4  -3   51.29    6.14
  -7  -4  -4   89.76   12.65
  -7  -4  -4   93.01    9.50
  -7   4  -4   59.76    6.35
  -7   4  -4   64.55    7.86
  -7   4  -5   61.95    7.35
  -7  -5   8   42.73    9.23
  -7  -5   8   24.46    5.59
  -7   5   8   42.02    8.28
  -7   5   8   31.94    5.64
   7  -5  -8   32.13    6.84
  -7  -5   7   78.38    8.79
  -7   5   7   61.69    7.70
   7  -5  -7   66.72    7.59
   7   5  -7   58.37    8.28
  -7  -5   6   77.67   35.44
  -7  -5   6  104.27    9.22
  -7   5   6   99.05    9.20
   7  -5  -6   80.09    6.33
   7   5  -6   95.58    8.41
  -7  -5   5   33.37   23.10
  -7  -5   5   58.80   27.91
  -7  -5   5   80.80    8.52
  -7   5   5   63.71    6.36
   7  -5  -5   44.47    4.70
   7   5  -5   47.05    6.27
  -7  -5   4   58.58   21.78
  -7  -5   4  128.54   26.92
  -7  -5   4   71.89    7.87
   7   5  -4   61.38    6.39
  -7  -5   3  125.25   22.90
  -7  -5   3  247.94   27.91
  -7  -5   3  224.84    9.71
  -7   5   3  134.68   18.53
  -7   5   3  187.47   21.44
  -7   5   3  247.70    8.37
   7   5  -3  148.54    8.45
  -7  -5   2   44.39   20.31
  -7  -5   2  102.62   22.49
  -7  -5   2  106.55    7.57
  -7   5   2   20.51   11.45
  -7   5   2  200.90   20.13
  -7   5   2  115.88    6.08
   7   5  -2   60.16    6.48
  -7  -5   1   51.66   18.93
  -7  -5   1   60.50   22.80
  -7  -5   1   51.60    6.31
  -7   5   1   18.60   10.07
  -7   5   1   38.28   11.64
  -7   5   1   52.89    4.64
  -7  -5   0   42.93   19.14
  -7  -5   0   38.61    5.87
  -7   5   0   37.25    9.75
  -7   5   0   66.00   12.01
  -7   5   0   41.94    4.46
  -7  -5  -1  131.04   23.04
  -7  -5  -1  209.36    9.69
  -7   5  -1  307.68   18.11
  -7   5  -1  210.56    6.77
   7   5   1  190.27   29.55
  -7  -5  -2   18.59   22.63
  -7  -5  -2   42.73    6.16
  -7  -5  -2   42.26    6.76
  -7   5  -2   77.33   12.01
  -7   5  -2   42.62    5.13
   7   5   2   27.34   27.50
  -7  -5  -3   11.80    5.88
  -7  -5  -3    3.48    6.21
  -7   5  -3   13.48    4.88
  -7   5  -3    7.02    3.73
  -7  -5  -4   46.00    8.86
  -7   5  -4   21.56    5.08
  -7   5  -4   38.89    8.56
  -7  -6   7  290.57   14.07
  -7  -6   7  230.80   11.26
  -7   6   7  201.13   12.72
  -7  -6   6  125.28   55.19
  -7  -6   6  118.93   10.65
  -7   6   6  132.77    9.83
   7  -6  -6   96.24    5.92
   7   6  -6  101.38    9.82
  -7  -6   5   22.17   28.28
  -7  -6   5   23.79    5.69
  -7   6   5   17.58    4.78
   7  -6  -5   10.76    1.91
   7   6  -5   19.79    5.62
  -7  -6   4   59.31   24.31
  -7  -6   4  165.57   29.21
  -7  -6   4  105.25    8.14
   7   6  -4   83.29    8.13
  -7  -6   3   69.41   23.04
  -7  -6   3  121.13   25.85
  -7  -6   3  144.75    9.10
  -7   6   3  103.78   15.50
  -7   6   3  142.92    6.91
   7   6  -3   72.87    7.38
  -7  -6   2   57.00   21.37
  -7  -6   2   53.90   24.44
  -7  -6   2   69.43    7.32
  -7   6   2   42.72   12.17
  -7   6   2   88.56    5.55
   7   6  -2   55.12    6.17
  -7  -6   1   16.69   20.17
  -7  -6   1    8.54   23.79
  -7  -6   1   25.30    5.43
  -7   6   1   12.56    9.57
  -7   6   1   25.41    3.40
  -7  -6   0   22.19   20.72
  -7  -6   0   29.36    5.55
  -7   6   0   54.98    9.36
  -7   6   0   38.87    4.37
  -7  -6  -1  -14.82   21.55
  -7  -6  -1   16.25    5.25
  -7  -6  -1   24.76    6.09
  -7   6  -1   21.35    7.84
  -7   6  -1   19.87    3.19
   7   6   1   -0.22   25.31
  -7  -6  -2    0.77   25.60
  -7  -6  -2   29.39    6.27
  -7  -6  -2   37.84    6.79
  -7   6  -2   57.38    7.55
  -7   6  -2   37.10    4.00
   7   6   2   44.19   30.85
  -7  -6  -3   83.15   14.35
  -7  -6  -3  160.20   11.86
  -7   6  -3   89.89    6.87
  -7   6  -3  143.12    7.19
  -7  -6  -4   12.17   10.13
  -7   6  -4   17.61    4.94
  -7   6  -4   12.65    4.83
   7  -6   4   12.09    4.85
  -7  -7   7  146.26   13.67
  -7  -7   7   92.37    8.06
  -7   7   7   96.29   11.50
  -7   7   7  107.29    7.71
  -7  -7   6  293.31   12.85
  -7   7   6  260.92   12.16
   7  -7  -6  189.61    4.95
   7   7  -6  257.46   18.99
  -7  -7   5  -38.33   32.67
  -7  -7   5    9.37    6.42
  -7   7   5   -1.41    4.76
   7   7  -5   -0.05    5.21
  -7  -7   4  323.66   39.24
  -7  -7   4  283.65   11.45
  -7   7   4  268.34   10.20
   7   7  -4  194.59   10.50
  -7  -7   3   49.65   24.75
  -7  -7   3   49.68   28.03
  -7  -7   3   56.40    6.87
  -7   7   3   71.02    6.08
   7   7  -3   33.86    5.56
  -7  -7   2  101.59   24.39
  -7  -7   2  170.35   31.17
  -7  -7   2  176.53    9.52
  -7   7   2  103.54   12.97
  -7   7   2  178.45    6.75
   7   7  -2   85.25    7.78
  -7  -7   1   20.29   21.99
  -7  -7   1   49.75   26.59
  -7  -7   1   81.83    8.01
  -7   7   1   51.60    8.97
  -7   7   1   89.64    5.23
  -7  -7   0   28.27   24.06
  -7  -7   0   16.73    5.71
  -7   7   0    8.80    2.78
  -7  -7  -1   54.44   25.12
  -7  -7  -1   69.88    7.76
  -7  -7  -1   89.10    9.47
  -7   7  -1   94.67    5.22
   7   7   1   80.18   30.16
  -7  -7  -2   14.17   29.03
  -7  -7  -2   21.19    6.65
  -7  -7  -2   42.52    7.23
  -7   7  -2   32.24    3.83
   7   7   2   13.28   33.47
  -7  -7  -3   52.73    8.89
  -7   7  -3   34.59    4.66
  -7   7  -3   52.09    6.09
  -7  -8   6   64.39    8.65
  -7   8   6   59.51    8.46
  -7  -8   5   12.31   40.01
  -7  -8   5   52.91    8.03
  -7   8   5   50.46    6.36
   7   8  -5   29.38    7.95
  -7  -8   4   94.27   33.73
  -7  -8   4   12.75    6.10
  -7   8   4    9.59    4.48
   7   8  -4   11.75    5.58
  -7  -8   3   25.11   32.08
  -7  -8   3   17.95    6.17
  -7   8   3   11.32    3.77
   7   8  -3    8.52    5.18
  -7  -8   2   60.46   32.85
  -7  -8   2  100.85    9.36
  -7   8   2   55.09   10.92
  -7   8   2   97.82    6.02
   7   8  -2   46.97    6.76
  -7  -8   1  -46.17   42.80
  -7  -8   1   21.52    6.58
  -7   8   1   26.35    3.59
  -7  -8   0    6.64    5.81
  -7  -8   0    1.80    5.35
  -7   8   0    9.65    2.85
  -7  -8  -1   21.40    6.47
  -7  -8  -1   42.76    6.96
  -7   8  -1   39.97    4.53
  -7  -8  -2   62.74    8.76
  -7   8  -2   49.42    5.18
  -7   8  -3   18.13    4.57
  -7  -9   6  142.08   13.63
  -7  -9   6  104.28    8.59
  -7   9   6   96.82   11.78
  -7  -9   5    6.01    7.28
  -7   9   5   -6.62    5.59
  -7  -9   4  123.69   11.28
  -7   9   4   91.21    8.40
  -7  -9   3  124.26   38.61
  -7  -9   3  234.79   12.14
  -7   9   3  158.96    8.08
   7   9  -3  127.77   10.45
  -7  -9   2  115.56   44.69
  -7  -9   2   84.55   10.33
  -7   9   2   38.84    8.59
  -7   9   2   69.32    5.92
   7   9  -2   39.04    7.18
  -7  -9   1   69.06    7.72
  -7  -9   1  135.99   10.44
  -7   9   1  163.40    6.38
  -7  -9   0   41.41    7.29
  -7  -9   0   81.13    8.98
  -7   9   0   87.08    5.23
  -7  -9  -1   30.93    7.49
  -7   9  -1   38.96    4.64
  -7  -9  -2    6.23   13.13
  -7 -10   5   14.91    8.19
  -7  10   5    1.27    6.61
  -7 -10   4   34.37    8.40
  -7  10   4   12.64    5.63
  -7 -10   3  111.64   12.25
  -7  10   3  112.86    8.06
  -7 -10   2   68.21    8.84
  -7 -10   2  164.45   12.78
  -7  10   2  120.22    7.08
  -7 -10   1    2.23    6.68
  -7 -10   1   23.17    7.65
  -7  10   1   17.17    3.55
  -7 -10   0   50.17    9.07
  -7  10   0   64.99    4.97
  -7 -10  -1   62.65   12.94
  -7 -11   3   -9.11    8.22
  -7 -11   2   16.20    9.10
  -7  11   2   20.32    4.50
  -7 -11   1   89.03   10.81
   8   0  -8   19.23    7.94
  -8   0   7   41.41    8.02
   8   0  -7   29.41    6.49
  -8   0   6   89.51    9.93
   8   0  -6   58.42    6.64
  -8   0   5   34.34    6.21
   8   0  -5   23.01    4.73
  -8   0   4   13.28   20.13
  -8   0   4   35.40    5.77
   8   0  -4   17.06    4.38
  -8   0   3   52.26   19.16
  -8   0   3   76.80    7.76
  -8   0   2   84.76   18.88
  -8   0   2  126.02    8.13
  -8   0   1   54.89    6.11
  -8   0   0  122.44    7.88
  -8   0  -1   73.22    7.77
  -8   0  -2  161.21   10.07
  -8   0  -3   60.22    7.66
  -8   0  -3   70.57    7.97
  -8   0  -4   73.36   13.02
  -8   0  -4   69.84    9.49
   8  -1  -8   49.38    8.57
  -8  -1   7   34.22    8.14
  -8   1   7   37.99    7.25
   8  -1  -7   25.58    6.24
   8   1  -7   29.16    6.53
  -8  -1   6   33.95    6.70
  -8   1   6   27.11    6.05
   8  -1  -6    7.91    4.72
   8   1  -6   10.90    5.22
  -8  -1   5   57.86   24.87
  -8  -1   5   71.02    7.47
  -8   1   5   73.74    7.62
   8  -1  -5   47.96    5.26
   8   1  -5   46.96    5.93
  -8  -1   4    9.26   19.77
  -8  -1   4    2.24    4.67
  -8   1   4   10.93    4.55
   8  -1  -4    0.80    3.49
   8   1  -4   -0.87    3.81
  -8  -1   3    4.04   18.15
  -8  -1   3   60.15    7.47
  -8   1   3   69.95    7.28
   8   1  -3   41.62    4.89
  -8  -1   2   62.89   20.17
  -8  -1   2  121.48    7.85
  -8   1   2  105.39    7.74
  -8  -1   1   49.52   18.30
  -8  -1   1   75.25    7.70
  -8   1   1   73.24    6.97
  -8  -1   0   84.58    7.71
  -8   1   0   91.70    7.27
  -8  -1  -1  120.34    9.18
  -8   1  -1  116.00    8.10
  -8  -1  -2   25.23    6.32
  -8   1  -2   28.11    5.87
  -8  -1  -3    5.17    6.46
  -8  -1  -3   -0.75    6.54
  -8   1  -3    7.47    5.82
  -8   1  -3   -0.60    5.73
  -8  -1  -4   83.83   10.13
  -8   1  -4   68.10    8.77
  -8   1  -4   76.90    8.92
   8  -2  -8   78.47    8.50
  -8  -2   7   91.52   11.15
  -8   2   7   69.61    8.94
   8  -2  -7   98.10    9.67
   8   2  -7   67.15    7.94
  -8  -2   6   52.45   27.72
  -8  -2   6   90.75    9.35
  -8   2   6   98.53   10.01
   8  -2  -6   68.65    7.80
   8   2  -6   71.56    8.70
  -8  -2   5   -1.43   23.90
  -8  -2   5   13.18    5.87
  -8   2   5   22.36    5.49
   8   2  -5   15.50    4.71
  -8  -2   4   41.69   21.65
  -8  -2   4   37.69    5.89
  -8   2   4   42.10    6.11
   8  -2  -4   18.37    3.66
   8   2  -4   26.60    4.65
  -8  -2   3   11.96   20.43
  -8  -2   3   13.80    5.00
  -8   2   3   15.34    4.51
   8   2  -3    4.33    3.92
  -8  -2   2   38.68   20.40
  -8  -2   2   29.40    5.53
  -8   2   2   29.31    4.67
  -8  -2   1   55.23   19.67
  -8  -2   1   70.94    7.95
  -8   2   1   67.91    6.90
  -8  -2   0    1.52    4.75
  -8   2   0    5.67    3.82
  -8  -2  -1   91.28    8.19
  -8   2  -1   79.26    7.38
  -8  -2  -2   78.60    8.67
  -8  -2  -2  123.77   10.33
  -8   2  -2  110.79    8.67
  -8  -2  -3   94.34   11.20
  -8  -2  -3  150.73   12.07
  -8   2  -3   93.32    9.87
  -8   2  -3  144.61   10.31
  -8  -3   7  114.63   13.05
  -8   3   7  139.05   11.32
   8  -3  -7  105.07    9.52
   8   3  -7  112.51   12.14
  -8  -3   6    0.67   30.17
  -8  -3   6   47.39    7.69
  -8   3   6   38.76    7.01
   8  -3  -6   36.54    5.44
   8   3  -6   30.52    6.56
  -8  -3   5   38.14   25.14
  -8  -3   5  158.31   10.31
  -8   3   5  133.93    9.25
   8  -3  -5   81.54    6.26
   8   3  -5   88.85    8.60
  -8  -3   4  181.18   28.10
  -8  -3   4  508.74   14.22
  -8   3   4  480.49   13.01
   8   3  -4  285.75   10.65
  -8  -3   3  -31.62   20.46
  -8  -3   3   30.90    5.63
  -8   3   3   28.10    4.82
   8   3  -3   20.19    4.70
  -8  -3   2  -14.10   19.51
  -8  -3   2   20.93    5.32
  -8   3   2   24.25    4.63
  -8  -3   1  -27.89   19.67
  -8  -3   1   15.15    5.45
  -8  -3   0   58.81    6.92
  -8  -3  -1   40.10    6.31
  -8   3  -1   32.81    5.47
  -8  -3  -2   -1.76    6.09
  -8  -3  -2    6.81    6.20
  -8   3  -2    4.48    4.64
  -8  -3  -3    0.43    7.21
  -8   3  -3   17.00    5.88
  -8   3  -3   13.78    5.61
  -8  -4   7   10.91    8.87
  -8   4   7    9.74    7.13
   8  -4  -7   17.93    5.80
  -8  -4   6   59.14    8.23
  -8   4   6   33.14    7.36
   8  -4  -6   21.06    4.73
   8   4  -6   28.02    6.75
  -8  -4   5  108.30   28.10
  -8  -4   5  181.15   10.56
  -8   4   5  176.58   10.45
   8  -4  -5   91.63    5.76
   8   4  -5  117.38    9.51
  -8  -4   4   -0.31   23.87
  -8  -4   4  101.61    9.44
  -8   4   4   90.55    8.01
   8   4  -4   56.31    6.46
  -8  -4   3   14.17   23.17
  -8  -4   3   25.39    6.03
  -8   4   3   22.95    4.61
   8   4  -3   11.99    4.67
  -8  -4   2    5.90   21.54
  -8  -4   2   22.92    5.65
  -8  -4   1   20.77   22.62
  -8  -4   1   90.69    8.94
  -8   4   1   97.85    6.89
  -8  -4   0   27.33   28.43
  -8  -4   0   10.33    5.47
  -8   4   0   13.78    3.87
  -8  -4  -1   48.85    7.37
  -8   4  -1   46.59    6.30
  -8  -4  -2   30.68    6.96
  -8  -4  -2   43.87    7.92
  -8   4  -2   40.99    5.82
  -8  -4  -3   12.15    7.59
  -8   4  -3   18.07    5.60
  -8   4  -3   25.65    5.93
  -8   5   7   16.01    8.07
  -8  -5   6   57.33    8.76
  -8   5   6   52.98    7.82
   8  -5  -6   28.42    4.21
   8   5  -6   34.97   11.07
  -8  -5   5   13.47    6.31
  -8   5   5    0.57    4.95
   8   5  -5    6.20    5.75
  -8  -5   4  -74.40   25.98
  -8  -5   4   12.99    5.76
  -8   5   4    6.84    4.99
   8   5  -4   12.99    5.46
  -8  -5   3   97.92   26.75
  -8  -5   3   72.87    8.95
  -8   5   3   90.58    7.53
   8   5  -3   56.85    6.66
  -8  -5   2   27.92   24.31
  -8  -5   2   45.40    6.74
  -8   5   2   42.31    6.62
  -8  -5   1   49.47   24.67
  -8  -5   1   10.85    5.53
  -8   5   1   14.51    3.89
  -8  -5   0   57.29   27.84
  -8  -5   0  102.19    9.85
  -8   5   0  108.99    7.06
  -8  -5  -1   20.43    6.80
  -8  -5  -1   12.81    6.33
  -8   5  -1   14.62    4.56
  -8  -5  -2  183.54   12.63
  -8   5  -3   26.47    6.04
  -8   5  -3   46.53    6.72
  -8  -6   6   29.26    8.62
  -8   6   6   18.38    7.49
  -8  -6   5   33.64    7.62
  -8   6   5   15.89    5.76
   8   6  -5    5.29    6.08
  -8  -6   4   44.34    7.52
  -8   6   4   42.72    6.08
   8   6  -4   28.34    6.01
  -8  -6   3   61.29   27.81
  -8  -6   3  152.49   11.16
  -8   6   3  186.85    8.90
   8   6  -3   88.23    9.57
  -8  -6   2   34.36   27.15
  -8  -6   2  171.31   11.35
  -8   6   2  195.47    8.46
  -8  -6   1  156.92   29.74
  -8  -6   1  174.56   10.79
  -8   6   1  200.24    8.24
  -8  -6   0  -30.53   29.33
  -8  -6   0   67.33    8.23
  -8   6   0   81.12    6.78
  -8  -6  -1   11.79    6.94
  -8   6  -1   13.92    4.18
  -8  -6  -2   -8.45    7.79
  -8   6  -2    5.70    4.57
  -8   7   6  141.79   12.97
  -8  -7   5   81.59    9.84
  -8   7   5   85.39   10.14
  -8  -7   4   96.10   11.08
  -8   7   4  101.58    8.92
   8   7  -4   76.28    9.31
  -8  -7   3   71.65    8.64
  -8   7   3   73.95    7.81
   8   7  -3   26.33    6.92
  -8  -7   2   76.11    8.93
  -8   7   2   99.15    7.50
  -8  -7   1   37.85    7.55
  -8   7   1   24.54    4.44
  -8  -7   0  104.04   11.43
  -8   7   0  115.15    7.06
  -8  -7  -1   74.99    9.99
  -8   7  -1   87.30    7.03
  -8   7  -2   55.27    5.78
  -8   8   5   43.96    7.69
  -8  -8   4   17.04    8.22
  -8   8   4   23.54    5.97
  -8  -8   3  577.99   17.96
  -8   8   3  534.55   12.85
  -8  -8   2   23.34    7.96
  -8   8   2   59.17    7.29
  -8  -8   1   44.38    9.20
  -8   8   1   56.07    6.72
  -8  -8   0   20.29    9.09
  -8   8   0   12.85    4.29
  -8   8  -1   36.56    8.24
  -8  -9   3  284.17   23.85
  -8   9   3  190.52   10.04
  -8  -9   2   18.37   10.74
  -8   9   2   26.13    5.12
  -8   9   1    4.97    4.05
  -9   0   6   47.06    9.12
   9   0  -6   18.23    6.40
  -9   0   5   14.67    6.89
   9   0  -5    5.16    5.37
  -9   0   4    2.53    6.20
   9   0  -4    3.07    4.85
  -9   0   3   34.69    6.79
  -9   0   2    7.01    5.47
  -9   0   1   60.70    7.41
  -9   0   0  146.45   11.08
  -9   0  -1    6.03    6.65
  -9   0  -2   11.26   11.87
  -9   0  -2   10.32    7.59
  -9  -1   6   45.32    8.85
  -9   1   6   46.11    8.40
   9  -1  -6   24.53    6.21
   9   1  -6   24.85    6.78
  -9  -1   5   46.15    8.06
  -9   1   5   51.11    7.77
   9  -1  -5    9.07    5.19
   9   1  -5   43.04    6.77
  -9  -1   4   41.82    7.19
  -9   1   4   34.32    7.21
   9   1  -4   15.70    5.47
  -9  -1   3    9.59    6.18
  -9   1   3   16.76    5.79
  -9  -1   2  243.91   12.28
  -9   1   2  252.00   11.17
  -9  -1   1    5.04    6.19
  -9   1   1    4.44    5.66
  -9  -1   0   19.27    6.57
  -9   1   0   14.16    5.73
  -9  -1  -1   73.09    9.15
  -9   1  -1   61.58    8.48
  -9  -1  -2  157.87   13.28
  -9   1  -2  137.45   12.52
  -9   2   6   21.55    7.67
   9  -2  -6   -3.97    5.33
   9   2  -6   11.77    6.87
  -9  -2   5   91.92   10.82
  -9   2   5   67.23    8.40
   9   2  -5   46.18    6.87
  -9  -2   4  104.78   10.22
  -9   2   4  113.85   10.36
   9   2  -4   56.92    7.49
  -9  -2   3  300.60   12.61
  -9   2   3  317.47   12.41
  -9  -2   2  174.77   11.37
  -9   2   2  168.21   10.29
  -9  -2   1   43.25    7.73
  -9   2   1   43.28    6.79
  -9  -2   0   29.15    7.32
  -9   2   0   47.83    7.20
  -9  -2  -1   57.77    8.65
  -9   2  -1   53.55    7.63
  -9  -2  -2   15.27    8.73
  -9   2  -2   18.46    7.30
  -9   3   6   47.40    8.72
   9  -3  -6   13.23    7.95
  -9  -3   5   63.52    9.46
  -9   3   5   73.51    8.46
   9   3  -5   30.09    7.07
  -9  -3   4  228.71   13.03
  -9   3   4  236.25   11.96
   9   3  -4  132.79   10.53
  -9  -3   3  151.55   10.85
  -9   3   3  170.82   10.67
  -9  -3   2   63.48    8.41
  -9   3   2   47.37    6.57
  -9  -3   1    9.44    6.36
  -9   3   1    8.04    5.64
  -9  -3   0   12.32    6.87
  -9   3   0   17.12    5.75
  -9  -3  -1   93.68   10.32
  -9   3  -1  106.90   10.47
  -9  -4   5   70.32   11.39
  -9   4   5   68.53    8.55
   9   4  -5   37.86    7.76
  -9  -4   4   72.12    9.06
  -9   4   4   54.45    7.43
   9   4  -4   29.71    7.35
  -9  -4   3   52.25    8.34
  -9   4   3   69.99    7.60
  -9  -4   2    8.85    7.15
  -9   4   2    9.20    5.52
  -9  -4   1   13.75    7.04
  -9   4   1   -0.97    5.23
  -9  -4   0    9.01    7.82
  -9   4   0   20.56    6.22
  -9  -4  -1   30.76    9.92
  -9   4  -1   41.11    7.14
  -9   5   5   54.21    8.46
  -9  -5   4  109.61   12.50
  -9   5   4  108.58   10.92
   9   5  -4   47.57    8.20
  -9  -5   3   20.42    8.57
  -9   5   3   41.16    7.03
  -9  -5   2  104.73   11.83
  -9   5   2   81.35    9.46
  -9  -5   1  142.01   12.61
  -9   5   1  130.57    9.50
  -9  -5   0   77.82   12.77
  -9   5   0   78.10    9.37
  -9   6   4   31.82    7.48
  -9   6   3   25.45    6.65
  -9   6   2   19.29    6.04
  -9   6   1   25.55    5.67
 -10   0   3    7.89    8.45
 -10   0   2   43.64    8.82
   0   0   0    0.00    0.00
;
_shelx_hkl_checksum              29207
loop_
_space_group_symop_operation_xyz
'x, y, z'
'-x, y+1/2, -z'
loop_
_atom_site_label
_atom_site_type_symbol
_atom_site_fract_x
_atom_site_fract_y
_atom_site_fract_z
_atom_site_U_iso_or_equiv
_atom_site_adp_type
_atom_site_occupancy
_atom_site_site_symmetry_order
_atom_site_calc_flag
_atom_site_refinement_flags_posn
_atom_site_refinement_flags_adp
C1 C 0.3788(5) 0.7460(4) 0.4585(5) 0.0189(8) Uani 1 1 d . .
C2 C 0.4434(5) 0.7294(4) 0.7572(5) 0.0177(7) Uani 1 1 d . .
H2A H 0.5548 0.7098 0.8470 0.021 Uiso 1 1 calc R U
H2B H 0.3350 0.7085 0.7999 0.021 Uiso 1 1 calc R U
C3 C 0.4407(5) 0.8581(3) 0.7110(5) 0.0149(7) Uani 1 1 d . .
C4 C 0.6340(5) 0.9098(4) 0.7413(6) 0.0207(8) Uani 1 1 d . .
H4A H 0.7093 0.8625 0.6847 0.031 Uiso 1 1 d R U
H4B H 0.6897 0.9135 0.8663 0.031 Uiso 1 1 d R U
H4C H 0.6255 0.9862 0.6921 0.031 Uiso 1 1 d R U
C5 C 0.3036(5) 0.9250(3) 0.7922(5) 0.0122(6) Uani 1 1 d . .
H5 H 0.1820 0.8870 0.7559 0.015 Uiso 1 1 calc R U
C6 C 0.3634(5) 0.9231(3) 0.9946(5) 0.0159(7) Uani 1 1 d . .
H6A H 0.3727 0.8438 1.0358 0.019 Uiso 1 1 calc R U
H6B H 0.4853 0.9585 1.0337 0.019 Uiso 1 1 calc R U
C7 C 0.2251(5) 0.9875(3) 1.0737(5) 0.0148(7) Uani 1 1 d . .
H7 H 0.2537 0.9919 1.2035 0.018 Uiso 1 1 calc R U
C8 C 0.1061(5) 1.0803(3) 0.9758(5) 0.0129(7) Uani 1 1 d . .
C9 C 0.1208(5) 1.1106(3) 0.7892(5) 0.0128(7) Uani 1 1 d . .
H9 H 0.0027 1.0921 0.7052 0.015 Uiso 1 1 calc R U
C10 C 0.2796(5) 1.0503(3) 0.7300(5) 0.0150(7) Uani 1 1 d . .
H10A H 0.2547 1.0524 0.6016 0.018 Uiso 1 1 calc R U
H10B H 0.3948 1.0918 0.7771 0.018 Uiso 1 1 calc R U
C11 C 0.0181(6) 1.1686(4) 1.0716(5) 0.0178(7) Uani 1 1 d . .
H11A H -0.1088 1.1810 1.0081 0.027 Uiso 1 1 d R U
H11B H 0.0857 1.2399 1.0790 0.027 Uiso 1 1 d R U
H11C H 0.0212 1.1414 1.1890 0.027 Uiso 1 1 d R U
C12 C 0.0960(6) 1.2875(4) 0.6292(5) 0.0171(8) Uani 1 1 d . .
C13 C 0.1408(7) 1.4140(4) 0.6483(6) 0.0236(8) Uani 1 1 d . .
H13A H 0.2716 1.4251 0.6592 0.035 Uiso 1 1 d R U
H13B H 0.1079 1.4433 0.7522 0.035 Uiso 1 1 d R U
H13C H 0.0715 1.4545 0.5456 0.035 Uiso 1 1 d R U
O1 O 0.3410(5) 0.7199(3) 0.3054(4) 0.0279(7) Uani 1 1 d . .
O2 O 0.4411(4) 0.6723(3) 0.5927(4) 0.0223(6) Uani 1 1 d . .
O3 O 0.3636(4) 0.8540(3) 0.5181(4) 0.0172(6) Uani 1 1 d . .
O4 O 0.0327(4) 0.9651(2) 0.9845(4) 0.0158(6) Uani 1 1 d . .
O5 O 0.1515(4) 1.2339(2) 0.7876(3) 0.0144(5) Uani 1 1 d . .
O6 O 0.0217(5) 1.2389(3) 0.4945(4) 0.0244(7) Uani 1 1 d . .
loop_
_atom_site_aniso_label
_atom_site_aniso_U_11
_atom_site_aniso_U_22
_atom_site_aniso_U_33
_atom_site_aniso_U_23
_atom_site_aniso_U_13
_atom_site_aniso_U_12
C1 0.0144(17) 0.0202(19) 0.0260(19) -0.0008(15) 0.0125(14) 0.0058(14)
C2 0.0157(17) 0.0155(16) 0.0261(19) 0.0028(15) 0.0132(13) 0.0009(15)
C3 0.0118(16) 0.0149(16) 0.0212(18) 0.0026(13) 0.0099(12) 0.0018(13)
C4 0.0102(17) 0.022(2) 0.033(2) 0.0010(16) 0.0127(14) -0.0007(15)
C5 0.0074(15) 0.0132(15) 0.0186(16) -0.0009(13) 0.0082(11) -0.0016(12)
C6 0.0124(16) 0.0177(16) 0.0190(17) 0.0019(14) 0.0069(12) 0.0018(13)
C7 0.0157(17) 0.0158(17) 0.0144(16) -0.0004(12) 0.0066(13) 0.0003(13)
C8 0.0102(15) 0.0141(16) 0.0168(16) -0.0024(13) 0.0080(12) -0.0030(13)
C9 0.0109(16) 0.0111(15) 0.0177(16) -0.0004(12) 0.0059(12) 0.0005(12)
C10 0.0148(16) 0.0147(17) 0.0196(17) 0.0022(13) 0.0118(13) 0.0020(13)
C11 0.0189(18) 0.0175(18) 0.0207(18) -0.0045(14) 0.0121(14) -0.0006(15)
C12 0.0158(17) 0.0208(19) 0.0185(19) 0.0038(13) 0.0113(14) 0.0058(14)
C13 0.033(2) 0.0195(19) 0.0220(19) 0.0057(15) 0.0137(15) 0.0052(17)
O1 0.0309(17) 0.0281(16) 0.0284(16) -0.0053(13) 0.0142(13) 0.0055(14)
O2 0.0271(16) 0.0164(13) 0.0275(15) -0.0014(11) 0.0148(12) 0.0031(12)
O3 0.0181(14) 0.0160(13) 0.0208(14) 0.0004(10) 0.0113(10) 0.0050(11)
O4 0.0125(13) 0.0150(13) 0.0233(14) 0.0004(10) 0.0113(10) -0.0032(10)
O5 0.0162(12) 0.0123(11) 0.0170(12) 0.0006(10) 0.0089(9) 0.0013(11)
O6 0.0320(17) 0.0251(15) 0.0182(13) 0.0030(12) 0.0099(11) 0.0079(14)
loop_
_atom_type_symbol
_atom_type_description
_atom_type_scat_dispersion_real
_atom_type_scat_dispersion_imag
_atom_type_scat_source
C C 0.0033 0.0016 'International Tables Vol C Tables 4.2.6.8 and 6.1.1.4'
H H 0.0000 0.0000 'International Tables Vol C Tables 4.2.6.8 and 6.1.1.4'
O O 0.0106 0.0060 'International Tables Vol C Tables 4.2.6.8 and 6.1.1.4'
loop_
_geom_angle_atom_site_label_1
_geom_angle_atom_site_label_2
_geom_angle_atom_site_label_3
_geom_angle
O1 C1 O2 124.6(4)
O1 C1 O3 123.9(4)
O2 C1 O3 111.4(3)
O2 C2 C3 104.1(3)
O3 C3 C4 106.9(3)
O3 C3 C5 107.7(3)
C4 C3 C5 115.5(3)
O3 C3 C2 100.8(3)
C4 C3 C2 112.9(3)
C5 C3 C2 111.7(3)
C10 C5 C6 108.8(3)
C10 C5 C3 112.9(3)
C6 C5 C3 111.2(3)
C7 C6 C5 110.8(3)
O4 C7 C8 59.3(2)
O4 C7 C6 113.6(3)
C8 C7 C6 121.8(3)
O4 C8 C7 59.3(2)
O4 C8 C11 113.1(3)
C7 C8 C11 121.0(3)
O4 C8 C9 111.7(3)
C7 C8 C9 119.1(3)
C11 C8 C9 117.1(3)
O5 C9 C8 106.4(3)
O5 C9 C10 108.4(3)
C8 C9 C10 114.7(3)
C5 C10 C9 112.2(3)
O6 C12 O5 123.7(4)
O6 C12 C13 126.0(4)
O5 C12 C13 110.3(3)
C1 O2 C2 109.1(3)
C1 O3 C3 109.6(3)
C8 O4 C7 61.4(2)
C12 O5 C9 116.6(3)
loop_
_geom_bond_atom_site_label_1
_geom_bond_atom_site_label_2
_geom_bond_distance
C1 O1 1.193(5)
C1 O2 1.340(5)
C1 O3 1.348(5)
C2 O2 1.435(5)
C2 C3 1.531(5)
C3 O3 1.471(5)
C3 C4 1.516(5)
C3 C5 1.528(5)
C5 C10 1.526(5)
C5 C6 1.527(5)
C6 C7 1.512(5)
C7 O4 1.449(5)
C7 C8 1.478(5)
C8 O4 1.448(4)
C8 C11 1.502(5)
C8 C9 1.521(5)
C9 O5 1.446(4)
C9 C10 1.530(5)
C12 O6 1.199(5)
C12 O5 1.351(5)
C12 C13 1.501(6)
loop_
_cod_related_entry_id
_cod_related_entry_database
_cod_related_entry_code
1 PubChem 168346422
