#------------------------------------------------------------------------------
#$Date: 2025-08-21 04:34:05 +0300 (Thu, 21 Aug 2025) $
#$Revision: 301843 $
#$URL: file:///home/coder/svn-repositories/cod/cif/4/51/71/4517153.cif $
#------------------------------------------------------------------------------
#
# This file is available in the Crystallography Open Database (COD),
# http://www.crystallography.net/
#
# All data on this site have been placed in the public domain by the
# contributors.
#
data_4517153
loop_
_publ_author_name
'de la Cruz-Mart\'inez, Felipe'
'Mart\'inez de Sarasa Buchaca, Marc'
'Mart\'inez, Javier'
'Fern\'andez-Baeza, Juan'
'S\'anchez-Barba, Luis F.'
'Rodr\'iguez-Di\'eguez, Antonio'
'Castro-Osma, Jos\'e A.'
'Lara-S\'anchez, Agust\'in'
_publ_section_title
;
 Synthesis of Bio-Derived Cyclic Carbonates from Renewable Resources
;
_journal_name_full               'ACS Sustainable Chemistry &amp; Engineering'
_journal_paper_doi               10.1021/acssuschemeng.9b06016
_journal_year                    2019
_chemical_formula_sum            'C11 H14 O4'
_chemical_formula_weight         210.22
_space_group_crystal_system      orthorhombic
_space_group_IT_number           19
_space_group_name_Hall           'P 2ac 2ab'
_space_group_name_H-M_alt        'P 21 21 21'
_atom_sites_solution_hydrogens   mixed
_audit_creation_method           SHELXL-2014
_cell_angle_alpha                90
_cell_angle_beta                 90
_cell_angle_gamma                90
_cell_formula_units_Z            4
_cell_length_a                   7.743(5)
_cell_length_b                   5.358(5)
_cell_length_c                   25.066(5)
_cell_measurement_reflns_used    18362
_cell_measurement_temperature    100(2)
_cell_measurement_theta_max      28.66
_cell_measurement_theta_min      2.75
_cell_volume                     1039.9(12)
_computing_cell_refinement       'Bruker Apex II'
_computing_data_collection       'Bruker ApexII'
_computing_data_reduction        'Bruker Apex II'
_computing_publication_material  'SHELXL-2014 (Sheldrick, 2014)'
_computing_structure_refinement  'SHELXL-2014 (Sheldrick, 2014)'
_computing_structure_solution    'SHELXL-2014 (Sheldrick, 2014)'
_diffrn_ambient_temperature      100(2)
_diffrn_measured_fraction_theta_full 0.999
_diffrn_measured_fraction_theta_max 0.998
_diffrn_measurement_device_type  'Bruker D8 Venture'
_diffrn_measurement_method       'Phi and Omega Scans'
_diffrn_radiation_type           MoK\a
_diffrn_radiation_wavelength     0.71069
_diffrn_reflns_av_R_equivalents  0.0525
_diffrn_reflns_av_unetI/netI     0.0221
_diffrn_reflns_Laue_measured_fraction_full 0.999
_diffrn_reflns_Laue_measured_fraction_max 0.998
_diffrn_reflns_limit_h_max       10
_diffrn_reflns_limit_h_min       -10
_diffrn_reflns_limit_k_max       7
_diffrn_reflns_limit_k_min       -7
_diffrn_reflns_limit_l_max       33
_diffrn_reflns_limit_l_min       -33
_diffrn_reflns_number            31708
_diffrn_reflns_point_group_measured_fraction_full 0.999
_diffrn_reflns_point_group_measured_fraction_max 0.997
_diffrn_reflns_theta_full        25.240
_diffrn_reflns_theta_max         28.737
_diffrn_reflns_theta_min         2.753
_diffrn_source                   'fine-focus sealed tube'
_exptl_absorpt_coefficient_mu    0.102
_exptl_absorpt_correction_T_max  0.746
_exptl_absorpt_correction_T_min  0.717
_exptl_absorpt_correction_type   empirical
_exptl_absorpt_process_details   'Bruker SADABS (Bruker, 1999)'
_exptl_crystal_colour            Colourless
_exptl_crystal_density_diffrn    1.343
_exptl_crystal_description       Prismatic
_exptl_crystal_F_000             448
_exptl_crystal_size_max          0.22
_exptl_crystal_size_mid          0.18
_exptl_crystal_size_min          0.18
_refine_diff_density_max         0.241
_refine_diff_density_min         -0.222
_refine_diff_density_rms         0.045
_refine_ls_abs_structure_details
;
 Flack x determined using 984 quotients [(I+)-(I-)]/[(I+)+(I-)]
 (Parsons, Flack and Wagner, Acta Cryst. B69 (2013) 249-259).
;
_refine_ls_abs_structure_Flack   -0.4(2)
_refine_ls_extinction_method     none
_refine_ls_goodness_of_fit_ref   1.079
_refine_ls_hydrogen_treatment    constr
_refine_ls_matrix_type           full
_refine_ls_number_parameters     138
_refine_ls_number_reflns         2689
_refine_ls_number_restraints     0
_refine_ls_restrained_S_all      1.079
_refine_ls_R_factor_all          0.0354
_refine_ls_R_factor_gt           0.0320
_refine_ls_shift/su_max          0.001
_refine_ls_shift/su_mean         0.000
_refine_ls_structure_factor_coef Fsqd
_refine_ls_weighting_details
'w=1/[\s^2^(Fo^2^)+(0.0449P)^2^+0.1806P] where P=(Fo^2^+2Fc^2^)/3'
_refine_ls_weighting_scheme      calc
_refine_ls_wR_factor_gt          0.0801
_refine_ls_wR_factor_ref         0.0817
_reflns_Friedel_coverage         0.683
_reflns_Friedel_fraction_full    1.000
_reflns_Friedel_fraction_max     0.996
_reflns_number_gt                2507
_reflns_number_total             2689
_reflns_threshold_expression     'I > 2\s(I)'
_cod_data_source_file            sc9b06016_si_003.cif
_cod_data_source_block           Compund5e
_cod_depositor_comments
;
The following automatic conversions were performed:

data item '_exptl_absorpt_correction_type' value 'Empirical' was
changed to 'empirical' in accordance with the
/home/data/users/saulius/crontab/automatic-downloads/rss-feeds/ACS/lib/dictionaries/cif_core.dic
dictionary named 'cif_core.dic' version 2.4.2 last updated on
2011-04-26.

Automatic conversion script
Id: cif_fix_values 6909 2019-04-08 15:41:33Z antanas 
;
_cod_database_code               4517153
_shelx_space_group_comment
;
The symmetry employed for this shelxl refinement is uniquely defined
by the following loop, which should always be used as a source of
symmetry information in preference to the above space-group names.
They are only intended as comments.
;
_shelxl_version_number           2014-3
_shelx_res_file
;
TITL mo_F8_0m in P1              New: P212121
CELL  0.71069   7.7430   5.3580  25.0660   90.000   90.000   90.000
ZERR     4.00   0.0050   0.0050   0.0050    0.000    0.000    0.000
LATT  -1
SYMM  1/2 - X, - Y, 1/2 + Z
SYMM  1/2 + X, 1/2 - Y, - Z
SYMM  - X, 1/2 + Y, 1/2 - Z
SFAC  C    H    O
UNIT  44 56 16
MERG   2
FMAP   2
PLAN   10
ACTA
BOND   $H
L.S.  10
WGHT    0.044900    0.180600
FVAR       0.35630
C1    1    0.382179    0.624062    0.983088    11.00000    0.02875    0.02157 =
         0.01658   -0.00284    0.00109   -0.00045
C2    1    0.222320    0.304431    0.949969    11.00000    0.02018    0.01895 =
         0.01832   -0.00082    0.00429   -0.00087
AFIX  23
H2A   2    0.098746    0.325212    0.954512    11.00000   -1.20000
H2B   2    0.247406    0.128866    0.944571    11.00000   -1.20000
AFIX   0
C3    1    0.289007    0.461960    0.902963    11.00000    0.01844    0.01525 =
         0.01377   -0.00190   -0.00013    0.00070
C4    1    0.143299    0.557523    0.868086    11.00000    0.02299    0.03997 =
         0.01960   -0.00153   -0.00123    0.01230
AFIX   7
H4A   2    0.188155    0.677299    0.843199    11.00000   -1.50000
H4B   2    0.092773    0.420615    0.848933    11.00000   -1.50000
H4C   2    0.056921    0.635253    0.889969    11.00000   -1.50000
AFIX   0
C5    1    0.433014    0.331650    0.871458    11.00000    0.01573    0.01401 =
         0.01233   -0.00074    0.00014    0.00070
AFIX  13
H5    2    0.382055    0.184595    0.854351    11.00000   -1.20000
AFIX   0
C6    1    0.581537    0.240258    0.906841    11.00000    0.01749    0.01992 =
         0.01357    0.00159    0.00058    0.00154
AFIX  23
H6A   2    0.632046    0.380882    0.925564    11.00000   -1.20000
H6B   2    0.537315    0.124209    0.933215    11.00000   -1.20000
AFIX   0
C7    1    0.717523    0.113907    0.873828    11.00000    0.01732    0.02109 =
         0.01887    0.00125   -0.00103    0.00377
AFIX  43
H7    2    0.788089   -0.002903    0.890500    11.00000   -1.20000
AFIX   0
C8    1    0.743870    0.158806    0.821666    11.00000    0.01537    0.02052 =
         0.01816   -0.00132    0.00019    0.00026
C9    1    0.646470    0.362338    0.795214    11.00000    0.01883    0.01559 =
         0.01529   -0.00068    0.00024   -0.00328
C10   1    0.509197    0.495125    0.827250    11.00000    0.02426    0.01822 =
         0.01628    0.00443    0.00317    0.00387
AFIX  23
H10A  2    0.417152    0.547272    0.803484    11.00000   -1.20000
H10B  2    0.558807    0.643899    0.843104    11.00000   -1.20000
AFIX   0
C11   1    0.872337    0.017221    0.788677    11.00000    0.02474    0.03356 =
         0.02271    0.00013    0.00535    0.00901
AFIX   7
H11A  2    0.936114   -0.094843    0.811145    11.00000   -1.50000
H11B  2    0.812628   -0.076466    0.761739    11.00000   -1.50000
H11C  2    0.950480    0.132384    0.771997    11.00000   -1.50000
AFIX   0
O1    3    0.452511    0.758537    1.014242    11.00000    0.05440    0.03822 =
         0.02506   -0.01200   -0.00581   -0.01066
O2    3    0.362719    0.677118    0.931177    11.00000    0.02939    0.01338 =
         0.01646   -0.00190    0.00124   -0.00029
O3    3    0.315299    0.401071    0.995435    11.00000    0.02960    0.02359 =
         0.01369    0.00213    0.00137   -0.00072
O4    3    0.679157    0.426699    0.749539    11.00000    0.03281    0.02568 =
         0.01552    0.00124    0.00520   -0.00223
HKLF    4  1.0  0.00 -1.00  0.00 -1.00  0.00  0.00  0.00  0.00 -1.00

REM  mo_F8_0m in P1              New: P212121
REM R1 =  0.0320 for    2507 Fo > 4sig(Fo)  and  0.0354 for all    2689 data
REM    138 parameters refined using      0 restraints

END

WGHT      0.0446      0.1821

REM Highest difference peak  0.241,  deepest hole -0.222,  1-sigma level  0.045
Q1    1   0.3716  0.4062  0.8883  11.00000  0.05    0.24
Q2    1   0.5089  0.2935  0.8898  11.00000  0.05    0.21
Q3    1   0.2601  0.3832  0.9262  11.00000  0.05    0.19
Q4    1   0.6813  0.2404  0.8080  11.00000  0.05    0.19
Q5    1   0.5731  0.4050  0.8133  11.00000  0.05    0.17
Q6    1   0.4748  0.4062  0.8502  11.00000  0.05    0.15
Q7    1   0.7924  0.5157  0.6874  11.00000  0.05    0.15
Q8    1   0.2436 -0.0061  1.0091  11.00000  0.05    0.14
Q9    1   0.6428  0.1650  0.8903  11.00000  0.05    0.13
Q10   1   0.7744  0.3321  0.7344  11.00000  0.05    0.13
;
_shelx_res_checksum              71201
_shelx_hkl_file
;
  -1   0   0    0.01    0.05
  -1   0   0   -0.01    0.03
  -1   0   0    0.03    0.04
  -1   0   0    1.23    0.43
  -1   0   0    0.03    0.05
   1   0   0    0.08    0.06
   1   0   0    0.06    0.04
   1   0   0    0.02    0.03
   1   0   0   -0.71    0.32
   1   0   0    0.04    0.02
  -2   0   0    0.05    0.08
  -2   0   0    0.19    0.08
  -2   0   0    0.13    0.08
  -2   0   0    1.45    0.86
  -2   0   0    0.10    0.09
   2   0   0    0.14    0.04
   2   0   0    0.26    0.06
   2   0   0    0.24    0.11
   2   0   0    0.46    0.79
   2   0   0    0.13    0.07
  -3   0   0    0.59    0.20
  -3   0   0    0.44    0.12
  -3   0   0    0.45    0.12
  -3   0   0    0.51    1.24
  -3   0   0    0.26    0.13
   3   0   0    0.48    0.13
   3   0   0    0.51    0.10
  -4   0   0   21.65    0.92
  -4   0   0   19.60    3.02
  -4   0   0   23.26    3.35
  -4   0   0   20.18    1.02
  -4   0   0   21.50    0.90
   4   0   0   22.17    0.84
   4   0   0   20.60    0.86
  -5   0   0   -1.64    2.71
  -5   0   0   -0.15    0.21
  -5   0   0    0.30    0.23
  -5   0   0   -2.97    2.72
  -5   0   0   -0.01    0.29
  -5   0   0    0.04    0.25
   5   0   0    0.17    0.19
   5   0   0   -0.24    0.13
  -6   0   0    5.05    0.70
  -6   0   0    5.23    0.59
  -6   0   0    6.52    0.65
  -6   0   0    5.98    0.60
   6   0   0    5.66    0.37
   6   0   0    5.44    0.43
  -7   0   0   -0.18    0.71
  -7   0   0   -0.35    0.51
  -7   1   0    0.82    0.70
  -7   1   0    0.59    0.52
  -6   1   0    1.19    0.41
  -6   1   0    0.82    0.35
  -6   1   0    1.68    0.51
  -6   1   0    0.95    0.39
   5  -1   0    8.33    0.37
  -5   1   0    7.91    0.70
  -5   1   0    7.83    3.09
  -5   1   0    8.23    0.57
  -5   1   0    7.96    0.54
  -5   1   0    8.08    2.91
  -5   1   0    7.83    0.54
   4  -1   0   27.71    0.99
  -4   1   0   27.97    3.26
  -4   1   0   27.64    1.09
  -4   1   0   28.33    3.24
  -4   1   0   26.77    1.22
  -4   1   0   26.25    1.11
  -4   1   0   25.79    1.09
   3  -1   0   80.21    2.89
   3  -1   0   79.82    2.71
   3  -1   0   77.07    2.69
  -3   1   0   74.71    4.27
  -3   1   0   77.59    2.87
  -3   1   0   73.51    4.23
  -3   1   0   76.81    2.76
  -3   1   0   81.12    2.78
  -3   1   0   79.12    2.75
   2  -1   0   23.19    0.94
   2  -1   0   23.43    0.82
   2  -1   0   24.21    0.84
  -2   1   0   22.22    0.93
  -2   1   0   20.42    1.74
  -2   1   0   23.05    0.86
  -2   1   0   22.81    0.85
  -2   1   0   23.43    1.73
   1  -1   0  947.05   31.54
  -1   1   0  891.54   31.45
   0  -1   0   -0.41    0.02
   0  -1   0   -0.42    0.03
   0   1   0   -0.36    0.23
   0   1   0   -0.42    0.03
  -1  -1   0  978.36   34.32
   1   1   0 1000.00   34.38
  -2  -1   0   23.24    0.90
  -2  -1   0   23.62    0.96
  -2  -1   0   24.38    0.89
  -2  -1   0   22.23    2.14
  -2  -1   0   23.50    0.92
   2   1   0   24.05    0.88
   2   1   0   22.18    0.88
   2   1   0   23.82    0.91
   2   1   0   24.02    2.26
   2   1   0   24.89    0.90
  -3  -1   0   76.38    2.88
  -3  -1   0   74.00    2.77
  -3  -1   0   82.14    2.77
  -3  -1   0   74.37    4.76
  -3  -1   0   80.22    2.81
   3   1   0   74.53    4.83
   3   1   0   77.30    2.76
   3   1   0   80.92    2.78
   3   1   0   80.49    2.77
   3   1   0   79.11    2.72
  -4  -1   0   29.65    3.66
  -4  -1   0   28.75    1.16
  -4  -1   0   27.58    1.12
  -4  -1   0   25.57    1.09
  -4  -1   0   26.54    1.24
   4   1   0   29.93    4.13
   4   1   0   28.07    1.09
   4   1   0   27.74    1.11
   4   1   0   28.27    1.02
  -5  -1   0    7.80    0.59
  -5  -1   0    7.98    3.27
  -5  -1   0    7.92    0.60
  -5  -1   0    8.04    0.72
  -5  -1   0    8.95    3.45
  -5  -1   0    7.58    0.58
   5   1   0    8.30    0.48
  -6  -1   0    0.31    0.47
  -6  -1   0    1.30    0.41
  -6  -1   0    1.45    0.35
  -6  -1   0    1.00    0.50
   6   1   0    1.32    0.27
   6   1   0    1.86    0.36
  -7  -1   0    0.44    0.59
  -7  -1   0    0.10    0.68
  -7   2   0    5.46    0.66
  -6   2   0   -0.51    0.40
  -6   2   0    0.64    0.33
  -6   2   0    0.57    0.46
  -6   2   0    0.77    0.40
  -5   2   0    8.12    0.60
  -5   2   0   10.73    2.85
  -5   2   0    7.88    0.67
  -5   2   0    7.18    2.54
  -5   2   0    8.56    0.53
  -5   2   0    8.94    0.58
   4  -2   0   80.67    3.00
   4  -2   0   76.13    2.68
  -4   2   0   79.39    4.68
  -4   2   0   80.10    2.81
  -4   2   0   78.18    5.03
  -4   2   0   81.93    2.82
  -4   2   0   79.37    2.97
  -4   2   0   73.11    2.87
   3  -2   0   20.68    0.74
   3  -2   0   20.73    0.94
  -3   2   0   20.28    0.92
  -3   2   0   20.07    2.26
  -3   2   0   20.52    0.80
  -3   2   0   20.92    2.08
  -3   2   0   19.56    0.70
  -3   2   0   20.45    0.80
   2  -2   0   57.20    2.99
   2  -2   0   57.75    1.99
   2  -2   0   56.73    2.12
  -2   2   0   58.25    2.11
  -2   2   0   58.92    2.01
  -2   2   0   60.94    2.91
  -2   2   0   58.38    2.02
  -2   2   0   55.69    2.02
   1  -2   0  442.20   16.07
  -1   2   0  469.89   16.06
   0  -2   0  271.70    9.67
   0   2   0  274.34    9.67
   0   2   0  312.11   10.55
  -1  -2   0  416.46   14.70
  -1  -2   0  476.49   16.07
  -1  -2   0  414.63   14.68
   1   2   0  453.33   16.11
   1   2   0  413.00   14.70
  -2  -2   0   63.30    2.20
  -2  -2   0   59.19    2.15
  -2  -2   0   63.77    3.80
   2   2   0   63.96    3.94
   2   2   0   57.68    2.16
   2   2   0   59.84    2.18
   2   2   0   61.19    2.16
   2   2   0   59.57    2.14
  -3  -2   0   15.26    2.59
  -3  -2   0   21.91    0.91
  -3  -2   0   21.22    0.96
  -3  -2   0   21.78    0.84
  -3  -2   0   20.94    0.88
   3   2   0   21.68    0.87
   3   2   0   20.99    0.89
   3   2   0   21.57    0.85
   3   2   0   19.69    3.05
   3   2   0   19.89    0.84
  -4  -2   0   76.37    2.81
  -4  -2   0   88.62    6.14
  -4  -2   0   75.82    2.98
  -4  -2   0   77.04    2.91
  -4  -2   0   77.15    2.86
   4   2   0   80.11    2.80
   4   2   0   78.11    2.86
   4   2   0   79.58    6.27
   4   2   0   80.63    2.86
   4   2   0   80.88    2.83
  -5  -2   0    8.55    0.73
  -5  -2   0    8.32    0.54
  -5  -2   0    9.20    3.57
  -5  -2   0    8.78    0.59
   5   2   0    7.12    4.04
   5   2   0    8.66    0.62
   5   2   0    8.16    0.48
   5   2   0    9.08    0.55
  -6  -2   0    0.41    0.44
  -6  -2   0   -0.10    0.47
  -6  -2   0    0.33    0.30
   6   2   0    0.47    0.38
   6   2   0   -0.20    0.28
  -7  -2   0    4.03    1.07
  -7  -2   0    5.92    0.78
  -6   3   0    0.88    0.48
  -6   3   0    0.13    0.47
  -6   3   0    0.12    0.40
  -6   3   0   -0.29    0.30
  -5   3   0    0.81    0.28
  -5   3   0    0.26    0.33
  -5   3   0   -0.22    2.69
  -5   3   0    0.37    0.33
  -5   3   0    0.47    0.23
  -5   3   0    3.15    2.34
   4  -3   0  101.70    3.91
  -4   3   0  104.53    6.03
  -4   3   0  109.00    3.72
  -4   3   0  107.73    5.59
  -4   3   0  103.26    3.87
  -4   3   0  107.68    3.73
   3  -3   0    1.46    1.23
  -3   3   0    2.42    1.10
   2  -3   0   30.40    1.09
   2  -3   0   30.22    1.23
   2  -3   0   33.10    2.24
  -2   3   0   32.44    1.13
  -2   3   0   32.99    2.10
  -2   3   0   29.57    1.20
  -2   3   0   30.68    1.12
  -2   3   0   31.53    1.21
   1  -3   0   -0.07    0.05
   1  -3   0   -0.38    0.58
   1  -3   0    0.06    0.07
  -1   3   0   -0.05    0.05
  -1   3   0    0.05    0.07
  -1   3   0   -0.09    0.12
  -1   3   0    0.01    0.61
   0  -3   0    0.02    0.68
   0  -3   0    0.14    0.05
   0  -3   0    0.01    0.05
   0  -3   0    0.15    0.08
   0   3   0    0.00    0.05
   0   3   0    0.02    0.08
   0   3   0   -0.64    0.71
  -1  -3   0    0.09    0.08
  -1  -3   0   -0.02    0.09
  -1  -3   0   -0.45    0.84
   1   3   0   -0.06    0.08
   1   3   0   -0.48    1.07
   1   3   0   -0.01    0.07
   1   3   0    0.08    0.11
  -2  -3   0   32.56    1.23
  -2  -3   0   30.64    2.90
  -2  -3   0   29.25    1.15
  -2  -3   0   32.13    1.18
   2   3   0   26.54    3.12
   2   3   0   32.85    1.20
   2   3   0   32.73    1.22
   2   3   0   31.87    1.21
   2   3   0   26.88    1.16
  -3  -3   0    6.84    2.07
   3   3   0    0.45    1.94
  -4  -3   0  109.61    4.01
  -4  -3   0  110.71    3.95
  -4  -3   0  110.22    4.08
  -4  -3   0  107.26    7.20
  -4  -3   0  111.36    3.90
   4   3   0  110.34    3.97
   4   3   0  111.67    3.96
   4   3   0  110.35    3.93
   4   3   0  114.02    7.91
   4   3   0  110.71    3.91
  -5  -3   0    0.02    0.30
  -5  -3   0    0.54    0.26
  -5  -3   0    0.63    0.29
  -5  -3   0    0.70    0.37
  -5  -3   0    1.60    3.74
   5   3   0    0.16    4.43
   5   3   0    0.64    0.30
   5   3   0    1.07    0.37
   5   3   0    0.86    0.28
   5   3   0    0.75    0.23
  -6  -3   0    0.88    0.50
  -6  -3   0    0.53    0.56
  -6  -3   0    0.48    0.32
   6   3   0    0.34    0.36
   6   3   0    0.30    0.46
  -6   4   0    0.73    0.48
  -6   4   0   -0.26    0.46
  -6   4   0    0.45    0.30
   5  -4   0   30.17    1.62
  -5   4   0   33.62    1.39
  -5   4   0   34.81    1.33
  -5   4   0   33.05    1.51
  -5   4   0   33.79    1.53
  -5   4   0   36.86    4.18
   4  -4   0    7.17    0.69
  -4   4   0    8.44    1.91
  -4   4   0    7.59    0.53
  -4   4   0    8.11    0.39
  -4   4   0    8.65    0.45
  -4   4   0    9.07    0.60
   3  -4   0    8.13    1.89
   3  -4   0    8.74    0.58
  -3   4   0    8.26    1.52
  -3   4   0    9.23    0.54
  -3   4   0    8.72    0.45
  -3   4   0    8.29    0.43
  -3   4   0    8.73    0.41
   2  -4   0    0.57    1.05
   2  -4   0    0.21    0.07
   2  -4   0    0.20    0.16
   2  -4   0    0.17    0.07
  -2   4   0    0.62    0.92
  -2   4   0    0.09    0.09
  -2   4   0    0.10    0.12
  -2   4   0    0.18    0.08
  -2   4   0    0.10    0.13
   1  -4   0   -0.29    0.81
  -1   4   0    1.09    0.94
  -1   4   0    0.01    0.06
  -1   4   0   -0.03    0.07
  -1   4   0    0.07    0.10
  -1   4   0    0.02    0.12
   0  -4   0   43.32    1.54
   0  -4   0   41.76    1.58
   0  -4   0   44.92    2.94
   0  -4   0   43.32    1.60
   0   4   0   43.59    1.61
   0   4   0   42.42    3.08
   0   4   0   45.77    1.57
  -1  -4   0   -1.58    1.13
  -1  -4   0    0.04    0.13
  -1  -4   0   -0.15    0.09
   1   4   0    1.15    1.57
   1   4   0   -0.04    0.09
   1   4   0   -0.01    0.10
   1   4   0   -0.22    0.14
  -2  -4   0    0.05    1.39
  -2  -4   0    0.16    0.17
  -2  -4   0    0.38    0.14
   2   4   0    2.51    2.02
   2   4   0    0.10    0.15
   2   4   0    0.18    0.12
   2   4   0    0.08    0.12
   2   4   0    0.19    0.18
  -3  -4   0    8.41    0.49
  -3  -4   0    9.94    2.62
  -3  -4   0    8.91    0.57
  -3  -4   0    9.36    0.48
   3   4   0    9.68    0.57
   3   4   0    6.14    3.00
   3   4   0    9.20    0.53
   3   4   0    8.83    0.50
   3   4   0    8.37    0.57
  -4  -4   0    9.18    0.51
  -4  -4   0    7.72    0.70
  -4  -4   0    8.46    0.67
  -4  -4   0    6.03    3.27
  -4  -4   0    8.17    0.54
   4   4   0    7.68    4.24
   4   4   0    8.83    0.52
   4   4   0    7.95    0.63
   4   4   0    7.93    0.60
   4   4   0    9.91    0.61
  -5  -4   0   33.08    1.36
  -5  -4   0   33.97    1.63
  -5  -4   0   33.90    1.57
  -5  -4   0   47.91    6.90
   5   4   0   34.20    1.40
   5   4   0   33.24    1.45
   5   4   0   32.62    1.45
   5   4   0   34.36    1.52
   5   4   0   33.73    6.86
  -6  -4   0    0.46    0.61
  -6  -4   0    0.80    0.51
   6   4   0    0.95    0.45
  -6   5   0    0.91    0.60
  -6   5   0    0.22    0.52
  -6   5   0    0.13    0.33
  -5   5   0    0.01    0.22
  -5   5   0    0.56    0.36
  -5   5   0    0.46    0.34
   4  -5   0   21.83    3.30
   4  -5   0   16.42    1.02
  -4   5   0   17.34    0.80
  -4   5   0   17.38    0.74
  -4   5   0   16.77    0.75
  -4   5   0   16.73    0.90
  -4   5   0   20.03    2.66
   3  -5   0   28.74    3.36
   3  -5   0   29.04    1.31
  -3   5   0   28.69    1.11
  -3   5   0   29.75    1.23
  -3   5   0   29.99    1.20
  -3   5   0   30.11    1.16
  -3   5   0   29.93    2.92
   2  -5   0   17.48    0.69
   2  -5   0   19.03    2.43
   2  -5   0   17.17    0.85
   2  -5   0   18.11    0.70
  -2   5   0   18.76    0.78
  -2   5   0   19.98    0.74
  -2   5   0   19.07    0.80
  -2   5   0   19.53    0.86
  -2   5   0   19.44    2.40
   1  -5   0   -0.44    1.08
   1  -5   0    0.72    0.14
   1  -5   0    0.61    0.16
   1  -5   0    0.70    0.11
  -1   5   0    0.73    0.13
  -1   5   0    0.77    0.21
  -1   5   0    0.68    0.17
  -1   5   0    0.55    1.31
  -1   5   0    0.72    0.13
   0  -5   0    0.25    0.10
   0  -5   0    1.22    1.35
   0  -5   0    0.24    0.10
   0  -5   0    0.28    0.15
   0   5   0    0.18    0.15
   0   5   0    0.24    0.10
   0   5   0    0.97    1.50
   0   5   0    0.31    0.20
   0   5   0    0.36    0.16
  -1  -5   0    3.22    1.67
  -1  -5   0    0.22    0.16
  -1  -5   0    0.72    0.13
   1   5   0    0.73    0.18
   1   5   0    0.60    0.15
   1   5   0    0.64    0.22
   1   5   0    0.85    0.23
   1   5   0    1.89    1.76
  -2  -5   0   18.90    0.90
  -2  -5   0   16.26    3.62
  -2  -5   0   19.48    0.82
   2   5   0   19.84    3.47
   2   5   0   20.21    0.95
   2   5   0   19.57    0.88
   2   5   0   20.12    0.87
   2   5   0   18.19    0.89
  -3  -5   0   27.99    1.21
  -3  -5   0   30.02    1.32
  -3  -5   0   29.37    4.34
   3   5   0   31.12    1.24
   3   5   0   30.07    1.31
   3   5   0   31.44    1.27
   3   5   0   31.46    4.98
   3   5   0   28.88    1.28
  -4  -5   0   15.55    0.94
  -4  -5   0   17.44    0.81
  -4  -5   0   15.48    0.92
  -4  -5   0   19.81    4.47
  -4  -5   0   15.53    0.83
   4   5   0   17.09    0.82
   4   5   0   16.33    0.95
   4   5   0   18.10    0.95
   4   5   0   16.69    0.90
   4   5   0   21.78    5.62
  -5  -5   0   -0.13    0.28
  -5  -5   0   -0.28    0.39
  -5  -5   0    1.56    5.24
  -5  -5   0    0.18    0.45
   5   5   0    0.34    0.39
   5   5   0    0.42    0.29
   5   5   0    0.07    0.43
   5   5   0    0.78    6.32
  -6  -5   0   -0.48    0.66
  -6  -5   0   -0.02    0.63
   6   5   0    0.86    0.51
   6   5   0   -0.40    0.39
  -5   6   0   10.84    0.81
  -5   6   0   12.63    0.90
   4  -6   0    0.05    0.43
   4  -6   0   -1.05    2.95
  -4   6   0    0.41    0.19
  -4   6   0   -0.97    2.31
  -4   6   0    0.30    0.30
  -4   6   0    0.91    0.27
  -4   6   0    0.49    0.27
   3  -6   0    6.25    2.36
   3  -6   0    6.10    0.61
  -3   6   0    6.88    2.50
  -3   6   0    5.92    0.44
  -3   6   0    6.99    0.39
  -3   6   0    7.48    0.50
  -3   6   0    5.74    0.53
   2  -6   0   68.50    2.31
   2  -6   0   60.91    4.54
   2  -6   0   65.66    2.30
  -2   6   0   66.41    2.36
  -2   6   0   56.35    4.48
  -2   6   0   68.72    2.51
  -2   6   0   67.27    2.42
  -2   6   0   67.47    2.41
   1  -6   0    0.59    0.19
   1  -6   0    2.65    1.78
   1  -6   0    0.52    0.15
   1  -6   0    0.25    0.12
  -1   6   0    0.35    0.13
  -1   6   0    0.36    0.19
  -1   6   0   -0.14    1.95
  -1   6   0    0.55    0.25
  -1   6   0    0.45    0.15
   0  -6   0    2.37    0.22
   0  -6   0    3.46    1.77
   0  -6   0    2.23    0.23
   0  -6   0    2.60    0.30
   0   6   0    2.24    0.24
   0   6   0    2.47    0.32
   0   6   0    2.31    0.37
   0   6   0    2.26    2.12
   0   6   0    2.52    0.30
  -1  -6   0    0.09    0.22
  -1  -6   0    0.57    0.14
  -1  -6   0   -1.02    1.88
  -1  -6   0    0.49    0.17
   1   6   0    0.66    0.24
   1   6   0    0.59    0.20
   1   6   0    0.66    0.28
   1   6   0    2.52    2.31
   1   6   0    0.46    0.19
  -2  -6   0   67.10    2.47
  -2  -6   0   73.61    5.62
  -2  -6   0   67.82    2.59
   2   6   0   75.47    6.47
   2   6   0   68.00    2.58
   2   6   0   68.72    2.54
   2   6   0   67.61    2.63
   2   6   0   65.96    2.54
  -3  -6   0    7.91    0.61
  -3  -6   0    4.23    3.63
  -3  -6   0    6.92    0.50
   3   6   0    6.57    0.68
   3   6   0    8.09    0.68
   3   6   0    7.39    0.54
   3   6   0    7.14    0.54
   3   6   0    1.80    4.48
  -4  -6   0    0.15    0.34
  -4  -6   0    1.98    4.47
  -4  -6   0    0.10    0.37
   4   6   0    2.70    5.69
   4   6   0    0.35    0.46
   4   6   0    0.64    0.34
   4   6   0    0.36    0.28
  -5  -6   0   11.11    1.00
  -5  -6   0   17.78    6.09
  -5  -6   0   10.78    1.00
   5   6   0   12.54    0.80
   5   6   0   10.44    0.94
   5   6   0   10.79    1.00
   5   6   0    8.42    8.27
  -5   7   0    2.36    0.36
  -5   7   0    2.06    0.53
   4  -7   0    1.55    0.60
  -4   7   0    1.63    0.32
  -4   7   0    1.65    0.37
  -4   7   0    1.78    0.40
  -4   7   0    1.47    0.40
   3  -7   0    1.31    0.44
   3  -7   0    0.89    2.74
  -3   7   0    1.63    0.40
  -3   7   0    1.61    0.29
  -3   7   0    0.99    0.30
  -3   7   0    3.93    2.72
  -3   7   0    1.43    0.22
   2  -7   0   -1.45    2.60
   2  -7   0    1.12    0.15
   2  -7   0    0.88    0.31
   2  -7   0    1.37    0.18
  -2   7   0    0.00    2.35
  -2   7   0    1.06    0.22
  -2   7   0    1.18    0.22
  -2   7   0    0.67    0.35
  -2   7   0    1.54    0.28
   1  -7   0   14.66    0.68
   1  -7   0   15.71    2.82
   1  -7   0   13.68    0.72
   1  -7   0   14.97    0.63
  -1   7   0   14.99    0.74
  -1   7   0   12.85    3.27
  -1   7   0   12.79    0.83
  -1   7   0   14.83    0.67
   0  -7   0    0.39    0.17
   0  -7   0    0.21    0.21
   0  -7   0    0.22    0.16
   0  -7   0   -0.60    2.15
   0   7   0    3.48    3.02
   0   7   0    0.09    0.33
   0   7   0    0.40    0.20
   0   7   0    0.30    0.27
   0   7   0    0.78    0.24
  -1  -7   0   14.56    0.78
  -1  -7   0   11.56    3.18
  -1  -7   0   15.71    0.67
  -1  -7   0   14.79    0.68
   1   7   0   14.34    0.80
   1   7   0   14.29    0.80
   1   7   0   23.26    4.33
   1   7   0   15.52    0.82
   1   7   0   12.91    0.87
  -2  -7   0    0.91    0.34
  -2  -7   0    2.43    3.24
   2   7   0    0.98    0.43
   2   7   0    0.65    0.36
   2   7   0    1.13    0.31
   2   7   0    1.33    0.33
   2   7   0   -1.04    3.80
  -3  -7   0    1.75    0.42
  -3  -7   0    1.42    0.31
  -3  -7   0   -0.14    3.99
   3   7   0    6.14    6.37
   3   7   0    1.94    0.37
   3   7   0    1.87    0.51
   3   7   0    1.24    0.40
  -4  -7   0    0.69    5.17
  -4  -7   0    1.36    0.49
  -4  -7   0    2.21    0.58
   4   7   0    2.09    0.54
   4   7   0    1.08    0.42
   4   7   0   11.42    7.48
  -5  -7   0    2.83    0.76
  -5  -7   0    2.75    0.66
   5   7   0    2.04    0.50
   5   7   0    3.34    0.69
  -4   8   0   -0.05    0.26
  -4   8   0    0.30    0.66
  -4   8   0   -0.05    0.35
   3  -8   0    1.05    0.49
  -3   8   0    0.50    0.24
  -3   8   0    0.47    0.48
  -3   8   0   -0.17    0.34
  -3   8   0    0.38    0.25
   2  -8   0    2.76    0.48
   2  -8   0    2.71    0.31
   2  -8   0    3.08    0.21
  -2   8   0    3.64    0.37
  -2   8   0    3.62    0.38
  -2   8   0    3.39    0.57
  -2   8   0    3.07    0.43
   1  -8   0    2.85    0.32
   1  -8   0    2.29    0.43
   1  -8   0    2.60    0.31
  -1   8   0    2.24    0.31
  -1   8   0    2.37    0.45
  -1   8   0    2.25    0.49
  -1   8   0    8.63    4.11
  -1   8   0    3.27    0.45
   0  -8   0    2.63    0.38
   0  -8   0    2.08    2.95
   0  -8   0    1.98    0.36
   0  -8   0    2.12    0.27
   0   8   0    2.43    0.40
   0   8   0    2.97    3.91
   0   8   0    2.69    0.51
   0   8   0    1.78    0.33
   0   8   0    2.27    0.41
  -1  -8   0    2.41    0.29
  -1  -8   0    2.93    0.35
  -1  -8   0    4.13    3.50
   1   8   0    2.73    0.43
   1   8   0    2.28    0.43
   1   8   0    3.60    4.43
   1   8   0    2.26    0.36
  -2  -8   0    2.77    0.51
  -2  -8   0    3.26    0.40
  -2  -8   0    4.51    0.42
   2   8   0    3.46    0.46
   2   8   0    2.88    0.47
  -3  -8   0    0.87    0.49
  -3  -8   0   -0.18    0.28
   3   8   0    0.72    0.41
   3   8   0    0.25    0.37
  -4  -8   0    0.71    0.51
  -4  -8   0    0.38    0.63
   4   8   0   -0.31    0.45
   4   8   0    0.05    0.52
  -3   9   0    0.18    0.32
  -3   9   0   -0.13    0.32
   2  -9   0   33.80    1.65
  -2   9   0   32.06    1.39
  -2   9   0   33.37    1.62
   1  -9   0    0.05    0.35
   1  -9   0   -0.33    0.27
  -1   9   0   -0.25    0.41
  -1   9   0    0.17    0.31
   0  -9   0    0.21    0.35
   0  -9   0   -0.62    0.33
   0  -9   0    0.54    0.27
   0   9   0   -0.45    0.39
   0   9   0   -0.15    0.29
  -1  -9   0    0.69    0.28
  -1  -9   0    0.23    0.40
  -1  -9   0    0.60    0.30
   1   9   0   -0.16    0.39
   1   9   0   -0.18    0.34
  -2  -9   0   32.60    1.55
   2   9   0   32.66    1.58
   2   9   0   32.10    1.55
  -3  -9   0    0.59    0.63
   3   9   0    0.28    0.56
   3   9   0   -0.11    0.54
  -2  10   0    6.46    0.69
  -1  10   0    7.48    1.01
  -1  10   0    8.40    0.78
   0 -10   0    2.00    0.51
   0  10   0    0.21    0.55
   0  10   0    1.54    0.45
  -1 -10   0   10.28    0.93
   1  10   0    9.34    0.99
   1  10   0    9.17    0.83
  -2 -10   0    6.40    0.82
   2  10   0    5.80    0.81
   2  10  -1    1.48    0.68
  -2 -10   1   -0.18    0.59
   1  10  -1    1.29    0.53
   1  10  -1    1.15    0.57
  -1 -10   1    1.61    0.55
   0  10  -1   -0.23    0.51
   0  10  -1    0.47    0.47
   0 -10   1    1.21    0.63
  -1  10  -1    1.78    0.61
  -1  10  -1    0.74    0.45
  -2  10  -1   -0.11    0.41
   3   9  -1    8.65    0.90
   3   9  -1   11.47    1.01
  -3  -9   1    9.22    0.96
  -3  -9   1    9.64    0.86
   2   9  -1   14.39    0.95
   2   9  -1   14.94    1.05
  -2  -9   1   15.19    1.05
   1   9  -1    4.54    0.60
   1   9  -1    4.70    0.56
  -1  -9   1    4.33    0.45
  -1  -9   1    4.38    0.55
  -1  -9   1    3.99    0.48
   0   9  -1   -0.03    0.32
   0   9  -1    0.00    0.37
   0  -9   1    0.23    0.34
   0  -9   1    0.57    0.29
   0  -9   1    0.23    0.25
  -1   9  -1    4.11    0.56
  -1   9  -1    3.73    0.47
   1  -9   1    4.19    0.49
   1  -9   1    4.32    0.39
   1  -9   1    4.76    0.45
  -2   9  -1   13.68    0.98
  -2   9  -1   14.18    0.79
  -3   9  -1    8.31    1.02
  -3   9  -1    9.77    0.66
  -3   9  -1    9.27    0.67
   4   8  -1    0.58    0.55
   4   8  -1   -0.11    0.47
  -4  -8   1    0.10    0.47
  -4  -8   1    0.01    0.53
   3   8  -1    4.77    0.60
   3   8  -1    5.23    0.62
  -3  -8   1    3.44    0.58
  -3  -8   1    3.44    0.40
  -3  -8   1    4.52    0.54
   2   8  -1   32.12    1.48
   2   8  -1   34.28    1.52
  -2  -8   1   33.51    1.52
   1   8  -1   30.61    1.33
   1   8  -1   32.44    1.40
   1   8  -1   31.43    5.55
   1   8  -1   28.58    1.39
  -1  -8   1   29.50    1.21
  -1  -8   1   28.22    6.53
  -1  -8   1   31.17    1.20
  -1  -8   1   28.40    1.33
   0   8  -1    5.63    0.63
   0   8  -1    5.17    0.45
   0   8  -1    0.64    3.90
   0   8  -1    5.33    0.55
   0   8  -1    3.66    0.58
   0  -8   1    5.77    0.38
   0  -8   1    5.89    0.45
   0  -8   1    5.20    0.49
  -1   8  -1   30.49    1.37
  -1   8  -1   29.69    1.46
  -1   8  -1   28.71    1.28
  -1   8  -1   26.13    1.27
  -1   8  -1   19.38    4.52
   1  -8   1   28.76    1.23
   1  -8   1   30.61    1.17
   1  -8   1   28.57    1.11
  -2   8  -1   31.69    1.53
  -2   8  -1   32.38    1.39
  -2   8  -1   32.90    1.29
   2  -8   1   31.55    1.42
  -3   8  -1    4.04    0.47
  -3   8  -1    3.67    0.60
  -3   8  -1    4.13    0.47
  -3   8  -1    3.86    0.42
   3  -8   1    3.81    0.60
  -4   8  -1    0.18    0.36
  -4   8  -1    0.26    0.45
  -4   8  -1   -0.12    0.25
   4  -8   1   -0.37    0.65
   5   7  -1    3.16    0.68
   5   7  -1    2.96    0.53
  -5  -7   1    2.43    0.65
  -5  -7   1    3.20    0.73
   4   7  -1   -0.10    8.08
  -4  -7   1  -10.58    8.80
   3   7  -1   17.95    5.68
   3   7  -1   19.00    1.16
   3   7  -1   18.22    0.97
   3   7  -1   18.01    1.07
  -3  -7   1   16.84    4.57
  -3  -7   1   17.73    1.07
  -3  -7   1   18.98    0.91
   2   7  -1    5.84    0.66
   2   7  -1    6.84    0.70
   2   7  -1    6.50    0.57
   2   7  -1    8.25    0.56
   2   7  -1   -1.07    3.93
  -2  -7   1    5.31    3.35
  -2  -7   1    6.52    0.70
  -2  -7   1    7.36    0.44
   1   7  -1    2.55    0.37
   1   7  -1    2.42    0.37
   1   7  -1    2.24    0.32
   1   7  -1    2.56    0.46
   1   7  -1    3.90    3.26
  -1  -7   1    1.88    0.25
  -1  -7   1    2.68    0.27
  -1  -7   1    2.13    0.35
  -1  -7   1    2.83    2.64
   0   7  -1    7.71    0.55
   0   7  -1    8.56    0.50
   0   7  -1    7.98    0.58
   0   7  -1    7.77    0.66
   0   7  -1    5.70    3.21
   0  -7   1    5.64    2.81
   0  -7   1    7.61    0.50
   0  -7   1    7.90    0.45
   0  -7   1    7.98    0.43
  -1   7  -1    2.50    0.30
  -1   7  -1    2.11    0.38
  -1   7  -1    4.33    2.69
  -1   7  -1    2.32    0.30
  -1   7  -1    1.91    0.39
   1  -7   1    1.90    1.98
   1  -7   1    2.46    0.30
   1  -7   1    2.16    0.28
  -2   7  -1    7.36    0.44
  -2   7  -1    7.77    0.52
  -2   7  -1    7.45    2.81
  -2   7  -1    7.47    0.67
   2  -7   1    6.31    0.57
   2  -7   1    4.42    2.50
  -3   7  -1   20.35    0.88
  -3   7  -1   17.94    0.79
  -3   7  -1   18.05    0.99
  -3   7  -1   17.54    3.44
  -3   7  -1   18.75    0.87
   3  -7   1   16.21    1.01
   3  -7   1   19.70    3.43
  -4   7  -1    2.10    0.38
  -4   7  -1    2.68    0.30
  -4   7  -1    2.16    0.38
  -4   7  -1    1.68    0.42
   4  -7   1    3.31    0.62
  -5   7  -1    2.67    0.56
  -5   7  -1    3.29    0.39
   5   6  -1   -7.99    8.04
   5   6  -1   -1.04    0.54
   5   6  -1    0.04    0.49
   5   6  -1   -0.23    0.35
  -5  -6   1   -0.12    0.47
  -5  -6   1    0.77    0.48
  -5  -6   1   -2.57    6.30
   4   6  -1    6.51    0.62
   4   6  -1    2.82    6.29
   4   6  -1    7.36    0.79
   4   6  -1    6.17    0.58
  -4  -6   1    7.89    4.70
  -4  -6   1    7.26    0.75
  -4  -6   1    7.54    0.70
   3   6  -1    7.58    0.64
   3   6  -1    7.83    0.60
   3   6  -1    8.26    0.57
   3   6  -1   11.74    4.67
   3   6  -1    6.34    0.71
  -3  -6   1    7.76    0.52
  -3  -6   1   12.21    3.66
  -3  -6   1    8.80    0.63
   2   6  -1   18.88    0.99
   2   6  -1   20.93    0.93
   2   6  -1   16.28    3.73
   2   6  -1   19.17    0.90
   2   6  -1   17.94    0.94
  -2  -6   1   20.13    0.97
  -2  -6   1   16.53    5.25
  -2  -6   1   19.36    0.85
   1   6  -1   36.22    1.56
   1   6  -1   38.16    1.52
   1   6  -1   36.64    1.50
   1   6  -1   37.51    1.46
   1   6  -1   40.12    4.68
  -1  -6   1   37.71    1.40
  -1  -6   1   37.74    1.38
  -1  -6   1   37.82    1.50
  -1  -6   1   34.43    4.03
   0   6  -1    0.34    0.24
   0   6  -1   -0.65    2.19
   0   6  -1    0.25    0.18
   0   6  -1    0.08    0.18
   0   6  -1    0.19    0.13
   0  -6   1    0.88    2.16
   0  -6   1    0.50    0.17
   0  -6   1    0.27    0.12
   0  -6   1    0.31    0.13
  -1   6  -1   35.71    1.42
  -1   6  -1   29.70    3.75
  -1   6  -1   36.69    1.36
  -1   6  -1   38.45    1.38
  -1   6  -1   37.35    1.53
   1  -6   1   34.57    1.40
   1  -6   1   36.74    1.33
   1  -6   1   37.44    1.37
   1  -6   1   39.23    3.34
  -2   6  -1   19.97    0.92
  -2   6  -1   18.26    0.81
  -2   6  -1   18.80    2.72
  -2   6  -1   18.13    0.75
  -2   6  -1   18.40    0.80
   2  -6   1   16.31    2.55
   2  -6   1   18.64    0.89
  -3   6  -1    7.34    0.57
  -3   6  -1    6.68    2.07
  -3   6  -1    8.26    0.49
  -3   6  -1    8.64    0.52
  -3   6  -1    7.53    0.41
   3  -6   1    5.60    2.32
   3  -6   1    7.15    0.64
  -4   6  -1    6.32    0.51
  -4   6  -1    5.96    0.40
  -4   6  -1    3.90    2.34
  -4   6  -1    6.57    0.90
  -4   6  -1    7.23    0.53
   4  -6   1    5.94    0.76
  -5   6  -1    0.44    0.36
  -5   6  -1    0.19    0.23
  -5   6  -1    0.21    0.38
  -5   6  -1    0.35    0.23
   6   5  -1    2.77    0.60
   6   5  -1    1.75    0.46
  -6  -5   1    0.91    0.70
  -6  -5   1    2.17    0.71
   5   5  -1   -0.13    0.41
   5   5  -1   -8.54    6.35
   5   5  -1    0.08    0.31
   5   5  -1    0.52    0.42
  -5  -5   1    0.11    0.43
  -5  -5   1    0.86    0.47
  -5  -5   1   -7.08    4.77
  -5  -5   1    0.33    0.30
   4   5  -1   20.43    0.98
   4   5  -1   19.36    0.92
   4   5  -1   18.32    1.00
   4   5  -1   17.47    5.13
   4   5  -1   19.10    1.00
  -4  -5   1   19.55    1.02
  -4  -5   1   20.14    1.04
  -4  -5   1   16.48    4.68
  -4  -5   1   18.94    0.93
  -4  -5   1   18.34    0.89
   3   5  -1   44.01    1.75
   3   5  -1   55.43    5.99
   3   5  -1   43.25    1.79
   3   5  -1   45.68    1.74
   3   5  -1   44.65    1.81
  -3  -5   1   44.56    1.81
  -3  -5   1   44.69    1.78
  -3  -5   1   46.16    5.17
  -3  -5   1   43.44    1.70
  -3  -5   1   43.07    1.71
   2   5  -1  142.71    5.00
   2   5  -1  141.16    5.03
   2   5  -1  144.72    8.30
   2   5  -1  137.50    5.00
   2   5  -1  145.92    5.07
  -2  -5   1  139.90    5.03
  -2  -5   1  146.44    4.95
  -2  -5   1  138.65    7.64
   1   5  -1   23.67    3.26
   1   5  -1   20.81    0.90
   1   5  -1   20.65    0.87
   1   5  -1   19.58    0.92
   1   5  -1   19.86    0.83
  -1  -5   1   19.24    0.77
  -1  -5   1   18.93    0.86
  -1  -5   1   23.85    2.92
   0   5  -1   45.15    3.79
   0   5  -1   45.94    1.70
   0   5  -1   46.76    1.72
   0   5  -1   45.19    1.64
   0  -5   1   44.84    1.67
   0  -5   1   43.96    1.61
   0  -5   1   43.70    1.61
  -1   5  -1   20.75    0.77
  -1   5  -1   17.08    2.41
  -1   5  -1   20.13    0.81
  -1   5  -1   19.57    0.76
   1  -5   1   18.98    0.73
   1  -5   1   19.64    0.77
   1  -5   1   13.42    2.02
   1  -5   1   19.53    0.81
  -2   5  -1  142.50    4.87
  -2   5  -1  141.66    6.53
  -2   5  -1  144.76    4.91
  -2   5  -1  142.98    4.99
  -2   5  -1  143.05    4.93
   2  -5   1  139.99    4.99
   2  -5   1  134.87    6.43
  -3   5  -1   44.52    1.60
  -3   5  -1   45.17    1.72
  -3   5  -1   40.62    3.34
  -3   5  -1   45.44    1.64
  -3   5  -1   43.53    1.68
   3  -5   1   45.24    3.71
   3  -5   1   42.57    1.79
  -4   5  -1   19.12    0.99
  -4   5  -1   20.53    2.93
  -4   5  -1   19.96    0.86
  -4   5  -1   20.60    0.82
  -4   5  -1   19.29    0.83
   4  -5   1   17.61    1.08
   4  -5   1   20.51    3.03
  -5   5  -1    0.37    0.33
  -5   5  -1    0.42    0.40
  -5   5  -1    1.87    2.48
  -5   5  -1    0.34    0.22
  -6   5  -1    1.93    0.61
  -6   5  -1    0.87    0.35
   6   4  -1   16.23    1.00
  -6  -4   1   15.07    1.06
  -6  -4   1   14.74    0.94
  -6  -4   1   16.70    1.26
   5   4  -1   11.41    5.83
   5   4  -1    7.72    0.60
   5   4  -1    6.27    0.71
   5   4  -1    5.52    0.63
   5   4  -1    8.04    0.54
  -5  -4   1    5.94    0.69
  -5  -4   1    6.21    0.52
  -5  -4   1    8.95    4.19
  -5  -4   1    7.41    0.67
   4   4  -1    3.76    0.37
   4   4  -1    3.13    0.39
   4   4  -1    6.15    4.30
   4   4  -1    3.62    0.47
   4   4  -1    4.32    0.48
  -4  -4   1    4.78    3.39
  -4  -4   1    4.20    0.42
  -4  -4   1    3.42    0.69
  -4  -4   1    3.80    0.52
  -4  -4   1    4.49    0.39
   3   4  -1   21.55    1.02
   3   4  -1   21.98    0.96
   3   4  -1   21.97    1.01
   3   4  -1   18.69    3.92
   3   4  -1   22.32    0.98
  -3  -4   1   26.08    3.82
  -3  -4   1   22.53    0.96
  -3  -4   1   22.34    1.02
  -3  -4   1   22.37    1.03
  -3  -4   1   25.72    0.96
   2   4  -1   46.35    1.71
   2   4  -1   42.73    1.65
   2   4  -1   42.44    1.68
   2   4  -1   44.43    1.65
   2   4  -1   40.49    4.15
  -2  -4   1   41.22    1.68
  -2  -4   1   44.23    1.69
  -2  -4   1   49.36    4.07
  -2  -4   1   45.75    1.64
   1   4  -1   80.42    2.78
   1   4  -1   77.50    2.76
   1   4  -1   83.48    4.93
   1   4  -1   78.83    2.79
  -1  -4   1   69.91    4.45
  -1  -4   1   75.50    2.79
  -1  -4   1   79.03    2.73
   0   4  -1    0.23    0.11
   0   4  -1    0.23    0.12
   0   4  -1    0.14    0.09
   0   4  -1   -0.79    1.07
   0  -4   1    0.18    0.07
   0  -4   1    0.25    0.08
   0  -4   1    0.17    0.10
  -1   4  -1   77.71    2.71
  -1   4  -1   78.90    2.68
  -1   4  -1   75.15    3.92
  -1   4  -1   78.64    2.70
   1  -4   1   74.32    2.72
   1  -4   1   75.97    3.80
   1  -4   1   78.36    2.69
   1  -4   1   77.62    2.66
  -2   4  -1   43.52    1.54
  -2   4  -1   43.23    1.62
  -2   4  -1   43.53    1.63
  -2   4  -1   45.01    1.57
  -2   4  -1   43.01    2.75
   2  -4   1   43.46    1.67
   2  -4   1   42.00    2.75
  -3   4  -1   17.14    2.06
  -3   4  -1   22.88    0.99
  -3   4  -1   23.27    0.88
  -3   4  -1   22.03    0.85
  -3   4  -1   22.01    0.89
   3  -4   1   22.19    1.04
   3  -4   1   22.72    2.58
  -4   4  -1    4.25    0.35
  -4   4  -1    3.23    0.26
  -4   4  -1    5.87    1.65
  -4   4  -1    4.14    0.31
  -4   4  -1    4.57    2.06
  -4   4  -1    4.38    0.45
   4  -4   1    3.20    0.48
  -5   4  -1    6.44    0.55
  -5   4  -1    7.32    0.71
  -5   4  -1    7.17    0.48
  -5   4  -1    4.87    2.37
  -6   4  -1   17.62    0.89
  -6   4  -1   14.40    1.02
  -6   4  -1   18.61    1.21
   6   3  -1    4.22    0.58
   6   3  -1    3.65    0.51
  -6  -3   1    6.11    0.80
  -6  -3   1    3.59    0.46
  -6  -3   1    4.31    0.60
   5   3  -1   17.45    0.85
   5   3  -1   16.88    0.90
   5   3  -1   17.19    0.88
   5   3  -1   17.59    0.84
   5   3  -1   26.59    5.55
  -5  -3   1   14.93    4.27
  -5  -3   1   16.55    0.89
  -5  -3   1   17.76    1.06
  -5  -3   1   17.82    0.98
  -5  -3   1   17.49    0.83
   4   3  -1   37.01    5.11
   4   3  -1   40.75    1.58
   4   3  -1   38.99    1.53
   4   3  -1   38.72    1.53
   4   3  -1   38.40    1.58
  -4  -3   1   39.73    1.51
  -4  -3   1   36.46    1.66
  -4  -3   1   44.84    5.09
  -4  -3   1   40.20    1.63
  -4  -3   1   40.20    1.57
   3   3  -1   17.22    0.74
   3   3  -1   15.28    0.70
   3   3  -1   16.09    0.73
   3   3  -1   15.50    0.74
   3   3  -1   19.28    3.38
  -3  -3   1   21.06    3.09
  -3  -3   1   14.83    0.68
  -3  -3   1   15.78    0.76
  -3  -3   1   14.98    0.71
  -3  -3   1   16.42    0.78
   2   3  -1  114.74    3.95
   2   3  -1  113.10    3.93
   2   3  -1  115.80    6.20
   2   3  -1  110.02    3.91
  -2  -3   1  107.74    3.89
  -2  -3   1  113.13    5.94
  -2  -3   1  112.81    3.91
  -2  -3   1  111.02    3.95
   1   3  -1   49.75    3.34
   1   3  -1   51.36    1.85
   1   3  -1   49.15    1.82
   1   3  -1   50.30    1.82
  -1  -3   1   49.58    1.82
  -1  -3   1   50.50    3.29
  -1  -3   1   52.81    1.85
  -1  -3   1   51.65    1.80
   0   3  -1   33.47    2.38
   0   3  -1   34.58    1.36
   0   3  -1   37.43    1.35
   0   3  -1   39.91    1.32
   0  -3   1   37.58    1.35
   0  -3   1   37.41    1.30
   0  -3   1   37.37    1.33
  -1   3  -1   50.04    2.61
  -1   3  -1   48.86    1.75
  -1   3  -1   49.32    1.72
  -1   3  -1   51.60    1.75
   1  -3   1   48.46    1.71
   1  -3   1   48.87    1.77
   1  -3   1   49.43    1.72
   1  -3   1   49.22    2.54
  -2   3  -1  106.54    3.76
  -2   3  -1  108.74    3.67
  -2   3  -1   98.88    4.49
  -2   3  -1  106.14    3.76
   2  -3   1  111.16    4.74
   2  -3   1  110.28    3.79
  -3   3  -1   15.65    0.63
  -3   3  -1   16.16    0.63
  -3   3  -1   15.70    1.89
  -3   3  -1   15.13    0.61
  -3   3  -1   15.17    0.74
   3  -3   1   14.78    0.87
   3  -3   1   18.83    2.15
  -4   3  -1   41.64    1.67
  -4   3  -1   38.73    1.50
  -4   3  -1   37.00    3.67
  -4   3  -1   39.66    1.49
  -4   3  -1   45.73    4.19
   4  -3   1   38.31    1.69
  -5   3  -1   19.67    3.06
  -5   3  -1   17.23    0.80
  -5   3  -1   14.91    3.23
  -5   3  -1   17.35    1.01
  -5   3  -1   17.42    0.92
  -5   3  -1   17.55    0.85
  -6   3  -1    4.59    0.68
  -6   3  -1    4.46    0.53
  -6   3  -1    3.32    0.56
  -7  -2   1   -0.29    0.58
  -7  -2   1    1.08    0.87
   6   2  -1    8.33    0.73
   6   2  -1    7.74    0.58
  -6  -2   1    7.21    0.83
  -6  -2   1    7.25    0.63
  -6  -2   1    6.50    0.77
   5   2  -1    4.20    4.13
   5   2  -1    3.80    0.44
   5   2  -1    4.48    0.53
   5   2  -1    3.67    0.34
  -5  -2   1    0.54    3.41
  -5  -2   1    4.17    0.57
  -5  -2   1    3.53    0.44
  -5  -2   1    3.87    0.42
   4   2  -1   25.00    1.11
   4   2  -1   26.52    1.09
   4   2  -1   26.24    1.03
   4   2  -1   29.28    4.29
   4   2  -1   26.22    1.07
  -4  -2   1   27.76    1.11
  -4  -2   1   24.41    3.90
  -4  -2   1   27.89    1.15
  -4  -2   1   24.98    1.20
  -4  -2   1   24.92    1.06
   3   2  -1   34.90    1.35
   3   2  -1   34.26    1.33
   3   2  -1   33.64    1.30
   3   2  -1   31.70    3.70
   3   2  -1   36.13    1.32
  -3  -2   1   32.13    1.39
  -3  -2   1   34.04    1.33
  -3  -2   1   36.76    1.31
  -3  -2   1   35.56    3.48
  -3  -2   1   34.84    1.36
   2   2  -1    7.00    0.38
   2   2  -1    6.92    0.36
   2   2  -1    7.24    0.35
   2   2  -1    9.59    1.78
  -2  -2   1    9.60    1.66
  -2  -2   1    6.70    0.39
  -2  -2   1    6.62    0.39
  -2  -2   1    7.35    0.35
  -2  -2   1    6.68    0.36
   1   2  -1  424.53   14.91
   1   2  -1  465.50   16.37
  -1  -2   1  418.94   14.91
  -1  -2   1  453.78   16.25
   0   2  -1  241.73    8.50
   0   2  -1  274.36    9.37
   0   2  -1  245.50    8.49
   0  -2   1  241.31    8.48
  -1   2  -1  432.02   15.15
  -2   2  -1    6.17    0.95
  -2   2  -1    7.75    0.31
  -2   2  -1    7.25    0.32
  -2   2  -1    7.56    0.41
   2  -2   1    6.44    1.03
   2  -2   1    7.18    0.41
  -3   2  -1   32.07    1.15
  -3   2  -1   30.96    1.15
  -3   2  -1   34.93    2.42
  -3   2  -1   33.06    1.35
  -3   2  -1   34.87    2.75
  -3   2  -1   35.07    1.24
  -3   2  -1   34.70    1.23
   3  -2   1   33.51    1.38
  -4   2  -1   25.09    1.00
  -4   2  -1   24.96    3.05
  -4   2  -1   24.26    1.15
  -4   2  -1   26.11    1.01
  -4   2  -1   20.46    2.73
  -5   2  -1    4.44    2.64
  -5   2  -1    4.39    0.48
  -5   2  -1    3.99    0.39
  -5   2  -1    4.36    0.45
  -5   2  -1    2.90    0.48
  -5   2  -1    6.03    2.59
  -6   2  -1    8.39    0.73
  -6   2  -1    6.48    0.74
  -6   2  -1    8.86    0.85
  -7   2  -1    1.04    0.51
  -7  -1   1    7.79    0.95
  -7  -1   1    5.65    0.95
   6   1  -1    4.73    0.58
   6   1  -1    5.04    0.46
  -6  -1   1    5.00    0.57
  -6  -1   1    5.30    0.68
  -6  -1   1    3.77    0.65
   5   1  -1    2.59    0.33
   5   1  -1    1.38    0.24
  -5  -1   1    5.70    3.25
  -5  -1   1    1.66    0.41
  -5  -1   1    2.18    0.31
  -5  -1   1    1.51    0.36
  -5  -1   1    2.50    0.36
  -5  -1   1   -0.92    2.98
   4   1  -1    6.14    0.30
   4   1  -1    5.52    2.55
   4   1  -1    5.61    0.42
   4   1  -1    5.49    0.38
  -4  -1   1    6.25    0.40
  -4  -1   1    5.01    0.48
  -4  -1   1    6.26    0.43
  -4  -1   1    6.02    0.45
  -4  -1   1    5.92    2.37
   3   1  -1   81.24    2.84
   3   1  -1   78.82    2.84
   3   1  -1   88.29    5.17
   3   1  -1   80.74    2.86
   3   1  -1   79.47    2.79
  -3  -1   1   76.30    4.80
  -3  -1   1   77.88    2.88
  -3  -1   1   79.87    2.86
  -3  -1   1   82.75    2.85
  -3  -1   1   80.75    2.95
   2   1  -1   64.40    2.25
   2   1  -1   66.45    3.76
   2   1  -1   67.26    2.27
   2   1  -1   62.31    2.25
  -2  -1   1   57.54    3.57
  -2  -1   1   65.22    2.27
  -2  -1   1   63.02    2.25
  -2  -1   1   61.67    2.30
  -2  -1   1   65.62    2.26
   1   1  -1  456.79   15.92
   1   1  -1  409.34   14.86
  -1  -1   1  453.31   15.89
   0   1  -1  304.12   10.90
  -1   1  -1  422.62   14.74
   1  -1   1  430.58   14.80
  -2   1  -1   62.62    2.12
  -2   1  -1   62.96    2.17
  -2   1  -1   61.75    2.16
  -2   1  -1   61.44    3.09
  -2   1  -1   66.21    3.06
  -2   1  -1   61.95    2.26
   2  -1   1   62.72    2.13
   2  -1   1   63.23    2.14
   2  -1   1   59.96    2.26
  -3   1  -1   77.68    2.72
  -3   1  -1   75.04    4.24
  -3   1  -1   78.31    2.85
  -3   1  -1   78.83    2.73
  -3   1  -1   74.15    4.09
  -3   1  -1   78.37    2.75
   3  -1   1   77.50    2.65
   3  -1   1   77.18    2.66
   3  -1   1   76.83    2.85
  -4   1  -1    8.53    1.95
  -4   1  -1    6.18    0.40
  -4   1  -1    7.59    1.92
  -4   1  -1    5.98    0.40
  -4   1  -1    5.71    0.40
  -4   1  -1    5.79    0.52
   4  -1   1    6.04    0.29
   4  -1   1    6.20    0.27
  -5   1  -1   -0.39    2.43
  -5   1  -1    1.87    0.40
  -5   1  -1    4.43    2.57
  -5   1  -1    2.40    0.32
  -5   1  -1    1.76    0.32
  -5   1  -1    2.25    0.32
   5  -1   1    1.66    0.16
  -6   1  -1    3.63    0.62
  -6   1  -1    3.67    0.51
  -6   1  -1    5.06    0.58
  -6   1  -1    4.83    0.61
  -7   1  -1    5.86    0.99
  -7   1  -1    7.46    0.88
  -7   0   1   -0.87    0.68
  -7   0   1   -0.44    0.53
   6   0  -1    0.12    0.20
   6   0  -1    0.43    0.28
  -6   0   1    0.32    0.34
  -6   0   1    0.60    0.41
  -6   0   1    0.35    0.45
  -6   0   1    0.47    0.34
   5   0  -1    0.06    0.15
   5   0  -1    0.13    0.21
  -5   0   1    0.20    0.23
  -5   0   1    0.42    0.32
  -5   0   1   -0.34    2.76
  -5   0   1    0.56    0.27
  -5   0   1    2.96    2.89
  -5   0   1   -0.08    0.26
   4   0  -1   11.03    0.51
   4   0  -1   10.97    0.54
  -4   0   1   12.85    0.60
  -4   0   1   13.62    2.55
  -4   0   1   10.81    0.58
  -4   0   1   10.69    0.68
  -4   0   1   10.52    2.52
  -4   0   1   10.91    0.59
   3   0  -1   66.99    2.37
   3   0  -1   66.73    2.38
  -3   0   1   67.80    2.40
  -3   0   1   67.19    2.39
  -3   0   1   64.18    2.48
  -3   0   1   68.35    2.41
  -3   0   1   69.36    4.32
   2   0  -1    1.36    0.08
  -2   0   1    1.57    0.15
  -2   0   1    1.67    0.84
   1   0  -1   74.87    2.48
   1   0  -1   66.05    2.48
   1   0  -1   64.33    2.50
   1   0  -1   73.15    2.51
  -1   0   1   73.49    2.51
  -1   0   1   78.13    2.49
  -1   0   1   72.16    2.48
  -1   0   1   67.84    2.48
  -1   0   1   74.52    3.19
  -1   0  -1   72.52    2.52
  -1   0  -1   68.50    2.98
  -1   0  -1   72.31    2.48
  -1   0  -1   77.86    2.48
  -1   0  -1   71.03    2.47
  -1   0  -1   71.74    2.48
   1   0   1   71.14    2.47
   1   0   1   68.48    2.46
   1   0   1   69.32    2.47
   1   0   1   75.97    3.05
  -2   0  -1    1.37    0.13
  -2   0  -1    1.37    0.19
  -2   0  -1    1.52    0.73
  -2   0  -1    1.40    0.13
  -2   0  -1    1.25    0.13
   2   0   1    1.15    0.12
   2   0   1    0.86    0.82
   2   0   1    1.14    0.08
  -3   0  -1   67.81    2.42
  -3   0  -1   64.74    2.40
  -3   0  -1   68.09    2.41
  -3   0  -1   68.81    2.53
  -3   0  -1   70.71    4.14
   3   0   1   68.42    4.17
   3   0   1   65.75    2.30
   3   0   1   71.07    2.39
   3   0   1   66.11    2.37
  -4   0  -1    9.78    0.56
  -4   0  -1   11.29    0.55
  -4   0  -1   11.24    0.58
  -4   0  -1   10.84    0.68
  -4   0  -1   11.19    2.34
  -4   0  -1   14.07    2.55
   4   0   1   11.39    0.49
   4   0   1   11.86    0.52
  -5   0  -1    0.01    0.26
  -5   0  -1   -4.12    2.62
  -5   0  -1    0.10    0.31
  -5   0  -1    1.53    2.70
  -5   0  -1    0.35    0.25
  -5   0  -1   -0.10    0.22
   5   0   1    0.26    0.17
   5   0   1    0.26    0.14
  -6   0  -1    0.43    0.39
  -6   0  -1    0.54    0.32
  -6   0  -1   -0.14    0.41
  -6   0  -1    0.98    0.37
   6   0   1    0.36    0.25
   6   0   1    0.35    0.16
  -7   0  -1   -1.38    0.49
  -7   0  -1   -0.10    0.70
  -7   1   1    5.74    0.95
  -7   1   1    8.39    0.90
   6  -1  -1    4.00    0.26
  -6   1   1    4.57    0.51
  -6   1   1    4.57    0.54
  -6   1   1    4.22    0.63
  -6   1   1    5.84    0.66
   5  -1  -1    1.80    0.21
   5  -1  -1    2.15    0.24
  -5   1   1    1.94    0.31
  -5   1   1   -2.63    2.54
  -5   1   1    1.60    0.33
  -5   1   1    4.03    2.94
  -5   1   1    1.99    0.31
  -5   1   1    1.43    0.40
   4  -1  -1    6.13    0.55
   4  -1  -1    6.51    0.36
   4  -1  -1    5.82    0.32
  -4   1   1    7.84    2.09
  -4   1   1    6.40    0.46
  -4   1   1    6.31    0.41
  -4   1   1    6.71    2.24
  -4   1   1    6.83    0.52
  -4   1   1    6.90    0.44
   3  -1  -1   78.17    2.90
   3  -1  -1   79.04    2.73
   3  -1  -1   83.68    2.86
  -3   1   1   79.66    2.81
  -3   1   1   76.67    2.88
  -3   1   1   75.33    4.45
  -3   1   1   78.95    2.77
  -3   1   1   77.85    4.35
  -3   1   1   76.30    2.77
   2  -1  -1   62.66    2.17
   2  -1  -1   61.41    2.26
   2  -1  -1   62.65    2.16
  -2   1   1   62.63    2.18
  -2   1   1   62.57    2.19
  -2   1   1   61.79    2.25
   1  -1  -1  152.61    5.82
   0  -1  -1  314.76   12.29
   0   1   1  391.55   12.41
  -1  -1  -1  421.30   15.86
   1   1   1  467.18   16.00
  -2  -1  -1   61.88    2.18
  -2  -1  -1   61.04    2.27
  -2  -1  -1   60.78    3.46
  -2  -1  -1   62.69    2.21
  -2  -1  -1   62.92    2.23
   2   1   1   62.62    2.21
   2   1   1   63.63    2.21
   2   1   1   65.53    3.63
   2   1   1   63.01    2.19
   2   1   1   63.45    2.19
  -3  -1  -1   80.53    2.77
  -3  -1  -1   78.69    4.71
  -3  -1  -1   79.04    2.79
  -3  -1  -1   74.24    2.89
  -3  -1  -1   80.40    2.82
   3   1   1   79.79    2.78
   3   1   1   78.47    2.77
   3   1   1   79.96    2.74
   3   1   1   79.31    2.76
   3   1   1   73.53    4.71
  -4  -1  -1    5.96    0.37
  -4  -1  -1    5.22    0.50
  -4  -1  -1    5.94    0.42
  -4  -1  -1    8.40    2.41
  -4  -1  -1    6.42    0.42
   4   1   1    5.84    0.38
   4   1   1    6.26    0.31
   4   1   1    4.16    2.23
   4   1   1    6.02    0.36
  -5  -1  -1    0.95    2.97
  -5  -1  -1    1.58    0.44
  -5  -1  -1    1.50    0.31
  -5  -1  -1    1.67    0.34
  -5  -1  -1    1.92    0.28
   5   1   1    2.20    0.28
   5   1   1    1.83    0.29
  -6  -1  -1    5.27    0.59
  -6  -1  -1    4.27    0.51
  -6  -1  -1    4.97    0.58
  -6  -1  -1    3.93    0.63
   6   1   1    4.29    0.40
  -7  -1  -1    7.72    0.93
  -7  -1  -1    6.25    1.01
  -7   2   1    1.28    0.54
  -6   2   1    8.56    0.64
  -6   2   1    5.89    0.75
  -6   2   1    7.52    0.86
  -6   2   1    8.08    0.72
  -5   2   1    4.08    0.53
  -5   2   1    6.31    2.67
  -5   2   1    3.15    0.42
  -5   2   1    6.79    3.20
  -5   2   1    4.90    0.45
  -5   2   1    4.09    0.41
   4  -2  -1   25.75    0.92
   4  -2  -1   25.43    0.93
   4  -2  -1   24.01    1.19
  -4   2   1   26.08    1.04
  -4   2   1   25.29    1.16
  -4   2   1   24.00    2.92
  -4   2   1   24.74    1.02
  -4   2   1   25.78    1.09
  -4   2   1   21.70    3.18
   3  -2  -1   33.60    1.22
   3  -2  -1   34.93    1.41
   3  -2  -1   33.46    1.20
  -3   2   1   33.28    1.26
  -3   2   1   32.48    2.62
  -3   2   1   34.40    1.38
  -3   2   1   33.84    1.26
   2  -2  -1    7.50    0.32
   2  -2  -1    6.86    0.42
   2  -2  -1    7.49    0.31
   2  -2  -1    8.83    1.35
  -2   2   1    7.10    0.31
  -2   2   1    7.84    1.20
  -2   2   1    7.59    0.33
  -2   2   1    6.67    0.39
  -2   2   1    7.09    0.33
   1  -2  -1  446.88   14.98
  -1   2   1  401.45   14.85
  -1   2   1  408.03   14.15
   0  -2  -1  254.56    9.52
   0  -2  -1  242.63    8.76
   0   2   1  251.23    8.76
   0   2   1  286.72    9.67
   0   2   1  257.56    8.78
  -1  -2  -1  457.07   16.12
  -1  -2  -1  418.80   14.85
   1   2   1  432.48   14.84
   1   2   1  404.11   14.97
   1   2   1  482.38   16.28
  -2  -2  -1    7.72    1.65
  -2  -2  -1    7.10    0.39
  -2  -2  -1    7.10    0.36
  -2  -2  -1    6.56    0.32
   2   2   1    7.36    0.39
   2   2   1    7.37    0.34
   2   2   1    7.16    1.59
   2   2   1    7.34    0.37
   2   2   1    7.29    0.37
  -3  -2  -1   32.56    1.28
  -3  -2  -1   32.84    1.25
  -3  -2  -1   31.68    3.27
  -3  -2  -1   34.32    1.33
  -3  -2  -1   32.51    1.38
   3   2   1   34.07    1.25
   3   2   1   32.98    1.29
   3   2   1   36.99    1.31
   3   2   1   31.53    3.63
   3   2   1   33.38    1.27
  -4  -2  -1   27.06    1.05
  -4  -2  -1   25.40    1.14
  -4  -2  -1   26.03    1.10
  -4  -2  -1   24.28    3.56
  -4  -2  -1   27.56    1.26
   4   2   1   25.57    1.05
   4   2   1   27.99    1.06
   4   2   1   26.47    1.09
   4   2   1   31.77    4.52
  -5  -2  -1    5.43    3.60
  -5  -2  -1    4.75    0.58
  -5  -2  -1    3.48    0.44
  -5  -2  -1    4.05    0.38
  -5  -2  -1    3.86    0.57
   5   2   1   -2.84    3.56
   5   2   1    3.56    0.41
   5   2   1    3.39    0.34
   5   2   1    3.37    0.37
  -6  -2  -1    8.46    0.73
  -6  -2  -1    5.65    0.82
  -6  -2  -1    6.98    0.58
   6   2   1    7.28    0.34
   6   2   1    6.56    0.64
   6   2   1    7.53    0.56
  -7  -2  -1    1.09    0.64
  -7  -2  -1    0.50    0.87
  -6   3   1    2.76    0.58
  -6   3   1    3.74    0.45
  -6   3   1    5.26    0.65
  -6   3   1    3.28    0.51
   5  -3  -1   16.99    1.08
  -5   3   1   18.12    0.86
  -5   3   1   14.94    3.38
  -5   3   1   15.53    0.93
  -5   3   1   14.68    3.38
  -5   3   1   16.63    0.99
  -5   3   1   16.55    0.80
   4  -3  -1   38.93    1.70
  -4   3   1   40.03    1.50
  -4   3   1   40.68    1.66
  -4   3   1   36.49    3.92
  -4   3   1   40.73    3.49
   3  -3  -1   15.70    0.57
   3  -3  -1   14.15    0.78
   3  -3  -1   15.44    0.58
   3  -3  -1   15.33    2.23
  -3   3   1   15.42    0.65
  -3   3   1   15.55    0.61
  -3   3   1   15.38    0.64
  -3   3   1   15.47    2.10
  -3   3   1   15.82    0.75
   2  -3  -1  109.80    3.83
   2  -3  -1  105.20    5.01
   2  -3  -1  113.77    3.83
   2  -3  -1  108.35    3.95
  -2   3   1  111.57    3.85
  -2   3   1  116.65    3.94
  -2   3   1  113.33    4.95
  -2   3   1  115.04    3.93
  -2   3   1  111.62    3.86
   1  -3  -1   49.31    1.82
   1  -3  -1   50.74    1.77
   1  -3  -1   51.08    2.76
   1  -3  -1   52.23    1.79
  -1   3   1   50.23    1.77
  -1   3   1   47.16    2.71
  -1   3   1   50.20    1.80
  -1   3   1   52.83    1.84
  -1   3   1   51.05    1.80
   0  -3  -1   35.73    1.31
   0  -3  -1   36.34    2.34
   0  -3  -1   37.72    1.36
   0  -3  -1   36.88    1.32
   0   3   1   39.03    2.46
   0   3   1   38.35    1.32
   0   3   1   37.33    1.35
   0   3   1   36.31    1.39
  -1  -3  -1   50.66    3.21
  -1  -3  -1   50.86    1.87
  -1  -3  -1   51.29    1.82
   1   3   1   52.89    1.84
   1   3   1   50.49    1.86
   1   3   1   53.55    1.84
   1   3   1   50.67    3.34
   1   3   1   49.88    1.88
  -2  -3  -1  115.00    4.03
  -2  -3  -1  102.26    7.80
  -2  -3  -1  116.28    3.98
  -2  -3  -1  107.05    3.95
   2   3   1  104.53    3.96
   2   3   1  126.74    6.37
   2   3   1  114.74    4.00
   2   3   1  119.21    4.03
   2   3   1  122.06    4.03
  -3  -3  -1   14.73    0.68
  -3  -3  -1   15.97    0.75
  -3  -3  -1   16.02    0.65
  -3  -3  -1   15.74    2.76
   3   3   1   14.03    0.80
   3   3   1   14.54    0.65
   3   3   1   15.66    0.71
   3   3   1   15.15    0.70
   3   3   1   16.47    3.07
  -4  -3  -1   37.76    1.45
  -4  -3  -1   39.16    1.59
  -4  -3  -1   36.36    1.51
  -4  -3  -1   37.97    1.66
  -4  -3  -1   34.73    4.58
   4   3   1   40.59    5.45
   4   3   1   38.23    1.54
   4   3   1   40.97    1.52
   4   3   1   39.01    1.47
   4   3   1   38.54    1.52
  -5  -3  -1   17.98    0.91
  -5  -3  -1   16.55    0.80
  -5  -3  -1   13.77    4.35
  -5  -3  -1   17.87    0.97
  -5  -3  -1   16.84    1.07
   5   3   1   17.21    0.80
   5   3   1   16.94    0.90
   5   3   1   16.78    0.88
   5   3   1   18.25    0.85
   5   3   1   15.68    5.20
  -6  -3  -1    4.84    0.50
  -6  -3  -1    5.74    0.71
  -6  -3  -1    4.93    0.79
   6   3   1    4.42    0.56
   6   3   1    4.56    0.55
  -6   4   1   18.36    1.19
  -6   4   1   12.87    1.04
  -6   4   1   17.37    0.87
   5  -4  -1    5.81    0.84
  -5   4   1    7.20    0.73
  -5   4   1    7.28    2.66
  -5   4   1    7.33    0.66
  -5   4   1    7.74    0.50
  -5   4   1    7.50    0.60
   4  -4  -1    2.62    2.21
   4  -4  -1    4.24    0.59
  -4   4   1    4.36    0.47
  -4   4   1    5.31    1.91
  -4   4   1    3.20    0.35
  -4   4   1    4.11    0.32
  -4   4   1    3.06    0.25
   3  -4  -1   21.03    1.04
   3  -4  -1   25.17    2.79
  -3   4   1   22.32    0.88
  -3   4   1   22.41    0.91
  -3   4   1   22.84    1.00
  -3   4   1   25.14    2.42
  -3   4   1   23.35    0.91
   2  -4  -1   44.14    1.68
   2  -4  -1   43.92    1.55
   2  -4  -1   43.34    1.54
   2  -4  -1   39.41    2.87
  -2   4   1   37.68    2.75
  -2   4   1   44.42    1.63
  -2   4   1   46.20    1.59
  -2   4   1   43.16    1.63
  -2   4   1   44.79    1.56
   1  -4  -1   76.98    2.79
   1  -4  -1   78.64    2.73
   1  -4  -1   76.51    2.76
  -1   4   1   79.17    2.83
  -1   4   1   79.94    2.77
  -1   4   1   88.19    4.24
  -1   4   1   78.11    2.78
  -1   4   1   77.81    2.74
   0  -4  -1   -0.55    0.85
   0  -4  -1    0.13    0.08
   0  -4  -1   -0.02    0.10
   0  -4  -1    0.18    0.08
   0   4   1    0.22    0.09
   0   4   1    0.15    0.11
   0   4   1    0.04    0.13
   0   4   1   -0.33    1.07
  -1  -4  -1   80.85    2.78
  -1  -4  -1   77.18    2.84
  -1  -4  -1   75.29    4.47
   1   4   1   79.97    4.79
   1   4   1   81.07    2.81
   1   4   1   80.38    2.88
   1   4   1   76.60    2.83
   1   4   1   81.95    2.82
  -2  -4  -1   44.18    3.78
  -2  -4  -1   44.28    1.69
  -2  -4  -1   42.99    1.62
   2   4   1   43.33    4.04
   2   4   1   45.54    1.68
   2   4   1   42.02    1.63
   2   4   1   44.32    1.70
   2   4   1   44.27    1.66
  -3  -4  -1   23.42    0.95
  -3  -4  -1   22.92    3.55
  -3  -4  -1   22.31    1.05
  -3  -4  -1   23.74    0.99
   3   4   1   23.48    1.05
   3   4   1   23.07    3.89
   3   4   1   24.59    1.03
   3   4   1   23.62    1.06
   3   4   1   23.55    0.97
  -4  -4  -1    4.07    0.35
  -4  -4  -1    3.55    0.51
  -4  -4  -1    3.90    0.53
  -4  -4  -1    2.59    3.07
  -4  -4  -1    3.46    0.40
   4   4   1    3.59    0.35
   4   4   1    4.11    0.45
   4   4   1    4.06    0.46
   4   4   1    3.78    0.43
   4   4   1    5.64    3.96
  -5  -4  -1    7.08    0.69
  -5  -4  -1    0.16    3.99
  -5  -4  -1    7.72    0.50
  -5  -4  -1    6.93    0.77
   5   4   1    6.45    0.65
   5   4   1    8.98    5.11
   5   4   1    6.79    0.69
   5   4   1    7.19    0.62
   5   4   1    6.78    0.51
  -6  -4  -1   16.62    1.30
  -6  -4  -1   15.03    1.08
   6   4   1   17.52    1.00
   6   4   1   16.51    1.04
  -6   5   1    1.09    0.58
  -6   5   1    2.26    0.39
  -5   5   1    0.33    0.22
  -5   5   1    0.68    0.39
  -5   5   1    0.32    0.33
   4  -5  -1   19.52    1.09
   4  -5  -1   21.62    3.24
  -4   5   1   19.59    0.89
  -4   5   1   18.67    0.97
  -4   5   1   19.33    0.83
  -4   5   1   22.88    3.25
  -4   5   1   20.10    0.84
   3  -5  -1   43.18    1.80
   3  -5  -1   44.11    3.92
  -3   5   1   45.52    1.73
  -3   5   1   42.64    1.67
  -3   5   1   41.15    1.71
  -3   5   1   46.94    1.62
  -3   5   1   44.02    3.48
   2  -5  -1  138.37    4.97
   2  -5  -1  137.39    4.83
   2  -5  -1  136.70    6.63
  -2   5   1  146.17    4.96
  -2   5   1  137.64    6.58
  -2   5   1  142.61    4.85
  -2   5   1  140.27    4.89
  -2   5   1  144.44    4.91
   1  -5  -1   18.38    0.82
   1  -5  -1   22.12    2.44
   1  -5  -1   19.43    0.76
   1  -5  -1   20.39    0.81
  -1   5   1   20.14    0.90
  -1   5   1   20.36    0.80
  -1   5   1   20.18    0.83
  -1   5   1   16.32    2.43
  -1   5   1   20.64    0.79
   0  -5  -1   44.09    1.65
   0  -5  -1   44.76    1.60
   0  -5  -1   39.68    3.22
   0  -5  -1   42.67    1.58
   0   5   1   46.17    1.75
   0   5   1   43.80    1.66
   0   5   1   44.66    1.61
   0   5   1   42.00    3.65
  -1  -5  -1   20.02    0.89
  -1  -5  -1   19.53    0.79
  -1  -5  -1   21.61    2.82
   1   5   1   19.61    2.90
   1   5   1   19.35    0.83
   1   5   1   20.32    0.92
   1   5   1   19.58    0.85
   1   5   1   20.70    0.89
  -2  -5  -1  139.13    7.65
  -2  -5  -1  138.78    4.94
  -2  -5  -1  137.53    5.03
   2   5   1  139.50    5.05
   2   5   1  147.39    5.00
   2   5   1  143.65    4.98
   2   5   1  142.31    5.02
   2   5   1  151.12    8.28
  -3  -5  -1   41.33    1.70
  -3  -5  -1   42.85    1.81
  -3  -5  -1   41.14    4.84
   3   5   1   46.32    1.73
   3   5   1   50.02    5.71
   3   5   1   45.76    1.77
   3   5   1   48.87    1.84
   3   5   1   44.05    1.79
  -4  -5  -1   18.08    0.92
  -4  -5  -1   19.62    1.07
  -4  -5  -1   23.98    4.85
  -4  -5  -1   19.44    1.06
   4   5   1   22.35    5.66
   4   5   1   18.57    1.04
   4   5   1   20.21    0.90
   4   5   1   20.31    1.00
   4   5   1   19.87    1.03
  -5  -5  -1   -0.05    0.38
  -5  -5  -1   -5.13    4.96
  -5  -5  -1    0.81    0.46
   5   5   1    0.37    0.37
   5   5   1    0.13    0.44
   5   5   1    0.00    0.26
   5   5   1    3.10    6.58
   5   5   1   -0.15    0.46
  -6  -5  -1    1.84    0.69
  -6  -5  -1    1.61    0.74
   6   5   1    1.65    0.59
  -5   6   1   -0.16    0.35
  -5   6   1   -0.18    0.39
  -5   6   1    0.62    0.27
   4  -6  -1    6.27    3.16
   4  -6  -1    5.82    0.82
  -4   6   1    8.36    2.61
  -4   6   1    7.02    0.56
  -4   6   1    6.69    0.58
  -4   6   1    6.89    0.45
  -4   6   1    7.21    0.54
   3  -6  -1    8.58    0.67
   3  -6  -1    5.07    2.63
  -3   6   1    7.50    0.42
  -3   6   1    8.29    0.53
  -3   6   1    6.72    0.56
  -3   6   1    5.15    2.22
  -3   6   1    7.98    0.50
   2  -6  -1   17.98    2.82
   2  -6  -1   19.01    0.74
   2  -6  -1   17.91    0.90
   2  -6  -1   18.51    0.75
  -2   6   1   18.94    0.82
  -2   6   1   18.63    2.81
  -2   6   1   19.59    0.84
  -2   6   1   18.80    0.77
  -2   6   1   18.70    0.91
   1  -6  -1   31.36    3.26
   1  -6  -1   36.01    1.39
   1  -6  -1   37.88    1.35
   1  -6  -1   36.55    1.43
  -1   6   1   35.78    1.38
  -1   6   1   36.60    1.37
  -1   6   1   38.20    1.53
  -1   6   1   36.17    1.42
  -1   6   1   37.39    3.70
   0  -6  -1    0.21    0.13
   0  -6  -1    2.40    1.76
   0  -6  -1    0.04    0.15
   0  -6  -1    0.36    0.19
   0   6   1    0.25    0.21
   0   6   1    0.43    0.19
   0   6   1    0.11    0.24
   0   6   1   -1.76    1.95
   0   6   1    0.26    0.13
  -1  -6  -1   37.53    1.52
  -1  -6  -1   33.40    3.89
  -1  -6  -1   38.33    1.41
  -1  -6  -1   38.61    1.41
   1   6   1   35.10    1.50
   1   6   1   38.84    1.60
   1   6   1   36.55    1.46
   1   6   1   43.30    4.60
   1   6   1   37.73    1.49
  -2  -6  -1   15.85    3.12
  -2  -6  -1   18.57    0.83
  -2  -6  -1   18.76    0.93
   2   6   1   18.68    0.92
   2   6   1   17.79    4.00
   2   6   1   17.52    0.96
   2   6   1   18.93    0.87
   2   6   1   19.35    0.87
  -3  -6  -1    7.86    0.63
  -3  -6  -1    8.78    3.62
  -3  -6  -1    7.75    0.52
   3   6   1    8.20    0.61
   3   6   1    6.88    0.70
   3   6   1    8.36    0.55
   3   6   1    7.24    0.67
  -4  -6  -1   -5.11    4.27
  -4  -6  -1    8.19    0.77
  -4  -6  -1    7.36    0.83
   4   6   1    6.28    0.75
   4   6   1    8.71    1.11
   4   6   1    6.31    0.54
   4   6   1    8.65    5.66
   4   6   1    6.80    0.62
  -5  -6  -1    0.86    0.55
  -5  -6  -1   -0.74    0.51
  -5  -6  -1  -12.15    6.01
   5   6   1   -0.10    0.54
   5   6   1   -0.56    0.46
   5   6   1   -0.03    0.32
   5   6   1    1.09    8.82
  -5   7   1    3.71    0.43
  -5   7   1    3.95    0.60
   4  -7  -1    2.62    0.61
  -4   7   1    1.61    0.40
  -4   7   1    1.16    0.38
  -4   7   1    2.51    0.42
  -4   7   1    1.93    0.34
   3  -7  -1   23.26    3.88
   3  -7  -1   18.81    1.07
  -3   7   1   18.48    0.88
  -3   7   1   19.00    0.80
  -3   7   1   16.78    0.98
  -3   7   1   17.41    3.54
  -3   7   1   18.46    0.89
   2  -7  -1    7.06    0.60
   2  -7  -1    5.21    2.77
   2  -7  -1    7.17    0.38
   2  -7  -1    7.05    0.39
  -2   7   1    6.57    0.51
  -2   7   1    6.70    0.43
  -2   7   1    6.51    0.61
  -2   7   1    5.99    2.74
  -2   7   1    7.24    0.46
   1  -7  -1    2.51    0.32
   1  -7  -1    1.59    2.11
   1  -7  -1    2.46    0.25
   1  -7  -1    2.21    0.31
  -1   7   1    2.21    0.32
  -1   7   1    2.14    0.27
  -1   7   1    5.67    3.07
  -1   7   1    2.23    0.41
   0  -7  -1    8.19    0.44
   0  -7  -1    8.11    0.47
   0  -7  -1    8.28    0.53
   0  -7  -1    9.41    2.64
   0   7   1    8.04    0.48
   0   7   1    8.37    0.59
   0   7   1    7.37    0.54
   0   7   1    6.65    3.41
   0   7   1    8.10    0.71
  -1  -7  -1    3.06    2.61
  -1  -7  -1    2.46    0.38
  -1  -7  -1    2.02    0.25
  -1  -7  -1    2.18    0.26
   1   7   1   -1.83    3.31
   1   7   1    2.33    0.38
   1   7   1    2.17    0.43
   1   7   1    2.05    0.33
  -2  -7  -1    6.31    0.49
  -2  -7  -1    7.44    0.46
  -2  -7  -1    7.50    3.71
  -2  -7  -1    6.12    0.58
   2   7   1    7.01    0.53
   2   7   1    7.59    4.15
   2   7   1    6.80    0.70
   2   7   1    6.93    0.54
   2   7   1    7.09    0.61
  -3  -7  -1   19.93    0.98
  -3  -7  -1   19.04    1.05
  -3  -7  -1   17.90    8.78
   3   7   1   18.37    0.96
   3   7   1   17.03    6.02
   3   7   1   16.77    1.09
   3   7   1   17.90    0.97
  -4  -7  -1    1.90    0.54
  -4  -7  -1   -1.22    5.16
   4   7   1   -3.08    7.47
  -5  -7  -1    2.91    0.69
  -5  -7  -1    2.49    0.77
   5   7   1    2.40    0.61
   5   7   1    3.28    0.53
  -4   8   1   -0.22    0.26
  -4   8   1   -0.19    0.34
   3  -8  -1    4.39    0.62
  -3   8   1    3.52    0.48
  -3   8   1    4.20    0.72
  -3   8   1    4.63    0.42
  -3   8   1    3.74    0.62
   2  -8  -1   32.91    1.48
   2  -8  -1   32.43    1.25
   2  -8  -1   31.77    1.22
  -2   8   1   33.12    1.58
  -2   8   1   31.66    1.40
  -2   8   1   33.40    1.32
  -2   8   1   32.78    1.32
   1  -8  -1   28.08    1.19
   1  -8  -1   25.79    1.24
   1  -8  -1   29.11    1.26
  -1   8   1   29.16    1.21
  -1   8   1   31.52    1.38
  -1   8   1   30.93    6.12
  -1   8   1   28.78    1.42
  -1   8   1   29.14    1.30
   0  -8  -1    5.80    0.54
   0  -8  -1    5.23    0.41
   0  -8  -1    4.14    3.12
   0   8   1    6.49    0.77
   0   8   1    5.72    0.58
   0   8   1    4.98    0.45
   0   8   1    3.99    4.03
   0   8   1    6.37    0.62
  -1  -8  -1   31.49    4.59
  -1  -8  -1   28.43    1.35
  -1  -8  -1   27.75    1.17
  -1  -8  -1   28.49    1.18
   1   8   1   29.85    1.32
   1   8   1   30.99    1.29
   1   8   1   25.93    1.30
   1   8   1   33.59    6.04
  -2  -8  -1   32.24    1.28
  -2  -8  -1   29.47    1.27
  -2  -8  -1   31.17    1.49
   2   8   1   31.98    1.42
   2   8   1   31.10    1.39
  -3  -8  -1    3.63    0.59
  -3  -8  -1    3.47    0.49
   3   8   1    2.83    0.49
   3   8   1    3.25    0.50
  -4  -8  -1   -0.07    0.61
  -4  -8  -1    0.22    0.50
   4   8   1    0.06    0.47
   4   8   1    0.46    0.55
  -3   9   1    9.19    0.68
   2  -9  -1   15.39    1.02
  -2   9   1   15.04    1.07
  -2   9   1   14.68    0.82
   1  -9  -1    4.93    0.64
   1  -9  -1    4.97    0.52
   1  -9  -1    4.29    0.44
  -1   9   1    4.46    0.59
  -1   9   1    5.19    0.54
   0  -9  -1    0.27    0.27
   0  -9  -1   -0.19    0.30
   0  -9  -1    0.04    0.34
   0   9   1    0.17    0.38
   0   9   1    0.15    0.28
  -1  -9  -1    3.81    0.49
  -1  -9  -1    4.73    0.58
  -1  -9  -1    4.06    0.49
   1   9   1    5.07    0.58
   1   9   1    4.66    0.60
  -2  -9  -1   15.87    1.08
   2   9   1   14.05    1.00
   2   9   1   15.07    0.94
  -3  -9  -1    8.12    1.06
   3   9   1    9.28    0.92
   3   9   1    8.97    0.97
  -2  10   1    0.93    0.42
  -1  10   1    1.50    0.44
  -1  10   1    2.88    0.62
   0 -10  -1    1.03    0.47
   0  10   1    0.77    0.45
   0  10   1    1.09    0.59
  -1 -10  -1    0.00    0.52
   1  10   1    1.37    0.60
   1  10   1    1.70    0.49
  -2 -10  -1    0.49    0.67
   2  10   1   -0.64    0.58
   2  10  -2    1.47    0.70
  -2 -10   2   -0.23    0.61
   1  10  -2    3.33    0.69
   1  10  -2    2.40    0.60
  -1 -10   2    3.20    0.59
   0  10  -2    3.41    0.55
   0  10  -2    3.10    0.67
   0 -10   2    2.70    0.49
  -1  10  -2    3.10    0.52
  -1  10  -2    2.34    0.67
  -2  10  -2    0.28    0.43
   3   9  -2    4.43    0.69
   3   9  -2    4.92    0.70
  -3  -9   2    5.48    0.80
   2   9  -2    2.41    0.50
   2   9  -2    2.54    0.53
  -2  -9   2    3.04    0.59
   1   9  -2    4.27    0.59
   1   9  -2    3.25    0.47
  -1  -9   2    3.64    0.40
  -1  -9   2    4.31    0.51
  -1  -9   2    4.25    0.53
   0   9  -2    0.47    0.34
   0   9  -2   -0.08    0.40
   0  -9   2    0.14    0.25
   0  -9   2    0.54    0.33
   0  -9   2    0.14    0.26
  -1   9  -2    4.02    0.46
  -1   9  -2    3.79    0.58
   1  -9   2    4.31    0.53
   1  -9   2    3.61    0.38
  -2   9  -2    2.53    0.38
  -2   9  -2    1.98    0.54
  -3   9  -2    6.18    0.65
  -3   9  -2    5.30    0.73
  -3   9  -2    4.22    0.55
   4   8  -2    2.09    0.58
   4   8  -2    2.40    0.57
  -4  -8   2    2.52    0.55
  -4  -8   2    1.81    0.62
   3   8  -2    4.02    0.58
   3   8  -2    4.06    0.57
  -3  -8   2    3.02    0.37
  -3  -8   2    3.31    0.58
  -3  -8   2    3.00    0.45
   2   8  -2    7.22    0.64
   2   8  -2    7.65    0.63
  -2  -8   2    7.20    0.71
  -2  -8   2    6.71    0.45
  -2  -8   2    6.92    0.53
   1   8  -2    5.00    4.79
   1   8  -2    2.37    0.43
   1   8  -2    2.62    0.42
   1   8  -2    2.76    0.38
  -1  -8   2    2.93    0.41
  -1  -8   2    2.73    0.32
  -1  -8   2    2.73    0.35
   0   8  -2    5.94    0.49
   0   8  -2    5.15    0.69
   0   8  -2   10.69    4.89
   0   8  -2    5.34    0.59
   0   8  -2    4.70    0.56
   0  -8   2    6.40    0.38
   0  -8   2    4.43    0.44
   0  -8   2    5.55    0.42
  -1   8  -2    2.31    0.41
  -1   8  -2    8.17    3.88
  -1   8  -2    2.23    0.50
  -1   8  -2    2.36    0.42
   1  -8   2    2.54    0.34
   1  -8   2    2.51    0.27
   1  -8   2    2.30    0.27
  -2   8  -2    6.68    0.79
  -2   8  -2    7.47    0.72
  -2   8  -2    7.43    0.61
  -2   8  -2    6.72    0.45
  -2   8  -2    6.39    0.48
   2  -8   2    7.77    0.65
  -3   8  -2    3.49    0.43
  -3   8  -2    2.49    0.54
  -3   8  -2    3.68    0.45
   3  -8   2    3.72    0.59
  -4   8  -2    2.23    0.42
  -4   8  -2    1.74    0.44
  -4   8  -2    2.43    0.34
   4  -8   2    3.19    0.81
   5   7  -2    1.20    0.49
   5   7  -2    0.39    0.64
  -5  -7   2    1.57    0.67
  -5  -7   2    1.09    0.61
   4   7  -2    0.83    0.38
   4   7  -2    0.55    0.41
  -4  -7   2    1.14    0.42
  -4  -7   2    0.90    0.50
   3   7  -2    1.32    0.46
   3   7  -2    1.89    0.39
   3   7  -2    1.33    0.49
   3   7  -2    0.97    4.76
  -3  -7   2    1.90    0.34
  -3  -7   2    1.86    0.35
  -3  -7   2    2.41    0.49
  -3  -7   2   -2.79    4.03
   2   7  -2   12.44    0.88
   2   7  -2   10.25    4.70
   2   7  -2   13.31    0.78
   2   7  -2   14.10    0.77
   2   7  -2   12.76    0.81
  -2  -7   2   13.82    0.62
   1   7  -2   37.59    1.66
   1   7  -2   38.64    5.23
   1   7  -2   36.34    1.57
   1   7  -2   38.59    1.59
   1   7  -2   38.80    1.54
  -1  -7   2   33.22    4.80
  -1  -7   2   38.64    1.44
  -1  -7   2   38.96    1.56
  -1  -7   2   37.95    1.41
   0   7  -2    2.11    0.41
   0   7  -2    1.98    0.34
   0   7  -2    2.10    0.28
   0   7  -2    2.29    0.35
   0   7  -2    2.35    2.91
   0  -7   2    2.01    0.27
   0  -7   2    1.96    0.26
  -1   7  -2   37.22    1.51
  -1   7  -2   36.63    1.62
  -1   7  -2   40.21    1.61
  -1   7  -2   39.30    1.46
  -1   7  -2   35.29    4.67
   1  -7   2   38.24    3.93
   1  -7   2   38.38    1.38
   1  -7   2   37.43    1.42
   1  -7   2   37.22    1.48
  -2   7  -2   14.19    0.66
  -2   7  -2   14.33    0.72
  -2   7  -2   15.12    3.32
  -2   7  -2   14.06    0.87
   2  -7   2   11.88    2.79
  -3   7  -2    1.51    0.23
  -3   7  -2    2.35    0.34
  -3   7  -2    1.86    0.31
  -3   7  -2    1.53    0.40
  -3   7  -2    2.20    2.49
   3  -7   2    3.26    2.68
   3  -7   2    1.76    0.42
  -4   7  -2    1.01    0.23
  -4   7  -2    0.74    0.33
  -4   7  -2    1.19    0.37
  -4   7  -2    1.07    0.34
   4  -7   2    0.73    0.54
  -5   7  -2    0.64    0.44
  -5   7  -2    0.70    0.29
   5   6  -2    1.68    7.72
   5   6  -2   -0.40    0.53
   5   6  -2    0.14    0.47
   5   6  -2    0.36    0.38
  -5  -6   2  -12.79    5.93
  -5  -6   2   -0.19    0.45
  -5  -6   2   -0.47    0.48
   4   6  -2    3.31    5.89
   4   6  -2    4.46    0.57
   4   6  -2    4.44    0.55
   4   6  -2    4.05    0.53
  -4  -6   2    3.30    4.51
  -4  -6   2    3.81    0.54
  -4  -6   2    4.27    0.60
   3   6  -2   28.83    1.39
   3   6  -2   30.61    1.30
   3   6  -2   27.65    1.28
   3   6  -2   32.88    5.68
   3   6  -2   27.66    1.32
  -3  -6   2   29.49    1.24
  -3  -6   2   29.96    1.29
  -3  -6   2   31.51    1.35
  -3  -6   2   32.99    4.83
   2   6  -2   38.27    1.67
   2   6  -2   38.35    1.62
   2   6  -2   43.18    1.63
   2   6  -2   35.71    5.20
   2   6  -2   40.51    1.61
  -2  -6   2   31.52    4.68
  -2  -6   2   40.84    1.63
  -2  -6   2   39.72    1.52
   1   6  -2   15.49    0.73
   1   6  -2   16.02    0.78
   1   6  -2   15.21    0.77
   1   6  -2   14.91    0.84
   1   6  -2   12.53    3.09
  -1  -6   2   15.45    0.63
  -1  -6   2   17.57    3.06
  -1  -6   2   14.83    0.66
  -1  -6   2   16.45    0.77
   0   6  -2   13.94    0.71
   0   6  -2   14.45    0.73
   0   6  -2   14.05    0.64
   0   6  -2   15.91    2.99
   0  -6   2   14.44    0.60
   0  -6   2   15.11    0.68
   0  -6   2   14.13    0.61
  -1   6  -2   15.08    0.71
  -1   6  -2   14.24    0.61
  -1   6  -2   16.41    2.67
  -1   6  -2   14.89    0.76
  -1   6  -2   15.25    0.64
  -1   6  -2   14.13    0.78
   1  -6   2   11.98    2.14
   1  -6   2   14.69    0.67
   1  -6   2   15.59    0.63
  -2   6  -2   38.84    1.43
  -2   6  -2   39.98    1.39
  -2   6  -2   35.61    3.56
  -2   6  -2   39.61    1.55
  -2   6  -2   30.60    1.59
   2  -6   2   43.21    3.59
   2  -6   2   36.39    1.50
  -3   6  -2   30.15    1.20
  -3   6  -2   30.25    1.15
  -3   6  -2   29.37    1.25
  -3   6  -2   34.51    3.51
  -3   6  -2   30.41    1.30
   3  -6   2   30.54    1.37
   3  -6   2   33.78    3.72
  -4   6  -2    4.02    0.44
  -4   6  -2    5.02    0.35
  -4   6  -2    5.13    0.61
  -4   6  -2    6.07    0.84
   4  -6   2    5.60    0.67
   4  -6   2    6.43    2.86
  -5   6  -2   -0.23    0.24
  -5   6  -2   -0.01    0.36
  -5   6  -2   -0.30    0.39
  -5   6  -2    0.07    0.23
   6   5  -2    5.99    0.71
   6   5  -2    4.25    0.60
  -6  -5   2    5.74    0.82
  -6  -5   2    4.69    0.79
   5   5  -2    6.72    0.61
   5   5  -2    5.30    6.54
   5   5  -2    5.68    0.64
   5   5  -2    7.48    0.74
  -5  -5   2    4.54    5.19
  -5  -5   2    6.62    0.79
  -5  -5   2    6.62    0.59
  -5  -5   2    6.49    0.73
   4   5  -2    0.77    0.31
   4   5  -2    0.85    0.38
   4   5  -2    1.36    0.30
   4   5  -2    0.21    4.24
   4   5  -2    0.58    0.36
  -4  -5   2    0.89    0.37
  -4  -5   2   -6.32    3.27
  -4  -5   2    0.73    0.25
  -4  -5   2    1.34    0.34
  -4  -5   2    0.45    0.28
   3   5  -2   64.26    2.40
   3   5  -2   67.07    6.63
   3   5  -2   63.02    2.44
   3   5  -2   58.89    2.42
   3   5  -2   64.21    2.39
  -3  -5   2   63.15    2.35
  -3  -5   2   62.81    2.41
  -3  -5   2   64.48    2.35
  -3  -5   2   59.19    5.85
  -3  -5   2   66.57    2.45
   2   5  -2   13.68    0.71
   2   5  -2   12.07    0.66
   2   5  -2   15.18    0.68
   2   5  -2   15.42    3.32
  -2  -5   2   13.11    0.61
  -2  -5   2   11.93    0.70
  -2  -5   2   11.98    2.68
   1   5  -2   25.55    3.32
   1   5  -2   26.34    1.06
   1   5  -2   25.98    1.11
   1   5  -2   27.61    1.10
  -1  -5   2   26.16    1.01
  -1  -5   2   25.68    0.98
  -1  -5   2   26.19    3.11
  -1  -5   2   27.37    1.10
   0   5  -2   33.85    1.24
   0   5  -2   31.37    1.30
   0   5  -2   33.83    1.29
   0   5  -2   27.16    3.06
   0  -5   2   33.38    1.20
   0  -5   2   32.19    1.22
   0  -5   2   34.41    1.26
  -1   5  -2   26.79    1.04
  -1   5  -2   28.45    2.82
  -1   5  -2   26.94    1.00
   1  -5   2   32.47    2.50
   1  -5   2   25.48    1.03
   1  -5   2   25.91    1.03
   1  -5   2   25.82    0.99
  -2   5  -2   13.20    1.87
  -2   5  -2   12.85    0.58
  -2   5  -2   12.91    0.60
  -2   5  -2   13.51    0.54
   2  -5   2   12.49    0.66
   2  -5   2   12.13    1.99
  -3   5  -2   62.55    2.34
  -3   5  -2   64.88    3.85
  -3   5  -2   63.04    2.28
  -3   5  -2   64.62    2.37
  -3   5  -2   65.39    2.25
   3  -5   2   60.63    4.13
   3  -5   2   62.77    2.44
  -4   5  -2    1.55    0.35
  -4   5  -2    1.02    0.24
  -4   5  -2    1.13    0.20
  -4   5  -2    1.00    1.61
  -4   5  -2    1.04    0.21
   4  -5   2    0.82    0.42
  -5   5  -2    5.42    0.43
  -5   5  -2    6.17    0.65
  -5   5  -2    7.62    0.58
  -5   5  -2    3.69    2.28
  -6   5  -2    4.43    0.52
  -6   5  -2    4.01    0.72
   6   4  -2    2.05    0.50
   6   4  -2    1.45    0.42
  -6  -4   2    1.14    0.61
  -6  -4   2    2.37    0.43
  -6  -4   2    1.04    0.58
   5   4  -2   14.98    0.88
   5   4  -2   23.18    6.32
   5   4  -2   14.72    0.80
   5   4  -2   15.94    0.97
   5   4  -2   15.05    0.86
  -5  -4   2   14.17    0.79
  -5  -4   2   14.94    0.97
  -5  -4   2   15.92    1.00
  -5  -4   2   13.82    5.20
   4   4  -2   45.17    6.58
   4   4  -2   43.35    1.73
   4   4  -2   41.67    1.66
   4   4  -2   41.56    1.70
   4   4  -2   44.55    1.73
  -4  -4   2   42.04    1.68
  -4  -4   2   42.41    5.71
  -4  -4   2   41.70    1.78
  -4  -4   2   41.17    1.64
   3   4  -2   98.94    3.50
   3   4  -2   95.88    3.45
   3   4  -2   97.82    3.50
   3   4  -2   93.57    3.46
   3   4  -2   96.22    7.01
  -3  -4   2   90.60    6.36
  -3  -4   2   90.95    3.41
  -3  -4   2   95.51    3.43
  -3  -4   2  102.18    3.51
  -3  -4   2   96.34    3.50
   2   4  -2    5.50    0.36
   2   4  -2    5.50    0.40
   2   4  -2    3.45    2.14
   2   4  -2    4.80    0.35
  -2  -4   2    5.92    0.36
  -2  -4   2    5.90    0.40
  -2  -4   2    4.81    2.01
   1   4  -2  141.82    4.88
   1   4  -2  137.06    4.91
   1   4  -2  143.05    4.91
   1   4  -2  142.79    7.02
  -1  -4   2  146.35    4.92
  -1  -4   2  138.41    4.85
  -1  -4   2  135.59    6.75
   0   4  -2    0.14    0.08
   0   4  -2    0.06    0.10
   0   4  -2    0.04    0.10
   0   4  -2    0.37    1.17
   0  -4   2    0.14    0.10
   0  -4   2    0.07    0.06
   0  -4   2    0.03    0.06
  -1   4  -2  130.14    4.59
  -1   4  -2  146.56    5.98
  -1   4  -2  134.24    4.62
  -1   4  -2  131.11    4.58
   1  -4   2  135.17    4.57
   1  -4   2  140.83    5.73
   1  -4   2  131.00    4.64
   1  -4   2  126.47    4.55
  -2   4  -2    4.47    1.02
  -2   4  -2    5.42    0.33
  -2   4  -2    5.59    0.25
  -2   4  -2    4.53    0.28
   2  -4   2    7.11    1.23
   2  -4   2    4.83    0.37
  -3   4  -2   98.60    4.61
  -3   4  -2   93.56    3.38
  -3   4  -2   94.49    3.37
  -3   4  -2   99.04    3.43
  -3   4  -2   96.20    3.51
   3  -4   2  114.16    5.07
   3  -4   2   91.94    3.55
  -4   4  -2   41.24    1.70
  -4   4  -2   40.22    1.53
  -4   4  -2   44.07    3.75
  -4   4  -2   42.63    1.52
  -4   4  -2   39.89    3.04
   4  -4   2   38.95    1.74
  -5   4  -2   14.68    0.70
  -5   4  -2   13.92    2.52
  -5   4  -2   13.35    0.93
  -5   4  -2   15.05    0.76
  -6   4  -2    2.41    0.93
  -6   4  -2    0.96    0.46
  -6   4  -2    1.98    0.57
   6   3  -2    8.40    0.71
   6   3  -2    8.38    0.86
  -6  -3   2   10.17    0.71
  -6  -3   2    9.70    0.99
  -6  -3   2    8.56    0.82
   5   3  -2    4.23    0.46
   5   3  -2    4.54    0.49
   5   3  -2    4.31    0.45
   5   3  -2    3.32    4.75
   5   3  -2    4.90    0.54
  -5  -3   2    5.08    0.66
  -5  -3   2    4.37    0.49
  -5  -3   2    5.21    0.48
  -5  -3   2    5.30    0.56
  -5  -3   2    3.88    3.77
   4   3  -2   54.87    2.12
   4   3  -2   50.83    5.82
   4   3  -2   55.92    2.11
   4   3  -2   53.44    2.06
   4   3  -2   53.32    2.07
  -4  -3   2   52.48    2.08
  -4  -3   2   58.42    2.17
  -4  -3   2   57.00    2.07
  -4  -3   2   55.66    5.53
  -4  -3   2   57.28    2.21
   3   3  -2   60.05    2.18
   3   3  -2   54.45    4.90
   3   3  -2   60.48    2.19
   3   3  -2   59.02    2.20
   3   3  -2   60.73    2.22
  -3  -3   2   61.33    2.19
  -3  -3   2   59.04    4.87
  -3  -3   2   58.44    2.24
  -3  -3   2   58.44    2.23
  -3  -3   2   57.96    2.16
   2   3  -2   42.07    1.59
   2   3  -2   44.40    1.63
   2   3  -2   42.59    1.60
   2   3  -2   45.42    3.76
  -2  -3   2   41.75    1.58
  -2  -3   2   41.12    1.62
  -2  -3   2   41.84    3.55
  -2  -3   2   45.14    1.59
   1   3  -2    7.38    0.36
   1   3  -2    7.26    0.39
   1   3  -2    7.78    1.51
   1   3  -2    8.38    0.38
  -1  -3   2    7.37    0.34
  -1  -3   2    6.95    0.38
  -1  -3   2    6.90    0.36
  -1  -3   2    5.78    1.39
   0   3  -2   18.39    0.72
   0   3  -2   19.31    0.75
   0   3  -2   20.15    0.77
   0  -3   2   20.20    0.70
   0  -3   2   18.94    0.70
   0  -3   2   19.05    0.74
  -1   3  -2    6.52    0.99
  -1   3  -2    7.96    0.31
  -1   3  -2    7.70    0.35
  -1   3  -2    7.45    0.34
   1  -3   2    7.16    0.98
   1  -3   2    7.68    0.37
   1  -3   2    8.14    0.30
   1  -3   2    8.29    0.30
  -2   3  -2   42.60    1.47
  -2   3  -2   42.86    1.48
  -2   3  -2   39.40    2.22
  -2   3  -2   42.55    1.57
   2  -3   2   41.34    1.59
   2  -3   2   41.88    2.39
  -3   3  -2   59.54    2.03
  -3   3  -2   56.94    2.17
  -3   3  -2   57.91    2.03
  -3   3  -2   58.39    2.04
   3  -3   2   54.77    2.22
  -4   3  -2   57.12    2.20
  -4   3  -2   56.11    3.96
  -4   3  -2   56.09    2.01
  -4   3  -2   55.46    3.58
  -4   3  -2   53.71    2.01
   4  -3   2   54.12    2.22
  -5   3  -2    3.94    0.45
  -5   3  -2    4.64    0.38
  -5   3  -2    5.35    0.55
  -5   3  -2    0.10    2.38
  -5   3  -2    6.09    2.31
  -5   3  -2    4.14    0.61
  -6   3  -2    8.06    0.64
  -6   3  -2    8.55    0.71
  -6   3  -2    9.81    0.88
  -6   3  -2    8.40    0.84
   7   2  -2   12.24    1.13
  -7  -2   2    9.21    1.23
  -7  -2   2   10.76    1.01
   6   2  -2    3.53    0.52
   6   2  -2    4.41    0.53
  -6  -2   2    3.96    0.57
  -6  -2   2    2.79    0.45
  -6  -2   2    3.73    0.63
   5   2  -2    1.25    0.30
   5   2  -2    0.61    0.20
   5   2  -2    0.78    0.30
  -5  -2   2    0.69    3.55
  -5  -2   2    1.04    0.31
  -5  -2   2    0.56    0.35
  -5  -2   2    0.87    0.31
  -5  -2   2    1.03    0.29
   4   2  -2   15.86    0.67
   4   2  -2   14.88    0.76
   4   2  -2   15.89    0.71
   4   2  -2   15.79    0.73
   4   2  -2   17.64    3.64
  -4  -2   2   15.44    3.19
  -4  -2   2   12.59    0.69
  -4  -2   2   15.12    0.84
  -4  -2   2   13.85    0.77
  -4  -2   2   15.27    0.75
   3   2  -2  104.80    6.31
   3   2  -2   99.61    3.68
   3   2  -2  104.32    3.70
   3   2  -2  105.95    3.66
   3   2  -2  106.11    3.72
  -3  -2   2   99.72    5.98
  -3  -2   2  108.61    3.68
  -3  -2   2  103.53    3.77
  -3  -2   2  104.73    3.71
  -3  -2   2  107.26    3.73
   2   2  -2   57.76    3.80
   2   2  -2   54.66    1.93
   2   2  -2   52.43    1.91
  -2  -2   2   52.41    1.90
  -2  -2   2   50.37    1.93
  -2  -2   2   53.29    3.52
  -2  -2   2   55.02    1.93
  -2  -2   2   49.77    1.89
   1   2  -2  116.60    3.66
   1   2  -2  107.29    3.66
   1   2  -2  105.39    3.64
   1   2  -2  110.52    5.01
  -1  -2   2  104.20    4.90
  -1  -2   2  100.25    3.63
  -1  -2   2  103.46    3.66
  -1  -2   2   97.62    3.67
   0   2  -2    5.24    1.00
   0   2  -2    4.08    0.22
   0   2  -2    4.59    0.22
   0   2  -2    4.55    0.20
   0  -2   2    4.32    0.21
   0  -2   2    4.69    0.18
  -1   2  -2  100.07    3.53
  -1   2  -2  103.25    3.48
  -1   2  -2   99.49    3.49
  -1   2  -2  112.14    4.00
   1  -2   2   98.22    3.54
  -2   2  -2   50.71    2.44
  -2   2  -2   49.72    1.87
  -2   2  -2   53.36    1.77
  -2   2  -2   50.47    1.77
   2  -2   2   49.81    2.54
   2  -2   2   51.41    1.89
  -3   2  -2   95.81    3.50
  -3   2  -2  102.88    3.55
  -3   2  -2  103.90    4.67
  -3   2  -2  103.25    3.56
  -3   2  -2  104.93    3.50
  -3   2  -2  106.05    4.95
  -3   2  -2  101.59    3.69
   3  -2   2  104.12    3.72
  -4   2  -2   14.53    0.67
  -4   2  -2   14.96    0.67
  -4   2  -2   15.44    0.73
  -4   2  -2   18.53    2.74
  -4   2  -2   14.63    2.13
  -4   2  -2   15.50    0.85
  -5   2  -2    0.25    0.21
  -5   2  -2    0.49    2.33
  -5   2  -2    0.92    0.35
  -5   2  -2    1.11    0.31
  -5   2  -2    3.59    2.28
  -5   2  -2    0.61    0.25
  -6   2  -2    2.96    0.48
  -6   2  -2    3.79    0.52
  -6   2  -2    3.93    0.67
  -6   2  -2    4.56    0.56
  -7   2  -2   10.84    0.94
  -7  -1   2    2.25    0.81
  -7  -1   2    3.29    0.69
   6   1  -2    1.56    0.40
   6   1  -2    1.45    0.30
  -6  -1   2    1.91    0.41
  -6  -1   2    1.79    0.42
  -6  -1   2    1.11    0.48
   5   1  -2   12.24    0.70
   5   1  -2   12.49    0.63
  -5  -1   2   12.20    0.69
  -5  -1   2    8.71    3.61
  -5  -1   2   11.47    3.69
  -5  -1   2   11.46    0.84
  -5  -1   2   11.66    0.72
  -5  -1   2   13.31    0.76
   4   1  -2    7.04    0.45
   4   1  -2    6.32    0.32
   4   1  -2    7.31    0.42
  -4  -1   2    9.41    2.64
  -4  -1   2    6.97    0.46
  -4  -1   2    6.74    0.53
  -4  -1   2    6.18    0.44
  -4  -1   2    6.62    0.44
   3   1  -2   51.30    1.93
   3   1  -2   54.67    1.94
   3   1  -2   52.15    4.12
   3   1  -2   52.64    1.88
   3   1  -2   52.43    1.95
  -3  -1   2   52.45    2.02
  -3  -1   2   54.89    3.99
  -3  -1   2   55.77    1.98
  -3  -1   2   55.48    1.95
  -3  -1   2   50.29    1.93
   2   1  -2   78.80    2.80
   2   1  -2   80.39    2.79
   2   1  -2   77.89    2.79
   2   1  -2   80.53    4.37
  -2  -1   2   77.74    2.79
  -2  -1   2   78.86    2.83
  -2  -1   2   80.37    4.29
  -2  -1   2   78.79    2.80
  -2  -1   2   83.37    2.80
   1   1  -2  455.13   16.40
  -1  -1   2  450.70   16.38
   0   1  -2   32.84    1.11
   0   1  -2   31.78    1.10
   0   1  -2   30.14    1.51
   0  -1   2   31.00    1.10
   0  -1   2   32.64    1.11
   0  -1   2   33.13    1.12
  -1   1  -2  441.42   15.34
   1  -1   2  454.56   15.39
  -2   1  -2   78.25    3.45
  -2   1  -2   75.72    2.64
  -2   1  -2   77.61    2.66
  -2   1  -2   71.64    3.46
  -2   1  -2   79.31    2.77
  -2   1  -2   78.97    2.67
   2  -1   2   78.46    2.77
  -3   1  -2   50.83    3.15
  -3   1  -2   53.38    1.85
  -3   1  -2   52.04    1.87
  -3   1  -2   48.89    1.97
  -3   1  -2   53.27    1.86
  -3   1  -2   49.95    3.17
   3  -1   2   51.85    1.77
   3  -1   2   51.57    1.76
  -4   1  -2    5.11    1.87
  -4   1  -2    4.02    1.75
  -4   1  -2    6.39    0.51
  -4   1  -2    6.25    0.39
  -4   1  -2    6.28    0.39
  -4   1  -2    6.24    0.40
   4  -1   2    6.25    0.25
  -5   1  -2   11.76    0.82
  -5   1  -2   12.92    0.67
  -5   1  -2    9.96    2.85
  -5   1  -2   11.92    0.67
  -5   1  -2    9.96    2.74
  -5   1  -2   12.21    0.66
  -6   1  -2    2.23    0.42
  -6   1  -2    2.97    0.60
  -6   1  -2    2.23    0.43
  -6   1  -2    1.86    0.55
  -7   1  -2    3.48    0.59
  -7   1  -2    2.00    0.78
  -7   0   2    0.56    0.72
  -7   0   2    1.18    0.56
   6   0  -2    5.11    0.41
  -6   0   2    4.64    0.55
  -6   0   2    6.02    0.79
  -6   0   2    4.77    0.55
  -6   0   2    5.43    0.68
   5   0  -2   22.22    0.91
   5   0  -2   21.67    0.96
  -5   0   2   22.52    1.15
  -5   0   2   21.65    1.03
  -5   0   2   21.30    3.89
  -5   0   2   21.00    1.01
  -5   0   2   22.93    1.02
  -5   0   2   27.04    4.28
   4   0  -2    0.17    0.17
   4   0  -2    0.07    0.13
  -4   0   2    0.29    0.16
  -4   0   2    0.42    0.18
  -4   0   2    0.14    0.16
  -4   0   2    2.95    2.00
  -4   0   2    0.26    0.23
   3   0  -2    4.48    0.18
   3   0  -2    4.39    0.18
   3   0  -2    4.16    0.30
   3   0  -2    4.65    0.27
   3   0  -2    3.68    0.36
  -3   0   2    4.67    0.31
  -3   0   2    4.89    0.31
  -3   0   2    4.39    0.30
  -3   0   2    5.13    1.57
  -3   0   2    6.82    1.81
  -3   0   2    4.19    0.36
   2   0  -2  431.18   15.47
   2   0  -2  463.78   15.46
  -2   0   2  445.98   15.47
  -2   0   2  439.27   15.42
  -2   0   2  456.64   15.41
  -2   0   2  473.13   16.95
  -2   0   2  476.98   16.84
  -1   0   2  369.08   13.47
  -1   0   2  377.78   13.43
  -1   0  -2  341.63   12.43
   1   0   2  366.50   12.49
  -2   0  -2  442.31   15.51
   2   0   2  470.06   16.61
  -3   0  -2    4.20    0.29
  -3   0  -2    4.12    0.37
  -3   0  -2    3.87    0.28
  -3   0  -2    4.62    0.27
  -3   0  -2    4.11    1.32
   3   0   2    4.04    1.44
   3   0   2    4.64    0.20
   3   0   2    4.58    0.23
   3   0   2    4.28    0.25
  -4   0  -2    2.16    1.71
  -4   0  -2    0.00    0.16
  -4   0  -2    0.23    0.14
  -4   0  -2   -0.03    0.16
  -4   0  -2    0.10    0.22
   4   0   2    0.31    0.10
   4   0   2   -0.07    0.12
  -5   0  -2   21.17    0.97
  -5   0  -2   21.88    1.15
  -5   0  -2   18.02    3.57
  -5   0  -2   21.55    1.00
  -5   0  -2   19.84    3.52
  -5   0  -2   21.36    0.95
   5   0   2   21.99    0.85
   5   0   2   21.39    0.82
  -6   0  -2    6.55    0.64
  -6   0  -2    5.44    0.62
  -6   0  -2    5.11    0.73
  -6   0  -2    5.11    0.55
   6   0   2    5.16    0.27
  -7   0  -2    1.52    0.55
  -7   0  -2    1.23    0.72
  -7   1   2    1.14    0.80
  -7   1   2    2.74    0.63
   6  -1  -2    1.89    0.25
   6  -1  -2    1.78    0.21
  -6   1   2    2.37    0.47
  -6   1   2    2.26    0.44
  -6   1   2    2.22    0.41
  -6   1   2    1.25    0.47
   5  -1  -2   11.37    0.54
   5  -1  -2   11.72    0.59
  -5   1   2   11.13    3.20
  -5   1   2   13.13    0.70
  -5   1   2   12.31    0.73
  -5   1   2   11.55    0.79
  -5   1   2   13.21    3.34
  -5   1   2   12.23    0.67
   4  -1  -2    6.15    0.54
   4  -1  -2    6.36    0.33
   4  -1  -2    6.82    0.38
  -4   1   2    5.68    2.21
  -4   1   2    6.07    0.41
  -4   1   2    6.35    0.43
  -4   1   2    5.55    0.49
  -4   1   2    6.04    0.49
  -4   1   2    9.49    2.26
   3  -1  -2   55.12    1.89
   3  -1  -2   49.79    2.01
   3  -1  -2   52.66    1.86
  -3   1   2   52.26    1.90
  -3   1   2   51.07    3.50
  -3   1   2   51.53    1.93
  -3   1   2   53.43    3.66
  -3   1   2   55.31    2.02
  -3   1   2   51.49    1.90
   2  -1  -2   76.65    2.81
   2  -1  -2   80.62    2.72
   2  -1  -2   78.67    2.73
  -2   1   2   78.73    2.74
  -2   1   2   79.48    3.90
  -2   1   2   79.24    2.67
  -2   1   2   79.49    2.74
  -2   1   2   81.60    2.77
  -2   1   2   73.27    2.79
  -1   1   2  441.98   15.62
   0  -1  -2   31.79    1.12
   0  -1  -2   29.10    1.52
   0  -1  -2   34.61    1.11
   0   1   2   33.93    1.58
   0   1   2   32.46    1.12
   0   1   2   34.76    1.14
   0   1   2   27.80    1.13
  -1  -1  -2  447.21   15.48
   1   1   2  416.60   15.47
  -2  -1  -2   80.91    5.42
  -2  -1  -2   75.78    2.70
  -2  -1  -2   79.94    2.75
  -2  -1  -2   77.96    2.73
   2   1   2   77.99    2.72
   2   1   2   75.89    4.07
   2   1   2   77.19    2.72
   2   1   2   77.21    2.70
   2   1   2   82.54    2.83
  -3  -1  -2   52.21    1.90
  -3  -1  -2   53.30    1.93
  -3  -1  -2   47.54    3.67
  -3  -1  -2   51.61    2.01
  -3  -1  -2   52.46    1.90
   3   1   2   51.71    1.85
   3   1   2   53.46    1.88
   3   1   2   50.66    3.89
   3   1   2   53.23    1.88
  -4  -1  -2    4.91    2.19
  -4  -1  -2    7.04    0.38
  -4  -1  -2    6.72    0.43
  -4  -1  -2    6.30    0.45
  -4  -1  -2    6.11    0.56
   4   1   2    6.47    0.39
   4   1   2    6.51    0.33
   4   1   2    6.49    0.37
   4   1   2    6.34    2.49
  -5  -1  -2   11.17    0.60
  -5  -1  -2   12.17    0.72
  -5  -1  -2   12.20    0.84
  -5  -1  -2   12.55    0.66
  -5  -1  -2   17.75    3.44
   5   1   2   11.76    0.60
   5   1   2   11.99    0.57
   5   1   2   11.03    0.45
  -6  -1  -2    2.47    0.35
  -6  -1  -2    2.43    0.55
  -6  -1  -2    0.86    0.42
  -6  -1  -2    2.49    0.47
   6   1   2    2.23    0.31
   6   1   2    1.90    0.26
  -7  -1  -2    1.89    0.61
  -7  -1  -2    2.10    0.81
  -7   2   2   10.86    0.93
  -6   2   2    3.28    0.45
  -6   2   2    5.60    0.80
  -6   2   2    5.99    0.67
  -6   2   2    3.79    0.58
   5  -2  -2    0.82    0.42
   5  -2  -2    0.59    0.13
  -5   2   2    0.54    0.29
  -5   2   2    0.88    2.51
  -5   2   2   -0.87    2.77
  -5   2   2    1.13    0.26
  -5   2   2    0.79    0.29
  -5   2   2    0.76    0.35
   4  -2  -2   14.42    0.63
   4  -2  -2   14.48    0.85
   4  -2  -2   14.81    0.59
  -4   2   2   15.13    0.76
  -4   2   2   15.10    0.69
  -4   2   2   13.03    2.83
  -4   2   2   15.92    0.84
  -4   2   2   15.28    2.59
   3  -2  -2  102.40    3.48
   3  -2  -2  101.30    3.69
  -3   2   2   97.21    3.43
  -3   2   2  102.68    3.53
  -3   2   2  105.71    3.54
  -3   2   2   98.94    5.04
  -3   2   2   98.45    3.63
   2  -2  -2   48.46    2.94
   2  -2  -2   51.38    1.91
   2  -2  -2   51.85    1.80
   2  -2  -2   51.65    1.81
  -2   2   2   54.41    1.80
  -2   2   2   50.25    1.88
  -2   2   2   50.27    1.81
  -2   2   2   52.42    2.86
  -2   2   2   50.22    1.81
   1  -2  -2  103.75    3.50
   1  -2  -2  101.88    3.50
   1  -2  -2   97.84    3.55
  -1   2   2  101.66    3.51
  -1   2   2  110.37    3.54
  -1   2   2   99.50    3.52
  -1   2   2   99.89    3.49
   0  -2  -2    4.82    0.23
   0  -2  -2    4.58    0.21
   0  -2  -2    4.56    0.22
   0  -2  -2    4.98    0.25
   0  -2  -2    4.32    0.80
   0   2   2    4.52    0.23
   0   2   2    4.64    0.21
   0   2   2    4.43    0.78
   0   2   2    4.84    0.26
  -1  -2  -2  108.93    3.67
  -1  -2  -2   99.41    3.63
  -1  -2  -2  110.93    4.83
   1   2   2   99.67    3.62
   1   2   2  113.86    3.74
   1   2   2  110.41    4.93
   1   2   2  105.77    3.66
   1   2   2  100.41    3.64
  -2  -2  -2   51.87    1.87
  -2  -2  -2   52.35    1.90
  -2  -2  -2   50.55    1.83
  -2  -2  -2   46.05    3.72
   2   2   2   53.70    3.54
   2   2   2   52.02    1.84
   2   2   2   52.79    1.87
   2   2   2   53.66    1.89
   2   2   2   53.90    1.89
  -3  -2  -2  103.95    3.79
  -3  -2  -2  103.28    3.68
  -3  -2  -2  109.88    5.91
  -3  -2  -2  109.22    3.74
  -3  -2  -2  103.25    3.63
   3   2   2  106.28    3.69
   3   2   2  101.45    6.02
   3   2   2  100.05    3.68
   3   2   2  103.96    3.64
   3   2   2  108.65    3.68
  -4  -2  -2   15.44    0.88
  -4  -2  -2   13.56    2.78
  -4  -2  -2   15.68    0.67
  -4  -2  -2   15.61    0.73
  -4  -2  -2   15.64    0.79
   4   2   2   19.82    3.56
   4   2   2   15.77    0.74
   4   2   2   15.80    0.70
   4   2   2   15.28    0.72
   4   2   2   15.73    0.67
  -5  -2  -2    0.76    0.30
  -5  -2  -2    1.17    0.22
  -5  -2  -2    0.79    0.39
  -5  -2  -2    0.51    0.30
  -5  -2  -2    2.41    3.10
   5   2   2    1.03    0.24
   5   2   2    0.85    0.27
   5   2   2   -1.24    3.71
   5   2   2    0.58    0.20
  -6  -2  -2    3.07    0.57
  -6  -2  -2    3.26    0.56
  -6  -2  -2    4.39    0.69
   6   2   2    3.51    0.44
   6   2   2    3.54    0.38
   6   2   2    3.16    0.26
  -7  -2  -2   10.83    1.12
  -6   3   2    7.19    0.89
  -6   3   2    9.48    0.79
  -6   3   2    8.58    0.65
  -6   3   2    8.72    0.91
   5  -3  -2    5.41    0.72
  -5   3   2    5.02    0.45
  -5   3   2    5.98    2.64
  -5   3   2    3.69    2.98
  -5   3   2    5.05    0.50
  -5   3   2    4.42    0.56
  -5   3   2    3.80    0.50
   4  -3  -2   54.88    1.86
   4  -3  -2   55.63    1.87
   4  -3  -2   51.89    2.17
  -4   3   2   50.16    3.98
  -4   3   2   53.21    1.99
  -4   3   2   54.38    1.97
  -4   3   2   52.29    2.11
  -4   3   2   51.32    4.44
   3  -3  -2   50.85    3.79
   3  -3  -2   57.78    2.23
   3  -3  -2   58.98    2.04
   3  -3  -2   58.33    2.03
  -3   3   2   57.09    3.68
  -3   3   2   57.00    2.18
  -3   3   2   58.23    2.07
  -3   3   2   58.56    2.09
  -3   3   2   60.41    2.04
   2  -3  -2   40.59    2.76
   2  -3  -2   42.04    1.62
   2  -3  -2   42.83    1.51
   2  -3  -2   41.41    1.51
  -2   3   2   40.97    1.54
  -2   3   2   42.72    1.59
  -2   3   2   43.81    1.52
  -2   3   2   43.20    1.53
  -2   3   2   44.16    2.70
   1  -3  -2    7.48    0.34
   1  -3  -2    7.54    0.37
  -1   3   2    6.70    0.34
  -1   3   2    6.82    0.37
  -1   3   2    7.95    0.35
  -1   3   2    8.36    0.33
   0  -3  -2   19.48    0.76
   0  -3  -2   19.73    0.75
   0  -3  -2   20.22    1.75
   0  -3  -2   19.38    0.72
   0   3   2   19.47    0.76
   0   3   2   17.24    1.74
   0   3   2   18.81    0.73
   0   3   2   20.66    0.80
  -1  -3  -2    7.94    1.45
  -1  -3  -2    7.33    0.33
  -1  -3  -2    7.18    0.37
   1   3   2    6.98    0.34
   1   3   2    6.97    0.34
   1   3   2    6.87    0.37
   1   3   2    7.20    0.39
   1   3   2    6.43    1.45
  -2  -3  -2   43.95    1.57
  -2  -3  -2   43.72    1.54
  -2  -3  -2   42.80    3.31
  -2  -3  -2   43.80    1.62
   2   3   2   43.76    1.61
   2   3   2   41.04    1.55
   2   3   2   43.10    1.59
   2   3   2   40.75    1.61
   2   3   2   41.16    3.55
  -3  -3  -2   61.60    2.21
  -3  -3  -2   52.46    4.41
  -3  -3  -2   59.42    2.08
  -3  -3  -2   60.16    2.14
   3   3   2   57.96    2.15
   3   3   2   57.35    2.15
   3   3   2   57.96    4.86
   3   3   2   56.14    2.09
  -4  -3  -2   56.38    1.99
  -4  -3  -2   54.51    2.21
  -4  -3  -2   52.89    5.09
  -4  -3  -2   52.85    2.06
  -4  -3  -2   54.73    2.14
   4   3   2   57.73    2.10
   4   3   2   54.87    2.06
   4   3   2   58.01    5.91
   4   3   2   53.19    2.00
   4   3   2   55.19    2.07
  -5  -3  -2    5.22    0.64
  -5  -3  -2    4.94    0.58
  -5  -3  -2    6.74    3.76
  -5  -3  -2    4.85    0.48
  -5  -3  -2    4.54    0.38
   5   3   2    4.50    0.49
   5   3   2    4.47    0.53
   5   3   2    5.56    0.49
   5   3   2    2.44    4.40
  -6  -3  -2    8.59    0.88
  -6  -3  -2    7.45    1.02
  -6  -3  -2    9.46    0.68
   6   3   2    8.44    0.89
  -6   4   2    2.83    0.42
  -6   4   2    2.58    0.56
  -6   4   2    1.62    0.55
   5  -4  -2   12.39    1.05
  -5   4   2   15.63    0.95
  -5   4   2   15.22    0.72
  -5   4   2   14.48    0.82
  -5   4   2   13.19    0.88
  -5   4   2    9.42    3.03
   4  -4  -2   38.61    1.76
   4  -4  -2   45.89    4.35
  -4   4   2   39.54    1.57
  -4   4   2   40.90    1.47
  -4   4   2   41.18    1.54
  -4   4   2   42.78    1.70
  -4   4   2   40.84    3.68
   3  -4  -2   92.06    3.25
   3  -4  -2   96.12    5.37
   3  -4  -2   94.66    3.48
   3  -4  -2   93.72    3.25
  -3   4   2   93.76    4.96
  -3   4   2   95.73    3.30
  -3   4   2   97.40    3.42
  -3   4   2   92.46    3.32
  -3   4   2   93.73    3.32
   2  -4  -2    4.93    0.28
   2  -4  -2    5.07    0.37
   2  -4  -2    5.30    0.28
   2  -4  -2    3.82    1.34
  -2   4   2    4.74    0.34
  -2   4   2    5.69    0.35
  -2   4   2    5.45    0.28
  -2   4   2    4.71    0.30
  -2   4   2    4.36    1.31
   1  -4  -2  138.94    4.59
   1  -4  -2  129.78    4.55
   1  -4  -2  129.24    4.61
  -1   4   2  127.00    4.55
  -1   4   2  127.48    4.58
  -1   4   2  138.73    4.60
  -1   4   2  138.11    4.65
   0  -4  -2   -0.08    0.11
   0  -4  -2   -0.09    0.07
   0  -4  -2   -0.32    0.88
   0   4   2   -0.05    0.14
   0   4   2    0.00    0.12
   0   4   2    0.48    1.06
   0   4   2   -0.01    0.08
  -1  -4  -2  133.55    4.68
  -1  -4  -2  126.93    6.36
  -1  -4  -2  135.90    4.61
   1   4   2  136.48    4.64
   1   4   2  136.26    4.64
   1   4   2  134.93    6.76
   1   4   2  133.12    4.67
   1   4   2  130.85    4.70
  -2  -4  -2    5.29    1.85
  -2  -4  -2    4.83    0.38
  -2  -4  -2    5.13    0.33
   2   4   2    5.74    1.96
   2   4   2    5.39    0.38
   2   4   2    5.30    0.32
   2   4   2    4.93    0.40
   2   4   2    5.22    0.36
  -3  -4  -2  100.36    6.30
  -3  -4  -2   94.20    3.41
  -3  -4  -2   96.17    3.50
   3   4   2   97.11    3.45
   3   4   2   93.38    6.72
   3   4   2   89.04    3.39
   3   4   2  101.65    3.49
   3   4   2   96.56    3.47
  -4  -4  -2   41.30    1.58
  -4  -4  -2   39.51    1.82
  -4  -4  -2   43.31    1.81
  -4  -4  -2   48.64    5.19
  -4  -4  -2   40.77    1.65
   4   4   2   42.37    1.70
   4   4   2   41.22    1.70
   4   4   2   43.59    1.69
   4   4   2   50.78    6.82
   4   4   2   42.67    1.61
  -5  -4  -2   13.87    0.94
  -5  -4  -2   14.72    0.97
  -5  -4  -2   19.65    4.65
  -5  -4  -2   14.00    0.70
   5   4   2   14.25    0.72
   5   4   2   15.32    0.86
   5   4   2   12.43    0.84
   5   4   2   13.55    0.81
   5   4   2   17.48    5.90
  -6  -4  -2    1.34    0.55
  -6  -4  -2    2.83    0.69
   6   4   2    2.37    0.56
   6   4   2    1.66    0.46
  -6   5   2    4.78    0.56
  -6   5   2    4.43    0.67
  -5   5   2    6.96    0.72
  -5   5   2    5.89    0.47
  -5   5   2    5.99    0.62
   4  -5  -2   -1.47    2.65
   4  -5  -2    1.08    0.43
  -4   5   2    1.21    0.22
  -4   5   2    1.63    0.28
  -4   5   2    0.92    0.22
   3  -5  -2   63.11    2.16
   3  -5  -2   60.56    2.41
   3  -5  -2   62.34    2.16
   3  -5  -2   57.42    4.63
  -3   5   2   64.67    2.23
  -3   5   2   62.62    2.27
  -3   5   2   64.39    2.34
  -3   5   2   58.53    4.12
  -3   5   2   60.65    2.29
   2  -5  -2   12.82    0.56
   2  -5  -2   13.80    2.25
   2  -5  -2   12.71    0.54
   2  -5  -2   11.95    0.67
  -2   5   2   13.16    0.67
  -2   5   2   13.17    0.61
  -2   5   2   13.48    0.62
  -2   5   2   13.22    0.56
  -2   5   2   11.21    2.09
   1  -5  -2   26.36    1.05
   1  -5  -2   26.25    1.07
   1  -5  -2   26.92    1.00
  -1   5   2   26.30    1.06
  -1   5   2   27.85    1.04
  -1   5   2   27.27    1.14
  -1   5   2   26.26    1.01
   0  -5  -2   33.74    2.96
   0  -5  -2   34.19    1.24
   0  -5  -2   34.66    1.22
   0  -5  -2   33.61    1.29
   0   5   2   28.45    1.47
   0   5   2   33.32    3.38
   0   5   2   32.48    1.24
   0   5   2   32.45    1.35
  -1  -5  -2   20.00    2.91
  -1  -5  -2   25.79    1.01
  -1  -5  -2   27.21    1.10
  -1  -5  -2   25.84    1.01
   1   5   2   25.18    1.05
   1   5   2   27.77    1.10
   1   5   2   26.85    1.05
   1   5   2   26.56    1.14
   1   5   2   22.43    3.36
  -2  -5  -2   13.03    0.71
  -2  -5  -2   12.51    0.59
  -2  -5  -2   14.41    2.68
   2   5   2   12.48    0.67
   2   5   2   13.32    0.62
   2   5   2   12.76    0.71
   2   5   2   12.14    3.12
   2   5   2   12.07    0.63
  -3  -5  -2   58.73    2.42
  -3  -5  -2   67.10    5.79
  -3  -5  -2   62.46    2.33
   3   5   2   57.28    6.28
   3   5   2   63.51    2.41
   3   5   2   65.54    2.39
   3   5   2   65.27    2.34
   3   5   2   64.18    2.44
  -4  -5  -2    6.75    3.64
  -4  -5  -2    0.66    0.37
  -4  -5  -2    0.90    0.28
  -4  -5  -2    0.95    0.35
   4   5   2    0.73    0.28
   4   5   2   -5.62    4.44
   4   5   2    1.41    0.26
   4   5   2    1.20    0.39
   4   5   2    1.36    0.35
  -5  -5  -2    8.00    0.80
  -5  -5  -2    6.53    0.84
  -5  -5  -2   17.39    5.09
   5   5   2    7.01    0.67
   5   5   2    5.97    0.52
   5   5   2    3.58    6.33
   5   5   2    5.26    0.62
   5   5   2    6.12    0.67
  -6  -5  -2    4.17    0.77
  -6  -5  -2    3.86    0.83
   6   5   2    3.80    0.62
  -5   6   2   -0.79    0.38
  -5   6   2   -0.05    0.42
  -5   6   2   -0.23    0.26
   4  -6  -2    4.74    0.63
   4  -6  -2    4.05    4.31
  -4   6   2    4.51    0.49
  -4   6   2    3.92    2.50
  -4   6   2    4.30    0.48
  -4   6   2    4.71    0.38
  -4   6   2    5.50    0.54
   3  -6  -2   28.64    1.35
   3  -6  -2   29.18    4.09
  -3   6   2   32.31    3.76
  -3   6   2   29.40    1.21
  -3   6   2   30.79    1.16
  -3   6   2   26.81    1.25
  -3   6   2   31.60    1.26
   2  -6  -2   38.97    1.58
   2  -6  -2   38.10    1.44
   2  -6  -2   36.73    3.91
   2  -6  -2   38.56    1.42
  -2   6   2   38.22    1.50
  -2   6   2   38.45    1.44
  -2   6   2   33.49    3.74
  -2   6   2   40.64    1.51
  -2   6   2   39.98    1.59
   1  -6  -2   14.97    0.64
   1  -6  -2   14.72    0.70
   1  -6  -2   14.35    0.71
  -1   6   2   15.39    0.80
  -1   6   2   16.41    0.74
  -1   6   2   15.61    0.68
   0  -6  -2   14.05    0.70
   0  -6  -2   14.22    2.50
   0  -6  -2   14.56    0.62
   0  -6  -2   14.54    0.65
   0   6   2   14.27    0.70
   0   6   2   17.69    3.11
   0   6   2   14.20    0.78
   0   6   2   14.24    0.72
   0   6   2   13.79    0.65
  -1  -6  -2   15.32    0.65
  -1  -6  -2   15.21    0.77
  -1  -6  -2    9.55    2.62
  -1  -6  -2   15.37    0.65
   1   6   2   14.51    0.76
   1   6   2   11.06    3.13
   1   6   2   15.11    0.70
   1   6   2   13.27    0.71
   1   6   2   14.57    0.82
  -2  -6  -2   39.69    1.47
  -2  -6  -2   30.86    4.45
  -2  -6  -2   37.36    1.59
   2   6   2   37.05    1.56
   2   6   2   42.47    5.36
   2   6   2   40.20    1.53
   2   6   2   37.66    1.52
   2   6   2   36.71    1.62
  -3  -6  -2   29.27    1.25
  -3  -6  -2   28.10    4.47
  -3  -6  -2   30.74    1.38
   3   6   2   30.25    1.41
   3   6   2   23.16    5.30
   3   6   2   29.84    1.32
   3   6   2   31.15    1.38
   3   6   2   32.49    1.29
  -4  -6  -2    4.47    0.58
  -4  -6  -2    3.50    0.69
  -4  -6  -2    6.72    4.09
   4   6   2    4.78    0.56
   4   6   2    5.20    0.68
   4   6   2    4.61    0.47
   4   6   2    4.88    0.65
   4   6   2    8.15    5.72
  -5  -6  -2    0.05    0.45
  -5  -6  -2   -6.38    5.96
  -5  -6  -2    0.77    0.53
   5   6   2    0.15    0.34
   5   6   2   -0.58    0.45
   5   6   2    1.24    0.58
  -5   7   2    1.54    0.51
  -5   7   2    0.86    0.34
   4  -7  -2   -0.18    0.54
  -4   7   2    1.26    0.38
  -4   7   2    0.90    0.25
  -4   7   2    0.76    0.34
  -4   7   2    0.91    0.38
   3  -7  -2    1.61    0.45
  -3   7   2    1.52    0.24
  -3   7   2    2.00    0.39
  -3   7   2    1.09    2.70
  -3   7   2    1.52    0.30
  -3   7   2    1.39    0.34
   2  -7  -2   13.56    0.60
   2  -7  -2   13.10    0.62
   2  -7  -2   13.09    0.79
   2  -7  -2   12.05    3.00
  -2   7   2   13.08    0.72
  -2   7   2   13.94    0.68
  -2   7   2   14.00    0.65
  -2   7   2   11.32    3.02
  -2   7   2   14.12    0.85
   1  -7  -2   36.59    1.51
   1  -7  -2   37.00    1.46
  -1   7   2   34.86    5.66
  -1   7   2   37.83    1.62
  -1   7   2   38.74    1.45
  -1   7   2   36.69    1.50
   0  -7  -2    2.19    0.27
   0  -7  -2    2.09    0.33
   0  -7  -2    2.25    0.31
   0  -7  -2    1.31    2.29
   0   7   2    2.36    0.35
   0   7   2    1.44    2.93
   0   7   2    1.91    0.28
   0   7   2    2.43    0.35
   0   7   2    2.13    0.45
  -1  -7  -2   37.20    1.44
  -1  -7  -2   38.58    1.57
  -1  -7  -2   40.83    4.63
  -1  -7  -2   37.77    1.50
   1   7   2   36.60    1.56
   1   7   2   38.37    1.55
   1   7   2   41.59    5.84
   1   7   2   36.33    1.65
  -2  -7  -2   12.46    3.91
  -2  -7  -2   13.04    0.65
  -2  -7  -2   13.94    0.81
  -2  -7  -2   13.07    0.69
   2   7   2   12.90    0.90
   2   7   2   11.28    4.69
   2   7   2   12.87    0.80
   2   7   2   13.88    0.75
   2   7   2   13.32    0.75
  -3  -7  -2    1.32    0.45
  -3  -7  -2    5.44    4.01
   3   7   2    1.24    4.88
   3   7   2    1.24    0.49
   3   7   2    1.38    0.37
   3   7   2    1.58    0.34
  -4  -7  -2    1.05    0.49
  -4  -7  -2    1.76    0.51
  -4  -7  -2   -9.56    5.14
   4   7   2    6.79    7.33
   4   7   2    0.38    0.42
   4   7   2    0.16    0.34
  -5  -7  -2    0.82    0.71
  -5  -7  -2    0.60    0.65
   5   7   2   -0.05    0.54
   5   7   2    1.09    0.56
  -4   8   2    2.06    0.35
  -4   8   2    2.64    0.48
   3  -8  -2    2.93    0.60
  -3   8   2    2.19    0.45
  -3   8   2    3.11    0.40
  -3   8   2    3.25    0.58
  -3   8   2    4.10    0.49
   2  -8  -2    6.40    0.43
   2  -8  -2    6.38    0.71
   2  -8  -2    6.57    0.45
  -2   8   2    7.92    0.59
  -2   8   2    6.68    0.50
  -2   8   2    5.53    0.76
  -2   8   2    7.41    0.50
   1  -8  -2    2.71    0.40
   1  -8  -2    2.78    0.35
   1  -8  -2    2.69    0.34
  -1   8   2    2.94    0.35
  -1   8   2    2.24    0.53
  -1   8   2    2.65    0.44
  -1   8   2    2.70    0.39
   0  -8  -2    5.59    0.42
   0  -8  -2    7.33    3.22
   0  -8  -2    6.22    0.50
   0  -8  -2    5.42    0.52
   0   8   2    4.95    0.60
   0   8   2   12.28    4.30
   0   8   2    5.74    0.59
   0   8   2    5.79    0.49
   0   8   2    5.48    0.70
  -1  -8  -2    2.69    0.33
  -1  -8  -2    2.52    0.37
  -1  -8  -2    3.37    3.50
  -1  -8  -2    2.46    0.44
   1   8   2    3.67    4.50
   1   8   2    2.26    0.42
   1   8   2    2.12    0.40
   1   8   2    2.39    0.36
  -2  -8  -2    6.32    0.49
  -2  -8  -2    7.21    0.76
  -2  -8  -2    6.83    0.52
   2   8   2    6.99    0.65
   2   8   2    6.70    0.63
  -3  -8  -2    4.31    0.66
  -3  -8  -2    3.39    0.44
   3   8   2    3.01    0.49
   3   8   2    3.14    0.50
  -4  -8  -2    2.58    0.65
  -4  -8  -2    2.26    0.68
   4   8   2    2.40    0.52
   4   8   2    1.85    0.61
  -3   9   2    5.52    0.61
   2  -9  -2    2.25    0.54
  -2   9   2    1.80    0.36
   1  -9  -2    3.58    0.37
   1  -9  -2    4.25    0.54
   1  -9  -2    4.41    0.54
  -1   9   2    4.10    0.58
  -1   9   2    3.76    0.47
   0  -9  -2   -0.27    0.44
   0  -9  -2    0.79    0.29
   0  -9  -2    0.10    0.33
   0   9   2    0.54    0.33
   0   9   2    0.29    0.39
  -1  -9  -2    4.23    0.50
  -1  -9  -2    3.40    0.59
  -1  -9  -2    3.79    0.43
   1   9   2    4.90    0.67
   1   9   2    3.92    0.49
  -2  -9  -2    2.16    0.43
  -2  -9  -2    2.09    0.59
   2   9   2    2.06    0.48
   2   9   2    1.46    0.45
  -3  -9  -2    4.83    0.72
   3   9   2    4.28    0.66
   3   9   2    5.39    0.67
  -2  10   2    0.52    0.44
  -1  10   2    3.09    0.52
  -1  10   2    4.18    0.72
   0 -10  -2    4.16    0.57
   0  10   2    3.01    0.55
   0  10   2    3.39    0.61
  -1 -10  -2    4.41    0.67
   1  10   2    3.19    0.62
   1  10   2    2.89    0.66
  -2 -10  -2    0.30    0.66
   2  10   2    0.33    0.59
   2  10  -3    0.85    0.69
  -2 -10   3    1.00    0.63
   1  10  -3    4.93    0.75
   1  10  -3    2.85    0.55
  -1 -10   3    2.96    0.59
   0  10  -3    1.44    0.49
   0  10  -3    1.64    0.58
  -1  10  -3    3.32    0.53
  -1  10  -3    2.73    0.69
  -2  10  -3    0.98    0.44
   3   9  -3   12.38    1.04
   3   9  -3   14.30    1.12
  -3  -9   3   14.15    1.06
   2   9  -3    7.36    0.82
   2   9  -3    8.36    0.91
  -2  -9   3    7.49    0.85
  -2  -9   3    7.85    0.59
   1   9  -3   -0.24    0.44
   1   9  -3    0.55    0.35
  -1  -9   3    0.24    0.38
  -1  -9   3   -0.42    0.27
   0   9  -3    5.08    0.64
   0   9  -3    4.98    0.54
   0  -9   3    4.06    0.45
   0  -9   3    3.99    0.42
   0  -9   3    5.16    0.45
  -1   9  -3    0.56    0.44
  -1   9  -3    0.13    0.28
   1  -9   3    0.53    0.18
  -2   9  -3    8.24    0.60
  -2   9  -3    7.98    0.85
  -3   9  -3   13.97    0.77
  -3   9  -3   13.97    1.11
  -3   9  -3   13.97    0.78
   4   8  -3    5.47    0.71
   4   8  -3    4.31    0.68
  -4  -8   3    3.44    0.75
  -4  -8   3    4.63    0.72
   3   8  -3   11.96    0.92
   3   8  -3   11.53    0.85
  -3  -8   3   12.13    0.66
  -3  -8   3   11.41    0.97
  -3  -8   3   12.68    0.78
   2   8  -3    1.52    0.42
   2   8  -3    1.73    0.46
  -2  -8   3    1.39    0.42
  -2  -8   3    1.88    0.25
  -2  -8   3    2.45    0.34
   1   8  -3    2.99    0.50
   1   8  -3    4.14    0.51
   1   8  -3    3.59    0.43
  -1  -8   3    3.43    0.42
  -1  -8   3    3.22    0.37
  -1  -8   3    3.60    0.32
   0   8  -3    8.95    4.14
   0   8  -3    8.09    0.56
   0   8  -3    6.75    0.66
   0   8  -3    8.57    0.68
   0   8  -3    6.88    0.81
   0  -8   3    6.75    0.52
   0  -8   3    7.76    0.46
   0  -8   3    8.08    0.44
   0  -8   3    6.09    3.36
  -1   8  -3    3.66    0.62
  -1   8  -3    6.05    3.83
  -1   8  -3    3.96    0.41
  -1   8  -3    4.01    0.53
  -1   8  -3    4.59    0.49
   1  -8   3    3.16    0.42
   1  -8   3    2.99    0.27
   1  -8   3    3.83    0.30
  -2   8  -3    1.70    0.51
  -2   8  -3    1.45    0.43
  -2   8  -3    1.64    0.24
  -2   8  -3    1.77    0.37
  -2   8  -3    1.44    0.26
   2  -8   3    1.37    0.37
  -3   8  -3   12.87    0.76
  -3   8  -3   10.96    0.95
  -3   8  -3   12.98    0.69
   3  -8   3   11.53    0.93
  -4   8  -3    4.94    0.47
  -4   8  -3    5.26    0.60
   5   7  -3    2.02    0.64
   5   7  -3    1.20    0.50
  -5  -7   3    2.14    0.63
  -5  -7   3    1.26    0.66
   4   7  -3    0.68    0.41
   4   7  -3    0.02    0.43
  -4  -7   3   -0.21    0.38
  -4  -7   3    0.52    0.44
   3   7  -3    4.23    0.57
   3   7  -3    4.37    0.62
   3   7  -3    1.37    4.96
   3   7  -3    5.56    0.56
  -3  -7   3    4.82    0.51
  -3  -7   3   -0.70    4.32
  -3  -7   3    4.70    0.59
  -3  -7   3    4.75    0.52
   2   7  -3   26.23    1.35
   2   7  -3   26.45    1.25
   2   7  -3   27.75    1.23
   2   7  -3   26.95    5.52
  -2  -7   3   27.08    1.11
  -2  -7   3   27.41    1.05
  -2  -7   3   26.19    4.34
  -2  -7   3   25.70    1.35
   1   7  -3    5.35    0.58
   1   7  -3    6.04    0.55
   1   7  -3    5.32    0.60
   1   7  -3    6.73    0.50
   1   7  -3    7.45    3.66
  -1  -7   3    7.88    2.89
  -1  -7   3    5.90    0.51
  -1  -7   3    6.37    0.35
  -1  -7   3    6.35    0.40
   0   7  -3   10.01    0.55
   0   7  -3    3.15    3.32
   0   7  -3    8.08    0.68
   0   7  -3   10.24    0.71
   0   7  -3    9.75    0.63
   0  -7   3    9.05    0.45
   0  -7   3   11.26    2.62
   0  -7   3    8.96    0.53
   0  -7   3    8.99    0.46
  -1   7  -3    7.39    2.87
  -1   7  -3    6.36    0.53
  -1   7  -3    5.86    0.49
  -1   7  -3    6.35    0.59
  -1   7  -3    6.38    0.40
   1  -7   3    6.12    0.32
   1  -7   3    9.79    2.24
   1  -7   3    5.82    0.43
   1  -7   3    6.23    0.35
  -2   7  -3   27.41    1.06
  -2   7  -3   25.25    1.26
  -2   7  -3   26.59    1.12
  -2   7  -3   28.08    4.11
   2  -7   3   26.31    1.16
   2  -7   3   21.68    3.20
  -3   7  -3    5.35    0.43
  -3   7  -3    4.72    0.61
  -3   7  -3    4.65    0.34
  -3   7  -3    4.64    2.75
  -3   7  -3    4.51    0.46
   3  -7   3    3.68    2.65
   3  -7   3    4.21    0.62
  -4   7  -3    0.36    0.31
  -4   7  -3    0.14    0.30
  -4   7  -3    0.16    0.19
  -4   7  -3    0.36    0.37
   4  -7   3   -0.30    0.49
  -5   7  -3    2.14    0.34
  -5   7  -3    1.84    0.51
   5   6  -3    7.51    0.84
   5   6  -3    6.37    9.05
   5   6  -3    7.24    0.93
   5   6  -3    7.04    0.73
  -5  -6   3    6.90    0.78
  -5  -6   3   14.30    7.07
  -5  -6   3    6.81    0.84
  -5  -6   3    4.79    0.58
   4   6  -3    3.97    0.50
   4   6  -3    4.17    0.58
   4   6  -3   12.09    5.87
   4   6  -3    3.70    0.47
  -4  -6   3    4.59    0.56
  -4  -6   3    4.06    0.48
  -4  -6   3    3.11    0.51
  -4  -6   3   -2.37    4.66
   3   6  -3   12.32    4.83
   3   6  -3   17.38    0.95
   3   6  -3   17.25    0.89
   3   6  -3   16.07    0.97
   3   6  -3   18.66    0.93
  -3  -6   3   26.12    4.72
  -3  -6   3   17.05    0.93
  -3  -6   3   17.75    0.87
  -3  -6   3   17.05    0.85
   2   6  -3   24.46    4.39
   2   6  -3   25.77    1.23
   2   6  -3   25.94    1.18
   2   6  -3   25.71    1.17
   2   6  -3   26.21    1.16
  -2  -6   3   29.14    1.21
  -2  -6   3   25.97    1.07
  -2  -6   3   26.60    4.02
   1   6  -3   20.94    0.97
   1   6  -3   23.57    3.90
   1   6  -3   20.75    0.92
   1   6  -3   23.57    0.99
  -1  -6   3   21.56    0.82
  -1  -6   3   20.24    0.86
  -1  -6   3   21.73    0.96
  -1  -6   3   22.20    3.31
   0   6  -3    4.06    2.31
   0   6  -3    1.41    0.25
   0   6  -3    1.25    0.26
   0   6  -3    1.39    0.21
   0  -6   3    1.61    0.19
   0  -6   3   -0.42    1.71
   0  -6   3    1.07    0.20
   0  -6   3    1.59    0.25
  -1   6  -3   22.72    0.98
  -1   6  -3   18.42    0.94
  -1   6  -3   21.21    0.83
  -1   6  -3   19.24    2.92
  -1   6  -3   20.43    0.80
   1  -6   3   20.90    0.79
   1  -6   3   20.28    2.63
   1  -6   3   19.68    0.85
  -2   6  -3   25.64    1.09
  -2   6  -3   25.99    0.98
  -2   6  -3   25.96    1.02
  -2   6  -3   24.29    1.13
  -2   6  -3   26.54    3.70
   2  -6   3   28.87    3.06
   2  -6   3   24.68    1.09
  -3   6  -3   16.97    0.69
  -3   6  -3   16.56    0.86
  -3   6  -3   15.68    0.78
  -3   6  -3   17.15    0.79
  -3   6  -3   15.00    2.46
   3  -6   3   16.21    0.91
   3  -6   3   16.51    2.66
  -4   6  -3    3.52    0.30
  -4   6  -3    3.33    0.48
  -4   6  -3    3.45    2.01
  -4   6  -3    4.21    0.43
   4  -6   3    4.36    0.60
   4  -6   3    8.01    2.57
  -5   6  -3    6.31    0.50
  -5   6  -3    6.21    0.46
  -5   6  -3    5.15    0.59
  -5   6  -3    6.43    0.74
   6   5  -3    3.28    0.55
   6   5  -3    4.17    0.65
  -6  -5   3    2.69    0.71
  -6  -5   3    3.25    0.77
   5   5  -3   12.15    7.45
   5   5  -3   10.98    0.85
   5   5  -3   11.94    0.76
   5   5  -3   11.01    0.89
  -5  -5   3    9.88    0.84
  -5  -5   3   19.32    5.85
  -5  -5   3   10.49    0.72
  -5  -5   3   10.83    0.89
   4   5  -3    0.91    0.37
   4   5  -3    4.39    5.05
   4   5  -3    1.42    0.30
   4   5  -3    0.71    0.33
   4   5  -3    0.64    0.37
  -4  -5   3   -3.92    3.61
  -4  -5   3    0.96    0.34
  -4  -5   3    1.46    0.39
  -4  -5   3    1.09    0.28
  -4  -5   3    0.81    0.30
   3   5  -3   10.32    0.61
   3   5  -3   10.90    0.62
   3   5  -3   11.28    0.70
   3   5  -3    9.87    3.67
   3   5  -3    9.52    0.65
  -3  -5   3   10.40    0.65
  -3  -5   3   10.53    0.59
  -3  -5   3   11.41    3.46
  -3  -5   3    9.17    0.61
  -3  -5   3   10.31    0.57
   2   5  -3   54.58    2.05
   2   5  -3   52.90    5.24
   2   5  -3   53.83    2.05
   2   5  -3   55.54    2.08
  -2  -5   3   52.22    2.07
  -2  -5   3   52.19    4.65
  -2  -5   3   56.00    1.99
  -2  -5   3   54.17    2.03
   1   5  -3   16.30    0.74
   1   5  -3   15.85    0.75
   1   5  -3   14.94    0.68
   1   5  -3   15.62    2.97
  -1  -5   3   15.01    2.59
  -1  -5   3   15.86    0.65
  -1  -5   3   14.71    0.63
  -1  -5   3   15.69    0.72
   0   5  -3   47.36    1.78
   0   5  -3   45.99    1.70
   0   5  -3   47.09    3.74
   0   5  -3   47.82    1.76
   0  -5   3   47.18    1.66
   0  -5   3   45.98    1.71
   0  -5   3   46.58    1.66
  -1   5  -3   16.34    0.63
  -1   5  -3   15.51    0.68
  -1   5  -3   15.64    2.28
  -1   5  -3   15.97    0.63
   1  -5   3   16.67    2.01
   1  -5   3   15.52    0.61
   1  -5   3   15.96    0.59
   1  -5   3   15.27    0.67
  -2   5  -3   54.61    1.97
  -2   5  -3   54.49    3.49
  -2   5  -3   56.01    2.00
  -2   5  -3   53.71    1.93
   2  -5   3   53.80    2.05
   2  -5   3   56.82    3.37
  -3   5  -3   10.42    0.49
  -3   5  -3    9.02    0.56
  -3   5  -3    8.85    1.70
  -3   5  -3   10.43    0.58
  -3   5  -3   10.33    0.45
   3  -5   3    9.66    0.66
  -4   5  -3    1.05    0.36
  -4   5  -3    0.88    0.18
  -4   5  -3    0.94    0.22
  -4   5  -3    1.50    0.33
  -4   5  -3    1.19    1.60
   4  -5   3    1.10    0.40
  -5   5  -3    9.61    0.42
  -5   5  -3   11.50    0.87
  -5   5  -3   10.78    0.56
  -5   5  -3   10.87    0.66
  -5   5  -3   13.19    2.40
  -6   5  -3    2.75    0.63
  -6   5  -3    2.23    0.40
   6   4  -3    3.85    0.57
  -6  -4   3    3.09    0.63
  -6  -4   3    3.55    0.72
  -6  -4   3    3.29    0.49
   5   4  -3   10.46    0.85
   5   4  -3   11.19    0.70
   5   4  -3   15.45    5.89
   5   4  -3    9.82    0.74
   5   4  -3   11.77    0.78
  -5  -4   3   11.00    0.87
  -5  -4   3   10.94    0.69
  -5  -4   3   10.96    0.80
  -5  -4   3    9.51    5.14
   4   4  -3   50.24    6.68
   4   4  -3   52.83    2.11
   4   4  -3   54.44    2.07
   4   4  -3   55.26    2.09
   4   4  -3   55.85    2.11
  -4  -4   3   52.49    2.06
  -4  -4   3   52.75    2.15
  -4  -4   3   55.13    2.04
  -4  -4   3   44.26    5.95
   3   4  -3    6.53    0.50
   3   4  -3    7.34    0.47
   3   4  -3    7.78    0.51
   3   4  -3    7.62    3.26
  -3  -4   3    6.90    2.44
  -3  -4   3    6.72    0.48
  -3  -4   3    7.18    0.53
  -3  -4   3    6.81    0.44
   2   4  -3   64.27    2.26
   2   4  -3   61.66    2.26
   2   4  -3   60.04    2.27
   2   4  -3   62.05    4.96
  -2  -4   3   56.87    2.27
  -2  -4   3   60.78    4.59
  -2  -4   3   59.85    2.23
  -2  -4   3   62.60    2.28
  -2  -4   3   63.16    2.24
   1   4  -3   54.98    2.06
   1   4  -3   58.44    2.07
   1   4  -3   55.14    2.04
   1   4  -3   57.44    4.05
  -1  -4   3   56.38    2.05
  -1  -4   3   54.75    3.80
  -1  -4   3   55.68    1.99
   0   4  -3   36.41    1.38
   0   4  -3   37.29    1.35
   0   4  -3   36.75    1.31
   0   4  -3   30.92    2.79
   0  -4   3   36.33    1.28
   0  -4   3   36.90    1.27
   0  -4   3   34.55    1.32
  -1   4  -3   51.12    3.15
  -1   4  -3   54.77    1.94
  -1   4  -3   55.45    1.96
  -1   4  -3   57.00    1.98
   1  -4   3   56.23    1.91
   1  -4   3   52.95    1.99
   1  -4   3   62.92    3.07
  -2   4  -3   65.49    3.26
  -2   4  -3   63.59    2.18
  -2   4  -3   62.20    2.20
  -2   4  -3   62.24    2.26
   2  -4   3   65.20    3.25
   2  -4   3   59.60    2.30
  -3   4  -3    6.80    0.35
  -3   4  -3    6.88    0.47
  -3   4  -3    6.96    0.33
  -3   4  -3    7.78    1.29
   3  -4   3    5.63    1.43
   3  -4   3    6.69    0.60
  -4   4  -3   56.65    1.97
  -4   4  -3   54.90    1.99
  -4   4  -3   55.98    2.17
  -4   4  -3   52.31    3.94
  -4   4  -3   53.09    1.95
  -4   4  -3   54.72    3.35
   4  -4   3   53.29    2.21
  -5   4  -3    5.86    2.93
  -5   4  -3   10.24    0.79
  -5   4  -3   10.43    0.62
  -5   4  -3   10.63    2.27
  -5   4  -3   10.99    0.57
  -6   4  -3    3.16    0.64
  -6   4  -3    2.37    0.41
  -6   4  -3    2.97    0.63
  -6   4  -3    2.11    0.47
   6   3  -3    5.55    0.66
   6   3  -3    5.06    0.64
  -6  -3   3    5.38    0.69
  -6  -3   3    6.15    0.66
  -6  -3   3    5.26    0.73
   5   3  -3    9.16    0.74
   5   3  -3   10.44    0.63
   5   3  -3   14.93    5.49
   5   3  -3    9.52    0.62
  -5  -3   3    1.10    4.08
  -5  -3   3    9.66    0.71
  -5  -3   3   10.52    0.72
  -5  -3   3   10.90    0.65
  -5  -3   3   10.21    0.81
   4   3  -3    5.01    0.40
   4   3  -3    4.95    0.49
   4   3  -3    4.75    3.66
   4   3  -3    4.17    0.40
   4   3  -3    5.01    0.42
  -4  -3   3    4.65    0.45
  -4  -3   3    3.91    0.39
  -4  -3   3    4.55    0.46
  -4  -3   3    4.39    0.49
  -4  -3   3    1.19    3.19
   3   3  -3    6.03    0.39
   3   3  -3    7.20    2.74
   3   3  -3    5.92    0.40
   3   3  -3    6.27    0.43
  -3  -3   3    5.33    0.38
  -3  -3   3    5.95    0.42
  -3  -3   3    5.61    0.37
  -3  -3   3    3.28    2.37
  -3  -3   3    5.89    0.44
   2   3  -3    2.78    0.28
   2   3  -3    1.62    1.66
   2   3  -3    2.42    0.24
   2   3  -3    2.93    0.25
  -2  -3   3    2.78    0.24
  -2  -3   3    2.48    1.55
  -2  -3   3    2.57    0.23
  -2  -3   3    2.07    0.26
   1   3  -3  212.54    7.19
   1   3  -3  226.04    9.09
   1   3  -3  207.04    7.19
   1   3  -3  208.16    7.16
  -1  -3   3  209.53    7.18
  -1  -3   3  204.30    7.17
  -1  -3   3  207.11    8.83
  -1  -3   3  203.28    7.14
   0   3  -3    3.05    0.94
   0   3  -3    2.64    0.20
   0   3  -3    2.61    0.16
   0  -3   3    2.63    0.78
   0  -3   3    2.62    0.13
  -1   3  -3  193.69    6.75
  -1   3  -3  206.55    6.78
  -1   3  -3  190.89    6.79
  -1   3  -3  212.37    7.67
   1  -3   3  192.08    6.81
   1  -3   3  202.55    7.49
  -2   3  -3    2.91    0.68
  -2   3  -3    2.60    0.16
  -2   3  -3    2.82    0.25
  -2   3  -3    2.68    0.15
   2  -3   3    2.44    0.80
  -3   3  -3    5.64    0.42
  -3   3  -3    5.26    0.27
  -3   3  -3    3.65    1.00
  -3   3  -3    5.43    0.28
   3  -3   3    5.08    0.44
  -4   3  -3    3.23    1.44
  -4   3  -3    4.06    0.45
  -4   3  -3    4.33    1.76
  -4   3  -3    4.47    0.32
  -4   3  -3    4.44    0.22
  -4   3  -3    4.91    0.33
  -4   3  -3    4.45    0.21
  -5   3  -3    9.75    0.68
  -5   3  -3   10.36    0.79
  -5   3  -3    7.83    2.46
  -5   3  -3   10.01    0.56
  -5   3  -3   10.17    0.60
  -5   3  -3    8.11    2.31
  -6   3  -3    5.11    0.55
  -6   3  -3    5.40    0.73
  -6   3  -3    5.13    0.63
  -6   3  -3    6.16    0.56
   7   2  -3    1.43    0.45
  -7  -2   3    1.69    0.59
  -7  -2   3    1.64    0.79
   6   2  -3   12.80    0.87
   6   2  -3   12.50    0.49
   6   2  -3   13.42    0.79
  -6  -2   3   12.90    0.99
  -6  -2   3   10.88    0.82
  -6  -2   3   12.53    0.93
   5   2  -3   10.48    0.53
   5   2  -3    9.15    0.69
   5   2  -3   11.10    0.63
  -5  -2   3   11.19    0.65
  -5  -2   3   15.44    4.06
  -5  -2   3   10.23    0.79
  -5  -2   3   10.24    0.69
  -5  -2   3   10.26    0.70
   4   2  -3   27.77    1.19
   4   2  -3   24.27    4.18
   4   2  -3   29.41    1.17
   4   2  -3   26.76    1.09
   4   2  -3   27.20    1.15
  -4  -2   3   28.38    1.17
  -4  -2   3   27.84    4.09
  -4  -2   3   28.32    1.27
  -4  -2   3   28.76    1.21
  -4  -2   3   26.43    1.14
   3   2  -3   42.49    1.56
   3   2  -3   38.68    1.56
   3   2  -3   37.66    3.96
   3   2  -3   42.01    1.55
  -3  -2   3   38.02    1.60
  -3  -2   3   37.52    3.83
  -3  -2   3   44.56    1.60
  -3  -2   3   41.31    1.54
   2   2  -3   24.51    1.00
   2   2  -3   27.37    1.01
   2   2  -3   26.91    2.79
   2   2  -3   26.01    1.02
  -2  -2   3   24.74    0.99
  -2  -2   3   26.06    1.02
  -2  -2   3   24.62    1.01
  -2  -2   3   26.28    2.62
  -2  -2   3   26.78    1.00
   1   2  -3  357.33   11.89
   1   2  -3  343.79   11.89
   1   2  -3  373.83   13.43
   1   2  -3  347.93   11.87
  -1  -2   3  344.20   11.86
  -1  -2   3  339.73   13.23
  -1  -2   3  362.24   11.88
  -1  -2   3  331.48   11.88
   0   2  -3  409.22   15.20
   0  -2   3  440.50   15.20
  -1   2  -3  389.19   13.25
   1  -2   3  370.42   13.19
  -2   2  -3   25.75    1.04
  -2   2  -3   26.64    0.92
  -2   2  -3   26.40    1.48
   2  -2   3   26.40    1.06
  -3   2  -3   40.53    1.45
  -3   2  -3   39.27    2.66
  -3   2  -3   39.58    1.45
  -3   2  -3   42.32    2.45
  -3   2  -3   40.28    1.60
  -4   2  -3   24.77    2.72
  -4   2  -3   26.53    2.85
  -4   2  -3   26.83    1.03
  -4   2  -3   24.75    1.19
  -4   2  -3   26.92    1.04
  -5   2  -3   10.91    0.65
  -5   2  -3   11.93    2.51
  -5   2  -3    9.52    0.75
  -5   2  -3    9.86    0.59
  -5   2  -3    9.87    0.57
  -5   2  -3    9.76    2.60
  -6   2  -3   11.66    0.85
  -6   2  -3   13.39    1.03
  -6   2  -3   12.04    0.83
  -6   2  -3   14.96    0.78
  -7   2  -3    1.48    0.52
  -7  -1   3    8.23    0.98
  -7  -1   3    6.44    1.00
   6   1  -3    6.01    0.51
   6   1  -3    4.87    0.53
  -6  -1   3    5.27    0.73
  -6  -1   3    5.97    0.68
  -6  -1   3    4.03    0.51
   5   1  -3   30.09    1.26
   5   1  -3   29.72    1.20
  -5  -1   3   30.28    4.75
  -5  -1   3   29.04    1.28
  -5  -1   3   27.34    1.38
  -5  -1   3   28.36    1.26
  -5  -1   3   31.05    4.83
  -5  -1   3   29.44    1.26
   4   1  -3    6.54    0.40
   4   1  -3    6.68    0.32
   4   1  -3    5.90    0.41
  -4  -1   3    5.53    0.43
  -4  -1   3    7.00    2.50
  -4  -1   3    6.99    0.45
  -4  -1   3    6.29    0.51
  -4  -1   3    6.12    0.43
   3   1  -3   39.41    1.44
   3   1  -3   39.63    1.43
   3   1  -3   39.14    1.43
   3   1  -3   39.91    3.73
  -3  -1   3   39.96    3.48
  -3  -1   3   39.52    1.46
  -3  -1   3   38.34    1.43
  -3  -1   3   35.50    1.49
  -3  -1   3   31.70    1.41
   2   1  -3   40.08    1.42
   2   1  -3   38.11    1.42
   2   1  -3   41.02    1.42
   2   1  -3   40.91    3.04
   2   1  -3   37.29    1.45
  -2  -1   3   39.40    1.43
  -2  -1   3   34.70    1.40
  -2  -1   3   38.43    1.41
  -2  -1   3   36.77    1.44
  -2  -1   3   41.09    2.94
   1   1  -3   34.81    1.24
   1   1  -3   33.64    2.18
   1   1  -3   37.35    1.25
   1   1  -3   31.85    1.24
   1   1  -3   34.02    1.25
  -1  -1   3   33.18    1.24
  -1  -1   3   35.22    1.24
  -1  -1   3   33.28    1.24
  -1  -1   3   35.59    1.25
  -1  -1   3   31.49    2.11
   0   1  -3  145.51    4.83
   0   1  -3  141.98    5.31
   0  -1   3  134.85    4.82
   0  -1   3  144.26    5.30
  -1   1  -3   32.97    1.33
  -1   1  -3   36.27    1.31
  -1   1  -3   34.48    1.26
  -2   1  -3   39.52    1.45
  -2   1  -3   36.90    2.02
  -2   1  -3   38.34    1.32
  -2   1  -3   38.11    2.02
  -2   1  -3   36.74    1.33
  -3   1  -3   38.81    1.40
  -3   1  -3   35.94    2.62
  -3   1  -3   36.93    2.61
  -3   1  -3   37.72    1.54
  -3   1  -3   38.74    1.41
  -3   1  -3   40.33    1.33
  -4   1  -3    6.37    1.86
  -4   1  -3    8.19    1.90
  -4   1  -3    6.35    0.40
  -4   1  -3    6.66    0.40
  -4   1  -3    6.35    0.54
  -4   1  -3    6.58    0.39
  -5   1  -3   27.04    1.37
  -5   1  -3   28.55    1.20
  -5   1  -3   28.35    3.92
  -5   1  -3   30.27    1.22
  -6   1  -3    4.16    0.57
  -6   1  -3    5.22    0.59
  -6   1  -3    4.13    0.65
  -7   1  -3    7.99    0.82
  -7   1  -3    6.68    1.02
  -7   0   3   -0.03    0.73
  -7   0   3    0.19    0.56
   6   0  -3    7.64    0.64
   6   0  -3    7.49    0.48
  -6   0   3    7.07    0.78
  -6   0   3    7.80    0.73
  -6   0   3    7.47    0.69
  -6   0   3    5.97    0.82
   5   0  -3   13.61    0.63
   5   0  -3   13.30    0.89
  -5   0   3   22.27    3.93
  -5   0   3   13.27    0.73
  -5   0   3   12.00    0.74
  -5   0   3   13.45    0.73
  -5   0   3   12.79    0.84
   4   0  -3    0.97    0.18
   4   0  -3    1.30    0.23
  -4   0   3    0.95    0.22
  -4   0   3    0.98    0.28
  -4   0   3    0.75    2.09
  -4   0   3    0.45    2.12
  -4   0   3    0.72    0.21
  -4   0   3    0.80    0.22
   3   0  -3   24.89    1.06
   3   0  -3   25.85    0.97
   3   0  -3   24.91    0.94
   3   0  -3   23.49    0.85
  -3   0   3   24.36    0.98
  -3   0   3   20.86    2.73
  -3   0   3   22.03    2.67
  -3   0   3   24.06    0.97
  -3   0   3   23.18    1.03
  -3   0   3   23.40    0.96
   2   0  -3  169.48    5.89
   2   0  -3  172.96    5.94
   2   0  -3  161.12    5.99
   2   0  -3  176.95    5.95
   2   0  -3  171.01    5.96
  -2   0   3  174.00    6.00
  -2   0   3  181.13    7.40
  -2   0   3  173.30    5.96
  -2   0   3  173.41    5.95
  -2   0   3  181.43    5.96
  -2   0   3  176.39    7.51
   1   0  -3  426.78   15.63
  -1   0   3  446.56   15.66
   0   0  -3   -0.02    0.02
   0   0  -3   -0.03    0.03
   0   0  -3    0.01    0.02
   0   0  -3   -0.02    0.02
   0   0  -3   -0.11    0.18
   0   0  -3   -0.02    0.02
   0   0   3    0.00    0.02
   0   0   3   -0.03    0.02
   0   0   3   -0.01    0.02
   0   0   3    0.24    0.21
   0   0   3   -0.01    0.03
  -1   0  -3  409.62   14.66
   1   0   3  433.83   14.74
  -2   0  -3  167.79    5.66
  -2   0  -3  170.19    5.65
  -2   0  -3  173.37    5.67
  -2   0  -3  172.49    5.76
  -2   0  -3  153.61    6.59
   2   0   3  144.54    5.65
   2   0   3  168.70    5.63
   2   0   3  164.80    5.64
   2   0   3  178.47    6.79
  -3   0  -3   28.27    2.42
  -3   0  -3   24.87    0.94
  -3   0  -3   24.46    1.07
  -3   0  -3   22.93    0.94
   3   0   3   23.54    0.88
   3   0   3   22.62    2.50
   3   0   3   24.79    0.89
   3   0   3   24.35    0.87
  -4   0  -3    0.85    0.17
  -4   0  -3    0.76    0.20
  -4   0  -3    1.13    0.20
  -4   0  -3    1.18    0.29
  -4   0  -3    1.84    1.73
   4   0   3    0.87    0.12
  -5   0  -3   12.25    3.02
  -5   0  -3   13.14    3.13
  -5   0  -3   14.15    0.68
  -5   0  -3   13.62    0.92
  -5   0  -3   12.66    0.73
  -5   0  -3   13.60    0.71
   5   0   3   13.62    0.53
  -6   0  -3    7.15    0.81
  -6   0  -3    7.29    0.58
  -6   0  -3    7.76    0.70
  -6   0  -3    8.50    0.68
  -7   0  -3    1.13    0.57
  -7   0  -3    1.41    0.78
  -7   1   3    7.05    0.88
  -7   1   3    7.22    1.08
   6  -1  -3    3.92    0.45
   6  -1  -3    4.79    0.36
  -6   1   3    4.42    0.52
  -6   1   3    4.02    0.57
  -6   1   3    4.44    0.66
  -6   1   3    4.28    0.53
   5  -1  -3   27.78    1.15
   5  -1  -3   29.31    1.11
  -5   1   3   28.81    1.23
  -5   1   3   28.68    1.36
  -5   1   3   28.50    1.23
  -5   1   3   29.47    4.42
  -5   1   3   28.31    1.27
  -5   1   3   23.76    4.02
   4  -1  -3    6.76    0.41
   4  -1  -3    6.44    0.58
   4  -1  -3    6.50    0.36
  -4   1   3    4.15    2.14
  -4   1   3    7.52    0.50
  -4   1   3    6.24    0.43
  -4   1   3    6.49    0.45
  -4   1   3    7.09    0.54
  -4   1   3    6.00    2.37
   3  -1  -3   39.07    1.42
   3  -1  -3   40.15    1.40
   3  -1  -3   36.25    1.53
  -3   1   3   38.89    1.47
  -3   1   3   30.05    3.39
  -3   1   3   41.44    3.39
  -3   1   3   37.78    1.43
  -3   1   3   38.39    1.52
  -3   1   3   38.76    1.43
   2  -1  -3   38.10    1.34
   2  -1  -3   37.38    1.46
   2  -1  -3   41.60    1.44
   2  -1  -3   38.56    1.38
  -2   1   3   37.47    2.55
  -2   1   3   38.39    1.34
  -2   1   3   36.97    1.39
  -2   1   3   40.23    1.46
  -2   1   3   36.90    1.42
  -2   1   3   39.07    1.40
   1  -1  -3   35.15    1.23
   1  -1  -3   35.45    2.01
   1  -1  -3   34.27    1.23
   1  -1  -3   33.91    1.26
  -1   1   3   33.06    1.25
  -1   1   3   35.25    1.23
  -1   1   3   33.89    1.23
  -1   1   3   35.85    1.94
  -1   1   3   33.73    1.23
   0  -1  -3  138.92    4.87
   0  -1  -3  130.82    4.85
   0  -1  -3  147.88    4.85
   0  -1  -3  140.36    4.84
   0   1   3  136.28    4.85
   0   1   3  149.59    4.85
   0   1   3  154.00    4.88
   0   1   3  143.05    5.40
  -1  -1  -3   32.93    1.23
  -1  -1  -3   36.49    1.26
  -1  -1  -3   37.22    1.98
  -1  -1  -3   34.41    1.24
   1   1   3   33.74    1.25
   1   1   3   33.28    1.23
   1   1   3   37.04    1.24
   1   1   3   33.11    1.20
   1   1   3   33.59    2.02
  -2  -1  -3   39.30    1.43
  -2  -1  -3   38.91    1.43
  -2  -1  -3   43.46    2.67
  -2  -1  -3   39.79    1.39
  -2  -1  -3   37.38    1.44
   2   1   3   39.77    2.73
   2   1   3   39.94    1.47
   2   1   3   41.26    1.44
   2   1   3   40.28    1.43
  -3  -1  -3   35.78    1.40
  -3  -1  -3   39.15    1.45
  -3  -1  -3   39.63    1.48
  -3  -1  -3   42.92    3.13
  -3  -1  -3   39.07    1.57
   3   1   3   40.13    1.43
   3   1   3   38.52    3.43
   3   1   3   39.80    1.42
   3   1   3   38.28    1.43
  -4  -1  -3    6.33    0.37
  -4  -1  -3    9.65    2.40
  -4  -1  -3    5.86    0.53
  -4  -1  -3    6.18    0.40
  -4  -1  -3    6.83    0.46
   4   1   3    7.02    0.37
   4   1   3    6.43    0.38
   4   1   3    5.58    2.52
   4   1   3    6.58    0.34
  -5  -1  -3   27.36    1.19
  -5  -1  -3   28.32    4.01
  -5  -1  -3   29.75    1.41
  -5  -1  -3   29.36    1.26
  -5  -1  -3   30.05    1.14
   5   1   3   26.44    1.02
   5   1   3   23.68    4.44
   5   1   3   28.30    1.12
   5   1   3   28.73    1.10
  -6  -1  -3    4.14    0.53
  -6  -1  -3    4.50    0.55
  -6  -1  -3    6.01    0.85
  -6  -1  -3    4.46    0.59
   6   1   3    4.77    0.35
   6   1   3    5.15    0.41
  -7  -1  -3    6.12    1.16
  -7  -1  -3    6.60    0.75
  -7   2   3    1.92    0.54
   6  -2  -3   12.31    0.51
  -6   2   3   14.02    0.90
  -6   2   3   11.39    0.95
  -6   2   3   12.51    0.80
  -6   2   3   13.63    0.97
   5  -2  -3   10.90    0.53
   5  -2  -3   10.22    0.47
   5  -2  -3   10.28    0.84
  -5   2   3   11.00    0.68
  -5   2   3    8.90    0.70
  -5   2   3    4.66    3.18
  -5   2   3   10.51    0.78
  -5   2   3   10.88    2.95
  -5   2   3   11.27    0.63
   4  -2  -3   27.09    1.06
   4  -2  -3   26.18    1.26
   4  -2  -3   27.22    1.02
  -4   2   3   27.65    1.11
  -4   2   3   26.12    1.22
  -4   2   3   30.33    1.20
  -4   2   3   29.03    3.22
  -4   2   3   22.97    3.51
  -4   2   3   26.56    1.11
   3  -2  -3   40.78    1.46
   3  -2  -3   41.84    3.24
   3  -2  -3   39.83    1.49
  -3   2   3   41.21    1.41
  -3   2   3   43.63    3.05
  -3   2   3   40.54    1.50
  -3   2   3   40.69    1.51
  -3   2   3   40.13    1.56
  -3   2   3   39.74    1.59
   2  -2  -3   26.38    0.99
   2  -2  -3   25.74    1.04
   2  -2  -3   25.45    0.93
   2  -2  -3   18.31    2.02
  -2   2   3   26.23    0.95
  -2   2   3   26.68    0.96
  -2   2   3   25.42    1.01
  -2   2   3   24.85    0.93
  -2   2   3   23.41    2.04
   1  -2  -3  335.19   11.55
   1  -2  -3  347.03   11.52
   1  -2  -3  349.06   11.53
  -1   2   3  327.19   11.50
  -1   2   3  338.86   12.44
  -1   2   3  341.13   11.53
   0  -2  -3  419.09   15.55
   0  -2  -3  492.74   16.49
   0   2   3  466.88   16.48
  -1  -2  -3  347.90   11.81
  -1  -2  -3  351.64   11.82
  -1  -2  -3  337.94   12.95
   1   2   3  362.59   13.15
   1   2   3  346.04   11.82
   1   2   3  339.28   11.79
  -2  -2  -3   26.62    0.99
  -2  -2  -3   26.60    1.02
  -2  -2  -3   25.70    0.94
  -2  -2  -3   25.68    2.39
   2   2   3   26.26    1.00
   2   2   3   25.62    1.01
   2   2   3   24.69    0.98
   2   2   3   24.88    2.46
   2   2   3   26.92    0.95
  -3  -2  -3   40.03    1.52
  -3  -2  -3   37.68    3.47
  -3  -2  -3   39.83    1.45
  -3  -2  -3   40.72    1.56
   3   2   3   40.93    1.52
   3   2   3   41.72    1.52
   3   2   3   40.51    1.51
   3   2   3   40.23    3.78
   3   2   3   40.98    1.46
  -4  -2  -3   27.35    1.17
  -4  -2  -3   23.50    3.55
  -4  -2  -3   26.86    1.04
  -4  -2  -3   28.98    1.14
  -4  -2  -3   26.11    1.26
   4   2   3   28.67    1.11
   4   2   3   27.12    1.10
   4   2   3   29.65    4.40
   4   2   3   25.98    1.08
  -5  -2  -3   10.63    0.68
  -5  -2  -3   10.00    0.79
  -5  -2  -3    8.64    3.31
  -5  -2  -3   10.81    0.67
  -5  -2  -3   10.09    0.54
   5   2   3   10.28    0.55
   5   2   3   11.24    0.62
   5   2   3   10.61    0.57
   5   2   3    5.42    3.86
  -6  -2  -3   13.76    1.05
  -6  -2  -3   12.42    0.66
  -6  -2  -3   12.84    0.93
   6   2   3   12.15    0.56
   6   2   3   13.10    0.73
   6   2   3   12.97    0.68
  -7  -2  -3    0.59    0.64
  -6   3   3    4.58    0.57
  -6   3   3    4.55    0.77
  -6   3   3    5.83    0.81
  -6   3   3    4.58    0.59
   5  -3  -3    9.59    0.41
   5  -3  -3    8.33    0.89
  -5   3   3    3.99    2.72
  -5   3   3   11.05    0.61
  -5   3   3   10.66    0.66
  -5   3   3    9.43    0.76
  -5   3   3    4.15    3.33
  -5   3   3   10.65    0.77
   4  -3  -3    4.60    0.37
   4  -3  -3    4.74    0.27
   4  -3  -3    4.58    0.54
  -4   3   3    7.94    2.25
  -4   3   3    4.22    0.35
  -4   3   3    5.14    0.45
  -4   3   3    5.26    0.40
  -4   3   3    5.68    0.48
   3  -3  -3    5.81    0.29
   3  -3  -3    5.30    0.47
   3  -3  -3    5.71    0.32
   3  -3  -3    8.15    1.85
  -3   3   3    5.50    0.42
  -3   3   3    5.65    0.32
  -3   3   3    5.18    0.34
  -3   3   3    7.52    1.77
  -3   3   3    4.95    0.29
   2  -3  -3    2.18    1.07
   2  -3  -3    2.67    0.19
   2  -3  -3    2.76    0.20
   2  -3  -3    2.59    0.29
  -2   3   3    2.75    0.19
  -2   3   3    3.88    1.14
  -2   3   3    2.97    0.22
  -2   3   3    2.72    0.21
  -2   3   3    2.86    0.26
   1  -3  -3  195.08    6.81
   1  -3  -3  208.12    6.84
   1  -3  -3  195.72    6.86
  -1   3   3  204.28    8.05
  -1   3   3  200.45    6.84
  -1   3   3  199.53    6.81
  -1   3   3  193.03    6.87
  -1   3   3  205.55    6.85
   0  -3  -3    2.28    0.16
   0  -3  -3    2.27    0.16
   0  -3  -3    3.06    0.21
   0  -3  -3    0.69    0.81
   0   3   3    2.60    0.23
   0   3   3    2.59    0.20
   0   3   3    2.76    0.93
  -1  -3  -3  208.50    7.07
  -1  -3  -3  203.06    7.11
  -1  -3  -3  210.85    8.63
   1   3   3  203.61    7.07
   1   3   3  210.25    7.14
   1   3   3  202.98    7.08
   1   3   3  209.16    7.11
   1   3   3  209.66    8.81
  -2  -3  -3    2.58    0.29
  -2  -3  -3    3.00    0.24
  -2  -3  -3    3.27    1.25
   2   3   3    2.55    0.28
   2   3   3    2.57    0.19
   2   3   3    2.43    1.64
   2   3   3    2.84    0.25
   2   3   3    2.69    0.28
  -3  -3  -3    5.23    0.36
  -3  -3  -3    2.65    2.06
  -3  -3  -3    5.43    0.30
  -3  -3  -3    5.98    0.44
   3   3   3    6.08    0.39
   3   3   3    5.80    0.31
   3   3   3    5.89    0.47
   3   3   3    4.45    2.11
   3   3   3    6.06    0.40
  -4  -3  -3    5.95    0.44
  -4  -3  -3    4.41    0.54
  -4  -3  -3    5.03    0.50
  -4  -3  -3    6.34    2.89
  -4  -3  -3    5.00    0.31
   4   3   3    4.81    0.40
   4   3   3    4.56    0.43
   4   3   3    3.95    0.41
   4   3   3    4.44    0.32
   4   3   3    6.91    3.33
  -5  -3  -3    4.85    3.76
  -5  -3  -3    9.35    0.68
  -5  -3  -3    9.85    0.51
  -5  -3  -3    8.80    0.62
  -5  -3  -3    9.48    0.81
   5   3   3   11.51    0.66
   5   3   3    9.83    0.63
   5   3   3    8.86    4.65
   5   3   3   10.09    0.65
  -6  -3  -3    5.03    0.45
  -6  -3  -3    5.36    0.81
  -6  -3  -3    4.88    0.61
   6   3   3    5.80    0.68
   6   3   3    4.56    0.55
  -6   4   3    2.26    0.40
  -6   4   3    3.28    0.62
   5  -4  -3    9.64    1.12
  -5   4   3   11.47    0.82
  -5   4   3   10.17    0.72
  -5   4   3   11.17    0.62
  -5   4   3    9.88    0.82
   4  -4  -3   53.64    2.27
   4  -4  -3   57.58    4.94
   4  -4  -3   54.62    1.93
   4  -4  -3   54.25    1.92
  -4   4   3   58.19    2.19
  -4   4   3   55.93    2.04
  -4   4   3   50.92    1.96
  -4   4   3   56.61    2.08
  -4   4   3   63.44    4.32
   3  -4  -3    7.15    0.37
   3  -4  -3    6.31    2.07
   3  -4  -3    7.08    0.35
   3  -4  -3    7.05    0.53
  -3   4   3    7.02    1.71
  -3   4   3    7.37    0.41
  -3   4   3    7.23    0.47
  -3   4   3    7.22    0.42
  -3   4   3    7.54    0.39
   2  -4  -3   64.16    2.18
   2  -4  -3   57.86    3.72
   2  -4  -3   59.84    2.28
   2  -4  -3   60.31    2.17
  -2   4   3   61.86    2.17
  -2   4   3   60.86    2.23
  -2   4   3   63.67    2.21
  -2   4   3   59.85    3.68
  -2   4   3   61.96    2.24
   1  -4  -3   53.18    1.96
   1  -4  -3   55.97    1.99
   1  -4  -3   56.85    1.93
  -1   4   3   55.08    2.02
  -1   4   3   46.61    3.32
  -1   4   3   55.00    1.93
  -1   4   3   54.79    1.96
  -1   4   3   54.35    1.96
   0  -4  -3   34.69    1.36
   0  -4  -3   38.00    1.32
   0  -4  -3   36.46    1.33
   0  -4  -3   36.87    2.76
   0   4   3   33.23    2.86
   0   4   3   37.53    1.43
   0   4   3   35.97    1.37
   0   4   3   36.20    1.33
  -1  -4  -3   56.15    2.08
  -1  -4  -3   58.89    3.76
   1   4   3   55.19    2.06
   1   4   3   60.50    2.05
   1   4   3   58.15    4.02
   1   4   3   53.78    2.10
   1   4   3   55.12    2.03
  -2  -4  -3   64.70    2.36
  -2  -4  -3   64.85    2.29
  -2  -4  -3   63.09    4.39
   2   4   3   63.43    2.37
   2   4   3   62.82    2.32
   2   4   3   63.46    2.28
   2   4   3   65.70    4.92
   2   4   3   62.15    2.34
  -3  -4  -3   10.60    2.58
  -3  -4  -3    7.24    0.44
  -3  -4  -3    7.86    0.55
   3   4   3    7.75    0.49
   3   4   3    9.26    2.85
   3   4   3    6.39    0.51
   3   4   3    7.90    0.42
   3   4   3    7.34    0.52
  -4  -4  -3   54.79    2.24
  -4  -4  -3   56.05    1.99
  -4  -4  -3   44.81    5.56
  -4  -4  -3   54.05    2.27
  -4  -4  -3   53.22    2.07
   4   4   3   58.23    6.62
   4   4   3   56.39    2.02
   4   4   3   51.70    2.09
   4   4   3   55.31    2.12
   4   4   3   56.74    2.11
  -5  -4  -3   10.26    0.56
  -5  -4  -3   10.61    0.78
  -5  -4  -3   10.23    4.28
  -5  -4  -3   10.16    0.85
   5   4   3   11.10    0.76
   5   4   3   11.16    0.73
   5   4   3   10.77    0.58
   5   4   3    9.86    0.75
   5   4   3   10.65    5.63
  -6  -4  -3    1.86    0.71
  -6  -4  -3    2.63    0.60
   6   4   3    2.89    0.50
   6   4   3    3.04    0.57
  -6   5   3    2.81    0.45
  -6   5   3    2.95    0.65
  -5   5   3   10.32    0.78
  -5   5   3    9.33    0.67
  -5   5   3   10.65    0.79
   4  -5  -3    1.40    0.44
   4  -5  -3    0.84    2.74
  -4   5   3    0.87    0.22
  -4   5   3    0.76    0.22
  -4   5   3    0.89    2.07
  -4   5   3    0.81    0.41
  -4   5   3    1.00    0.26
   3  -5  -3   10.21    0.60
   3  -5  -3    7.81    2.45
   3  -5  -3   10.49    0.71
   3  -5  -3    9.97    0.45
  -3   5   3    9.86    0.49
  -3   5   3   10.18    0.57
  -3   5   3   10.34    0.55
  -3   5   3   11.00    0.61
  -3   5   3    9.97    2.15
   2  -5  -3   53.48    1.90
   2  -5  -3   48.73    3.74
   2  -5  -3   52.44    1.91
  -2   5   3   48.17    3.66
  -2   5   3   56.06    1.97
  -2   5   3   48.80    2.01
  -2   5   3   56.24    2.02
  -2   5   3   54.26    1.91
   1  -5  -3   16.39    0.64
   1  -5  -3   15.93    0.68
   1  -5  -3   15.74    0.70
  -1   5   3   14.39    2.39
  -1   5   3   12.22    0.78
  -1   5   3   15.77    0.67
  -1   5   3   15.15    0.64
  -1   5   3   15.83    0.70
   0  -5  -3   43.96    3.43
   0  -5  -3   48.22    1.76
   0  -5  -3   47.41    1.70
   0  -5  -3   47.24    1.68
   0   5   3   49.34    1.83
   0   5   3   46.89    1.70
   0   5   3   42.85    1.81
   0   5   3   40.97    3.66
  -1  -5  -3   14.60    0.65
  -1  -5  -3   17.68    2.62
  -1  -5  -3   15.48    0.66
  -1  -5  -3   15.41    0.74
   1   5   3   15.05    0.74
   1   5   3   18.06    2.95
   1   5   3   16.99    0.71
   1   5   3   15.45    0.68
   1   5   3   14.23    0.76
  -2  -5  -3   55.13    2.01
  -2  -5  -3   53.06    2.10
  -2  -5  -3   57.35    4.65
   2   5   3   54.64    2.13
   2   5   3   55.80    2.08
   2   5   3   53.99    2.02
   2   5   3   46.03    4.97
   2   5   3   57.51    2.06
  -3  -5  -3    9.98    0.65
  -3  -5  -3    7.77    3.07
  -3  -5  -3    9.00    0.56
   3   5   3    9.90    0.65
   3   5   3   10.30    0.62
   3   5   3   10.41    0.54
   3   5   3    9.95    0.62
   3   5   3   11.26    4.17
  -4  -5  -3   -4.66    3.42
  -4  -5  -3    0.55    0.27
  -4  -5  -3    0.83    0.34
   4   5   3    0.73    0.28
   4   5   3    1.10    0.35
   4   5   3    5.28    4.43
   4   5   3    0.91    0.22
   4   5   3    1.20    0.39
  -5  -5  -3   11.23    0.91
  -5  -5  -3   11.07    0.97
  -5  -5  -3    6.31    4.91
   5   5   3    5.69    7.08
   5   5   3    7.64    0.82
   5   5   3   10.13    0.73
   5   5   3   10.93    0.62
   5   5   3   10.08    0.88
  -6  -5  -3    2.73    0.79
  -6  -5  -3    3.45    0.73
   6   5   3    2.73    0.57
  -5   6   3    5.77    0.73
  -5   6   3    6.51    0.73
  -5   6   3    5.86    0.51
   4  -6  -3    3.57    0.60
  -4   6   3    4.05    0.49
  -4   6   3    3.59    0.38
  -4   6   3    3.73    0.51
  -4   6   3    3.62    0.46
   3  -6  -3   16.17    0.97
   3  -6  -3   16.78    0.68
   3  -6  -3   15.68    3.16
  -3   6   3   16.86    0.84
  -3   6   3   17.75    0.75
  -3   6   3   21.19    3.17
  -3   6   3   16.93    0.81
  -3   6   3   17.77    0.87
   2  -6  -3   25.60    1.17
   2  -6  -3   25.84    1.05
   2  -6  -3   26.41    1.03
   2  -6  -3   25.32    3.49
  -2   6   3   28.25    1.11
  -2   6   3   25.34    1.17
  -2   6   3   26.68    1.11
  -2   6   3   26.35    3.55
  -2   6   3   27.58    1.05
   1  -6  -3   21.95    0.85
   1  -6  -3   21.75    0.92
   1  -6  -3   20.71    0.93
  -1   6   3   21.42    1.03
  -1   6   3   25.61    3.51
  -1   6   3   21.19    0.92
  -1   6   3   20.81    0.89
   0  -6  -3    1.29    0.25
   0  -6  -3    1.10    0.19
   0  -6  -3   -0.52    1.71
   0  -6  -3    1.16    0.17
   0   6   3   -0.56    2.06
   0   6   3    1.18    0.24
   0   6   3    1.35    0.20
   0   6   3    0.74    0.27
  -1  -6  -3   21.91    0.88
  -1  -6  -3   19.42    0.96
  -1  -6  -3   23.27    3.37
  -1  -6  -3   21.47    0.88
   1   6   3   21.05    3.68
   1   6   3   22.24    0.94
   1   6   3   21.13    1.04
   1   6   3   21.01    0.94
   1   6   3   22.28    0.98
  -2  -6  -3   25.94    1.21
  -2  -6  -3   25.96    4.09
   2   6   3   29.03    1.13
   2   6   3   24.93    1.18
   2   6   3   26.08    1.13
   2   6   3   27.19    4.57
   2   6   3   25.32    1.23
  -3  -6  -3   17.18    0.82
  -3  -6  -3   15.41    4.79
  -3  -6  -3   19.04    0.99
   3   6   3   16.23    0.82
   3   6   3   17.70    0.88
   3   6   3   18.39    0.96
   3   6   3   16.57    0.97
   3   6   3   12.68    4.64
  -4  -6  -3    3.34    0.54
  -4  -6  -3    3.91    4.09
   4   6   3    4.14    0.50
   4   6   3    4.18    0.56
   4   6   3    3.49    0.58
   4   6   3    3.62    0.43
   4   6   3    6.72    5.55
  -5  -6  -3   10.98    5.90
  -5  -6  -3    6.13    0.88
  -5  -6  -3    5.37    0.72
   5   6   3    6.51    0.58
   5   6   3    4.78    0.68
   5   6   3    5.40    0.69
  -5   7   3    0.98    0.47
  -5   7   3    1.86    0.37
   4  -7  -3    0.96    0.64
  -4   7   3    0.39    0.37
  -4   7   3    0.27    0.37
  -4   7   3    0.26    0.23
  -4   7   3    0.50    0.32
   3  -7  -3    4.74    0.28
   3  -7  -3    5.30    0.69
   3  -7  -3    4.61    0.27
  -3   7   3    5.84    0.49
  -3   7   3    3.78    0.50
  -3   7   3    4.79    0.60
  -3   7   3    4.84    0.39
   2  -7  -3   26.20    1.23
   2  -7  -3   19.93    3.64
   2  -7  -3   26.89    1.08
   2  -7  -3   26.97    1.06
  -2   7   3   27.46    1.28
  -2   7   3   26.37    1.13
  -2   7   3   26.76    1.15
  -2   7   3   31.33    4.23
  -2   7   3   26.79    1.09
   1  -7  -3    5.63    0.43
   1  -7  -3    6.48    0.50
   1  -7  -3    5.98    0.39
  -1   7   3    5.77    0.47
  -1   7   3    3.62    2.94
  -1   7   3    5.62    0.39
  -1   7   3    5.35    0.62
   0  -7  -3    8.26    0.58
   0  -7  -3    8.59    2.78
   0  -7  -3    9.05    0.48
   0  -7  -3    8.85    0.59
   0   7   3    8.46    0.58
   0   7   3    9.29    0.52
   0   7   3   12.65    3.55
   0   7   3    8.27    0.73
   0   7   3    9.01    0.61
  -1  -7  -3    5.93    0.51
  -1  -7  -3    5.65    0.41
  -1  -7  -3    6.43    0.40
  -1  -7  -3    9.37    2.83
   1   7   3    2.29    3.61
   1   7   3    7.14    0.57
   1   7   3    5.22    0.51
   1   7   3    5.77    0.47
   1   7   3    5.44    0.65
  -2  -7  -3   27.10    1.11
  -2  -7  -3   26.82    4.47
  -2  -7  -3   27.86    1.12
  -2  -7  -3   26.28    1.25
   2   7   3   26.83    1.37
   2   7   3   26.86    1.27
   2   7   3   21.76    5.33
   2   7   3   26.81    1.21
   2   7   3   25.33    1.17
  -3  -7  -3    1.92    4.24
   3   7   3   -3.47    4.96
  -4  -7  -3    5.38    5.00
   4   7   3    4.80    7.53
  -5  -7  -3    1.88    0.69
  -5  -7  -3    1.22    0.72
   5   7   3    2.83    0.69
   5   7   3    0.77    0.58
  -4   8   3    5.14    0.65
  -4   8   3    4.76    0.50
   3  -8  -3   10.78    1.02
  -3   8   3   13.18    0.77
  -3   8   3   11.89    0.82
  -3   8   3   13.71    0.69
  -3   8   3   13.08    0.97
   2  -8  -3    1.83    0.28
   2  -8  -3    1.48    0.26
   2  -8  -3    1.51    0.43
  -2   8   3    1.00    0.47
  -2   8   3    1.17    0.39
  -2   8   3    1.47    0.28
   1  -8  -3    3.65    0.40
   1  -8  -3    3.73    0.40
   1  -8  -3    3.13    0.42
  -1   8   3    4.53    0.40
  -1   8   3    3.73    0.56
  -1   8   3    4.93    0.57
   0  -8  -3    7.68    0.49
   0  -8  -3    8.38    0.62
   0  -8  -3    5.08    3.31
   0  -8  -3    7.86    0.57
   0   8   3    6.97    0.82
   0   8   3    7.99    0.54
   0   8   3    7.80    0.62
   0   8   3   12.13    4.50
   0   8   3    7.56    0.63
  -1  -8  -3    3.81    0.51
  -1  -8  -3    3.48    0.41
  -1  -8  -3    1.04    3.36
  -1  -8  -3    3.40    0.42
   1   8   3    6.31    4.75
   1   8   3    3.49    0.86
   1   8   3    4.33    0.52
   1   8   3    3.90    0.46
  -2  -8  -3    1.66    0.32
  -2  -8  -3    1.98    0.45
   2   8   3    1.64    0.39
   2   8   3    1.51    0.36
   2   8   3    8.56    9.10
  -3  -8  -3   13.80    1.03
  -3  -8  -3   11.54    0.76
   3   8   3   11.19    0.80
   3   8   3   11.76    0.89
  -4  -8  -3    4.16    0.74
   4   8   3    4.94    0.70
   4   8   3    4.62    0.60
  -3   9   3   13.80    0.85
   2  -9  -3    8.52    0.56
   2  -9  -3    6.14    0.73
  -2   9   3    8.53    0.63
   1  -9  -3    0.05    0.40
   1  -9  -3    0.23    0.34
   1  -9  -3   -0.01    0.28
  -1   9   3    0.04    0.31
  -1   9   3    0.90    0.42
   0  -9  -3    4.85    0.60
   0  -9  -3    5.27    0.63
   0  -9  -3    5.36    0.53
   0   9   3    5.08    0.63
   0   9   3    5.97    0.61
  -1  -9  -3   -0.04    0.45
  -1  -9  -3   -0.32    0.30
  -1  -9  -3    0.30    0.32
   1   9   3   -0.23    0.36
   1   9   3    0.26    0.40
  -2  -9  -3    7.68    0.62
  -2  -9  -3    8.09    0.93
   2   9   3    8.49    0.74
   2   9   3    7.31    0.76
  -3  -9  -3   10.46    1.07
   3   9   3   12.55    0.99
   3   9   3   13.50    1.00
  -2  10   3    0.54    0.44
  -1  10   3    3.66    0.55
  -1  10   3    4.35    0.75
   0 -10  -3    2.71    0.57
   0  10   3    2.94    0.62
   0  10   3    1.85    0.53
  -1 -10  -3    3.40    0.66
   1  10   3    4.82    0.68
   1  10   3    4.57    0.67
  -2 -10  -3    1.47    0.69
   2  10   3    0.61    0.57
   1  10  -4   -0.37    0.54
   1  10  -4   -0.64    0.50
  -1 -10   4    0.33    0.47
   0  10  -4    0.57    0.60
   0  10  -4   -0.42    0.39
  -1  10  -4   -0.06    0.62
  -1  10  -4   -0.66    0.40
   3   9  -4    1.98    0.64
   3   9  -4    0.75    0.61
  -3  -9   4    1.47    0.64
   2   9  -4    4.13    0.56
   2   9  -4    2.70    0.61
  -2  -9   4    3.76    0.60
   1   9  -4    2.68    0.50
   1   9  -4    3.47    0.54
  -1  -9   4    3.10    0.58
  -1  -9   4    2.73    0.35
   0   9  -4   26.57    1.22
   0   9  -4   24.93    1.30
   0  -9   4   26.13    1.05
   0  -9   4   25.65    1.13
  -1   9  -4    2.42    0.50
  -1   9  -4    2.29    0.38
  -2   9  -4    3.32    0.41
  -2   9  -4    2.65    0.55
  -2   9  -4    3.24    0.53
  -3   9  -4    1.97    0.36
  -3   9  -4    1.33    0.32
  -3   9  -4    1.18    0.57
   4   8  -4    3.20    0.62
   4   8  -4    4.96    0.67
  -4  -8   4    3.69    0.55
  -4  -8   4    4.41    0.71
   3   8  -4    9.34    0.86
   3   8  -4    9.25    0.84
  -3  -8   4    9.73    0.83
  -3  -8   4   10.23    0.57
  -3  -8   4    9.78    0.69
   2   8  -4    5.32    0.62
   2   8  -4    5.43    0.57
  -2  -8   4    4.49    0.35
  -2  -8   4    4.41    0.47
  -2  -8   4    5.03    0.43
  -2  -8   4    5.13    0.65
   1   8  -4    6.86    0.66
   1   8  -4    4.66    0.56
   1   8  -4    5.71    0.55
  -1  -8   4    5.83    0.56
  -1  -8   4    6.30    0.36
  -1  -8   4    5.51    0.42
   0   8  -4    3.78    4.02
   0   8  -4    0.73    0.35
   0   8  -4    0.46    0.26
   0   8  -4    0.87    0.33
   0   8  -4    0.27    0.40
   0  -8   4    0.30    0.24
   0  -8   4    0.46    0.20
   0  -8   4    0.41    0.33
  -1   8  -4    5.63    0.45
  -1   8  -4    5.51    0.70
  -1   8  -4    3.55    3.80
  -1   8  -4    6.31    0.62
  -1   8  -4    6.03    0.59
   1  -8   4    6.30    0.46
   1  -8   4    6.20    0.38
   1  -8   4    5.86    0.31
  -2   8  -4    4.67    0.59
  -2   8  -4    5.17    0.38
  -2   8  -4    4.18    0.59
  -2   8  -4    4.75    0.50
  -2   8  -4    4.56    0.40
   2  -8   4    5.16    0.57
  -3   8  -4    9.67    0.90
  -3   8  -4   10.96    0.89
  -3   8  -4   10.66    0.70
  -3   8  -4   10.41    0.60
   3  -8   4    8.44    0.84
  -4   8  -4    3.75    0.55
  -4   8  -4    3.62    0.47
   5   7  -4    0.24    0.62
   5   7  -4    0.38    0.49
  -5  -7   4    1.03    0.58
  -5  -7   4    0.47    0.61
   4   7  -4    5.86    0.71
   4   7  -4    7.46    0.78
  -4  -7   4    5.85    0.69
  -4  -7   4    8.38    0.88
   3   7  -4    0.10    0.47
   3   7  -4    0.93    0.37
   3   7  -4    4.18    5.82
   3   7  -4    0.72    0.34
  -3  -7   4    0.41    0.37
  -3  -7   4    3.03    3.98
  -3  -7   4    0.75    0.32
  -3  -7   4    1.05    0.28
   2   7  -4    2.48    0.46
   2   7  -4    2.73    0.38
   2   7  -4    4.36    4.13
   2   7  -4    2.33    0.46
   2   7  -4    1.68    0.46
  -2  -7   4    2.44    0.34
  -2  -7   4    2.68    0.32
  -2  -7   4    2.53    0.39
  -2  -7   4    2.36    0.26
  -2  -7   4   -0.35    3.00
   1   7  -4   11.40    0.67
   1   7  -4   11.53    0.75
   1   7  -4    8.46    3.76
  -1  -7   4   11.99    0.51
  -1  -7   4   12.74    3.18
  -1  -7   4   12.29    0.67
  -1  -7   4   11.72    0.57
   0   7  -4   10.02    0.67
   0   7  -4   14.91    3.56
   0   7  -4    9.57    0.58
   0  -7   4   10.85    2.77
   0  -7   4   11.68    0.57
   0  -7   4   10.93    0.49
  -1   7  -4   11.80    0.70
  -1   7  -4   12.16    0.57
  -1   7  -4   10.86    0.65
  -1   7  -4   11.48    3.04
   1  -7   4   11.70    0.48
   1  -7   4   11.01    0.52
   1  -7   4   11.36    2.39
   1  -7   4   10.49    0.57
  -2   7  -4    5.39    2.43
  -2   7  -4    2.65    0.42
  -2   7  -4    2.86    0.29
  -2   7  -4    2.85    0.34
  -2   7  -4    1.79    0.44
  -2   7  -4    3.11    0.29
   2  -7   4    1.32    2.14
   2  -7   4    3.62    0.44
  -3   7  -4   -1.94    2.48
  -3   7  -4    1.06    0.40
  -3   7  -4    0.74    0.22
  -3   7  -4    0.91    0.27
   3  -7   4   -1.49    2.42
   3  -7   4    1.00    0.39
  -4   7  -4    6.52    0.68
  -4   7  -4    2.31    2.77
  -4   7  -4    7.09    0.55
  -4   7  -4    6.84    0.60
  -4   7  -4    6.64    0.43
  -5   7  -4   -0.14    0.45
  -5   7  -4    0.33    0.40
   5   6  -4   -4.83    9.00
   5   6  -4    5.45    0.72
   5   6  -4    5.72    0.71
   5   6  -4    5.36    0.70
  -5  -6   4    5.78    0.73
  -5  -6   4    5.45    0.69
  -5  -6   4    4.25    0.55
   4   6  -4    5.03    0.59
   4   6  -4    5.32    0.64
   4   6  -4    4.70    6.49
  -4  -6   4    5.64    4.50
  -4  -6   4    4.39    0.58
  -4  -6   4    4.97    0.64
  -4  -6   4    4.06    0.57
   3   6  -4   25.32    5.55
   3   6  -4   17.23    0.90
   3   6  -4   16.85    0.98
   3   6  -4   17.12    0.95
   3   6  -4   17.33    0.92
  -3  -6   4   17.51    0.83
  -3  -6   4   20.75    4.34
  -3  -6   4   18.63    0.88
  -3  -6   4   17.84    0.94
   2   6  -4    3.95    2.98
   2   6  -4    1.25    0.28
   2   6  -4    1.40    0.31
   2   6  -4    0.75    0.30
  -2  -6   4    1.26    0.31
  -2  -6   4    1.12    0.22
  -2  -6   4    1.76    2.62
  -2  -6   4    1.43    0.21
   1   6  -4   11.11    0.66
   1   6  -4   11.68    0.64
   1   6  -4    9.39    3.08
   1   6  -4   11.41    0.58
  -1  -6   4   10.85    0.61
  -1  -6   4   10.07    0.55
  -1  -6   4   11.52    0.52
  -1  -6   4   10.68    2.66
   0   6  -4   53.98    4.60
   0   6  -4   48.34    1.98
   0   6  -4   52.60    1.96
   0   6  -4   53.63    1.91
   0  -6   4   51.52    1.83
   0  -6   4   51.70    1.83
   0  -6   4   50.96    3.95
   0  -6   4   51.34    1.90
  -1   6  -4   15.05    2.72
  -1   6  -4   11.08    0.64
  -1   6  -4   11.82    0.49
  -1   6  -4   11.91    0.53
   1  -6   4   11.68    0.45
   1  -6   4   13.67    2.20
   1  -6   4   11.27    0.47
   1  -6   4   11.23    0.55
  -2   6  -4    1.30    0.19
  -2   6  -4    1.28    0.22
  -2   6  -4    1.68    1.81
  -2   6  -4    1.11    0.16
   2  -6   4    0.88    0.25
   2  -6   4    2.01    1.67
  -3   6  -4   18.20    0.73
  -3   6  -4   17.69    0.90
  -3   6  -4   17.49    2.49
  -3   6  -4   18.08    0.84
  -3   6  -4   18.54    0.84
   3  -6   4   18.55    2.65
   3  -6   4   17.72    0.95
  -4   6  -4    4.90    0.43
  -4   6  -4    5.57    0.53
  -4   6  -4    6.60    2.03
  -4   6  -4    3.82    0.50
  -4   6  -4    5.22    0.35
  -5   6  -4    4.89    0.56
  -5   6  -4    5.48    0.49
  -5   6  -4    5.92    0.43
  -5   6  -4    3.50    2.18
  -5   6  -4    6.63    0.71
   6   5  -4   11.15    0.92
   6   5  -4   11.34    1.03
  -6  -5   4   11.64    1.18
  -6  -5   4   11.50    1.15
   5   5  -4    7.92    5.99
   5   5  -4    1.89    0.48
   5   5  -4    1.41    0.46
   5   5  -4    1.88    0.49
  -5  -5   4    7.23    4.99
  -5  -5   4    2.19    0.49
  -5  -5   4    1.63    0.41
  -5  -5   4    1.32    0.45
   4   5  -4    2.05    4.94
   4   5  -4    4.84    0.58
   4   5  -4    4.41    0.50
   4   5  -4    4.29    0.58
   4   5  -4    3.81    0.48
  -4  -5   4    4.95    0.54
  -4  -5   4    4.58    0.47
  -4  -5   4    4.13    0.52
  -4  -5   4    5.07    0.49
  -4  -5   4    7.80    4.43
   3   5  -4   15.32    0.80
   3   5  -4   16.35    0.81
   3   5  -4   12.84    3.87
   3   5  -4   13.74    0.84
  -3  -5   4   15.54    3.70
  -3  -5   4   17.00    0.78
  -3  -5   4   15.17    0.77
  -3  -5   4   14.68    0.76
  -3  -5   4   15.16    0.84
   2   5  -4   55.03    5.24
   2   5  -4   56.18    2.19
   2   5  -4   59.07    2.18
   2   5  -4   58.17    2.16
  -2  -5   4   59.69    2.16
  -2  -5   4   57.22    2.10
  -2  -5   4   54.86    4.89
  -2  -5   4   57.37    2.11
  -2  -5   4   56.85    2.18
   1   5  -4    3.29    1.99
   1   5  -4    4.37    0.34
   1   5  -4    3.60    0.37
   1   5  -4    3.28    0.28
  -1  -5   4    5.46    1.96
  -1  -5   4    3.87    0.21
  -1  -5   4    3.46    0.33
  -1  -5   4    3.78    0.26
   0   5  -4   15.25    0.66
   0   5  -4   14.89    2.49
   0   5  -4   16.34    0.75
   0   5  -4   15.89    0.71
   0  -5   4   15.90    2.27
   0  -5   4   15.48    0.61
   0  -5   4   15.76    0.62
   0  -5   4   17.01    0.68
  -1   5  -4    2.91    0.27
  -1   5  -4    3.19    0.22
  -1   5  -4    3.91    0.22
  -1   5  -4    3.61    1.39
  -1   5  -4    3.79    0.34
   1  -5   4    3.37    0.31
   1  -5   4    3.65    0.17
   1  -5   4    4.75    1.23
  -2   5  -4   54.85    1.94
  -2   5  -4   54.62    1.90
  -2   5  -4   51.82    4.62
  -2   5  -4   55.74    1.97
   2  -5   4   47.93    3.20
   2  -5   4   53.99    2.02
  -3   5  -4   17.75    2.17
  -3   5  -4   14.61    0.64
  -3   5  -4   15.69    0.61
  -3   5  -4   14.77    0.73
   3  -5   4   14.42    0.81
   3  -5   4   18.03    2.20
  -4   5  -4    3.95    0.48
  -4   5  -4    3.21    0.34
  -4   5  -4    3.64    0.37
  -4   5  -4    4.07    1.51
  -4   5  -4    3.75    0.28
  -4   5  -4    5.60    1.83
  -5   5  -4    0.84    1.89
  -5   5  -4    1.74    0.27
  -5   5  -4    1.43    0.24
  -5   5  -4    2.55    0.47
  -5   5  -4    2.17    0.34
  -5   5  -4    1.74    0.21
  -6   5  -4   12.88    1.11
  -6   5  -4   10.16    0.91
   6   4  -4    3.05    0.56
   6   4  -4    2.81    0.49
  -6  -4   4    2.63    0.56
  -6  -4   4    3.54    0.52
  -6  -4   4    2.77    0.70
   5   4  -4   19.00    0.98
   5   4  -4   21.14    6.18
   5   4  -4   17.51    1.04
   5   4  -4   19.64    1.04
   5   4  -4   20.18    1.00
  -5  -4   4   14.02    5.15
  -5  -4   4   18.15    1.10
  -5  -4   4   20.48    1.12
  -5  -4   4   19.26    0.97
   4   4  -4   18.78    0.92
   4   4  -4   18.69    0.94
   4   4  -4   17.40    0.86
   4   4  -4   17.32    0.89
   4   4  -4   13.32    4.59
  -4  -4   4   17.84    0.96
  -4  -4   4   18.73    4.30
  -4  -4   4   15.53    0.83
  -4  -4   4   18.74    0.96
  -4  -4   4   18.49    0.88
   3   4  -4   13.68    3.31
   3   4  -4   13.71    0.72
   3   4  -4   13.56    0.69
   3   4  -4   12.72    0.70
  -3  -4   4   15.55    3.17
  -3  -4   4   13.24    0.67
  -3  -4   4   12.26    0.70
  -3  -4   4   13.95    0.70
  -3  -4   4   13.48    0.66
   2   4  -4   32.70    1.29
   2   4  -4   31.16    1.30
   2   4  -4   35.10    4.02
   2   4  -4   34.01    1.29
  -2  -4   4   33.95    1.31
  -2  -4   4   33.88    1.28
  -2  -4   4   31.30    1.25
  -2  -4   4   29.21    3.55
  -2  -4   4   29.62    1.29
   1   4  -4   40.94    3.55
   1   4  -4   39.58    1.48
   1   4  -4   42.95    1.52
   1   4  -4   35.67    1.50
  -1  -4   4   38.04    3.24
  -1  -4   4   40.43    1.44
  -1  -4   4   40.56    1.50
  -1  -4   4   38.99    1.49
   0   4  -4   30.50    1.16
   0   4  -4   32.58    2.72
   0   4  -4   31.31    1.22
   0   4  -4   31.21    1.20
   0  -4   4   31.34    1.12
   0  -4   4   32.55    1.17
   0  -4   4   30.68    2.48
   0  -4   4   31.39    1.11
  -1   4  -4   43.25    2.70
  -1   4  -4   42.47    1.44
  -1   4  -4   39.18    1.43
  -1   4  -4   41.06    1.54
  -1   4  -4   39.13    1.46
   1  -4   4   38.73    1.47
   1  -4   4   41.39    2.44
  -2   4  -4   32.12    1.24
  -2   4  -4   32.93    1.16
  -2   4  -4   34.67    1.19
  -2   4  -4   31.71    2.22
   2  -4   4   30.33    1.27
   2  -4   4   32.78    2.11
  -3   4  -4   12.70    0.67
  -3   4  -4   12.00    1.52
  -3   4  -4   13.30    0.54
  -3   4  -4   13.11    0.53
   3  -4   4   14.24    1.87
  -4   4  -4   17.10    0.72
  -4   4  -4   18.17    2.07
  -4   4  -4   17.40    0.92
  -4   4  -4   16.99    0.71
  -4   4  -4   16.52    0.71
  -4   4  -4   17.41    0.71
  -4   4  -4   19.20    2.56
  -5   4  -4   23.81    3.52
  -5   4  -4   21.06    0.89
  -5   4  -4   24.88    2.81
  -5   4  -4   20.44    1.12
  -5   4  -4   19.84    0.92
  -6   4  -4    3.11    0.49
  -6   4  -4    3.59    0.64
  -6   4  -4    1.93    0.59
  -6   4  -4    3.15    0.40
   6   3  -4    4.92    0.64
   6   3  -4    4.65    0.67
  -6  -3   4    6.64    0.70
  -6  -3   4    4.77    0.69
  -6  -3   4    5.03    0.68
   5   3  -4   22.62    1.06
   5   3  -4   30.77    6.00
   5   3  -4   22.90    1.02
   5   3  -4   22.43    1.15
   5   3  -4   23.85    1.11
  -5  -3   4   21.71    1.11
  -5  -3   4   17.65    5.29
  -5  -3   4   22.90    1.07
  -5  -3   4   22.40    1.20
  -5  -3   4   23.03    1.16
   4   3  -4    7.28    3.68
   4   3  -4    5.47    0.45
   4   3  -4    6.43    0.46
   4   3  -4    6.33    0.48
   4   3  -4    6.99    0.56
  -4  -3   4    6.20    0.51
  -4  -3   4    6.62    3.14
  -4  -3   4    5.72    0.47
  -4  -3   4    5.76    0.47
  -4  -3   4    6.16    0.54
   3   3  -4   15.63    0.72
   3   3  -4   14.77    0.71
   3   3  -4   15.65    0.75
   3   3  -4   16.30    3.37
  -3  -3   4   14.78    0.70
  -3  -3   4   14.07    0.72
  -3  -3   4   13.56    2.95
  -3  -3   4   15.79    0.70
  -3  -3   4   14.72    0.73
   2   3  -4  107.32    3.71
   2   3  -4  106.08    3.72
   2   3  -4  102.12    3.71
   2   3  -4  112.29    6.21
  -2  -3   4  101.69    3.71
  -2  -3   4   98.30    5.80
  -2  -3   4  108.56    3.70
  -2  -3   4  106.35    3.68
  -2  -3   4  103.52    3.69
   1   3  -4  158.52    5.64
   1   3  -4  162.83    5.62
   1   3  -4  171.16    5.65
   1   3  -4  174.81    7.54
  -1  -3   4  147.90    5.62
  -1  -3   4  159.92    5.58
  -1  -3   4  166.54    5.60
  -1  -3   4  167.16    5.64
  -1  -3   4  165.97    7.34
   0   3  -4   57.77    3.27
   0   3  -4   61.82    2.07
   0   3  -4   57.85    2.09
   0   3  -4   58.06    2.12
   0  -3   4   59.64    2.04
   0  -3   4   60.66    3.18
   0  -3   4   56.96    2.02
   0  -3   4   60.64    2.07
  -1   3  -4  159.30    5.40
  -1   3  -4  160.65    6.21
  -1   3  -4  153.29    5.37
  -1   3  -4  155.45    5.41
   1  -3   4  155.42    5.42
   1  -3   4  167.17    6.08
  -2   3  -4  100.12    3.48
  -2   3  -4   99.38    4.07
  -2   3  -4  102.86    3.48
  -2   3  -4  101.81    3.59
   2  -3   4  105.47    4.21
   2  -3   4  102.57    3.61
  -3   3  -4   15.31    0.60
  -3   3  -4   15.30    1.42
  -3   3  -4   16.67    1.77
  -3   3  -4   14.68    0.74
  -4   3  -4    5.94    0.28
  -4   3  -4    5.74    0.34
  -4   3  -4    5.40    0.53
  -4   3  -4    7.07    1.67
  -4   3  -4    5.78    0.31
  -4   3  -4    5.98    0.36
  -4   3  -4    8.53    1.51
  -5   3  -4   23.42    1.22
  -5   3  -4   20.74    2.94
  -5   3  -4   24.09    1.03
  -5   3  -4   19.83    2.77
  -5   3  -4   25.32    1.13
  -5   3  -4   24.14    1.00
  -6   3  -4    5.11    0.53
  -6   3  -4    5.37    0.63
  -6   3  -4    4.74    0.68
  -6   3  -4    4.91    0.62
   7   2  -4    3.19    0.54
  -7  -2   4    4.08    0.71
  -7  -2   4    3.96    0.90
   6   2  -4    1.32    0.37
   6   2  -4    1.20    0.16
   6   2  -4    1.09    0.49
  -6  -2   4    2.09    0.49
  -6  -2   4    1.13    0.41
  -6  -2   4    1.43    0.55
   5   2  -4   17.75    0.78
   5   2  -4   18.84    0.91
   5   2  -4   19.39    0.90
   5   2  -4   17.45    0.95
  -5  -2   4   17.98    1.03
  -5  -2   4   18.12    0.97
  -5  -2   4   17.32    0.95
  -5  -2   4   16.17    4.23
  -5  -2   4   19.19    0.92
   4   2  -4   27.20    1.11
   4   2  -4   26.16    1.03
   4   2  -4   29.21    1.12
   4   2  -4   26.67    1.13
   4   2  -4   23.47    4.05
  -4  -2   4   26.91    1.13
  -4  -2   4   22.12    1.15
  -4  -2   4   24.04    1.17
  -4  -2   4   22.44    3.84
  -4  -2   4   25.50    1.14
   3   2  -4   15.54    0.70
   3   2  -4   12.24    2.76
   3   2  -4   16.35    0.71
   3   2  -4   14.98    0.72
  -3  -2   4   14.76    0.71
  -3  -2   4   15.27    0.70
  -3  -2   4   19.55    2.94
  -3  -2   4   16.53    0.74
  -3  -2   4   14.91    0.74
   2   2  -4   24.91    0.93
   2   2  -4   19.57    2.62
   2   2  -4   22.40    0.91
   2   2  -4   23.56    0.93
  -2  -2   4   23.73    0.92
  -2  -2   4   23.40    0.93
  -2  -2   4   23.19    2.51
  -2  -2   4   22.32    0.90
  -2  -2   4   21.28    0.91
   1   2  -4  227.18    8.07
   1   2  -4  225.51    8.09
   1   2  -4  241.11    9.58
   1   2  -4  235.18    8.09
  -1  -2   4  230.20    8.05
  -1  -2   4  233.73    8.06
  -1  -2   4  239.68    8.09
  -1  -2   4  249.53    8.09
  -1  -2   4  253.48    9.61
   0   2  -4    9.57    0.36
   0   2  -4    9.39    1.08
   0   2  -4    9.78    0.40
   0   2  -4    8.89    0.37
   0  -2   4    8.23    0.42
   0  -2   4    8.53    0.97
   0  -2   4    9.13    0.34
   0  -2   4    9.09    0.36
  -1   2  -4  238.40    8.26
  -1   2  -4  214.46    7.92
   1  -2   4  246.59    8.19
  -2   2  -4   22.13    0.92
  -2   2  -4   22.54    0.78
  -2   2  -4   22.39    0.79
  -2   2  -4   23.41    1.21
  -2   2  -4   22.54    1.34
  -3   2  -4   15.51    0.59
  -3   2  -4   14.41    0.74
  -3   2  -4   14.33    1.92
  -3   2  -4   13.77    1.66
  -3   2  -4   15.76    0.59
  -3   2  -4   15.39    0.60
  -4   2  -4   26.72    1.03
  -4   2  -4   27.17    2.52
  -4   2  -4   26.60    2.75
  -4   2  -4   25.38    1.21
  -4   2  -4   25.74    1.02
  -5   2  -4   18.95    0.86
  -5   2  -4   17.24    0.89
  -5   2  -4   19.11    2.88
  -5   2  -4   21.01    2.84
  -5   2  -4   19.66    0.87
  -5   2  -4   20.07    1.08
  -6   2  -4    1.33    0.34
  -6   2  -4    1.55    0.41
  -6   2  -4    1.08    0.41
  -6   2  -4    1.71    0.53
  -7   2  -4    4.32    0.60
  -7  -1   4    1.56    0.80
  -7  -1   4    2.46    0.68
   6   1  -4   24.46    1.09
   6   1  -4   23.72    1.18
  -6  -1   4   24.21    1.33
  -6  -1   4   22.99    1.19
  -6  -1   4   24.54    1.25
   5   1  -4   21.80    0.97
   5   1  -4   21.14    1.01
   5   1  -4   21.86    0.78
  -5  -1   4   22.49    4.55
  -5  -1   4   21.25    1.03
  -5  -1   4   23.11    4.48
  -5  -1   4   21.54    1.01
  -5  -1   4   21.72    1.16
   4   1  -4   16.90    0.78
   4   1  -4   17.42    0.68
   4   1  -4   17.46    0.82
   4   1  -4   17.57    0.80
   4   1  -4   18.17    0.68
  -4  -1   4   16.78    0.89
  -4  -1   4   16.70    0.80
  -4  -1   4   17.18    0.88
  -4  -1   4   16.37    3.20
  -4  -1   4   16.65    0.81
  -4  -1   4   15.98    3.04
   3   1  -4    7.64    0.42
   3   1  -4    8.16    0.44
   3   1  -4    7.30    0.42
   3   1  -4    7.52    0.49
  -3  -1   4    6.39    0.41
  -3  -1   4    8.06    0.43
  -3  -1   4    7.09    1.98
  -3  -1   4    7.37    0.47
  -3  -1   4    7.40    0.43
   2   1  -4    4.36    0.28
   2   1  -4    4.38    0.28
   2   1  -4    3.46    1.44
   2   1  -4    4.65    0.31
   2   1  -4    4.45    0.26
  -2  -1   4    4.77    0.28
  -2  -1   4    4.33    0.28
  -2  -1   4    4.70    0.29
  -2  -1   4    2.59    1.20
  -2  -1   4    4.84    0.28
   1   1  -4  136.58    5.25
   1   1  -4  158.94    5.28
   1   1  -4  148.13    5.26
   1   1  -4  154.43    6.45
   1   1  -4  155.09    5.26
  -1  -1   4  162.85    5.27
  -1  -1   4  150.01    5.25
  -1  -1   4  157.35    5.26
  -1  -1   4  157.31    6.46
  -1  -1   4  154.67    5.27
   0   1  -4  918.03   32.27
   0  -1   4  961.46   32.29
  -1   1  -4  152.18    5.21
  -2   1  -4    4.14    0.30
  -2   1  -4    4.30    0.71
  -2   1  -4    4.65    0.20
  -2   1  -4    4.16    0.19
  -2   1  -4    4.78    0.22
  -2   1  -4    4.76    0.73
  -3   1  -4    7.76    0.36
  -3   1  -4    7.87    0.49
  -3   1  -4    7.91    1.37
  -3   1  -4    7.56    0.37
  -3   1  -4    6.66    1.25
  -4   1  -4   16.65    0.73
  -4   1  -4   10.95    2.06
  -4   1  -4   17.03    0.89
  -4   1  -4   16.58    2.33
  -4   1  -4   17.15    0.73
  -4   1  -4   16.93    0.71
  -5   1  -4   21.25    0.93
  -5   1  -4   22.19    0.95
  -5   1  -4   20.12    1.12
  -5   1  -4   21.43    0.95
  -5   1  -4   17.85    3.16
  -5   1  -4   17.90    3.06
  -6   1  -4   23.94    1.35
  -6   1  -4   22.86    1.13
  -6   1  -4   25.37    1.17
  -6   1  -4   21.81    1.09
  -7   1  -4    3.09    0.58
  -7   1  -4    1.92    0.89
  -7   0   4    0.80    0.74
  -7   0   4    1.52    0.59
   6   0  -4   16.02    0.89
   6   0  -4   15.57    0.76
  -6   0   4   15.68    1.09
  -6   0   4   16.86    0.96
  -6   0   4   14.65    0.97
   5   0  -4   11.34    0.67
   5   0  -4   11.59    0.59
  -5   0   4   11.12    0.67
  -5   0   4    7.19    3.48
  -5   0   4   11.03    0.78
  -5   0   4   11.19    0.68
  -5   0   4   11.55    0.71
  -5   0   4    9.66    3.81
   4   0  -4    7.92    0.44
   4   0  -4    7.41    0.58
   4   0  -4    8.76    0.50
  -4   0   4    7.39    2.57
  -4   0   4    7.44    0.57
  -4   0   4    8.03    0.50
  -4   0   4    7.38    0.47
  -4   0   4    7.17    2.52
   3   0  -4   79.82    2.84
   3   0  -4   77.84    2.94
   3   0  -4   81.41    2.86
  -3   0   4   80.59    4.85
  -3   0   4   80.93    2.86
  -3   0   4   79.25    2.93
  -3   0   4   82.07    2.88
  -3   0   4   83.77    5.02
  -3   0   4   78.13    2.86
   2   0  -4    0.35    0.10
   2   0  -4    0.09    0.12
  -2   0   4    0.25    0.10
  -2   0   4    1.23    0.92
  -2   0   4    0.03    1.00
  -2   0   4    0.15    0.10
  -2   0   4    0.23    0.09
   1   0  -4   87.97    3.06
   1   0  -4   86.28    3.07
   1   0  -4   90.61    3.08
   1   0  -4   90.10    3.06
   1   0  -4   90.58    3.06
   1   0  -4   95.27    4.06
  -1   0   4   92.20    3.07
  -1   0   4   85.24    3.07
  -1   0   4   91.21    3.99
  -1   0   4   83.65    3.07
  -1   0   4   86.01    3.06
   0   0  -4   21.91    0.79
   0   0  -4   22.25    0.83
   0   0  -4   21.24    0.80
   0   0  -4   22.95    0.81
   0   0  -4   22.80    0.80
   0   0  -4   24.05    1.23
   0   0   4   22.24    0.79
   0   0   4   22.21    0.81
   0   0   4   20.84    1.17
   0   0   4   23.06    0.83
   0   0   4   23.28    0.80
  -1   0  -4   94.31    3.45
  -1   0  -4   88.24    3.00
  -1   0  -4   88.45    3.00
  -1   0  -4   88.75    3.04
   1   0   4   86.00    3.04
   1   0   4   81.65    2.99
   1   0   4   91.87    3.49
  -2   0  -4    0.39    0.59
  -2   0  -4    0.09    0.07
  -2   0  -4    0.20    0.07
  -2   0  -4    0.33    0.07
  -2   0  -4    0.12    0.05
   2   0   4    0.17    0.07
   2   0   4    0.18    0.05
   2   0   4    0.15    0.04
   2   0   4    1.01    0.70
  -3   0  -4   81.11    2.95
  -3   0  -4   80.14    2.78
  -3   0  -4   78.29    2.80
  -3   0  -4   80.50    2.82
  -3   0  -4   75.87    4.20
  -3   0  -4   85.35    2.76
   3   0   4   75.72    2.76
   3   0   4   83.18    4.45
   3   0   4   79.53    2.74
   3   0   4   78.07    2.74
  -4   0  -4    7.58    0.41
  -4   0  -4    7.91    0.43
  -4   0  -4    6.10    1.88
  -4   0  -4    7.58    0.45
  -4   0  -4    7.98    0.58
   4   0   4    7.71    0.33
   4   0   4    7.53    0.32
  -5   0  -4   11.63    0.66
  -5   0  -4   12.67    3.05
  -5   0  -4   15.57    3.30
  -5   0  -4   11.47    0.59
  -5   0  -4   11.28    0.84
  -5   0  -4   10.60    0.62
   5   0   4   10.16    0.45
  -6   0  -4   16.62    0.94
  -6   0  -4   15.21    1.15
  -6   0  -4   16.13    0.92
  -7   0  -4    1.11    0.59
  -7   0  -4    0.87    0.73
  -7   1   4    2.79    0.57
  -7   1   4    4.39    1.29
   6  -1  -4   26.03    1.29
   6  -1  -4   23.61    0.98
  -6   1   4   24.51    1.19
  -6   1   4   25.40    1.38
  -6   1   4   21.69    1.25
  -6   1   4   24.08    1.31
   5  -1  -4   20.88    0.87
   5  -1  -4   21.07    0.93
   5  -1  -4   20.49    1.20
  -5   1   4   21.01    1.03
  -5   1   4   19.40    0.97
  -5   1   4   21.67    3.92
  -5   1   4   20.58    0.98
  -5   1   4   13.54    3.89
  -5   1   4   23.44    1.15
   4  -1  -4   15.57    0.89
   4  -1  -4   16.83    0.76
   4  -1  -4   17.25    0.71
  -4   1   4   16.82    4.88
  -4   1   4   16.41    0.76
  -4   1   4   17.01    0.78
  -4   1   4   16.89    0.88
  -4   1   4   18.75    0.84
  -4   1   4   18.59    3.25
   3  -1  -4    7.32    0.28
   3  -1  -4    7.90    0.41
   3  -1  -4    7.71    0.51
   3  -1  -4    7.38    0.37
  -3   1   4    5.65    1.82
  -3   1   4    8.73    0.50
  -3   1   4    7.94    1.86
  -3   1   4    7.81    0.46
  -3   1   4    7.26    0.40
  -3   1   4    7.89    0.41
   2  -1  -4    4.55    0.24
   2  -1  -4    3.92    1.20
   2  -1  -4    4.19    0.26
   2  -1  -4    4.35    0.31
  -2   1   4    4.56    0.21
  -2   1   4    4.62    0.28
  -2   1   4    4.77    0.30
  -2   1   4    4.32    1.21
  -2   1   4    4.62    0.26
  -2   1   4    4.21    0.25
   1  -1  -4  153.72    5.21
   1  -1  -4  152.39    6.17
   1  -1  -4  155.57    5.24
   1  -1  -4  152.90    5.21
   1  -1  -4  145.63    5.20
  -1   1   4  172.27    6.21
  -1   1   4  149.66    5.21
  -1   1   4  144.60    5.20
  -1   1   4  147.08    5.21
  -1   1   4  152.74    5.23
   0  -1  -4  930.08   31.45
   0   1   4  895.37   31.42
  -1  -1  -4  151.93    6.15
  -1  -1  -4  153.30    5.38
  -1  -1  -4  159.11    5.40
  -1  -1  -4  159.38    5.42
   1   1   4  158.16    5.39
   1   1   4  174.47    6.34
   1   1   4  157.53    5.38
   1   1   4  151.01    5.41
  -2  -1  -4    4.58    0.25
  -2  -1  -4    4.69    0.19
  -2  -1  -4    4.85    0.25
  -2  -1  -4    4.42    0.24
  -2  -1  -4    5.17    1.17
   2   1   4    4.01    1.18
   2   1   4    4.48    0.23
   2   1   4    4.54    0.24
   2   1   4    4.06    0.25
  -3  -1  -4    7.38    0.36
  -3  -1  -4    7.76    0.41
  -3  -1  -4    7.57    0.50
  -3  -1  -4    8.10    1.76
  -3  -1  -4    6.73    0.37
  -3  -1  -4    7.41    0.33
   3   1   4    8.34    0.37
   3   1   4    7.09    0.41
   3   1   4    9.85    1.99
   3   1   4    7.10    0.36
  -4  -1  -4   18.04    0.93
  -4  -1  -4   17.74    0.81
  -4  -1  -4   17.34    0.70
  -4  -1  -4   15.24    2.72
  -4  -1  -4   17.26    0.77
   4   1   4   17.03    0.72
   4   1   4   13.75    2.88
   4   1   4   17.65    0.71
  -5  -1  -4   14.23    3.36
  -5  -1  -4   20.78    0.99
  -5  -1  -4   20.81    1.13
  -5  -1  -4   20.33    0.94
  -5  -1  -4   20.85    0.85
   5   1   4   20.03    0.83
   5   1   4   15.96    3.99
   5   1   4   20.59    0.82
   5   1   4   19.88    0.77
  -6  -1  -4   23.38    1.17
  -6  -1  -4   25.66    1.21
  -6  -1  -4   25.11    1.45
  -6  -1  -4   22.38    1.00
   6   1   4   23.15    0.94
   6   1   4   23.26    0.90
  -7  -1  -4    3.41    1.01
  -7  -1  -4    3.05    0.64
  -7   2   4    3.37    0.64
   6  -2  -4    1.34    0.25
   6  -2  -4    1.35    0.20
  -6   2   4    1.19    0.47
  -6   2   4    0.87    0.51
  -6   2   4    1.84    0.50
  -6   2   4    1.72    0.40
   5  -2  -4   17.35    0.74
   5  -2  -4   18.37    0.81
   5  -2  -4   18.69    1.10
  -5   2   4   20.50    3.73
  -5   2   4   17.32    4.11
  -5   2   4   16.84    0.90
  -5   2   4   18.60    1.01
  -5   2   4   16.63    0.95
  -5   2   4   19.09    0.86
   4  -2  -4   24.74    1.24
   4  -2  -4   25.21    1.04
   4  -2  -4   26.41    1.00
  -4   2   4   25.13    3.48
  -4   2   4   26.66    1.19
  -4   2   4   26.82    1.08
  -4   2   4   26.16    1.08
  -4   2   4   33.67    3.98
  -4   2   4   26.30    1.14
   3  -2  -4   12.33    0.81
   3  -2  -4   14.99    2.26
   3  -2  -4   15.58    0.66
   3  -2  -4   15.27    0.62
  -3   2   4   16.07    0.75
  -3   2   4   16.13    0.73
  -3   2   4   14.63    0.57
  -3   2   4   15.46    0.66
  -3   2   4   15.68    2.23
  -3   2   4   15.87    0.67
   2  -2  -4   23.31    0.88
   2  -2  -4   23.11    0.86
   2  -2  -4   23.10    0.95
   2  -2  -4   23.07    0.85
  -2   2   4   22.84    0.87
  -2   2   4   21.06    2.09
  -2   2   4   23.95    0.86
  -2   2   4   20.69    0.91
  -2   2   4   23.32    0.88
   1  -2  -4  237.61    7.92
   1  -2  -4  234.13    7.93
   1  -2  -4  232.58    7.92
   1  -2  -4  246.09    9.11
   1  -2  -4  236.95    7.90
  -1   2   4  220.72    7.92
  -1   2   4  224.30    7.89
  -1   2   4  236.15    7.90
  -1   2   4  222.24    8.89
  -1   2   4  232.28    7.92
   0  -2  -4    9.96    0.41
   0  -2  -4    9.67    0.43
   0  -2  -4    6.54    1.04
   0  -2  -4   10.36    0.40
   0   2   4    9.51    0.38
   0   2   4    9.29    0.43
   0   2   4    9.33    1.11
  -1  -2  -4  231.18    8.07
  -1  -2  -4  224.68    8.02
  -1  -2  -4  276.31    9.42
  -1  -2  -4  222.32    8.05
   1   2   4  240.04    8.07
   1   2   4  244.48    8.05
   1   2   4  234.29    8.03
   1   2   4  224.63    8.00
   1   2   4  231.82    9.31
  -2  -2  -4   23.10    0.87
  -2  -2  -4   22.86    0.90
  -2  -2  -4   18.71    2.10
  -2  -2  -4   22.95    0.90
   2   2   4   22.58    0.88
   2   2   4   21.71    0.82
   2   2   4   23.25    2.51
   2   2   4   23.53    0.88
   2   2   4   22.55    0.90
  -3  -2  -4   15.69    0.72
  -3  -2  -4   15.61    0.68
  -3  -2  -4   17.95    2.51
  -3  -2  -4   15.34    0.60
   3   2   4   14.70    0.60
   3   2   4   16.09    0.69
   3   2   4   15.59    0.67
   3   2   4   15.54    0.67
   3   2   4   14.11    2.71
  -4  -2  -4   27.08    1.03
  -4  -2  -4   26.09    3.80
  -4  -2  -4   27.29    1.12
  -4  -2  -4   27.70    1.18
  -4  -2  -4   28.10    1.31
   4   2   4   28.50    1.11
   4   2   4   26.76    1.10
   4   2   4   28.16    1.11
   4   2   4   28.19    4.18
  -5  -2  -4   17.05    3.65
  -5  -2  -4   17.81    0.75
  -5  -2  -4   18.60    0.90
  -5  -2  -4   18.86    0.96
  -5  -2  -4   17.98    1.07
   5   2   4   17.22    1.09
   5   2   4   17.74    0.80
   5   2   4   18.44    4.38
   5   2   4   18.42    0.81
  -6  -2  -4    1.43    0.60
  -6  -2  -4    1.54    0.25
  -6  -2  -4    1.98    0.46
   6   2   4    1.10    0.27
   6   2   4    1.23    0.38
  -7  -2  -4    3.42    0.74
  -6   3   4    4.26    0.62
  -6   3   4    4.26    0.49
   5  -3  -4   21.29    1.30
   5  -3  -4   22.92    0.86
   5  -3  -4   23.82    1.00
  -5   3   4   20.84    1.13
  -5   3   4   22.79    1.17
  -5   3   4   22.79    1.01
  -5   3   4   20.51    4.55
  -5   3   4   22.29    1.06
  -5   3   4   20.99    3.68
   4  -3  -4    5.65    0.58
   4  -3  -4    6.21    0.39
   4  -3  -4    6.39    0.34
  -4   3   4    6.24    0.41
  -4   3   4    5.53    0.44
  -4   3   4    6.79    0.56
  -4   3   4    7.76    2.32
  -4   3   4    6.97    0.52
   3  -3  -4   15.49    0.64
   3  -3  -4   15.89    2.49
   3  -3  -4   14.05    0.77
   3  -3  -4   14.98    0.62
  -3   3   4   13.04    2.11
  -3   3   4   15.90    0.68
  -3   3   4   14.49    0.61
  -3   3   4   15.47    0.65
  -3   3   4   15.64    0.75
   2  -3  -4  105.31    3.76
   2  -3  -4  107.65    3.67
   2  -3  -4  107.76    3.67
  -2   3   4   99.75    5.59
  -2   3   4  102.57    3.66
  -2   3   4  108.61    3.68
  -2   3   4  102.50    3.73
  -2   3   4  109.50    3.69
   1  -3  -4  159.07    5.60
   1  -3  -4  160.44    5.65
   1  -3  -4  165.10    5.63
   1  -3  -4  158.81    5.66
  -1   3   4  160.66    5.60
  -1   3   4  161.59    5.63
  -1   3   4  164.75    5.64
  -1   3   4  175.44    5.67
  -1   3   4  172.53    6.96
   0  -3  -4   61.43    3.31
   0  -3  -4   66.04    2.19
   0  -3  -4   59.95    2.15
   0  -3  -4   62.49    2.14
   0  -3  -4   59.88    2.21
   0   3   4   58.29    2.17
   0   3   4   53.15    3.28
   0   3   4   65.34    2.22
  -1  -3  -4  159.83    5.70
  -1  -3  -4  178.27    7.27
  -1  -3  -4  162.17    5.66
  -1  -3  -4  174.36    5.74
   1   3   4  147.98    7.21
   1   3   4  162.60    5.69
   1   3   4  168.59    5.67
   1   3   4  176.98    5.74
   1   3   4  155.76    5.65
  -2  -3  -4  103.99    5.51
  -2  -3  -4  108.66    3.66
  -2  -3  -4  103.16    3.71
   2   3   4  105.25    5.82
   2   3   4  104.81    3.69
   2   3   4  108.59    3.72
   2   3   4  105.54    3.68
   2   3   4   99.53    3.63
  -3  -3  -4   15.58    0.61
  -3  -3  -4   15.76    0.74
  -3  -3  -4   15.60    2.73
  -3  -3  -4   14.43    0.68
   3   3   4   15.52    0.73
   3   3   4   15.43    0.62
   3   3   4   12.85    2.97
   3   3   4   15.27    0.69
   3   3   4   14.42    0.71
  -4  -3  -4    6.86    2.81
  -4  -3  -4    5.24    0.56
  -4  -3  -4    6.20    0.55
  -4  -3  -4    6.27    0.34
  -4  -3  -4    5.92    0.45
   4   3   4    0.00    3.10
   4   3   4    5.77    0.43
   4   3   4    6.05    0.34
   4   3   4    6.34    0.44
   4   3   4    6.87    0.48
  -5  -3  -4   20.06    4.33
  -5  -3  -4   23.60    1.07
  -5  -3  -4   25.25    1.19
  -5  -3  -4   22.19    0.93
  -5  -3  -4   22.40    1.26
   5   3   4   24.29    1.07
   5   3   4   24.56    5.54
   5   3   4   24.28    1.05
   5   3   4   23.12    1.08
  -6  -3  -4    5.49    0.65
  -6  -3  -4    4.83    0.77
   6   3   4    4.98    0.62
   6   3   4    4.28    0.55
  -6   4   4    2.90    0.46
  -6   4   4    3.34    0.63
  -5   4   4   21.19    0.95
  -5   4   4   19.92    1.10
  -5   4   4   18.41    1.00
  -5   4   4   20.37    1.12
   4  -4  -4   17.56    0.69
   4  -4  -4   15.61    0.99
   4  -4  -4   14.62    3.22
   4  -4  -4   17.04    0.71
  -4   4   4   18.05    0.83
  -4   4   4   17.30    0.77
  -4   4   4   17.73    0.92
   3  -4  -4   13.43    0.56
   3  -4  -4   13.75    0.58
   3  -4  -4   10.56    2.37
   3  -4  -4   12.91    0.75
  -3   4   4   13.17    0.68
  -3   4   4   11.68    0.62
  -3   4   4   13.92    0.61
  -3   4   4   10.84    2.07
  -3   4   4   12.87    0.58
   2  -4  -4   31.72    1.34
   2  -4  -4   33.12    1.25
   2  -4  -4   31.15    1.23
   2  -4  -4   33.67    2.97
  -2   4   4   36.17    2.84
  -2   4   4   36.61    1.28
  -2   4   4   33.70    1.24
  -2   4   4   35.25    1.31
  -2   4   4   31.25    1.29
   1  -4  -4   39.93    1.50
   1  -4  -4   42.25    1.47
   1  -4  -4   40.21    1.52
  -1   4   4   42.26    1.51
  -1   4   4   41.08    1.51
  -1   4   4   38.88    2.85
  -1   4   4   40.47    1.47
  -1   4   4   38.79    1.55
   0  -4  -4   29.54    1.15
   0  -4  -4   31.58    2.62
   0  -4  -4   31.32    1.22
   0  -4  -4   30.30    1.18
   0   4   4   33.24    1.22
   0   4   4   33.59    1.28
   0   4   4   28.75    2.71
   0   4   4   32.34    1.18
  -1  -4  -4   37.54    3.14
  -1  -4  -4   39.36    1.55
   1   4   4   41.74    3.50
   1   4   4   40.02    1.51
   1   4   4   42.96    1.61
   1   4   4   43.64    1.56
   1   4   4   40.05    1.51
  -2  -4  -4   32.64    1.33
  -2  -4  -4   38.60    3.37
  -2  -4  -4   32.74    1.26
   2   4   4   34.86    1.25
   2   4   4   33.43    1.29
   2   4   4   33.08    1.31
   2   4   4   30.95    3.71
   2   4   4   31.09    1.38
  -3  -4  -4   13.49    0.74
  -3  -4  -4   14.04    0.67
  -3  -4  -4   13.65    2.96
   3   4   4   13.78    0.68
   3   4   4   14.20    0.74
   3   4   4   13.78    0.62
   3   4   4   14.49    0.72
  -4  -4  -4   15.70    0.99
  -4  -4  -4   14.41    3.52
  -4  -4  -4   18.20    0.84
   4   4   4   17.39    0.88
   4   4   4   17.00    0.74
   4   4   4   16.56    0.89
   4   4   4   16.41    4.53
   4   4   4   18.51    0.86
  -5  -4  -4   20.43    1.21
  -5  -4  -4   17.16    4.53
  -5  -4  -4   21.34    1.11
   5   4   4   16.18    6.01
   5   4   4   19.95    1.06
   5   4   4   18.90    1.04
   5   4   4   22.04    0.88
  -6  -4  -4    2.02    0.68
  -6  -4  -4    2.52    0.58
   6   4   4    2.64    0.53
   6   4   4    3.03    0.48
  -6   5   4   11.47    0.77
  -6   5   4   11.19    0.98
  -5   5   4    1.35    0.43
  -5   5   4    1.67    0.44
  -5   5   4    1.54    0.29
   4  -5  -4    3.67    3.09
   4  -5  -4    4.15    0.27
   4  -5  -4    4.01    0.25
   4  -5  -4    4.24    0.63
  -4   5   4    4.16    0.37
  -4   5   4    4.29    0.51
  -4   5   4    3.84    0.36
  -4   5   4    3.83    0.45
  -4   5   4   11.90    2.56
   3  -5  -4   15.36    0.65
   3  -5  -4   16.83    2.88
   3  -5  -4   15.30    0.85
   3  -5  -4   16.18    0.67
  -3   5   4   15.81    0.75
  -3   5   4   17.28    2.73
  -3   5   4   14.29    0.73
  -3   5   4   17.23    0.80
  -3   5   4   14.74    0.67
   2  -5  -4   56.43    2.07
   2  -5  -4   54.68    4.11
   2  -5  -4   55.95    2.09
   2  -5  -4   56.39    2.19
  -2   5   4   58.90    2.08
  -2   5   4   57.83    4.06
  -2   5   4   61.21    2.15
  -2   5   4   59.90    2.18
  -2   5   4   57.07    2.11
   1  -5  -4    3.64    0.31
   1  -5  -4    3.58    0.30
   1  -5  -4    4.02    0.26
   1  -5  -4    3.52    1.69
  -1   5   4    3.79    0.28
  -1   5   4    3.88    0.26
  -1   5   4    3.92    1.65
  -1   5   4    3.36    0.33
   0  -5  -4   15.39    0.64
   0  -5  -4   12.88    2.10
   0  -5  -4   14.60    0.69
   0  -5  -4   15.94    0.67
   0   5   4   15.38    0.70
   0   5   4   18.79    2.81
   0   5   4   14.97    0.65
   0   5   4   15.71    0.77
  -1  -5  -4    3.74    0.28
  -1  -5  -4    3.57    1.64
  -1  -5  -4    3.17    0.27
  -1  -5  -4    3.39    0.36
   1   5   4    4.32    0.32
   1   5   4    3.19    0.35
   1   5   4    3.41    0.29
   1   5   4    2.85    0.37
   1   5   4    4.54    2.22
  -2  -5  -4   54.15    4.57
  -2  -5  -4   55.72    2.19
  -2  -5  -4   57.91    2.10
   2   5   4   55.79    2.10
   2   5   4   60.02    2.18
   2   5   4   57.04    2.22
   2   5   4   59.52    2.15
   2   5   4   54.15    5.19
  -3  -5  -4   14.41    0.80
  -3  -5  -4   13.60    0.70
   3   5   4   15.37    0.69
   3   5   4   15.42    0.76
   3   5   4   21.98    4.31
   3   5   4   14.45    0.84
   3   5   4   14.91    0.78
  -4  -5  -4    3.65    0.50
  -4  -5  -4    3.89    0.43
  -4  -5  -4   -0.13    3.23
   4   5   4    3.63    0.46
   4   5   4    4.40    4.92
   4   5   4    4.36    0.37
   4   5   4    4.05    0.46
   4   5   4    3.94    0.51
  -5  -5  -4    0.76    4.60
  -5  -5  -4    1.85    0.59
  -5  -5  -4    1.44    0.45
   5   5   4    1.13    0.44
   5   5   4    2.19    0.52
   5   5   4   -4.68    6.18
   5   5   4    1.22    0.43
  -6  -5  -4   13.71    1.18
  -6  -5  -4   12.45    1.20
   6   5   4   10.71    0.91
  -5   6   4    5.18    0.53
  -5   6   4    6.01    0.72
  -5   6   4    5.03    0.67
   4  -6  -4    4.54    0.66
  -4   6   4    4.98    0.46
  -4   6   4    4.22    0.63
  -4   6   4    4.86    0.55
  -4   6   4    5.37    0.55
   3  -6  -4   13.98    3.15
   3  -6  -4   17.66    0.99
   3  -6  -4   18.41    0.77
   3  -6  -4   17.90    0.76
  -3   6   4   19.92    0.91
  -3   6   4   17.99    0.87
  -3   6   4   18.38    0.80
  -3   6   4   18.79    0.91
  -3   6   4   19.45    3.08
   2  -6  -4    1.17    0.28
   2  -6  -4    1.02    0.20
   2  -6  -4    1.53    0.22
   2  -6  -4    0.18    2.17
  -2   6   4    0.99    0.18
  -2   6   4    1.55    0.26
  -2   6   4    1.28    0.29
  -2   6   4    1.40    0.23
  -2   6   4   -0.75    1.83
   1  -6  -4    9.36    2.34
   1  -6  -4   12.18    0.61
   1  -6  -4   11.53    0.59
  -1   6   4    6.92    2.36
  -1   6   4   11.79    0.60
  -1   6   4   11.64    0.70
  -1   6   4   11.24    0.57
   0  -6  -4   52.36    4.27
   0  -6  -4   53.22    2.00
   0  -6  -4   54.12    1.94
   0   6   4   51.29    1.94
   0   6   4   50.39    2.06
   0   6   4   54.69    4.79
   0   6   4   52.26    1.98
  -1  -6  -4   12.14    0.69
  -1  -6  -4   12.27    0.55
  -1  -6  -4   11.55    0.57
  -1  -6  -4    8.33    2.49
   1   6   4   12.01    0.73
   1   6   4   10.89    2.85
   1   6   4   11.03    0.59
   1   6   4   10.11    0.63
   1   6   4   12.00    0.62
  -2  -6  -4   -1.99    2.51
  -2  -6  -4    1.38    0.33
   2   6   4    1.21    0.24
   2   6   4    1.50    0.24
   2   6   4    1.76    3.05
   2   6   4    0.85    0.28
   2   6   4    1.10    0.34
  -3  -6  -4   17.42    0.97
  -3  -6  -4   17.15    4.11
  -3  -6  -4   17.59    0.86
   3   6   4   17.87    1.01
   3   6   4   17.98    0.98
   3   6   4   18.88    0.86
   3   6   4   14.55    4.38
   3   6   4   19.98    0.93
  -4  -6  -4    3.42    0.57
  -4  -6  -4    5.69    4.10
   4   6   4    5.10    0.56
   4   6   4   12.47    6.11
   4   6   4    4.69    0.45
   4   6   4    5.04    0.66
   4   6   4    4.20    0.55
  -5  -6  -4    6.15    0.79
  -5  -6  -4    5.34    0.76
   5   6   4    5.05    0.65
   5   6   4    3.93    0.69
   5   6   4    5.66    0.55
  -5   7   4    0.34    0.45
  -5   7   4    0.13    0.33
  -4   7   4    6.72    0.70
  -4   7   4    8.61    0.71
  -4   7   4    7.02    0.52
  -4   7   4    7.18    0.66
   3  -7  -4    0.93    0.42
   3  -7  -4    0.79    0.20
   3  -7  -4    0.63    0.21
  -3   7   4    0.81    0.29
  -3   7   4    0.54    0.45
  -3   7   4    1.20    0.29
  -3   7   4    0.95    0.38
   2  -7  -4   -0.37    2.90
   2  -7  -4    3.26    0.35
   2  -7  -4    3.26    0.44
   2  -7  -4    2.89    0.35
  -2   7   4    2.94    0.36
  -2   7   4    1.06    2.86
  -2   7   4    2.03    0.43
  -2   7   4    2.94    0.33
  -2   7   4    2.76    0.37
   1  -7  -4   11.83    0.58
   1  -7  -4   12.47    0.65
   1  -7  -4   11.20    0.67
   1  -7  -4   12.35    2.97
  -1   7   4   10.96    0.80
  -1   7   4   13.81    3.34
  -1   7   4   12.03    0.69
  -1   7   4   11.30    0.58
   0  -7  -4    9.88    0.54
   0  -7  -4   13.52    2.92
   0  -7  -4   10.97    0.60
   0  -7  -4   11.40    0.67
   0   7   4   10.10    0.64
   0   7   4   11.25    0.66
   0   7   4   13.92    3.61
   0   7   4   11.15    0.58
   0   7   4   10.35    0.79
  -1  -7  -4   12.08    3.27
  -1  -7  -4   12.25    0.62
  -1  -7  -4   12.45    0.75
  -1  -7  -4   12.04    0.60
   1   7   4   12.95    0.75
   1   7   4   11.76    0.65
   1   7   4   16.12    4.21
   1   7   4    9.81    0.82
   1   7   4   12.14    0.69
  -2  -7  -4    3.02    0.46
  -2  -7  -4    2.68    0.33
  -2  -7  -4    2.47    0.31
  -2  -7  -4   -1.49    2.87
   2   7   4    2.59    0.49
   2   7   4    2.12    0.40
   2   7   4    2.68    0.36
   2   7   4    2.50    0.37
   2   7   4    6.54    4.57
  -3  -7  -4   -2.12    4.15
  -3  -7  -4    0.45    0.38
   3   7   4   -6.95    5.27
   3   7   4    1.04    0.34
   3   7   4    0.84    0.29
   3   7   4    0.57    0.48
  -4  -7  -4    7.53    0.87
  -4  -7  -4   18.27    5.72
   4   7   4    3.30    7.67
   4   7   4    7.66    0.71
   4   7   4    6.11    0.61
  -5  -7  -4   -0.67    0.71
  -5  -7  -4   -0.66    0.63
   5   7   4    1.21    0.60
  -4   8   4    4.85    0.68
  -4   8   4    4.56    0.53
   3  -8  -4    9.32    0.47
   3  -8  -4   10.57    1.00
  -3   8   4   11.34    0.72
  -3   8   4   10.35    0.94
  -3   8   4   10.14    0.63
   2  -8  -4    4.58    0.45
   2  -8  -4    4.23    0.57
  -2   8   4    6.03    0.48
  -2   8   4    4.71    0.62
  -2   8   4    6.06    0.77
   1  -8  -4    5.68    0.44
   1  -8  -4    5.54    0.58
   1  -8  -4    5.37    0.52
  -1   8   4    5.31    0.64
  -1   8   4    6.44    0.45
  -1   8   4    4.59    0.55
   0  -8  -4    0.85    0.33
   0  -8  -4    6.16    3.06
   0  -8  -4    0.09    0.27
   0  -8  -4    0.70    0.25
   0   8   4    0.40    0.36
   0   8   4    0.57    0.32
   0   8   4   -2.27    4.11
   0   8   4    0.40    0.43
   0   8   4    0.15    0.23
  -1  -8  -4    4.73    0.46
  -1  -8  -4    4.99    3.81
  -1  -8  -4    6.02    0.49
  -1  -8  -4    6.09    0.59
   1   8   4    5.81    0.58
   1   8   4    5.69    0.52
   1   8   4    0.25    4.81
  -2  -8  -4    5.38    0.66
  -2  -8  -4    4.52    0.48
   2   8   4   13.02    7.32
   2   8   4    4.48    0.53
   2   8   4    5.05    0.56
  -3  -8  -4    8.97    0.88
  -3  -8  -4    8.92    0.71
   3   8   4   10.44    0.74
   3   8   4   10.90    0.85
  -4  -8  -4    4.92    0.75
   4   8   4    3.28    0.63
   4   8   4    3.46    0.55
  -3   9   4    2.67    0.45
   2  -9  -4    3.53    0.60
   2  -9  -4    3.34    0.40
  -2   9   4    3.96    0.46
   1  -9  -4    2.29    0.49
   1  -9  -4    2.84    0.37
   1  -9  -4    3.74    0.46
  -1   9   4    2.40    0.55
  -1   9   4    2.42    0.40
   0  -9  -4   26.25    1.15
   0  -9  -4   25.86    1.27
   0  -9  -4   25.47    1.23
   0   9   4   27.64    1.35
   0   9   4   26.31    1.24
  -1  -9  -4    2.87    0.55
  -1  -9  -4    2.27    0.41
   1   9   4    2.90    0.49
   1   9   4    3.23    0.54
  -2  -9  -4    2.24    0.57
  -2  -9  -4    3.01    0.43
   2   9   4    3.40    0.56
   2   9   4    3.28    0.53
  -3  -9  -4    0.62    0.68
   3   9   4    0.51    0.58
   3   9   4    1.71    0.51
   1 -10  -4   -0.10    0.71
  -1  10   4    0.09    0.57
  -1  10   4    0.00    0.42
   0 -10  -4   -0.06    0.53
   0  10   4   -0.71    0.44
   0  10   4    1.17    0.57
  -1 -10  -4    0.42    0.60
   1  10   4   -0.11    0.52
   1  10   4    0.29    0.53
   1  10  -5    5.26    0.70
   1  10  -5    6.15    0.89
  -1 -10   5    6.12    0.75
   0  10  -5    0.65    0.59
   0  10  -5    0.47    0.47
  -1  10  -5    5.73    0.72
  -1  10  -5    5.32    0.87
   3   9  -5   -0.23    0.57
   3   9  -5   -0.98    0.51
  -3  -9   5    1.22    0.61
   2   9  -5    1.81    0.52
   2   9  -5    1.34    0.54
  -2  -9   5    2.16    0.52
   1   9  -5    0.91    0.48
   1   9  -5    0.57    0.37
  -1  -9   5    1.66    0.41
   0   9  -5    8.98    0.85
   0   9  -5    8.61    0.71
   0  -9   5   10.27    0.61
  -1   9  -5    1.09    0.44
  -1   9  -5    1.16    0.32
  -2   9  -5    0.88    0.32
  -2   9  -5    1.85    0.51
  -2   9  -5    0.98    0.48
  -3   9  -5   -0.47    0.29
  -3   9  -5   -0.48    0.53
   4   8  -5    6.85    0.82
   4   8  -5    5.75    0.75
  -4  -8   5    5.60    0.78
  -4  -8   5    6.83    0.74
   3   8  -5    7.61    0.72
   3   8  -5    6.90    0.79
  -3  -8   5    6.35    0.80
  -3  -8   5    5.44    0.57
   2   8  -5    5.41    0.57
   2   8  -5    5.08    0.63
  -2  -8   5    4.26    0.47
  -2  -8   5    4.75    0.39
  -2  -8   5    6.83    0.67
  -2  -8   5    5.34    0.34
   1   8  -5   13.75    0.89
   1   8  -5   15.01    0.85
   1   8  -5   15.61    0.92
  -1  -8   5   16.00    0.83
  -1  -8   5   15.29    0.70
  -1  -8   5   15.58    0.62
   0   8  -5    1.69    0.42
   0   8  -5    1.11    0.37
   0   8  -5    3.65    5.31
   0   8  -5    0.89    0.45
   0   8  -5    1.24    0.28
   0  -8   5    1.25    0.17
   0  -8   5    1.16    0.26
   0  -8   5    1.45    0.21
  -1   8  -5   11.57    3.96
  -1   8  -5   16.45    0.76
  -1   8  -5   15.55    0.90
  -1   8  -5   14.31    1.02
  -1   8  -5   15.13    0.86
   1  -8   5   14.06    0.69
  -2   8  -5    5.05    0.57
  -2   8  -5    5.65    0.62
  -2   8  -5    4.90    0.66
  -2   8  -5    5.36    0.43
   2  -8   5    3.69    0.52
  -3   8  -5    8.19    0.81
  -3   8  -5    8.18    0.63
  -3   8  -5    7.46    0.49
  -3   8  -5    6.00    0.73
  -3   8  -5    7.40    0.52
  -4   8  -5    6.36    0.63
  -4   8  -5    7.09    0.89
   5   7  -5    2.24    0.59
   5   7  -5    2.40    0.72
  -5  -7   5    4.32    0.83
  -5  -7   5    2.57    0.62
   4   7  -5   12.04    0.88
   4   7  -5   12.61    0.93
  -4  -7   5   11.98    0.93
  -4  -7   5   12.55    0.86
   3   7  -5    6.95    0.61
   3   7  -5    6.40    0.60
   3   7  -5   11.80    6.12
   3   7  -5    3.87    0.60
  -3  -7   5    5.17    0.50
  -3  -7   5    7.78    4.65
  -3  -7   5    5.10    0.54
  -3  -7   5    5.71    0.62
   2   7  -5   12.02    0.79
   2   7  -5   14.48    4.58
   2   7  -5   11.91    0.80
   2   7  -5   12.17    0.72
  -2  -7   5   12.36    0.65
  -2  -7   5   10.01    3.86
  -2  -7   5   12.85    0.55
  -2  -7   5   12.97    0.78
  -2  -7   5   12.22    0.60
   1   7  -5   23.91    1.25
   1   7  -5   24.13    1.13
   1   7  -5   25.10    4.89
   1   7  -5   24.65    1.09
  -1  -7   5   26.63    1.10
  -1  -7   5   24.16    0.98
  -1  -7   5   21.14    3.85
  -1  -7   5   24.43    0.91
   0   7  -5   43.76    1.91
   0   7  -5   44.79    1.71
   0   7  -5   45.59    1.78
   0   7  -5   42.78    5.60
   0  -7   5   44.08    1.59
   0  -7   5   41.38    4.21
   0  -7   5   44.69    1.67
   0  -7   5   45.24    1.61
  -1   7  -5   25.74    0.99
  -1   7  -5   21.02    3.68
  -1   7  -5   24.94    1.13
  -1   7  -5   25.05    1.06
   1  -7   5   22.52    0.96
   1  -7   5   23.75    0.85
   1  -7   5   17.98    2.87
  -2   7  -5   12.11    0.67
  -2   7  -5   13.80    0.60
  -2   7  -5   12.09    0.76
  -2   7  -5   13.09    2.93
  -2   7  -5   13.26    0.59
   2  -7   5   13.17    0.71
   2  -7   5    9.98    2.57
  -3   7  -5    2.83    2.46
  -3   7  -5    4.52    0.44
  -3   7  -5    4.97    0.55
  -3   7  -5    4.81    0.33
  -3   7  -5    5.67    0.42
   3  -7   5    4.80    2.42
   3  -7   5    4.93    0.63
  -4   7  -5   12.39    0.59
  -4   7  -5   11.41    2.80
  -4   7  -5   11.58    0.67
  -4   7  -5   10.38    1.07
  -4   7  -5   11.59    0.83
  -5   7  -5    3.69    0.43
  -5   7  -5    3.27    0.57
   5   6  -5    1.01    0.51
   5   6  -5   -1.23    0.55
   5   6  -5    0.64    0.43
  -5  -6   5    0.51    0.47
  -5  -6   5   -0.03    0.43
  -5  -6   5    1.16    0.51
   4   6  -5   17.38    0.96
   4   6  -5   16.58    1.04
   4   6  -5    9.23    6.22
   4   6  -5   15.99    0.99
  -4  -6   5   16.66    0.92
  -4  -6   5   16.46    0.94
  -4  -6   5   11.97    5.30
  -4  -6   5   16.29    0.98
   3   6  -5   27.38    1.23
   3   6  -5   26.26    1.20
   3   6  -5   18.98    5.25
   3   6  -5   26.54    1.24
  -3  -6   5   25.88    1.18
  -3  -6   5   25.14    1.11
  -3  -6   5   25.51    1.13
  -3  -6   5   26.36    1.22
  -3  -6   5   25.00    4.81
   2   6  -5   33.39    5.02
   2   6  -5   35.23    1.47
   2   6  -5   34.71    1.47
   2   6  -5   35.52    1.44
  -2  -6   5   31.44    4.39
  -2  -6   5   35.71    1.34
  -2  -6   5   33.66    1.35
  -2  -6   5   33.72    1.44
   1   6  -5   57.18    2.14
   1   6  -5   55.87    2.08
   1   6  -5   57.40    2.13
   1   6  -5   53.71    5.43
  -1  -6   5   51.90    2.06
  -1  -6   5   51.35    4.73
  -1  -6   5   55.73    1.93
   0   6  -5    0.16    0.20
   0   6  -5    2.54    2.27
   0   6  -5    0.58    0.23
   0  -6   5    0.36    0.11
   0  -6   5    0.70    0.11
   0  -6   5    0.97    0.18
   0  -6   5    0.58    1.84
  -1   6  -5   53.70    1.90
  -1   6  -5   53.53    2.03
  -1   6  -5   52.12    2.03
  -1   6  -5   55.27    4.32
   1  -6   5   48.93    3.65
   1  -6   5   54.57    1.80
   1  -6   5   49.19    1.93
  -2   6  -5   35.18    1.31
  -2   6  -5   35.16    1.36
  -2   6  -5   37.11    3.46
  -2   6  -5   35.66    1.34
  -2   6  -5   36.97    1.50
   2  -6   5   34.48    1.41
   2  -6   5   37.16    3.18
  -3   6  -5   30.59    3.13
  -3   6  -5   26.50    1.00
  -3   6  -5   26.85    1.11
  -3   6  -5   25.96    1.05
   3  -6   5   23.36    3.05
   3  -6   5   26.66    1.22
  -4   6  -5   15.86    0.85
  -4   6  -5   16.05    0.76
  -4   6  -5   17.36    2.36
  -4   6  -5   17.63    0.90
  -4   6  -5   16.75    0.70
  -5   6  -5    0.62    0.42
  -5   6  -5   -0.40    1.88
  -5   6  -5    0.80    0.40
  -5   6  -5    0.10    0.22
  -5   6  -5    0.18    0.30
   6   5  -5    8.37    0.99
   6   5  -5    9.77    0.90
  -6  -5   5    8.53    1.02
  -6  -5   5    8.54    1.07
   5   5  -5   11.98    7.30
   5   5  -5    1.68    0.49
   5   5  -5    2.05    0.44
   5   5  -5    3.60    0.55
  -5  -5   5    2.69    0.53
  -5  -5   5    2.92    0.44
  -5  -5   5    3.02    0.55
  -5  -5   5   -0.72    5.89
   4   5  -5    3.46    0.48
   4   5  -5    3.65    0.46
   4   5  -5    3.74    0.52
   4   5  -5   -2.39    4.96
   4   5  -5    4.31    0.52
  -4  -5   5    3.67    0.43
  -4  -5   5    4.04    0.48
  -4  -5   5    3.73    0.49
  -4  -5   5    4.43    0.52
  -4  -5   5    4.46    3.84
   3   5  -5    6.92    0.60
   3   5  -5    5.66    0.51
   3   5  -5    6.48    0.49
   3   5  -5    8.23    3.74
  -3  -5   5    6.69    0.50
  -3  -5   5    6.60    3.42
  -3  -5   5    6.40    0.47
  -3  -5   5    6.10    0.52
  -3  -5   5    6.37    0.46
   2   5  -5    4.59    0.40
   2   5  -5    4.09    2.60
   2   5  -5    3.35    0.35
   2   5  -5    4.05    0.40
  -2  -5   5    3.82    0.33
  -2  -5   5    4.78    2.47
  -2  -5   5    3.73    0.30
  -2  -5   5    3.80    0.37
  -2  -5   5    4.03    0.37
   1   5  -5   42.45    4.09
   1   5  -5   44.23    1.63
   1   5  -5   43.85    1.67
   1   5  -5   38.73    1.66
  -1  -5   5   39.26    3.76
  -1  -5   5   44.50    1.58
  -1  -5   5   44.56    1.51
  -1  -5   5   44.83    1.65
   0   5  -5   12.45    0.61
   0   5  -5   11.56    0.53
   0   5  -5   13.58    2.37
   0   5  -5   10.85    0.57
   0  -5   5   11.69    0.52
   0  -5   5   11.43    0.45
   0  -5   5    9.64    1.86
   0  -5   5   12.13    0.47
  -1   5  -5   44.04    1.59
  -1   5  -5   43.45    1.52
  -1   5  -5   43.03    1.54
  -1   5  -5   36.90    3.17
  -1   5  -5   43.44    1.67
   1  -5   5   42.27    1.56
   1  -5   5   45.39    2.91
  -2   5  -5    4.86    1.37
  -2   5  -5    3.66    0.27
  -2   5  -5    3.69    0.28
  -2   5  -5    3.64    0.21
   2  -5   5    3.27    0.34
   2  -5   5    2.14    1.19
  -3   5  -5    6.87    0.36
  -3   5  -5    6.75    0.32
  -3   5  -5    5.06    1.33
  -3   5  -5    6.87    0.47
   3  -5   5    7.01    1.57
   3  -5   5    6.71    0.54
  -4   5  -5    3.38    0.32
  -4   5  -5    1.21    1.59
  -4   5  -5    3.70    0.39
  -4   5  -5    2.27    1.32
  -4   5  -5    3.63    0.46
  -4   5  -5    3.26    0.26
  -5   5  -5    2.75    0.26
  -5   5  -5    2.62    1.63
  -5   5  -5    3.22    0.34
  -5   5  -5    2.98    0.52
  -5   5  -5    3.40    0.38
  -6   5  -5    7.25    1.01
  -6   5  -5    7.52    0.59
   6   4  -5    1.57    0.46
   6   4  -5    0.85    0.45
  -6  -4   5    0.43    0.55
  -6  -4   5   -0.10    0.48
  -6  -4   5    0.58    0.45
   5   4  -5    3.30    0.44
   5   4  -5    1.70    6.00
   5   4  -5    4.32    0.58
   5   4  -5    2.94    0.45
   5   4  -5    3.27    0.45
  -5  -4   5    2.71    0.43
  -5  -4   5    3.46    0.51
  -5  -4   5    3.04    0.50
  -5  -4   5   11.00    5.31
   4   4  -5   54.85    2.18
   4   4  -5   60.08    7.16
   4   4  -5   58.72    2.19
   4   4  -5   56.35    2.23
  -4  -4   5   59.21    2.24
  -4  -4   5   54.48    2.22
  -4  -4   5   54.54    6.32
  -4  -4   5   55.80    2.16
  -4  -4   5   56.47    2.16
   3   4  -5    5.36    0.46
   3   4  -5    5.53    0.43
   3   4  -5    6.13    3.12
   3   4  -5    5.00    0.41
  -3  -4   5    4.89    0.39
  -3  -4   5    5.66    0.42
  -3  -4   5    6.16    2.75
  -3  -4   5    5.17    0.42
  -3  -4   5    5.59    0.46
   2   4  -5   60.58    2.27
   2   4  -5   62.50    2.31
   2   4  -5   65.01    2.30
   2   4  -5   60.67    5.11
  -2  -4   5   62.70    2.25
  -2  -4   5   63.21    4.73
  -2  -4   5   57.25    2.27
  -2  -4   5   63.21    2.29
  -2  -4   5   60.54    2.23
   1   4  -5   29.45    1.11
   1   4  -5   30.61    3.11
   1   4  -5   25.46    1.09
   1   4  -5   27.76    1.07
  -1  -4   5   21.85    2.70
  -1  -4   5   28.58    1.00
  -1  -4   5   28.24    1.10
  -1  -4   5   27.58    1.03
  -1  -4   5   24.82    1.06
   0   4  -5   20.75    2.29
   0   4  -5   19.83    0.82
   0   4  -5   18.19    0.78
   0   4  -5   19.72    0.74
   0  -4   5   19.85    2.12
   0  -4   5   19.26    0.71
   0  -4   5   18.33    0.74
   0  -4   5   18.58    0.67
  -1   4  -5   28.37    1.12
  -1   4  -5   26.99    1.04
  -1   4  -5   28.37    1.01
  -1   4  -5   26.54    2.18
   1  -4   5   31.09    2.00
   1  -4   5   27.40    1.04
  -2   4  -5   62.56    2.16
  -2   4  -5   64.81    3.12
  -2   4  -5   60.89    2.20
  -2   4  -5   62.29    2.11
   2  -4   5   56.72    2.92
   2  -4   5   58.30    2.23
  -3   4  -5    5.15    0.26
  -3   4  -5    4.97    0.41
  -3   4  -5    5.86    1.03
  -3   4  -5    5.48    0.28
  -4   4  -5   56.19    2.06
  -4   4  -5   59.16    2.27
  -4   4  -5   60.04    2.05
  -4   4  -5   49.32    3.36
  -4   4  -5   57.44    2.05
  -4   4  -5   57.97    2.06
  -5   4  -5    2.62    1.97
  -5   4  -5    1.65    1.49
  -5   4  -5    4.03    0.42
  -5   4  -5    3.50    0.34
  -5   4  -5    3.35    0.53
  -6   4  -5    0.44    0.53
  -6   4  -5   -0.20    0.52
  -6   4  -5   -0.10    0.29
   6   3  -5    8.50    0.78
   6   3  -5    8.36    0.57
  -6  -3   5    9.15    0.80
  -6  -3   5    8.13    0.80
  -6  -3   5    8.66    0.95
   5   3  -5   46.28    1.79
   5   3  -5   42.64    1.84
   5   3  -5   46.69    7.09
   5   3  -5   43.77    1.79
   5   3  -5   43.76    1.71
  -5  -3   5   39.79    1.79
  -5  -3   5   44.98    1.78
  -5  -3   5   43.46    1.89
  -5  -3   5   44.76    1.85
  -5  -3   5   36.07    6.17
   4   3  -5    6.30    3.70
   4   3  -5    9.38    0.58
   4   3  -5    9.58    0.66
   4   3  -5    8.82    0.60
  -4  -3   5    9.21    0.64
  -4  -3   5   10.77    3.53
  -4  -3   5    9.66    0.62
  -4  -3   5    9.49    0.59
  -4  -3   5   10.29    0.60
   3   3  -5   17.87    0.83
   3   3  -5   15.02    0.76
   3   3  -5   16.83    0.79
   3   3  -5   14.31    3.20
  -3  -3   5   16.21    0.79
  -3  -3   5   16.87    3.00
  -3  -3   5   16.33    0.76
  -3  -3   5   17.15    0.77
  -3  -3   5   17.87    0.81
   2   3  -5   29.63    3.36
   2   3  -5   31.10    1.19
   2   3  -5   28.88    1.16
   2   3  -5   28.61    1.18
  -2  -3   5   28.74    1.17
  -2  -3   5   30.21    1.16
  -2  -3   5   29.79    3.14
  -2  -3   5   29.05    1.14
  -2  -3   5   29.69    1.14
   1   3  -5  232.95    8.21
   1   3  -5  247.07   10.15
   1   3  -5  240.28    8.24
   1   3  -5  262.27    8.26
  -1  -3   5  230.33    8.18
  -1  -3   5  248.41   10.08
  -1  -3   5  239.94    8.23
  -1  -3   5  224.15    8.21
   0   3  -5  312.41   10.71
   0   3  -5  332.74   12.11
   0   3  -5  316.13   10.75
   0   3  -5  306.87   10.68
   0  -3   5  309.09   10.68
  -1   3  -5  253.69    8.89
  -1   3  -5  221.22    8.04
  -1   3  -5  253.76    8.11
  -1   3  -5  225.71    8.03
   1  -3   5  230.50    8.62
  -2   3  -5   27.23    1.03
  -2   3  -5   29.40    1.14
  -2   3  -5   29.67    1.02
  -2   3  -5   29.23    1.54
   2  -3   5   30.55    1.62
  -3   3  -5   16.70    0.63
  -3   3  -5   15.92    0.79
  -3   3  -5   16.28    0.68
  -3   3  -5   15.20    1.52
  -3   3  -5   18.14    1.29
  -3   3  -5   16.22    0.62
  -4   3  -5    9.29    0.45
  -4   3  -5    9.80    0.66
  -4   3  -5    8.37    1.40
  -4   3  -5    9.12    0.41
  -4   3  -5    9.16    1.67
  -4   3  -5    9.36    0.45
  -5   3  -5   41.78    3.58
  -5   3  -5   48.25    3.88
  -5   3  -5   42.56    1.88
  -5   3  -5   44.11    1.66
  -6   3  -5    8.64    0.69
  -6   3  -5    9.09    0.63
  -6   3  -5    8.00    0.93
  -6   3  -5    7.17    0.78
   7   2  -5    2.22    0.54
  -7  -2   5    1.07    0.65
  -7  -2   5    1.45    0.79
   6   2  -5   20.57    0.83
   6   2  -5   21.48    1.08
   6   2  -5   22.63    0.87
   6   2  -5   21.14    1.19
  -6  -2   5   22.31    1.33
  -6  -2   5   22.99    1.18
  -6  -2   5   23.14    1.17
   5   2  -5    3.58    0.46
   5   2  -5    3.88    0.45
   5   2  -5    4.13    0.45
   5   2  -5    3.87    0.36
  -5  -2   5    3.17    0.46
  -5  -2   5    1.90    3.81
  -5  -2   5    4.00    0.49
  -5  -2   5    4.42    0.59
  -5  -2   5    2.63    3.85
  -5  -2   5    3.71    0.44
   4   2  -5    5.76    0.45
   4   2  -5    6.02    0.45
   4   2  -5    8.41    3.24
   4   2  -5    5.53    0.50
  -4  -2   5    5.76    0.50
  -4  -2   5    6.35    0.54
  -4  -2   5    6.02    0.47
  -4  -2   5    7.59    3.11
  -4  -2   5    6.54    0.47
   3   2  -5   21.35    0.90
   3   2  -5   20.19    3.28
   3   2  -5   20.27    0.89
  -3  -2   5   20.71    0.91
  -3  -2   5   22.75    0.91
  -3  -2   5   23.33    3.28
  -3  -2   5   19.81    0.88
  -3  -2   5   20.63    0.93
   2   2  -5  215.39    7.01
   2   2  -5  214.61    9.28
   2   2  -5  199.41    6.98
   2   2  -5  198.06    6.99
  -2  -2   5  193.90    6.99
  -2  -2   5  210.69    9.11
  -2  -2   5  183.40    6.97
  -2  -2   5  204.69    6.97
  -2  -2   5  212.61    6.99
   1   2  -5  235.44    9.12
   1   2  -5  214.28    7.44
   1   2  -5  224.71    7.47
   1   2  -5  215.91    7.45
  -1  -2   5  215.53    7.43
  -1  -2   5  203.69    7.45
  -1  -2   5  211.27    7.44
  -1  -2   5  227.94    9.00
  -1  -2   5  218.53    7.41
   0   2  -5  201.93    7.58
   0   2  -5  252.25    8.62
   0   2  -5  219.07    7.55
   0   2  -5  221.98    7.54
   0  -2   5  235.10    8.50
   0  -2   5  211.38    7.53
   0  -2   5  220.12    7.58
  -1   2  -5  211.70    7.34
  -1   2  -5  231.68    7.66
  -1   2  -5  202.57    7.35
   1  -2   5  216.48    7.52
  -2   2  -5  185.21    6.60
  -2   2  -5  195.71    6.80
  -2   2  -5  193.27    6.72
  -3   2  -5   20.20    0.74
  -3   2  -5   20.50    1.69
  -3   2  -5   20.60    0.77
  -3   2  -5   19.82    0.75
  -3   2  -5   18.63    1.50
  -3   2  -5   20.07    0.92
  -4   2  -5    6.39    0.36
  -4   2  -5    5.69    0.25
  -4   2  -5    5.88    0.52
  -4   2  -5    6.39    1.42
  -4   2  -5    5.97    0.35
  -4   2  -5    3.07    1.41
  -5   2  -5    3.66    0.38
  -5   2  -5    7.70    2.30
  -5   2  -5    3.88    0.38
  -5   2  -5    2.86    1.95
  -5   2  -5    3.37    0.42
  -5   2  -5    3.68    0.54
  -6   2  -5   21.49    1.08
  -6   2  -5   23.33    1.06
  -6   2  -5   20.86    1.10
  -6   2  -5   23.00    1.38
  -7   2  -5    1.24    0.53
   7   1  -5    1.88    0.45
  -7  -1   5    1.34    0.75
  -7  -1   5    2.15    0.64
   6   1  -5    5.20    0.58
   6   1  -5    5.59    0.62
  -6  -1   5    4.12    0.55
  -6  -1   5    4.78    0.68
  -6  -1   5    5.10    0.68
   5   1  -5    5.62    0.54
   5   1  -5    5.36    0.45
   5   1  -5    4.05    0.32
   5   1  -5    4.90    0.27
  -5  -1   5    6.16    0.52
  -5  -1   5    5.46    3.53
  -5  -1   5    5.95    0.60
  -5  -1   5    6.69    3.77
  -5  -1   5    6.62    0.62
  -5  -1   5    6.00    0.54
   4   1  -5   14.99    0.75
   4   1  -5   15.09    0.71
   4   1  -5   13.45    0.60
   4   1  -5   14.65    0.72
  -4  -1   5   14.80    0.72
  -4  -1   5   12.84    3.02
  -4  -1   5   14.88    0.75
  -4  -1   5   15.54    0.75
  -4  -1   5   11.37    2.87
  -4  -1   5   14.21    0.81
   3   1  -5   14.61    0.68
   3   1  -5   14.89    0.74
   3   1  -5   14.76    0.67
   3   1  -5   14.99    0.69
  -3  -1   5   15.07    0.69
  -3  -1   5   11.71    2.39
  -3  -1   5   14.83    0.69
  -3  -1   5   16.19    0.69
  -3  -1   5   15.23    0.74
   2   1  -5    7.29    0.40
   2   1  -5    7.04    0.37
   2   1  -5    7.63    0.38
   2   1  -5    6.90    0.36
  -2  -1   5    6.50    0.36
  -2  -1   5    6.82    0.38
  -2  -1   5    7.10    0.37
  -2  -1   5    4.97    1.43
  -2  -1   5    7.09    0.37
   1   1  -5  239.90    8.98
   1   1  -5  221.36    7.58
   1   1  -5  219.73    7.58
   1   1  -5  228.85    7.61
  -1  -1   5  240.06    8.97
  -1  -1   5  216.43    7.58
  -1  -1   5  212.24    7.61
  -1  -1   5  207.33    7.56
   0   1  -5    0.21    0.05
   0   1  -5    0.18    0.06
   0  -1   5    0.22    0.07
   0  -1   5    0.20    0.04
   0  -1   5    0.17    0.04
   0  -1   5    0.60    0.39
   0  -1   5    0.57    0.40
  -1   1  -5  214.78    7.12
  -1   1  -5  202.61    7.09
  -2   1  -5    6.29    0.76
  -2   1  -5    6.61    0.26
  -2   1  -5    6.87    0.31
  -2   1  -5    6.79    0.26
  -2   1  -5    6.73    0.39
  -3   1  -5   13.14    1.69
  -3   1  -5   14.77    0.75
  -3   1  -5   15.78    0.61
  -3   1  -5   15.80    0.59
  -3   1  -5   12.81    1.64
  -4   1  -5   13.77    0.61
  -4   1  -5   13.70    2.16
  -4   1  -5   13.24    0.62
  -4   1  -5   13.08    0.81
  -4   1  -5   14.30    0.63
  -5   1  -5    5.41    0.44
  -5   1  -5    4.73    0.60
  -5   1  -5    6.48    2.50
  -5   1  -5    5.79    0.46
  -5   1  -5    5.32    2.35
  -5   1  -5    4.71    0.43
  -6   1  -5    5.21    0.57
  -6   1  -5    4.69    0.55
  -6   1  -5    4.84    0.55
  -6   1  -5    6.19    0.85
  -7   1  -5    2.53    0.56
  -7   1  -5    3.29    1.28
  -7   0   5    2.70    0.76
  -7   0   5    3.75    0.67
   6   0  -5    0.05    0.26
   6   0  -5   -0.13    0.38
  -6   0   5    0.48    0.43
  -6   0   5    0.34    0.36
  -6   0   5    0.24    0.40
   5   0  -5   21.55    0.91
   5   0  -5   21.19    0.99
  -5   0   5   21.09    1.10
  -5   0   5   20.61    1.02
  -5   0   5   18.83    4.23
  -5   0   5   19.68    0.99
  -5   0   5   21.53    4.23
  -5   0   5   20.87    1.01
   4   0  -5   34.48    1.17
   4   0  -5   32.58    1.17
   4   0  -5   34.34    1.31
   4   0  -5   29.92    1.56
   4   0  -5   34.15    1.48
  -4   0   5   33.37    1.35
  -4   0   5   35.03    1.36
  -4   0   5   29.15    4.00
  -4   0   5   27.00    3.76
  -4   0   5   33.69    1.37
  -4   0   5   36.10    1.46
   3   0  -5   82.05    2.93
   3   0  -5   91.65    3.04
   3   0  -5   85.87    3.01
   3   0  -5   86.44    3.04
   3   0  -5   82.33    3.10
  -3   0   5   80.65    3.08
  -3   0   5   86.68    3.05
  -3   0   5   83.98    3.03
  -3   0   5   86.86    3.03
  -3   0   5   77.52    5.10
  -3   0   5   88.65    5.20
   2   0  -5   77.44    2.73
   2   0  -5   77.69    2.74
   2   0  -5   77.70    2.78
   2   0  -5   76.49    2.75
   2   0  -5   76.34    2.69
  -2   0   5   72.77    4.15
  -2   0   5   82.32    2.78
  -2   0   5   77.96    2.75
  -2   0   5   69.82    4.24
  -2   0   5   76.90    2.73
  -2   0   5   83.60    2.74
   1   0  -5   41.30    1.39
   1   0  -5   40.01    2.35
   1   0  -5   36.44    1.38
   1   0  -5   39.29    1.37
   1   0  -5   36.12    1.36
   1   0  -5   38.47    1.37
  -1   0   5   35.34    1.36
  -1   0   5   36.90    1.36
  -1   0   5   39.83    1.37
  -1   0   5   41.48    2.37
  -1   0   5   38.01    1.39
  -1   0   5   39.68    1.37
   0   0  -5    0.21    0.33
   0   0   5    0.40    0.34
   0   0   5    0.12    0.07
  -1   0  -5   36.61    1.26
  -1   0  -5   35.52    1.26
  -1   0  -5   37.78    1.31
  -1   0  -5   40.07    1.71
  -1   0  -5   35.94    1.26
   1   0   5   38.24    1.32
   1   0   5   36.88    1.26
   1   0   5   34.16    1.25
   1   0   5   35.63    1.72
  -2   0  -5   77.15    2.68
  -2   0  -5   78.70    2.68
  -2   0  -5   79.53    3.54
  -2   0  -5   80.80    2.70
   2   0   5   74.90    2.63
   2   0   5   78.59    2.70
   2   0   5   74.38    2.63
   2   0   5   78.37    3.65
  -3   0  -5   88.00    2.94
  -3   0  -5   84.59    3.11
  -3   0  -5   82.03    2.93
  -3   0  -5   84.83    2.96
  -3   0  -5   85.24    2.97
  -3   0  -5   76.81    4.25
   3   0   5   84.75    2.88
   3   0   5   87.19    2.94
   3   0   5   86.25    4.52
  -4   0  -5   34.44    1.29
  -4   0  -5   28.08    3.15
  -4   0  -5   33.45    1.48
  -4   0  -5   33.94    1.26
  -4   0  -5   33.14    1.31
   4   0   5   34.22    1.16
   4   0   5   30.84    3.57
   4   0   5   34.52    1.21
  -5   0  -5   23.20    3.36
  -5   0  -5   21.68    0.94
  -5   0  -5   20.83    0.88
  -5   0  -5   20.06    0.96
  -5   0  -5   21.39    1.18
  -5   0  -5   18.25    3.20
  -6   0  -5    0.36    0.48
  -6   0  -5    1.20    0.38
  -6   0  -5    0.62    0.27
  -6   0  -5    0.25    0.35
  -7   0  -5    3.41    0.64
  -7   0  -5    3.02    0.93
  -7   1   5    1.87    0.60
   6  -1  -5    5.20    0.43
   6  -1  -5    4.78    0.58
  -6   1   5    5.60    0.63
  -6   1   5    5.35    0.74
  -6   1   5    5.72    0.77
   5  -1  -5    4.86    0.37
   5  -1  -5    4.43    0.54
   5  -1  -5    4.84    0.66
  -5   1   5    4.99    0.48
  -5   1   5    5.58    0.57
  -5   1   5    4.90    0.53
  -5   1   5    5.30    0.57
  -5   1   5    6.80    3.57
  -5   1   5    4.66    3.30
   4  -1  -5   15.49    0.69
   4  -1  -5   14.23    0.63
   4  -1  -5   14.05    0.84
  -4   1   5   15.30    0.75
  -4   1   5   13.72    0.68
  -4   1   5   13.39    0.77
  -4   1   5   13.91    2.96
  -4   1   5    6.98    2.63
  -4   1   5   14.09    0.71
   3  -1  -5   14.49    0.78
   3  -1  -5   15.66    0.65
   3  -1  -5   16.34    0.68
   3  -1  -5   13.31    0.59
  -3   1   5   15.38    0.67
  -3   1   5   16.53    0.69
  -3   1   5   12.74    2.47
  -3   1   5   16.51    0.75
  -3   1   5   16.11    0.73
  -3   1   5   15.90    2.35
   2  -1  -5    6.08    1.47
   2  -1  -5    6.83    0.40
   2  -1  -5    7.08    0.34
   2  -1  -5    6.64    0.30
   2  -1  -5    6.81    0.35
  -2   1   5    7.05    0.38
  -2   1   5    6.99    1.40
  -2   1   5    6.92    0.37
  -2   1   5    7.05    0.34
  -2   1   5    6.75    0.35
  -2   1   5    7.12    0.31
   1  -1  -5  218.84    7.73
   1  -1  -5  246.00    7.91
   1  -1  -5  217.61    7.72
   1  -1  -5  208.54    7.73
   1  -1  -5  215.16    8.77
  -1   1   5  257.82    7.90
  -1   1   5  239.45    8.81
  -1   1   5  223.18    7.75
  -1   1   5  222.00    7.72
  -1   1   5  224.27    7.73
   0  -1  -5    0.20    0.06
   0  -1  -5    0.29    0.05
   0  -1  -5    0.27    0.43
   0  -1  -5    0.16    0.06
   0   1   5    0.15    0.06
   0   1   5    0.23    0.08
   0   1   5    0.19    0.44
  -1  -1  -5  217.37    7.54
  -1  -1  -5  233.29    8.40
  -1  -1  -5  212.85    7.55
  -1  -1  -5  230.88    7.59
   1   1   5  220.45    7.54
   1   1   5  211.56    7.54
   1   1   5  221.13    8.43
   1   1   5  230.96    7.59
  -2  -1  -5    7.00    0.34
  -2  -1  -5    6.94    0.32
  -2  -1  -5    5.79    1.14
  -2  -1  -5    6.82    0.25
  -2  -1  -5    6.96    0.34
   2   1   5    6.56    0.40
   2   1   5    6.78    0.31
   2   1   5    6.91    0.31
   2   1   5    7.41    1.38
  -3  -1  -5   15.04    0.68
  -3  -1  -5   15.38    0.65
  -3  -1  -5   15.99    0.58
  -3  -1  -5   14.58    2.09
  -3  -1  -5   15.69    0.64
   3   1   5   15.75    0.62
   3   1   5   15.04    0.62
   3   1   5   16.27    2.38
   3   1   5   15.58    0.65
  -4  -1  -5   15.99    2.66
  -4  -1  -5   13.93    0.81
  -4  -1  -5   13.46    0.67
  -4  -1  -5   14.01    0.69
  -4  -1  -5   13.08    0.67
   4   1   5   15.27    2.93
   4   1   5   14.62    0.59
   4   1   5   14.18    0.59
   4   1   5   13.50    0.60
  -5  -1  -5    6.28    0.64
  -5  -1  -5    5.62    0.50
  -5  -1  -5    1.13    2.76
  -5  -1  -5    5.44    0.34
  -5  -1  -5    4.52    0.47
   5   1   5    5.37    0.31
   5   1   5    4.19    0.31
   5   1   5    4.96    3.48
   5   1   5    4.60    0.34
  -6  -1  -5    6.30    0.65
  -6  -1  -5    5.02    0.74
  -6  -1  -5    5.19    0.43
  -6  -1  -5    5.44    0.66
   6   1   5    4.91    0.30
   6   1   5    5.38    0.36
  -7  -1  -5    3.19    0.67
  -7   2   5    2.01    0.59
   6  -2  -5   21.62    0.94
   6  -2  -5   22.20    0.88
  -6   2   5   20.94    1.09
  -6   2   5   20.75    1.23
  -6   2   5   20.46    1.24
   5  -2  -5    3.47    0.57
   5  -2  -5    3.97    0.32
   5  -2  -5    4.88    0.43
  -5   2   5    4.12    0.54
  -5   2   5    4.31    3.06
  -5   2   5    3.76    0.45
  -5   2   5    3.64    0.42
  -5   2   5    7.41    3.38
  -5   2   5    3.71    0.50
   4  -2  -5    5.48    0.56
   4  -2  -5    6.30    0.36
   4  -2  -5    6.19    0.43
  -4   2   5    4.17    2.23
  -4   2   5    6.73    0.54
  -4   2   5    6.94    0.46
  -4   2   5    5.94    0.40
  -4   2   5    2.57    2.32
  -4   2   5    7.33    0.52
   3  -2  -5   20.53    0.85
   3  -2  -5   18.73    0.94
   3  -2  -5   20.47    0.81
  -3   2   5   20.08    0.96
  -3   2   5   21.31    0.86
  -3   2   5   20.34    0.84
  -3   2   5   16.82    2.46
  -3   2   5   20.93    0.93
  -3   2   5   23.20    0.78
   2  -2  -5  193.64    6.66
   2  -2  -5  192.44    6.76
   2  -2  -5  192.69    6.68
   2  -2  -5  201.78    8.41
   2  -2  -5  191.32    6.67
  -2   2   5  198.62    6.67
  -2   2   5  195.98    8.15
  -2   2   5  193.07    6.73
  -2   2   5  199.76    6.69
  -2   2   5  192.90    6.67
   1  -2  -5  228.26    7.32
   1  -2  -5  199.41    7.29
   1  -2  -5  206.66    7.27
   1  -2  -5  221.53    7.28
   1  -2  -5  226.14    8.52
  -1   2   5  201.05    7.26
  -1   2   5  222.52    7.30
  -1   2   5  198.46    7.34
  -1   2   5  220.69    7.28
  -1   2   5  211.88    8.41
   0  -2  -5  216.79    7.63
   0  -2  -5  220.64    7.66
   0  -2  -5  215.95    7.66
   0  -2  -5  250.64    8.77
   0  -2  -5  233.21    7.70
   0   2   5  221.14    8.67
   0   2   5  225.11    7.66
   0   2   5  232.27    7.64
   0   2   5  211.84    7.69
  -1  -2  -5  224.48    7.62
  -1  -2  -5  241.09    8.84
  -1  -2  -5  219.34    7.59
  -1  -2  -5  203.08    7.56
   1   2   5  222.79    7.58
   1   2   5  226.47    7.62
   1   2   5  208.96    7.56
   1   2   5  238.24    8.96
  -2  -2  -5  192.86    8.30
  -2  -2  -5  203.14    6.81
  -2  -2  -5  199.18    6.77
  -2  -2  -5  188.10    6.80
   2   2   5  193.90    6.77
   2   2   5  214.69    8.73
   2   2   5  189.64    6.77
   2   2   5  203.72    6.81
  -3  -2  -5   20.31    0.88
  -3  -2  -5   20.88    0.75
  -3  -2  -5   20.04    0.83
  -3  -2  -5   19.19    2.61
   3   2   5   18.18    2.90
   3   2   5   21.30    0.84
   3   2   5   20.15    0.85
   3   2   5   20.77    0.75
   3   2   5   19.89    0.82
  -4  -2  -5    6.03    0.48
  -4  -2  -5    5.51    0.42
  -4  -2  -5    6.69    0.57
  -4  -2  -5    5.75    2.42
  -4  -2  -5    6.41    0.31
   4   2   5    7.70    3.03
   4   2   5    5.84    0.38
   4   2   5    6.07    0.41
   4   2   5    6.68    0.43
  -5  -2  -5    4.31    3.05
  -5  -2  -5    3.97    0.46
  -5  -2  -5    2.98    0.27
  -5  -2  -5    3.71    0.46
  -5  -2  -5    3.10    0.53
   5   2   5    9.29    3.92
   5   2   5    3.73    0.38
   5   2   5    4.12    0.36
   5   2   5    3.68    0.40
  -6  -2  -5   22.01    1.16
  -6  -2  -5   22.68    0.88
  -6  -2  -5   20.83    1.36
   6   2   5   21.76    0.93
   6   2   5   20.64    0.95
  -7  -2  -5    1.86    0.70
  -6   3   5    8.88    0.70
  -6   3   5    8.07    0.85
   5  -3  -5   44.04    1.63
   5  -3  -5   41.29    1.95
   5  -3  -5   43.32    1.59
  -5   3   5   42.23    1.76
  -5   3   5   46.20    1.72
  -5   3   5   40.25    5.01
  -5   3   5   42.39    1.84
  -5   3   5   38.67    5.87
  -5   3   5   45.55    1.89
   4  -3  -5    9.69    0.52
   4  -3  -5    9.53    0.47
   4  -3  -5   10.08    0.74
  -4   3   5    9.04    0.38
  -4   3   5    9.50    0.57
  -4   3   5   10.59    0.54
  -4   3   5    9.85    0.65
  -4   3   5    9.95    0.64
  -4   3   5   10.89    2.63
   3  -3  -5   16.48    0.67
   3  -3  -5   16.22    0.69
   3  -3  -5   15.71    0.82
   3  -3  -5   16.30    2.61
  -3   3   5   17.34    2.58
  -3   3   5   15.69    0.77
  -3   3   5   15.89    0.72
  -3   3   5   17.08    0.70
   2  -3  -5   31.64    1.14
   2  -3  -5   29.95    1.22
   2  -3  -5   29.96    1.13
   2  -3  -5   29.55    1.14
  -2   3   5   29.92    1.12
  -2   3   5   28.81    2.50
  -2   3   5   30.38    1.15
  -2   3   5   30.86    1.15
  -2   3   5   29.62    1.19
   1  -3  -5  241.32    7.96
   1  -3  -5  217.51    7.90
   1  -3  -5  223.30    7.92
   1  -3  -5  223.90    7.95
  -1   3   5  230.20    7.93
  -1   3   5  240.46    7.96
  -1   3   5  252.72    9.39
  -1   3   5  236.99    7.93
  -1   3   5  224.73    7.89
   0  -3  -5  322.44   12.12
   0  -3  -5  311.16   10.78
   0  -3  -5  320.10   10.76
   0  -3  -5  309.31   10.81
   0  -3  -5  310.10   10.74
   0   3   5  322.47   12.22
   0   3   5  316.40   10.77
   0   3   5  310.04   10.74
   0   3   5  327.78   10.82
  -1  -3  -5  232.89    8.01
  -1  -3  -5  255.07    9.62
  -1  -3  -5  228.97    7.98
  -1  -3  -5  220.51    7.93
   1   3   5  222.31    8.00
   1   3   5  235.24    7.95
   1   3   5  247.29    9.82
   1   3   5  226.45    7.96
  -2  -3  -5   31.05    1.21
  -2  -3  -5   25.09    2.71
  -2  -3  -5   30.35    1.20
  -2  -3  -5   30.84    1.15
   2   3   5   30.68    1.16
   2   3   5   30.40    1.21
   2   3   5   29.72    1.18
   2   3   5   31.33    1.11
   2   3   5   27.81    3.18
  -3  -3  -5   17.93    2.84
  -3  -3  -5   16.27    0.78
  -3  -3  -5   16.97    0.73
   3   3   5   16.73    0.66
   3   3   5   16.88    0.78
   3   3   5   16.66    0.74
   3   3   5   16.45    0.75
  -4  -3  -5    8.46    0.53
  -4  -3  -5    9.71    0.65
  -4  -3  -5   10.72    3.01
  -4  -3  -5    9.32    0.43
   4   3   5    9.97    0.59
   4   3   5    9.63    0.57
   4   3   5    9.82    0.44
   4   3   5    9.69    0.55
   4   3   5   13.47    3.66
  -5  -3  -5   43.37    1.97
  -5  -3  -5   43.70    1.59
  -5  -3  -5   44.18    1.75
  -5  -3  -5   42.89    6.10
  -5  -3  -5   43.60    1.84
   5   3   5   43.23    1.72
   5   3   5   46.50    1.86
   5   3   5   37.43    6.11
   5   3   5   44.75    1.73
  -6  -3  -5    7.87    0.79
  -6  -3  -5    8.79    0.95
   6   3   5    7.24    0.61
   6   3   5    8.62    0.67
  -6   4   5    0.35    0.47
  -6   4   5    0.27    0.37
   5  -4  -5    2.92    0.25
  -5   4   5    3.79    0.55
  -5   4   5    3.04    0.46
  -5   4   5    3.06    0.54
  -5   4   5    2.84    0.53
   4  -4  -5   56.89    2.09
   4  -4  -5   56.30    2.07
   4  -4  -5   60.17    5.42
   4  -4  -5   56.51    2.37
  -4   4   5   54.83    2.17
  -4   4   5   61.41    2.11
  -4   4   5   59.61    2.14
  -4   4   5   59.38    2.31
   3  -4  -5    5.12    0.48
   3  -4  -5    5.25    0.36
   3  -4  -5    5.69    0.33
   3  -4  -5    4.08    2.19
  -3   4   5    5.46    0.37
  -3   4   5    5.05    0.42
  -3   4   5    5.02    0.38
  -3   4   5    5.65    0.35
  -3   4   5    6.42    1.94
   2  -4  -5   62.62    2.22
   2  -4  -5   64.00    2.21
   2  -4  -5   61.20    2.33
  -2   4   5   60.17    2.19
  -2   4   5   62.51    2.24
  -2   4   5   63.04    2.27
  -2   4   5   62.01    3.86
  -2   4   5   59.00    2.25
   1  -4  -5   27.37    1.10
   1  -4  -5   28.51    1.08
   1  -4  -5   26.54    1.03
  -1   4   5   27.22    1.12
  -1   4   5   29.77    1.04
  -1   4   5   27.42    1.07
  -1   4   5   28.19    1.08
  -1   4   5   25.09    2.46
   0  -4  -5   19.34    0.80
   0  -4  -5   20.89    2.25
   0  -4  -5   18.46    0.76
   0  -4  -5   19.23    0.74
   0   4   5   18.26    2.29
   0   4   5   18.77    0.79
   0   4   5   19.03    0.75
   0   4   5   19.12    0.84
  -1  -4  -5   25.97    2.64
  -1  -4  -5   26.32    1.00
  -1  -4  -5   25.73    1.07
   1   4   5   27.83    3.09
   1   4   5   25.32    1.05
   1   4   5   27.62    1.03
   1   4   5   26.84    1.11
  -2  -4  -5   57.73    4.24
  -2  -4  -5   64.07    2.29
  -2  -4  -5   65.41    2.21
   2   4   5   58.51    2.18
   2   4   5   56.59    4.83
   2   4   5   59.66    2.24
   2   4   5   60.42    2.22
  -3  -4  -5    3.46    2.65
  -3  -4  -5    4.06    0.43
  -3  -4  -5    5.17    0.36
   3   4   5    5.12    0.41
   3   4   5    5.73    0.32
   3   4   5    4.67    0.46
   3   4   5    5.63    0.45
   3   4   5    0.90    2.49
  -4  -4  -5   64.64    5.88
  -4  -4  -5   51.60    2.61
  -4  -4  -5   55.22    2.14
   4   4   5   57.32    2.17
   4   4   5   56.61    2.05
   4   4   5   57.23    2.21
   4   4   5   57.78    2.17
   4   4   5   67.22    6.86
  -5  -4  -5    2.66    0.56
  -5  -4  -5    4.57    4.14
  -5  -4  -5    2.85    0.54
   5   4   5    3.80    0.48
   5   4   5    3.21    0.48
   5   4   5    2.87    0.49
   5   4   5    4.08    5.53
  -6  -4  -5    1.66    0.68
  -6  -4  -5    0.28    0.49
   6   4   5    0.34    0.45
   6   4   5    0.06    0.40
  -6   5   5    8.43    0.96
  -6   5   5    8.18    0.70
  -5   5   5    3.01    0.36
  -5   5   5    2.79    0.47
  -5   5   5    3.58    0.54
   4  -5  -5    3.13    0.28
   4  -5  -5    3.54    0.55
   4  -5  -5    5.01    3.12
   4  -5  -5    3.74    0.32
  -4   5   5    3.40    0.48
  -4   5   5    1.78    2.36
  -4   5   5    3.40    0.35
  -4   5   5    3.22    0.40
  -4   5   5    3.76    0.37
   3  -5  -5    6.86    0.41
   3  -5  -5    6.44    2.44
   3  -5  -5    6.63    0.39
   3  -5  -5    5.78    0.56
  -3   5   5    6.28    0.46
  -3   5   5    5.97    2.14
  -3   5   5    6.66    0.47
  -3   5   5    7.33    0.41
  -3   5   5    7.42    0.50
   2  -5  -5    3.95    0.31
   2  -5  -5    4.32    0.31
   2  -5  -5    1.40    3.12
   2  -5  -5    3.45    0.39
  -2   5   5    3.95    0.32
  -2   5   5    3.93    0.28
  -2   5   5    4.17    0.34
  -2   5   5    3.36    0.38
   1  -5  -5   47.66    3.57
   1  -5  -5   43.00    1.60
   1  -5  -5   44.87    1.68
   1  -5  -5   44.75    1.66
  -1   5   5   42.08    1.74
  -1   5   5   41.28    3.54
  -1   5   5   45.84    1.65
  -1   5   5   44.25    1.66
  -1   5   5   43.44    1.61
   0  -5  -5   12.06    0.58
   0  -5  -5   12.24    2.05
   0  -5  -5   11.83    0.54
   0  -5  -5   10.92    0.55
   0   5   5   10.59    0.64
   0   5   5   11.86    0.58
   0   5   5   12.11    2.35
   0   5   5   11.26    0.52
  -1  -5  -5   41.73    1.61
  -1  -5  -5   43.65    1.59
  -1  -5  -5   45.55    1.69
  -1  -5  -5   37.37    3.65
   1   5   5   44.44    1.63
   1   5   5   45.85    4.31
   1   5   5   45.01    1.67
   1   5   5   43.58    1.73
   1   5   5   41.13    1.62
  -2  -5  -5    3.98    0.43
  -2  -5  -5    4.79    2.24
  -2  -5  -5    3.71    0.33
   2   5   5    2.57    2.54
   2   5   5    3.74    0.38
   2   5   5    3.74    0.30
   2   5   5    3.79    0.34
   2   5   5    3.96    0.44
  -3  -5  -5    9.23    2.85
  -3  -5  -5    5.83    0.43
  -3  -5  -5    6.59    0.58
   3   5   5    7.26    0.56
   3   5   5    6.06    0.54
   3   5   5    6.21    0.47
   3   5   5    3.78    3.31
   3   5   5    7.09    0.42
  -4  -5  -5    3.63    0.47
  -4  -5  -5    3.73    0.47
  -4  -5  -5    7.67    3.30
   4   5   5    3.15    0.46
   4   5   5    5.29    4.66
   4   5   5    4.26    0.49
   4   5   5    3.15    0.33
   4   5   5    3.35    0.49
  -5  -5  -5    7.14    4.79
  -5  -5  -5    2.75    0.66
  -5  -5  -5    3.63    0.58
   5   5   5    3.30    0.52
   5   5   5    4.34    0.60
   5   5   5    3.08    0.49
   5   5   5    3.57    0.38
  -6  -5  -5    9.75    1.08
  -6  -5  -5    8.97    1.22
   6   5   5    7.60    0.87
  -5   6   5    0.13    0.42
  -5   6   5    0.52    0.30
   4  -6  -5   16.45    0.76
   4  -6  -5   16.65    0.65
   4  -6  -5   14.79    1.11
  -4   6   5   17.66    0.92
  -4   6   5   16.09    0.78
  -4   6   5   16.62    0.90
   3  -6  -5   28.00    3.94
   3  -6  -5   25.96    1.05
   3  -6  -5   25.38    1.04
   3  -6  -5   25.30    1.28
  -3   6   5   27.84    4.00
  -3   6   5   26.91    1.18
  -3   6   5   26.33    1.07
  -3   6   5   26.98    1.16
  -3   6   5   26.21    1.14
   2  -6  -5   36.58    1.36
   2  -6  -5   34.64    1.47
   2  -6  -5   34.88    1.33
  -2   6   5   35.47    1.39
  -2   6   5   34.17    1.45
  -2   6   5   34.83    1.38
  -2   6   5   31.58    4.14
  -2   6   5   32.83    1.32
   1  -6  -5   56.76    2.13
   1  -6  -5   62.70    4.72
   1  -6  -5   57.04    2.12
   1  -6  -5   56.70    2.05
  -1   6   5   56.58    2.12
  -1   6   5   57.19    2.07
  -1   6   5   55.57    4.80
  -1   6   5   54.36    2.09
  -1   6   5   56.55    2.20
   0  -6  -5    1.94    1.81
   0  -6  -5   -0.01    0.19
   0  -6  -5    0.18    0.15
   0   6   5    0.36    0.20
   0   6   5    0.41    0.17
   0   6   5    0.76    2.13
  -1  -6  -5   56.53    2.15
  -1  -6  -5   53.86    2.02
  -1  -6  -5   45.50    7.38
  -1  -6  -5   55.13    2.05
   1   6   5   56.17    2.12
   1   6   5   58.55    2.22
   1   6   5   51.32    5.23
   1   6   5   55.46    2.08
   1   6   5   55.55    2.07
  -2  -6  -5   35.74    1.50
  -2  -6  -5   25.37    4.04
  -2  -6  -5   33.31    1.35
   2   6   5   34.60    1.38
   2   6   5   35.53    1.54
   2   6   5   34.12    1.44
   2   6   5   36.61    1.43
   2   6   5   36.73    5.17
  -3  -6  -5   26.66    1.24
  -3  -6  -5   25.01    1.10
  -3  -6  -5   30.56    4.86
   3   6   5   21.52    5.32
   3   6   5   24.89    1.26
   3   6   5   24.27    1.08
   3   6   5   26.07    1.18
   3   6   5   28.62    1.24
  -4  -6  -5   17.60    4.88
  -4  -6  -5   16.90    1.00
   4   6   5   14.96    1.05
   4   6   5   15.05    0.88
   4   6   5   13.24    6.14
   4   6   5   15.14    0.91
   4   6   5   16.39    0.79
  -5  -6  -5   -0.48    0.52
  -5  -6  -5    0.23    0.50
   5   6   5    0.45    0.46
   5   6   5    0.77    0.60
   5   6   5    0.37    0.30
  -5   7   5    3.21    0.61
  -5   7   5    1.54    0.41
  -4   7   5   13.00    0.93
  -4   7   5   13.05    0.85
  -4   7   5   12.17    0.68
  -4   7   5   10.87    0.81
   3  -7  -5    5.11    0.41
   3  -7  -5    5.15    0.74
   3  -7  -5    5.56    0.43
  -3   7   5    4.22    0.40
  -3   7   5    4.55    0.54
  -3   7   5    6.05    0.53
  -3   7   5    7.38    0.67
   2  -7  -5   13.16    0.67
   2  -7  -5    7.72    3.27
   2  -7  -5   12.14    0.81
   2  -7  -5   11.13    0.75
  -2   7   5   14.45    0.70
  -2   7   5   11.77    0.83
  -2   7   5   13.62    0.69
  -2   7   5   12.80    0.73
  -2   7   5   13.85    3.38
   1  -7  -5   23.80    1.08
   1  -7  -5   24.72    1.11
   1  -7  -5   31.25    4.32
   1  -7  -5   25.16    1.01
  -1   7   5   22.98    1.21
  -1   7   5   20.66    4.18
  -1   7   5   25.79    1.04
  -1   7   5   24.96    1.11
   0  -7  -5   45.81    1.78
   0  -7  -5   46.07    1.71
   0  -7  -5   41.65    4.57
   0  -7  -5   45.42    1.66
   0   7   5   43.96    1.88
   0   7   5   42.42    1.75
   0   7   5   40.75    1.76
   0   7   5   43.66    5.55
  -1  -7  -5   24.48    1.04
  -1  -7  -5   21.38    3.84
  -1  -7  -5   25.03    1.15
  -1  -7  -5   24.03    1.01
   1   7   5   24.60    1.23
   1   7   5   25.66    4.85
   1   7   5   24.56    1.08
   1   7   5   25.49    1.11
   1   7   5   24.18    1.14
  -2  -7  -5   11.90    0.66
  -2  -7  -5   18.72    3.92
  -2  -7  -5   11.56    0.78
  -2  -7  -5   12.20    0.66
   2   7   5   11.89    0.69
   2   7   5   12.09    0.69
   2   7   5   12.12    0.87
   2   7   5   15.58    4.78
   2   7   5   11.67    0.76
  -3  -7  -5   10.05    4.51
  -3  -7  -5    6.24    0.74
   3   7   5    5.75    0.57
   3   7   5    6.15    0.74
   3   7   5    5.24    0.51
   3   7   5   -1.26    5.16
  -4  -7  -5   21.52    6.09
  -4  -7  -5   11.08    1.02
   4   7   5   12.74    0.77
   4   7   5   12.79    0.88
   4   7   5    5.74    7.36
  -5  -7  -5    2.77    0.81
  -5  -7  -5    1.52    0.72
   5   7   5    1.89    0.58
  -4   8   5    6.05    0.71
  -4   8   5    5.13    0.56
   3  -8  -5    6.92    0.46
   3  -8  -5    8.52    0.95
  -3   8   5    6.92    0.54
  -3   8   5    7.74    0.62
  -3   8   5    6.29    0.84
   2  -8  -5    4.72    0.69
   2  -8  -5    4.97    0.49
   2  -8  -5    4.85    0.48
  -2   8   5    4.96    0.65
  -2   8   5    4.60    0.57
  -2   8   5    5.33    0.62
   1  -8  -5   15.85    0.84
   1  -8  -5   14.73    0.73
   1  -8  -5   15.48    0.89
  -1   8   5   15.46    0.76
  -1   8   5   14.23    1.03
  -1   8   5   14.91    0.88
   0  -8  -5    1.08    0.30
   0  -8  -5    4.86    4.00
   0  -8  -5    1.58    0.27
   0   8   5   -2.38    4.15
   0   8   5    2.15    0.51
   0   8   5    1.72    0.39
   0   8   5    1.78    0.38
   0   8   5    1.41    0.30
  -1  -8  -5   15.19    0.79
  -1  -8  -5   15.77    0.90
  -1  -8  -5   18.57    4.44
  -1  -8  -5   15.34    0.75
   1   8   5   15.90    0.85
   1   8   5   14.52    0.85
   1   8   5    7.14    4.97
  -2  -8  -5    3.94    0.50
  -2  -8  -5    5.47    0.67
   2   8   5    3.94    6.93
   2   8   5    5.29    0.55
   2   8   5    5.88    0.59
  -3  -8  -5    6.33    0.64
  -3  -8  -5    6.53    0.79
   3   8   5    8.04    0.68
   3   8   5    7.98    0.72
  -4  -8  -5    6.19    0.82
   4   8   5    5.08    0.62
  -3   9   5    0.41    0.39
   2  -9  -5    1.53    0.38
   2  -9  -5   -0.04    0.53
  -2   9   5    1.23    0.37
   1  -9  -5    0.52    0.44
   1  -9  -5    1.58    0.37
   1  -9  -5    1.08    0.66
  -1   9   5    1.44    0.36
  -1   9   5    1.02    0.47
   0  -9  -5    8.63    0.63
   0  -9  -5    8.09    0.76
   0  -9  -5   10.19    0.75
   0   9   5    9.04    0.75
   0   9   5    8.56    0.70
  -1  -9  -5    1.15    0.53
  -1  -9  -5    0.80    0.38
   1   9   5    1.17    0.44
   1   9   5    1.00    0.41
  -2  -9  -5    2.74    0.66
  -2  -9  -5    0.82    0.36
   2   9   5    1.48    0.47
   2   9   5    1.53    0.48
  -3  -9  -5   -0.06    0.68
   3   9   5   -0.94    0.56
   3   9   5   -1.03    0.46
   1 -10  -5    3.57    0.60
  -1  10   5    5.93    0.65
  -1  10   5    4.73    0.78
   0 -10  -5    0.83    0.55
   0  10   5    1.04    0.58
   0  10   5    1.32    0.49
  -1 -10  -5    3.76    0.71
   1  10   5    4.67    0.71
   1  10   5    4.42    0.69
   1  10  -6    6.26    0.73
   1  10  -6    5.28    0.84
   0  10  -6    1.15    0.50
   0  10  -6    0.95    0.66
  -1  10  -6    5.31    0.61
   3   9  -6    0.11    0.54
   3   9  -6    0.37    0.61
  -3  -9   6    1.51    0.59
   2   9  -6    4.46    0.60
   2   9  -6    4.78    0.71
  -2  -9   6    5.87    0.67
  -2  -9   6    4.97    0.62
   1   9  -6    4.30    0.63
   1   9  -6    3.65    0.52
  -1  -9   6    4.68    0.46
  -1  -9   6    4.86    0.59
   0   9  -6    6.82    0.75
   0   9  -6    7.50    0.67
   0  -9   6    7.14    0.61
   0  -9   6    8.15    0.51
  -1   9  -6    4.72    0.55
  -1   9  -6    4.67    0.66
  -1   9  -6    4.65    0.70
  -2   9  -6    5.34    0.60
  -2   9  -6    5.11    0.67
  -2   9  -6    4.77    0.51
  -3   9  -6    0.52    0.34
  -3   9  -6    1.62    0.57
   4   8  -6    1.74    0.61
   4   8  -6    0.68    0.56
  -4  -8   6    1.40    0.62
   3   8  -6   26.49    1.35
   3   8  -6   23.12    1.33
  -3  -8   6   27.50    1.37
  -3  -8   6   25.71    1.13
   2   8  -6    4.12    0.57
   2   8  -6    4.49    0.56
  -2  -8   6    3.86    0.41
  -2  -8   6    5.12    0.64
  -2  -8   6    3.72    0.32
   1   8  -6   -0.77    0.39
   1   8  -6   -0.47    0.30
   1   8  -6   -0.24    0.30
  -1  -8   6    0.12    0.21
  -1  -8   6   -0.35    0.25
   0   8  -6    7.50    0.55
   0   8  -6    7.56    0.70
   0   8  -6    8.31    0.67
   0  -8   6    7.64    0.48
   0  -8   6    7.83    0.42
  -1   8  -6   -0.22    0.21
  -1   8  -6    0.02    0.31
  -1   8  -6    0.02    0.34
  -2   8  -6    4.93    0.40
  -2   8  -6    4.50    0.57
  -2   8  -6    3.19    0.56
  -2   8  -6    4.02    0.45
  -3   8  -6   24.49    1.12
  -3   8  -6   21.38    1.35
  -3   8  -6   24.50    1.02
  -3   8  -6   25.24    1.04
  -3   8  -6   26.06    1.34
  -4   8  -6    1.35    0.37
  -4   8  -6    1.59    0.54
  -4   8  -6    1.56    0.29
   5   7  -6    8.32    0.97
   5   7  -6    6.89    0.90
  -5  -7   6    7.21    0.90
  -5  -7   6    6.27    0.92
   4   7  -6    1.72    0.51
   4   7  -6    1.68    0.52
  -4  -7   6    1.48    0.54
  -4  -7   6    0.92    0.38
   3   7  -6    0.55    0.35
   3   7  -6    1.18    0.38
   3   7  -6   -0.60    5.78
   3   7  -6    0.43    0.54
  -3  -7   6   -0.12    0.31
  -3  -7   6    0.55    0.36
  -3  -7   6    0.48    0.25
   2   7  -6    6.20    0.61
   2   7  -6    3.00    4.31
   2   7  -6    6.68    0.64
   2   7  -6    6.31    0.54
  -2  -7   6    6.87    0.55
  -2  -7   6    7.03    3.75
  -2  -7   6    6.19    0.39
  -2  -7   6    7.04    0.35
  -2  -7   6    6.81    0.48
   1   7  -6   14.12    0.81
   1   7  -6   12.59    4.02
   1   7  -6   14.80    0.81
   1   7  -6   14.81    0.75
  -1  -7   6   15.24    3.37
  -1  -7   6   14.55    0.54
  -1  -7   6   14.19    0.64
  -1  -7   6   14.12    0.73
   0   7  -6    4.28    0.50
   0   7  -6    5.66    3.06
   0   7  -6    4.71    0.41
   0   7  -6    5.58    0.52
   0  -7   6    4.90    2.44
   0  -7   6    4.95    0.36
   0  -7   6    5.41    0.31
  -1   7  -6   16.46    3.15
  -1   7  -6   13.21    0.79
  -1   7  -6   14.02    0.72
  -1   7  -6   13.45    0.64
   1  -7   6    8.95    2.39
  -2   7  -6    6.31    0.39
  -2   7  -6    6.07    0.60
  -2   7  -6    0.68    2.44
  -2   7  -6    7.02    0.38
  -2   7  -6    6.71    0.50
   2  -7   6    6.95    0.50
   2  -7   6    4.62    2.24
  -3   7  -6    0.79    0.23
  -3   7  -6    0.91    0.38
  -3   7  -6    0.17    0.34
  -3   7  -6    0.65    0.17
  -3   7  -6   -2.77    2.30
  -3   7  -6    0.44    0.26
   3  -7   6    3.44    2.32
  -4   7  -6    0.99    0.41
  -4   7  -6    1.55    0.22
  -4   7  -6   -1.66    2.14
  -4   7  -6    1.77    0.45
  -4   7  -6    1.32    0.32
  -5   7  -6    7.18    0.79
   5   6  -6    1.39    0.47
   5   6  -6    1.27    0.56
   5   6  -6    0.86    0.60
  -5  -6   6    1.58    0.58
  -5  -6   6    1.21    0.49
  -5  -6   6    2.13    0.84
   4   6  -6    9.91    0.76
   4   6  -6   20.47    6.82
   4   6  -6   10.76    0.91
   4   6  -6   10.69    0.77
  -4  -6   6   11.24    0.81
  -4  -6   6   11.19    0.75
  -4  -6   6   10.90    0.77
  -4  -6   6    8.01    4.54
   3   6  -6   15.32    5.11
   3   6  -6   15.38    0.86
   3   6  -6   14.99    0.85
   3   6  -6   13.98    0.87
  -3  -6   6   15.56    0.85
  -3  -6   6    5.79    3.79
  -3  -6   6   14.92    0.74
  -3  -6   6   14.35    0.81
  -3  -6   6   12.96    0.73
   2   6  -6    0.95    0.29
   2   6  -6    1.04    0.36
   2   6  -6    1.74    3.04
   2   6  -6    0.99    0.29
  -2  -6   6    0.84    0.26
  -2  -6   6    0.38    0.21
  -2  -6   6    0.95    0.17
  -2  -6   6    6.08    2.99
   1   6  -6    1.22    0.24
   1   6  -6    0.88    0.28
   1   6  -6    4.10    2.76
   1   6  -6    2.22    0.33
  -1  -6   6    1.45    0.25
  -1  -6   6    1.76    0.22
  -1  -6   6    2.43    2.27
  -1  -6   6    1.77    0.13
   0   6  -6    0.26    0.20
   0   6  -6   -3.12    2.00
   0   6  -6   -0.08    0.19
   0   6  -6    0.38    0.16
   0  -6   6    0.15    0.06
   0  -6   6    0.33    0.10
   0  -6   6    3.25    1.78
   0  -6   6   -0.12    0.12
  -1   6  -6    1.80    0.21
  -1   6  -6    1.55    0.29
  -1   6  -6    3.18    1.93
  -1   6  -6    1.69    0.25
   1  -6   6    1.63    0.21
   1  -6   6    2.52    1.51
  -2   6  -6    1.21    0.29
  -2   6  -6    0.74    0.20
  -2   6  -6    0.89    1.77
  -2   6  -6    1.10    0.16
   2  -6   6    0.88    0.23
   2  -6   6    0.49    1.48
  -3   6  -6   14.50    0.60
  -3   6  -6   13.88    0.65
  -3   6  -6   15.22    0.72
  -3   6  -6   14.85    2.11
   3  -6   6   13.02    2.08
  -4   6  -6   11.24    0.51
  -4   6  -6   11.83    0.71
  -4   6  -6   10.95    0.71
  -4   6  -6    9.50    1.77
  -4   6  -6    9.03    1.77
  -5   6  -6    1.11    0.25
  -5   6  -6    1.53    0.44
  -5   6  -6    1.25    0.46
   6   5  -6    7.04    0.84
   6   5  -6    7.96    0.90
  -6  -5   6    6.90    0.88
  -6  -5   6    8.64    1.07
   5   5  -6    3.35    0.57
   5   5  -6    3.99    0.57
   5   5  -6   -2.22    6.83
   5   5  -6    3.60    0.50
  -5  -5   6    4.34    0.64
  -5  -5   6    3.93    0.53
  -5  -5   6    3.86    5.86
  -5  -5   6    3.08    0.52
   4   5  -6    0.56    0.33
   4   5  -6    0.27    0.44
   4   5  -6   -0.06    0.27
   4   5  -6    0.49    0.37
   4   5  -6    0.34    5.03
  -4  -5   6    2.25    4.54
  -4  -5   6    0.09    0.29
  -4  -5   6    0.57    0.32
  -4  -5   6    0.24    0.27
  -4  -5   6    0.51    0.29
   3   5  -6   13.22    0.77
   3   5  -6   13.66    0.76
   3   5  -6   13.47    0.73
   3   5  -6    7.09    3.86
  -3  -5   6   19.29    3.92
  -3  -5   6   13.71    0.75
  -3  -5   6   13.02    0.72
  -3  -5   6   12.60    0.68
  -3  -5   6   12.88    0.68
   2   5  -6   18.71    0.85
   2   5  -6   17.73    0.88
   2   5  -6   20.06    3.66
   2   5  -6   17.92    0.87
  -2  -5   6   18.51    0.85
  -2  -5   6   16.34    0.74
  -2  -5   6   18.96    0.78
  -2  -5   6   12.28    3.10
  -2  -5   6   17.66    0.84
   1   5  -6   13.92    0.71
   1   5  -6   12.96    2.83
   1   5  -6   13.36    0.65
   1   5  -6   15.25    0.72
  -1  -5   6   13.92    0.52
  -1  -5   6   10.87    2.47
  -1  -5   6   14.93    0.67
  -1  -5   6   14.62    0.61
   0   5  -6    4.20    1.72
   0   5  -6    3.23    0.31
   0   5  -6    3.39    0.32
   0   5  -6    4.01    0.26
   0  -5   6    3.92    0.25
   0  -5   6    2.73    1.50
   0  -5   6    3.61    0.20
  -1   5  -6   14.13    0.70
  -1   5  -6   13.78    0.62
  -1   5  -6   18.78    2.37
  -1   5  -6   14.55    0.55
  -1   5  -6   14.14    0.58
   1  -5   6   14.73    1.91
   1  -5   6   13.63    0.58
  -2   5  -6   18.00    0.68
  -2   5  -6   18.38    2.18
  -2   5  -6   17.86    0.73
  -2   5  -6   17.50    0.74
  -2   5  -6   17.80    0.85
   2  -5   6   19.54    1.99
  -3   5  -6   14.26    0.70
  -3   5  -6   12.89    0.57
  -3   5  -6   13.67    0.55
  -3   5  -6   16.58    1.92
   3  -5   6   13.04    1.91
  -4   5  -6    0.20    0.17
  -4   5  -6    0.07    0.20
  -4   5  -6    0.79    1.08
  -4   5  -6   -1.38    1.12
  -4   5  -6    0.28    0.14
  -4   5  -6    0.31    0.28
  -5   5  -6    2.80    0.36
  -5   5  -6    1.83    1.03
  -5   5  -6    2.92    0.32
  -5   5  -6    3.53    0.54
  -5   5  -6    2.87    0.30
  -5   5  -6    3.32    0.37
  -6   5  -6    6.65    0.95
   6   4  -6    7.20    0.74
   6   4  -6    4.65    0.68
  -6  -4   6    5.22    0.79
  -6  -4   6    4.83    0.65
  -6  -4   6    4.89    0.68
   5   4  -6    6.27    5.92
   5   4  -6    1.18    0.38
   5   4  -6    1.72    0.40
   5   4  -6    1.38    0.40
   5   4  -6    1.16    0.48
  -5  -4   6    1.59    0.40
  -5  -4   6    2.20    0.45
  -5  -4   6    1.64    0.44
  -5  -4   6    7.24    5.00
   4   4  -6    9.15    0.61
   4   4  -6    9.99    4.59
   4   4  -6    8.18    0.61
   4   4  -6    8.13    0.70
  -4  -4   6   10.76    4.19
  -4  -4   6    8.52    0.62
  -4  -4   6    7.77    0.57
  -4  -4   6    9.28    0.64
  -4  -4   6    8.75    0.62
   3   4  -6   65.61    2.30
   3   4  -6   59.17    2.29
   3   4  -6   56.45    5.75
   3   4  -6   60.69    2.27
  -3  -4   6   60.31    2.28
  -3  -4   6   60.35    2.23
  -3  -4   6   55.70    2.23
  -3  -4   6   59.58    2.24
  -3  -4   6   54.45    5.36
   2   4  -6   14.86    0.73
   2   4  -6   14.43    0.69
   2   4  -6   15.27    0.73
   2   4  -6   17.14    3.09
  -2  -4   6   13.89    2.71
  -2  -4   6   15.54    0.66
  -2  -4   6   15.17    0.64
  -2  -4   6   15.03    0.71
  -2  -4   6   13.11    0.70
   1   4  -6   51.47    1.95
   1   4  -6   51.23    4.09
   1   4  -6   52.17    1.93
   1   4  -6   53.22    1.91
  -1  -4   6   50.96    1.93
  -1  -4   6   47.28    3.76
  -1  -4   6   54.18    1.91
  -1  -4   6   52.59    1.86
   0   4  -6   57.69    2.08
   0   4  -6   59.29    2.16
   0   4  -6   60.97    3.81
   0   4  -6   58.55    2.12
   0  -4   6   60.96    3.56
   0  -4   6   57.91    2.07
  -1   4  -6   53.68    1.87
  -1   4  -6   52.90    1.83
  -1   4  -6   52.72    1.83
  -1   4  -6   52.12    3.04
  -1   4  -6   52.04    1.94
   1  -4   6   49.37    2.74
  -2   4  -6   15.05    0.55
  -2   4  -6   15.07    0.58
  -2   4  -6   14.43    0.65
  -2   4  -6   13.56    1.44
   2  -4   6   15.17    1.36
  -3   4  -6   60.02    2.24
  -3   4  -6   60.18    2.07
  -3   4  -6   58.42    2.83
  -3   4  -6   58.40    2.70
  -4   4  -6    8.23    0.42
  -4   4  -6    7.46    1.23
  -4   4  -6    8.33    1.14
  -4   4  -6    7.77    0.40
  -4   4  -6    7.61    0.62
  -4   4  -6    9.28    0.45
  -5   4  -6    1.52    0.24
  -5   4  -6    1.73    0.43
  -5   4  -6    1.04    1.23
  -5   4  -6    1.49    1.54
  -6   4  -6    5.18    0.63
  -6   4  -6    4.58    0.71
  -6   4  -6    5.97    0.54
  -6   4  -6    1.53    1.85
   6   3  -6    2.15    0.33
   6   3  -6    2.32    0.50
  -6  -3   6    2.00    0.60
  -6  -3   6    2.04    0.52
  -6  -3   6    2.35    0.53
   5   3  -6    9.30    0.69
   5   3  -6    8.98    0.62
   5   3  -6    9.70    0.73
   5   3  -6    9.36    0.66
  -5  -3   6    7.22    4.58
  -5  -3   6    8.50    0.68
  -5  -3   6    9.27    0.73
  -5  -3   6    9.42    0.72
  -5  -3   6    9.45    0.77
   4   3  -6   16.38    0.83
   4   3  -6   17.09    0.84
   4   3  -6   15.47    0.89
   4   3  -6   17.18    4.30
  -4  -3   6   15.57    0.83
  -4  -3   6   17.05    0.84
  -4  -3   6   17.26    0.87
  -4  -3   6   18.59    0.91
  -4  -3   6   14.80    4.53
   3   3  -6   29.01    1.18
   3   3  -6   31.05    1.20
   3   3  -6   27.00    1.19
   3   3  -6   28.32    4.18
  -3  -3   6   27.20    3.76
  -3  -3   6   28.75    1.19
  -3  -3   6   28.68    1.18
  -3  -3   6   23.66    1.21
  -3  -3   6   30.12    1.17
   2   3  -6    3.19    0.28
   2   3  -6    3.13    0.31
   2   3  -6    0.78    1.55
   2   3  -6    2.94    0.28
  -2  -3   6    3.32    1.78
  -2  -3   6    3.12    0.28
  -2  -3   6    3.29    0.28
  -2  -3   6    3.05    0.26
  -2  -3   6    3.55    0.25
   1   3  -6   37.67    1.53
   1   3  -6   41.94    1.51
   1   3  -6   41.27    1.53
   1   3  -6   37.30    3.12
  -1  -3   6   40.89    1.53
  -1  -3   6   43.45    1.52
  -1  -3   6   41.34    1.48
  -1  -3   6   42.26    3.16
   0   3  -6  177.20    5.94
   0   3  -6  164.14    5.91
   0   3  -6  174.74    5.98
   0   3  -6  169.68    7.25
   0  -3   6  181.94    7.21
   0  -3   6  184.89    5.98
   0  -3   6  161.59    5.90
  -1   3  -6   42.11    1.54
  -1   3  -6   40.89    1.48
  -1   3  -6   41.81    1.46
  -1   3  -6   41.04    1.43
  -1   3  -6   39.27    2.21
   1  -3   6   44.11    2.07
  -2   3  -6    4.17    0.61
  -2   3  -6    3.10    0.26
  -2   3  -6    3.25    0.15
  -2   3  -6    3.19    0.14
   2  -3   6    3.13    0.48
  -3   3  -6   27.79    1.01
  -3   3  -6   29.18    1.03
  -3   3  -6   30.29    1.22
  -3   3  -6   25.55    1.42
  -3   3  -6   29.29    1.10
  -4   3  -6   15.22    1.69
  -4   3  -6   16.23    0.66
  -4   3  -6   17.32    0.91
  -4   3  -6   14.45    1.89
  -4   3  -6   16.39    0.68
  -4   3  -6   16.83    0.68
  -5   3  -6    6.58    1.86
  -5   3  -6    8.50    0.56
  -5   3  -6    9.35    0.51
  -5   3  -6    9.71    1.82
  -5   3  -6    9.62    0.78
  -6   3  -6    2.21    0.58
  -6   3  -6    2.55    0.37
  -6   3  -6    1.98    0.48
  -6   3  -6    2.64    0.43
   6   2  -6    1.09    0.17
   6   2  -6    1.41    0.53
   6   2  -6    0.81    0.37
  -6  -2   6    0.92    0.45
  -6  -2   6    1.34    0.50
  -6  -2   6    0.69    0.42
   5   2  -6    0.60    0.20
   5   2  -6    0.45    0.19
   5   2  -6    0.72    0.28
   5   2  -6    0.67    0.29
   5   2  -6    0.81    0.38
  -5  -2   6    1.20    0.39
  -5  -2   6    0.65    0.35
  -5  -2   6    3.48    3.85
  -5  -2   6    0.95    0.32
  -5  -2   6    0.56    0.31
  -5  -2   6   -3.63    3.88
   4   2  -6   37.95    1.54
   4   2  -6   38.21    1.56
   4   2  -6   38.81    1.57
  -4  -2   6   38.95    1.63
  -4  -2   6   38.16    1.58
  -4  -2   6   33.65    4.89
  -4  -2   6   42.10    1.58
   3   2  -6   59.78    2.17
   3   2  -6   56.19    2.16
   3   2  -6   59.72    2.16
   3   2  -6   62.41    4.97
  -3  -2   6   56.27    2.16
  -3  -2   6   55.92    4.69
  -3  -2   6   58.57    2.18
  -3  -2   6   57.43    2.14
  -3  -2   6   57.30    2.15
   2   2  -6  296.35   12.46
   2   2  -6  277.74   10.15
   2   2  -6  298.57   10.18
   2   2  -6  297.50   10.16
   2   2  -6  298.27   10.18
  -2  -2   6  309.09   10.18
  -2  -2   6  307.57   12.47
  -2  -2   6  282.66   10.15
  -2  -2   6  296.74   10.15
  -2  -2   6  309.38   10.18
   1   2  -6  117.14    4.26
   1   2  -6  124.41    4.23
   1   2  -6  118.00    4.24
   1   2  -6  126.99    4.20
   1   2  -6  133.56    5.91
  -1  -2   6  121.99    4.22
  -1  -2   6  125.13    4.26
  -1  -2   6  116.34    4.18
  -1  -2   6  122.04    4.23
  -1  -2   6  122.74    5.76
   0   2  -6  103.22    3.86
   0   2  -6  108.46    3.85
   0   2  -6  112.50    3.91
   0   2  -6  123.19    4.93
   0  -2   6  127.02    3.91
   0  -2   6  107.65    3.84
   0  -2   6  109.86    3.83
   0  -2   6  112.75    4.81
  -1   2  -6  120.23    4.14
  -1   2  -6  124.65    4.41
  -1   2  -6  109.24    4.12
   1  -2   6  125.82    4.31
  -2   2  -6  280.80    9.53
  -2   2  -6  278.18    9.58
  -3   2  -6   58.62    2.04
  -3   2  -6   56.47    1.99
  -3   2  -6   53.54    2.54
  -3   2  -6   59.55    2.00
  -3   2  -6   58.27    2.19
  -3   2  -6   56.40    2.72
  -4   2  -6   35.24    2.64
  -4   2  -6   40.92    1.45
  -4   2  -6   38.72    1.65
  -4   2  -6   39.84    1.39
  -4   2  -6   39.00    1.43
  -4   2  -6   36.16    2.80
  -5   2  -6    0.52    1.84
  -5   2  -6    0.79    0.27
  -5   2  -6    1.14    1.91
  -5   2  -6    0.13    0.35
  -5   2  -6    0.61    0.23
  -6   2  -6    1.26    0.37
  -6   2  -6    1.06    0.33
  -6   2  -6    1.03    0.51
  -6   2  -6    1.08    0.38
   7   1  -6    3.98    0.53
  -7  -1   6    4.74    0.75
  -7  -1   6    4.38    0.87
   6   1  -6    3.56    0.43
   6   1  -6    3.62    0.53
  -6  -1   6    3.02    0.59
  -6  -1   6    3.17    0.53
  -6  -1   6    3.26    0.51
   5   1  -6   47.04    1.62
   5   1  -6   45.20    1.77
   5   1  -6   44.01    1.82
   5   1  -6   47.54    1.61
  -5  -1   6   46.45    1.94
  -5  -1   6   41.07    1.80
  -5  -1   6   47.00    1.85
  -5  -1   6   45.95    1.85
  -5  -1   6   37.20    5.52
  -5  -1   6   39.83    5.74
   4   1  -6   20.04    1.03
   4   1  -6   20.58    0.94
   4   1  -6   20.60    0.95
   4   1  -6   21.96    0.92
   4   1  -6   21.58    0.83
  -4  -1   6   20.80    3.48
  -4  -1   6   21.88    0.96
  -4  -1   6   21.08    0.95
  -4  -1   6   21.83    0.97
  -4  -1   6   17.88    3.47
  -4  -1   6   20.21    1.00
   3   1  -6   12.02    0.56
   3   1  -6   10.37    0.60
   3   1  -6   12.20    0.59
   3   1  -6   10.86    0.56
  -3  -1   6   13.12    0.60
  -3  -1   6   12.36    2.55
  -3  -1   6   11.02    2.43
  -3  -1   6    9.57    0.73
  -3  -1   6   11.05    0.60
  -3  -1   6   11.04    0.57
   2   1  -6   65.05    2.24
   2   1  -6   64.91    2.22
   2   1  -6   64.24    2.23
   2   1  -6   58.11    2.23
  -2  -1   6   63.90    2.22
  -2  -1   6   54.71    3.85
  -2  -1   6   64.39    2.23
  -2  -1   6   63.86    2.22
  -2  -1   6   56.36    2.22
  -2  -1   6   53.47    3.75
   1   1  -6  141.59    5.24
   1   1  -6  154.78    5.26
   1   1  -6  163.13    5.29
   1   1  -6  154.62    5.26
  -1  -1   6  171.96    6.66
  -1  -1   6  151.04    5.27
  -1  -1   6  135.95    5.22
  -1  -1   6  167.76    6.73
  -1  -1   6  147.64    5.25
  -1  -1   6  152.52    5.25
   0   1  -6    8.67    0.36
   0   1  -6    8.76    0.32
   0   1  -6    8.62    0.31
   0   1  -6    8.22    0.33
   0  -1   6    6.84    0.89
   0  -1   6    7.98    0.91
   0  -1   6    8.10    0.32
   0  -1   6    7.89    0.35
  -1   1  -6  158.50    5.55
  -1   1  -6  154.86    5.43
  -1   1  -6  154.73    5.40
   1  -1   6  165.83    5.52
  -2   1  -6   60.71    2.21
  -2   1  -6   61.67    2.49
  -2   1  -6   58.44    2.06
  -2   1  -6   61.22    2.06
  -2   1  -6   61.30    2.13
   2  -1   6   59.34    2.58
  -3   1  -6   11.62    0.48
  -3   1  -6   11.73    0.48
  -3   1  -6   11.48    1.45
  -3   1  -6   11.70    1.50
  -3   1  -6   11.67    0.47
  -3   1  -6   10.22    0.61
  -4   1  -6   21.14    1.05
  -4   1  -6   21.82    0.86
  -4   1  -6   17.26    2.40
  -4   1  -6   20.33    0.85
  -4   1  -6   20.81    0.84
  -4   1  -6   20.81    0.77
  -4   1  -6   22.18    2.56
  -5   1  -6   33.02    3.98
  -5   1  -6   47.29    1.76
  -5   1  -6   45.06    1.72
  -5   1  -6   47.71    1.74
  -5   1  -6   43.02    4.30
  -5   1  -6   45.36    1.97
  -6   1  -6    3.68    0.67
  -6   1  -6    2.75    0.44
  -6   1  -6    2.81    0.43
  -7   1  -6    3.66    0.62
  -7   0   6    0.15    0.78
  -7   0   6    0.09    0.52
   6   0  -6    1.51    0.31
   6   0  -6    1.63    0.42
  -6   0   6    0.84    0.46
  -6   0   6    2.12    0.42
  -6   0   6    1.06    0.46
   5   0  -6    4.06    0.49
   5   0  -6    4.74    0.41
  -5   0   6    3.51    0.51
  -5   0   6    1.92    3.43
  -5   0   6    9.54    3.71
  -5   0   6    3.58    0.46
  -5   0   6    3.96    0.52
   4   0  -6    9.78    0.52
   4   0  -6    9.73    0.56
   4   0  -6    9.27    0.41
   4   0  -6    9.77    0.66
  -4   0   6    9.99    0.56
  -4   0   6   10.36    0.57
  -4   0   6   10.03    2.90
  -4   0   6    7.11    2.68
  -4   0   6    9.58    0.62
  -4   0   6    9.71    0.58
   3   0  -6  110.30    4.01
   3   0  -6  109.01    4.08
   3   0  -6  116.31    4.03
   3   0  -6  116.86    3.99
   3   0  -6  115.01    3.92
  -3   0   6  118.35    4.04
  -3   0   6  123.53    6.28
  -3   0   6  119.28    4.02
  -3   0   6  105.06    6.29
  -3   0   6  115.72    4.01
  -3   0   6  103.82    4.04
   2   0  -6    0.11    0.07
   2   0  -6    0.04    0.10
   2   0  -6    0.23    0.10
   2   0  -6    0.25    0.13
   2   0  -6    0.06    0.08
  -2   0   6    0.30    0.11
  -2   0   6    0.36    0.13
  -2   0   6    1.06    1.05
  -2   0   6    0.21    0.11
  -2   0   6    0.06    1.06
  -2   0   6    0.16    0.11
   1   0  -6    4.45    0.25
   1   0  -6    4.80    0.25
   1   0  -6    5.07    0.26
   1   0  -6    4.62    1.03
   1   0  -6    4.82    0.27
   1   0  -6    4.83    0.25
  -1   0   6    4.97    0.25
  -1   0   6    4.98    0.24
  -1   0   6    5.27    0.34
  -1   0   6    4.12    1.01
  -1   0   6    5.34    0.25
  -1   0   6    5.27    0.31
   0   0  -6   32.13    1.24
   0   0  -6   35.30    1.86
   0   0  -6   37.22    1.29
   0   0  -6   34.25    1.23
   0   0  -6   36.09    1.26
   0   0  -6   35.00    1.25
   0   0   6   36.03    1.25
   0   0   6   36.72    1.29
   0   0   6   36.30    1.85
   0   0   6   35.19    1.23
   0   0   6   35.32    1.26
  -1   0  -6    4.83    0.20
  -1   0  -6    4.93    0.19
  -1   0  -6    5.47    0.61
  -1   0  -6    4.41    0.20
  -1   0  -6    4.50    0.24
   1   0   6    4.82    0.18
   1   0   6    4.64    0.66
   1   0   6    4.71    0.18
   1   0   6    5.04    0.26
   1   0   6    4.84    0.19
  -2   0  -6    0.10    0.54
  -2   0  -6    0.13    0.06
  -2   0  -6    0.24    0.07
  -2   0  -6    0.26    0.08
   2   0   6    0.21    0.08
   2   0   6   -0.05    0.69
  -3   0  -6  111.39    3.88
  -3   0  -6  112.00    3.89
  -3   0  -6  106.30    5.15
  -3   0  -6  119.85    4.07
  -3   0  -6  113.83    3.90
  -3   0  -6  113.17    3.86
   3   0   6  111.07    5.55
   3   0   6  109.49    3.88
  -4   0  -6    8.74    0.51
  -4   0  -6    9.75    0.49
  -4   0  -6    7.21    1.84
  -4   0  -6   10.15    0.45
  -4   0  -6    9.91    0.42
  -4   0  -6    8.69    0.66
   4   0   6    7.60    2.21
   4   0   6    9.65    0.43
  -5   0  -6    3.50    0.41
  -5   0  -6    3.76    2.29
  -5   0  -6    4.33    0.58
  -5   0  -6    3.49    0.42
  -5   0  -6    3.82    0.33
  -6   0  -6    1.58    0.28
  -6   0  -6    1.24    0.55
  -6   0  -6    1.88    0.41
  -7   0  -6    0.30    0.52
  -7   1   6    3.95    0.67
   6  -1  -6    3.02    0.44
   6  -1  -6    4.00    0.43
  -6   1   6    3.99    0.64
  -6   1   6    3.88    0.59
  -6   1   6    4.23    0.53
   5  -1  -6   44.44    2.01
   5  -1  -6   45.34    1.73
   5  -1  -6   46.52    1.79
  -5   1   6   44.95    1.88
  -5   1   6   46.03    1.83
  -5   1   6   46.39    1.84
  -5   1   6   46.71    1.95
  -5   1   6   46.37    6.28
  -5   1   6   51.13    5.98
   4  -1  -6   21.89    0.93
   4  -1  -6   21.77    0.88
   4  -1  -6   19.06    1.05
  -4   1   6   19.31    3.54
  -4   1   6   21.37    0.95
  -4   1   6   21.09    0.92
  -4   1   6   22.08    0.99
  -4   1   6   16.08    2.99
  -4   1   6   21.19    1.01
   3  -1  -6   11.45    0.52
   3  -1  -6   11.41    0.46
   3  -1  -6   11.90    0.55
  -3   1   6   11.42    0.56
  -3   1   6   11.05    2.23
  -3   1   6   10.61    0.53
  -3   1   6   11.84    0.60
  -3   1   6   12.12    0.62
   2  -1  -6   58.31    2.18
   2  -1  -6   60.22    2.24
   2  -1  -6   62.56    2.15
   2  -1  -6   64.17    3.83
   2  -1  -6   61.44    2.17
  -2   1   6   61.52    2.19
  -2   1   6   63.42    2.22
  -2   1   6   62.53    2.22
  -2   1   6   62.39    3.68
  -2   1   6   58.12    2.17
  -2   1   6   60.32    2.15
   1  -1  -6  159.20    5.40
   1  -1  -6  151.82    5.42
   1  -1  -6  163.73    6.63
   1  -1  -6  150.85    5.40
   1  -1  -6  160.27    5.41
  -1   1   6  168.31    5.42
  -1   1   6  151.35    5.40
  -1   1   6  164.48    6.52
  -1   1   6  164.16    5.42
  -1   1   6  153.08    5.39
  -1   1   6  152.72    5.43
   0  -1  -6    7.92    0.36
   0  -1  -6    8.15    0.34
   0  -1  -6    7.75    0.32
   0  -1  -6    8.01    0.34
   0   1   6    8.40    0.32
   0   1   6    6.47    0.93
   0   1   6    8.50    0.34
   0   1   6    7.42    0.36
   0   1   6    8.12    0.34
  -1  -1  -6  154.68    5.37
  -1  -1  -6  155.11    6.19
  -1  -1  -6  162.46    5.42
  -1  -1  -6  153.68    5.36
   1   1   6  165.37    6.32
   1   1   6  156.91    5.36
   1   1   6  158.89    5.56
   1   1   6  153.56    5.36
  -2  -1  -6   65.99    3.29
  -2  -1  -6   60.20    2.16
  -2  -1  -6   61.33    2.12
  -2  -1  -6   63.06    2.15
   2   1   6   59.61    2.11
   2   1   6   62.12    2.12
   2   1   6   59.23    2.16
   2   1   6   51.19    3.29
  -3  -1  -6   11.69    0.53
  -3  -1  -6   11.80    0.55
  -3  -1  -6   11.63    0.52
  -3  -1  -6   12.02    0.44
  -3  -1  -6   12.94    1.97
   3   1   6    8.79    2.56
   3   1   6   11.42    0.53
   3   1   6   11.98    0.49
   3   1   6   12.08    0.51
  -4  -1  -6   21.50    1.08
  -4  -1  -6   19.43    0.93
  -4  -1  -6   21.20    3.12
  -4  -1  -6   21.30    0.79
  -4  -1  -6   22.37    0.94
   4   1   6   21.57    0.86
   4   1   6   20.98    0.81
   4   1   6   20.54    0.81
   4   1   6   22.25    3.38
  -5  -1  -6   36.65    4.90
  -5  -1  -6   44.74    1.76
  -5  -1  -6   42.83    1.93
  -5  -1  -6   44.17    1.70
  -5  -1  -6   44.25    1.58
   5   1   6   34.61    5.29
   5   1   6   44.30    1.56
  -6  -1  -6    4.32    0.51
  -6  -1  -6    3.63    0.52
  -6  -1  -6    3.43    0.35
  -6  -1  -6    4.55    0.73
  -7  -1  -6    3.40    0.66
   6  -2  -6    0.88    0.24
  -6   2   6    1.55    0.48
  -6   2   6    0.76    0.61
  -6   2   6    0.95    0.41
   5  -2  -6    0.62    0.19
   5  -2  -6    0.11    0.41
  -5   2   6    0.95    0.34
  -5   2   6    0.33    0.31
  -5   2   6    0.14    0.33
  -5   2   6    1.34    3.34
  -5   2   6    5.68    3.15
  -5   2   6    0.55    0.27
   4  -2  -6   38.61    1.51
   4  -2  -6   37.21    1.68
   4  -2  -6   40.22    1.47
  -4   2   6   38.65    1.61
  -4   2   6   40.75    1.64
  -4   2   6   41.72    1.53
  -4   2   6   39.08    1.55
  -4   2   6   33.54    4.72
  -4   2   6   32.05    4.32
   3  -2  -6   55.63    4.36
   3  -2  -6   58.71    2.04
   3  -2  -6   59.46    2.09
   3  -2  -6   59.33    2.25
   3  -2  -6   57.65    2.12
  -3   2   6   61.73    2.21
  -3   2   6   54.71    2.19
  -3   2   6   56.96    2.05
  -3   2   6   59.59    2.12
  -3   2   6   52.61    3.93
  -3   2   6   59.66    2.14
   2  -2  -6  301.18    9.97
   2  -2  -6  280.57    9.95
   2  -2  -6  305.60   11.85
   2  -2  -6  289.07   10.04
   2  -2  -6  283.90    9.94
  -2   2   6  322.44   11.67
  -2   2   6  272.82    9.96
  -2   2   6  312.33   10.02
  -2   2   6  278.91    9.96
  -2   2   6  283.17    9.95
   1  -2  -6  130.58    5.68
   1  -2  -6  118.91    4.29
   1  -2  -6  120.67    4.30
   1  -2  -6  125.27    4.34
   1  -2  -6  131.56    4.33
  -1   2   6  118.10    5.47
  -1   2   6  125.91    4.31
  -1   2   6  121.16    4.33
  -1   2   6  125.03    4.29
  -1   2   6  132.94    4.33
   0  -2  -6  114.47    3.80
   0  -2  -6  107.92    3.79
   0  -2  -6  107.89    4.82
   0  -2  -6  107.47    3.77
   0  -2  -6  110.85    3.83
   0   2   6  105.35    3.83
   0   2   6  112.56    4.90
   0   2   6  113.62    3.79
   0   2   6  109.11    3.77
  -1  -2  -6  131.84    4.34
  -1  -2  -6  120.69    4.27
  -1  -2  -6  120.58    4.30
  -1  -2  -6  130.05    5.50
   1   2   6  122.94    4.29
   1   2   6  119.80    4.27
   1   2   6  128.68    5.62
   1   2   6  123.47    4.33
  -2  -2  -6  291.05   11.51
  -2  -2  -6  289.12    9.94
  -2  -2  -6  285.85    9.99
  -2  -2  -6  292.90    9.98
   2   2   6  305.88    9.95
   2   2   6  289.96   11.77
   2   2   6  290.08    9.95
   2   2   6  290.93    9.99
  -3  -2  -6   53.91    3.90
  -3  -2  -6   60.37    2.12
  -3  -2  -6   59.19    2.14
  -3  -2  -6   60.86    2.17
   3   2   6   53.12    4.92
   3   2   6   59.11    2.11
   3   2   6   57.28    2.14
   3   2   6   58.20    2.11
  -4  -2  -6   39.02    1.59
  -4  -2  -6   38.79    1.53
  -4  -2  -6   39.89    1.41
  -4  -2  -6   42.39    4.14
  -4  -2  -6   39.11    1.72
   4   2   6   40.16    1.50
   4   2   6   41.05    1.54
   4   2   6   39.94    4.83
   4   2   6   40.91    1.51
  -5  -2  -6    0.96    0.31
  -5  -2  -6    0.49    0.25
  -5  -2  -6    1.22    0.40
  -5  -2  -6   -4.70    2.80
   5   2   6    0.31    3.64
   5   2   6    0.50    0.24
   5   2   6    0.76    0.23
   5   2   6    0.74    0.21
  -6  -2  -6    0.79    0.57
  -6  -2  -6    0.64    0.44
   6   2   6    1.25    0.28
   6   2   6    1.35    0.24
   6  -3  -6    2.06    0.27
  -6   3   6    1.70    0.54
  -6   3   6    2.05    0.42
   5  -3  -6    8.13    0.83
   5  -3  -6    9.26    0.49
   5  -3  -6    9.46    0.57
  -5   3   6    9.20    0.76
  -5   3   6    5.86    3.27
  -5   3   6   10.32    4.21
  -5   3   6    8.35    0.76
  -5   3   6    8.62    0.68
   4  -3  -6   15.00    0.96
   4  -3  -6   17.07    3.32
   4  -3  -6   16.75    0.72
   4  -3  -6   16.66    0.77
  -4   3   6   17.85    0.83
  -4   3   6   19.12    3.09
  -4   3   6   16.87    0.90
  -4   3   6   16.65    0.65
  -4   3   6   18.04    0.89
  -4   3   6   17.47    0.78
   3  -3  -6   29.58    1.11
   3  -3  -6   28.89    1.14
   3  -3  -6   28.46    1.26
  -3   3   6   29.28    1.10
  -3   3   6   30.00    1.22
  -3   3   6   30.33    1.13
  -3   3   6   26.60    1.15
  -3   3   6   27.14    3.14
   2  -3  -6    3.40    0.26
   2  -3  -6    3.51    0.33
   2  -3  -6    1.86    1.32
   2  -3  -6    3.16    0.24
   2  -3  -6    3.85    0.26
  -2   3   6    3.60    0.29
  -2   3   6    5.81    1.43
  -2   3   6    3.01    0.26
  -2   3   6    3.63    0.27
  -2   3   6    3.43    0.24
   1  -3  -6   40.25    1.53
   1  -3  -6   41.67    1.53
   1  -3  -6   40.00    1.50
   1  -3  -6   40.82    1.48
  -1   3   6   44.83    1.52
  -1   3   6   38.97    1.53
  -1   3   6   40.97    1.47
  -1   3   6   43.67    1.51
  -1   3   6   34.40    2.60
   0  -3  -6  169.84    5.89
   0  -3  -6  168.56    5.85
   0  -3  -6  164.54    5.88
   0  -3  -6  174.46    5.94
   0  -3  -6  173.61    7.28
   0   3   6  176.42    5.94
   0   3   6  170.81    5.88
   0   3   6  168.42    5.85
   0   3   6  175.71    7.38
  -1  -3  -6   49.45    3.05
  -1  -3  -6   40.95    1.52
  -1  -3  -6   40.83    1.55
   1   3   6   41.57    1.48
   1   3   6   36.61    1.53
   1   3   6   39.89    1.50
   1   3   6   39.64    3.03
  -2  -3  -6    3.58    0.32
  -2  -3  -6    3.34    0.29
  -2  -3  -6    4.23    1.37
  -2  -3  -6    3.37    0.25
   2   3   6    1.70    1.55
   2   3   6    3.33    0.32
   2   3   6    3.49    0.28
   2   3   6    3.27    0.26
   2   3   6    2.95    0.19
  -3  -3  -6   27.86    1.20
  -3  -3  -6   28.54    1.14
  -3  -3  -6   27.07    3.71
   3   3   6   28.42    1.14
   3   3   6   30.29    1.15
   3   3   6   27.17    3.75
   3   3   6   29.38    1.06
   3   3   6   29.74    1.20
  -4  -3  -6   16.58    0.81
  -4  -3  -6   18.08    0.91
  -4  -3  -6   18.61    3.32
   4   3   6   15.57    3.89
   4   3   6   17.77    0.86
   4   3   6   17.45    0.80
   4   3   6   17.28    0.80
  -5  -3  -6    8.28    3.60
  -5  -3  -6   10.39    0.76
  -5  -3  -6   10.64    0.90
  -5  -3  -6   10.08    0.63
   5   3   6    9.61    0.63
   5   3   6   10.21    0.60
   5   3   6   12.95    4.84
   5   3   6    7.81    0.76
  -6  -3  -6    3.84    0.60
  -6  -3  -6    2.28    0.70
   6   3   6    2.21    0.43
   6   3   6    2.88    0.40
  -6   4   6    5.80    0.62
  -6   4   6    6.19    0.85
   5  -4  -6    1.53    0.21
   5  -4  -6    1.29    0.25
  -5   4   6    1.59    0.40
  -5   4   6    2.20    0.41
  -5   4   6    0.83    0.46
  -5   4   6    1.22    0.29
   4  -4  -6    7.57    0.50
   4  -4  -6    6.09    2.96
   4  -4  -6    7.15    0.73
   4  -4  -6    8.58    0.45
  -4   4   6    8.51    2.74
  -4   4   6    7.50    0.53
  -4   4   6    9.72    0.45
  -4   4   6    8.23    0.48
  -4   4   6    7.73    0.67
   3  -4  -6   58.91    2.14
   3  -4  -6   57.64    4.52
   3  -4  -6   59.12    2.32
   3  -4  -6   58.50    2.16
  -3   4   6   63.09    2.26
  -3   4   6   56.89    2.15
  -3   4   6   61.41    4.32
  -3   4   6   60.39    2.19
  -3   4   6   58.64    2.17
   2  -4  -6   13.64    0.78
   2  -4  -6   15.02    0.65
   2  -4  -6   18.99    2.58
   2  -4  -6   14.65    0.64
  -2   4   6   15.32    0.70
  -2   4   6   14.20    0.62
  -2   4   6   15.75    0.69
  -2   4   6   12.18    2.10
   1  -4  -6   53.37    1.93
   1  -4  -6   48.96    3.56
   1  -4  -6   53.85    1.95
   1  -4  -6   52.61    1.91
   1  -4  -6   51.33    1.87
  -1   4   6   53.39    1.91
  -1   4   6   47.73    3.41
  -1   4   6   50.68    1.95
  -1   4   6   53.19    1.87
  -1   4   6   52.45    1.91
   0  -4  -6   60.37    2.14
   0  -4  -6   51.49    3.51
   0  -4  -6   57.92    2.02
   0  -4  -6   60.98    2.06
   0  -4  -6   59.54    2.09
   0   4   6   57.58    2.07
   0   4   6   53.76    2.12
   0   4   6   54.81    2.03
   0   4   6   49.91    3.66
  -1  -4  -6   56.30    3.74
  -1  -4  -6   52.56    1.96
  -1  -4  -6   50.40    1.99
  -1  -4  -6   53.19    1.89
   1   4   6   54.37    1.92
   1   4   6   53.65    1.94
   1   4   6   53.38    2.01
   1   4   6   46.32    3.80
  -2  -4  -6   16.86    2.63
  -2  -4  -6   14.09    0.71
  -2  -4  -6   14.84    0.64
   2   4   6   14.89    0.75
   2   4   6   12.53    2.87
   2   4   6   15.03    0.68
   2   4   6   14.34    0.69
   2   4   6   15.01    0.62
  -3  -4  -6   59.15    2.18
  -3  -4  -6   60.37    2.28
  -3  -4  -6   59.56    4.92
   3   4   6   60.41    2.27
   3   4   6   60.21    2.22
   3   4   6   57.23    2.12
   3   4   6   56.80    5.39
   3   4   6   59.26    2.21
  -4  -4  -6    8.05    3.05
  -4  -4  -6    8.21    0.52
   4   4   6    8.46    0.57
   4   4   6    8.39    0.42
   4   4   6    6.55    4.04
   4   4   6    7.69    0.62
   4   4   6    7.76    0.56
  -5  -4  -6    1.42    0.46
  -5  -4  -6    1.75    0.53
  -5  -4  -6    1.13    4.01
   5   4   6    0.91    0.32
   5   4   6    1.36    0.38
   5   4   6    2.07    0.44
   5   4   6    4.72    5.68
  -6  -4  -6    6.66    0.80
  -6  -4  -6    3.90    0.82
   6   4   6    3.97    0.52
  -6   5   6    8.22    0.71
  -6   5   6    7.66    0.88
   5  -5  -6    2.86    0.23
   5  -5  -6    3.45    0.33
  -5   5   6    3.98    0.58
  -5   5   6    2.80    0.36
  -5   5   6    3.22    0.53
  -5   5   6    3.02    0.22
   4  -5  -6    0.11    0.22
   4  -5  -6    5.36    3.20
   4  -5  -6    0.75    0.41
  -4   5   6    0.22    0.20
  -4   5   6    0.05    0.25
  -4   5   6    0.28    0.21
  -4   5   6    0.27    0.30
  -4   5   6   -1.40    2.35
   3  -5  -6   13.39    3.07
   3  -5  -6   12.45    0.81
   3  -5  -6   14.12    0.64
   3  -5  -6   13.12    0.62
  -3   5   6   14.08    0.70
  -3   5   6   13.67    0.63
  -3   5   6   13.21    2.70
  -3   5   6   12.31    0.68
  -3   5   6   13.54    0.71
   2  -5  -6   18.03    0.89
   2  -5  -6   18.25    0.80
   2  -5  -6   18.46    0.78
  -2   5   6   18.80    0.77
  -2   5   6   19.43    0.84
  -2   5   6   17.38    0.94
  -2   5   6   21.56    3.09
  -2   5   6   18.70    0.81
   1  -5  -6   13.95    0.61
   1  -5  -6   13.95    0.67
   1  -5  -6   13.44    0.72
  -1   5   6   11.85    2.29
  -1   5   6   14.22    0.73
  -1   5   6   14.27    0.61
  -1   5   6   15.10    0.66
  -1   5   6   14.02    0.66
   0  -5  -6    3.77    0.26
   0  -5  -6    4.02    0.30
   0  -5  -6    3.63    0.34
   0  -5  -6    4.26    1.71
   0   5   6    4.16    0.35
   0   5   6    4.12    0.28
   0   5   6    3.40    0.40
   0   5   6    4.21    1.95
  -1  -5  -6   13.43    2.68
  -1  -5  -6   13.92    0.62
  -1  -5  -6   14.66    0.66
  -1  -5  -6   14.99    0.73
   1   5   6   15.08    2.75
   1   5   6   14.34    0.66
   1   5   6   14.54    0.76
   1   5   6   14.43    0.69
   1   5   6   14.46    0.66
  -2  -5  -6   16.20    0.87
  -2  -5  -6   18.45    0.78
  -2  -5  -6   25.00    3.43
   2   5   6   18.17    0.83
   2   5   6   17.83    0.80
   2   5   6   20.33    3.73
   2   5   6   17.94    0.90
   2   5   6   17.25    0.76
  -3  -5  -6   12.78    0.65
  -3  -5  -6   15.38    3.44
  -3  -5  -6   13.72    0.77
   3   5   6   12.13    0.60
   3   5   6   13.98    0.79
   3   5   6   13.46    0.72
   3   5   6   13.25    0.72
   3   5   6   14.68    3.85
  -4  -5  -6   -0.18    0.24
  -4  -5  -6   -0.01    0.30
  -4  -5  -6    2.85    3.50
   4   5   6    0.21    0.17
   4   5   6    0.36    0.37
   4   5   6    0.66    0.34
   4   5   6    4.36    4.63
   4   5   6    0.19    0.29
  -5  -5  -6    3.87    0.68
  -5  -5  -6    3.44    0.58
   5   5   6    3.46    0.51
   5   5   6    2.82    0.46
   5   5   6    2.32    0.56
   5   5   6    3.35    0.35
  -6  -5  -6    8.67    1.11
  -6  -5  -6    6.92    0.86
   6   5   6    6.74    0.84
  -5   6   6    1.55    0.48
  -5   6   6    1.10    0.34
   4  -6  -6   10.71    0.55
   4  -6  -6   11.48    0.96
   4  -6  -6   11.30    0.53
  -4   6   6   10.97    0.75
  -4   6   6    9.82    0.70
  -4   6   6   11.09    0.59
  -4   6   6   10.32    0.71
   3  -6  -6   14.00    0.91
   3  -6  -6   15.44    0.70
   3  -6  -6   14.29    0.68
   3  -6  -6   12.50    3.34
  -3   6   6   13.21    0.79
  -3   6   6   14.69    0.69
  -3   6   6   16.66    3.18
  -3   6   6   14.90    0.78
  -3   6   6   13.80    0.77
   2  -6  -6    0.89    0.21
   2  -6  -6    1.44    0.32
  -2   6   6    0.88    0.20
  -2   6   6    1.10    0.25
  -2   6   6    4.40    2.28
  -2   6   6    0.78    0.25
  -2   6   6    1.04    0.30
   1  -6  -6    0.79    1.96
   1  -6  -6    1.71    0.27
   1  -6  -6    1.76    0.26
   1  -6  -6    1.90    0.23
  -1   6   6    2.42    0.28
  -1   6   6    0.35    2.13
  -1   6   6    1.91    0.35
  -1   6   6    1.76    0.28
  -1   6   6    2.00    0.24
   0  -6  -6    0.28    0.16
   0  -6  -6    0.33    0.20
   0  -6  -6    0.33    0.17
   0  -6  -6    2.40    1.74
   0   6   6   -0.01    0.16
   0   6   6   -0.04    0.19
   0   6   6   -1.36    2.22
   0   6   6    0.07    0.26
  -1  -6  -6    2.25    0.28
  -1  -6  -6    1.98    0.29
  -1  -6  -6    6.82    2.22
  -1  -6  -6    1.90    0.34
   1   6   6    1.92    0.27
   1   6   6    1.11    0.28
   1   6   6    1.30    0.23
   1   6   6    1.35    0.34
   1   6   6    6.96    2.97
  -2  -6  -6    1.00    0.22
  -2  -6  -6    1.11    0.31
  -2  -6  -6    1.02    2.59
   2   6   6    1.27    0.22
   2   6   6    0.59    0.27
   2   6   6    0.68    3.53
   2   6   6    1.38    0.28
   2   6   6    0.90    0.37
  -3  -6  -6   13.86    4.03
  -3  -6  -6   13.95    0.71
  -3  -6  -6   14.06    0.84
   3   6   6   14.10    4.80
   3   6   6   13.44    0.89
   3   6   6   13.54    0.84
   3   6   6   13.27    0.79
   3   6   6   14.40    0.69
  -4  -6  -6    8.56    4.61
  -4  -6  -6   11.62    0.84
   4   6   6   12.04    0.89
   4   6   6    9.91    0.60
   4   6   6    4.61    5.94
   4   6   6   10.22    0.76
   4   6   6   11.23    0.74
  -5  -6  -6    1.31    0.54
  -5  -6  -6    2.51    0.70
   5   6   6    0.75    0.44
   5   6   6    0.85    0.32
  -5   7   6    7.84    0.87
  -5   7   6    7.44    0.66
  -4   7   6    1.40    0.33
  -4   7   6    1.68    0.43
  -4   7   6    1.37    0.42
   3  -7  -6    0.17    0.24
   3  -7  -6    0.59    0.26
   3  -7  -6    0.42    0.45
  -3   7   6    0.59    0.21
  -3   7   6    0.81    0.34
  -3   7   6    0.18    0.27
  -3   7   6    0.05    0.36
   2  -7  -6    6.28    0.64
   2  -7  -6    6.60    0.46
   2  -7  -6    7.49    0.51
  -2   7   6    6.57    0.50
  -2   7   6    6.65    0.53
  -2   7   6   13.46    3.38
  -2   7   6    7.39    0.52
  -2   7   6    5.89    0.65
   1  -7  -6   14.98    0.77
   1  -7  -6   13.79    0.68
   1  -7  -6   20.81    3.35
   1  -7  -6   14.83    0.79
  -1   7   6   16.09    3.59
  -1   7   6   14.11    0.91
  -1   7   6   14.19    0.76
   0  -7  -6    6.40    2.65
   0  -7  -6    4.98    0.43
   0  -7  -6    4.51    0.35
   0  -7  -6    5.10    0.51
   0   7   6    9.82    3.79
   0   7   6    3.59    0.45
   0   7   6    5.64    0.48
   0   7   6    4.44    0.55
  -1  -7  -6   21.25    3.69
  -1  -7  -6   14.67    0.71
  -1  -7  -6   14.10    0.69
   1   7   6   12.72    0.81
   1   7   6   14.35    0.72
   1   7   6   14.13    0.75
   1   7   6   11.44    4.07
   1   7   6   13.06    0.88
  -2  -7  -6    6.42    0.50
  -2  -7  -6    6.53    0.47
  -2  -7  -6   11.80    3.70
  -2  -7  -6    7.27    0.62
   2   7   6    5.99    0.50
   2   7   6    5.81    0.76
   2   7   6    6.30    0.52
   2   7   6    6.70    0.58
   2   7   6    6.64    4.47
  -3  -7  -6    4.01    3.97
   3   7   6    4.44    5.72
  -4  -7  -6    0.16    5.28
  -4  -7  -6    1.02    0.54
   4   7   6    1.19    0.45
   4   7   6   -2.33    7.57
  -5  -7  -6    8.59    1.17
  -5  -7  -6    6.11    1.02
   5   7   6    6.34    0.78
  -4   8   6    0.73    0.42
  -4   8   6    1.11    0.35
   3  -8  -6   24.05    1.07
   3  -8  -6   25.31    1.58
  -3   8   6   25.26    1.20
  -3   8   6   26.14    1.13
  -3   8   6   25.22    1.38
   2  -8  -6    4.74    0.48
   2  -8  -6    3.26    0.55
   2  -8  -6    4.17    0.51
  -2   8   6    3.57    0.61
  -2   8   6    4.25    0.47
   1  -8  -6    0.24    0.32
   1  -8  -6   -0.12    0.26
   1  -8  -6   -0.18    0.32
  -1   8   6   -0.56    0.42
  -1   8   6    0.18    0.22
  -1   8   6    0.67    0.36
   0  -8  -6    7.25    0.53
   0  -8  -6    8.34    0.62
   0  -8  -6    7.97    0.68
   0   8   6    7.21    4.82
   0   8   6    7.55    0.54
   0   8   6    8.47    0.64
   0   8   6    7.08    0.89
   0   8   6    8.69    1.14
  -1  -8  -6    0.49    0.25
  -1  -8  -6    0.37    0.27
  -1  -8  -6    2.71    3.51
  -1  -8  -6    0.14    0.36
   1   8   6    3.47    5.29
   1   8   6   -0.05    0.31
   1   8   6   -0.30    0.26
   2   8   6  -11.05    6.34
  -3  -8  -6   24.35    1.21
  -3  -8  -6   24.89    1.36
   3   8   6   26.55    1.28
  -4  -8  -6    0.47    0.67
   4   8   6    1.35    0.60
  -3   9   6    0.26    0.34
  -3   9   6    1.06    0.41
   2  -9  -6    4.24    0.67
   2  -9  -6    3.90    0.50
  -2   9   6    4.44    0.50
   1  -9  -6    5.00    0.53
   1  -9  -6    5.31    0.68
   1  -9  -6    4.56    0.61
  -1   9   6    4.50    0.57
   0  -9  -6    8.10    0.72
   0  -9  -6    8.89    0.77
   0  -9  -6    6.06    0.60
   0   9   6    9.17    0.78
   0   9   6    6.93    0.67
  -1  -9  -6    5.12    0.63
  -1  -9  -6    4.48    0.58
   1   9   6    4.41    0.55
   1   9   6    5.80    0.68
  -2  -9  -6    3.26    0.49
  -2  -9  -6    4.69    0.75
   2   9   6    5.29    0.66
  -3  -9  -6    1.07    0.71
   3   9   6    1.67    0.63
   3   9   6    1.89    0.53
   1 -10  -6    6.48    0.82
  -1  10   6    4.35    0.59
  -1  10   6    6.72    0.88
   0 -10  -6    1.90    0.59
   0  10   6    0.71    0.54
   0  10   6    1.18    0.48
  -1 -10  -6    6.86    0.84
   1  10   6    5.16    1.03
   1  10   6    6.79    0.80
   1  10  -7    1.49    0.81
   1  10  -7    2.75    0.63
   0  10  -7   14.61    1.21
   0  10  -7   14.84    1.02
  -1  10  -7    3.22    0.54
   3   9  -7    0.01    0.60
   3   9  -7   -0.60    0.60
  -3  -9   7    0.26    0.59
   2   9  -7    0.67    0.43
   2   9  -7   -0.08    0.54
  -2  -9   7    0.74    0.47
  -2  -9   7    0.49    0.35
   1   9  -7    6.78    0.84
   1   9  -7    8.80    0.73
  -1  -9   7    7.46    0.52
  -1  -9   7    8.19    0.67
   0   9  -7    0.00    0.41
   0   9  -7    0.46    0.37
   0  -9   7    0.42    0.22
  -1   9  -7    7.40    0.82
  -1   9  -7    7.76    0.62
  -1   9  -7    7.10    0.81
  -2   9  -7    0.53    0.51
  -2   9  -7    0.78    0.46
  -2   9  -7   -0.06    0.30
  -3   9  -7    0.43    0.57
  -3   9  -7    0.04    0.33
   4   8  -7    5.18    0.75
   4   8  -7    4.83    0.72
  -4  -8   7    5.22    0.76
   3   8  -7   13.18    0.97
   3   8  -7   14.33    0.94
  -3  -8   7   13.56    1.01
  -3  -8   7   13.11    0.68
   2   8  -7    1.27    0.44
   2   8  -7    0.58    0.38
  -2  -8   7    1.47    0.40
  -2  -8   7    1.02    0.12
  -2  -8   7    0.86    0.30
   1   8  -7    6.58    0.70
   1   8  -7    6.29    0.66
   1   8  -7    5.95    0.58
  -1  -8   7    6.90    0.55
  -1  -8   7    5.91    0.43
   0   8  -7    0.52    0.38
   0   8  -7    0.93    0.28
   0   8  -7    1.22    0.36
   0  -8   7    0.98    0.21
   0  -8   7    0.83    0.17
  -1   8  -7    6.25    0.45
  -1   8  -7    5.04    0.59
  -1   8  -7    5.52    0.59
  -2   8  -7    0.87    0.24
  -2   8  -7    1.59    0.44
  -2   8  -7    1.40    0.35
  -3   8  -7   14.46    0.68
  -3   8  -7   12.83    0.78
  -3   8  -7   13.85    1.06
  -3   8  -7   14.26    0.70
  -3   8  -7   12.01    0.95
  -4   8  -7    6.74    0.88
  -4   8  -7    4.14    0.56
   5   7  -7    7.02    0.92
   5   7  -7    4.43    0.88
  -5  -7   7    6.82    0.88
  -5  -7   7    6.18    0.88
   4   7  -7    2.58    0.57
   4   7  -7    2.35    0.51
  -4  -7   7    2.61    0.44
  -4  -7   7    2.92    0.57
   3   7  -7   18.93    1.00
   3   7  -7   18.65    1.07
  -3  -7   7   16.37    0.87
  -3  -7   7   17.20    0.84
  -3  -7   7   19.44    1.01
   2   7  -7    7.71    0.62
   2   7  -7    6.30    0.54
   2   7  -7    8.09    4.85
   2   7  -7    5.80    0.69
  -2  -7   7    5.49    0.56
  -2  -7   7   12.61    3.86
  -2  -7   7    6.63    0.48
  -2  -7   7    6.27    0.36
   1   7  -7   14.31    4.30
   1   7  -7   15.69    0.89
   1   7  -7   15.91    0.79
   1   7  -7   15.57    0.86
  -1  -7   7   11.40    3.27
  -1  -7   7   14.18    0.75
  -1  -7   7   15.80    0.68
   0   7  -7   95.35    6.75
   0   7  -7   87.56    3.19
   0   7  -7   91.03    3.25
   0   7  -7   85.03    3.29
   0  -7   7   89.49    3.07
   0  -7   7   90.84    3.12
   0  -7   7   78.75    5.72
  -1   7  -7   17.76    4.77
  -1   7  -7   16.39    0.88
  -1   7  -7   16.15    0.73
  -1   7  -7   16.36    0.82
   1  -7   7   15.06    2.63
  -2   7  -7   10.49    2.75
  -2   7  -7    7.11    0.60
  -2   7  -7    6.98    0.37
  -2   7  -7    6.42    0.39
  -2   7  -7    6.77    0.50
   2  -7   7    7.36    2.23
  -3   7  -7   19.18    1.03
  -3   7  -7   21.89    2.89
  -3   7  -7   17.43    0.83
  -3   7  -7   18.06    0.82
   3  -7   7   16.04    2.65
  -4   7  -7    2.56    0.49
  -4   7  -7    2.48    0.34
  -4   7  -7    2.50    0.50
  -4   7  -7    2.64    0.30
  -4   7  -7    2.70    0.40
  -5   7  -7    8.39    0.82
  -5   7  -7    8.14    0.96
   5   6  -7    5.57    0.70
   5   6  -7    5.21    0.68
   5   6  -7    6.99    1.13
  -5  -6   7    6.28    0.76
  -5  -6   7    4.63    0.63
   4   6  -7   10.32    0.83
   4   6  -7   10.19    0.89
   4   6  -7   12.70    0.84
   4   6  -7   23.80    6.75
  -4  -6   7   10.31    0.86
  -4  -6   7   10.14    0.76
  -4  -6   7   10.20    5.53
  -4  -6   7   11.75    0.75
   3   6  -7    1.27    0.36
   3   6  -7    1.37    0.45
   3   6  -7    4.33    4.45
  -3  -6   7    1.21    0.29
  -3  -6   7    1.60    0.27
  -3  -6   7    1.47    0.34
  -3  -6   7    3.65    3.87
  -3  -6   7    1.42    0.38
   2   6  -7    4.78    0.44
   2   6  -7    5.04    0.51
   2   6  -7    5.42    0.52
   2   6  -7   11.25    3.87
  -2  -6   7    4.86    0.40
  -2  -6   7    4.54    0.48
  -2  -6   7    5.74    0.48
  -2  -6   7    4.72    3.04
  -2  -6   7    4.85    0.32
   1   6  -7   13.00    0.66
   1   6  -7    8.56    3.30
   1   6  -7   11.73    0.70
   1   6  -7   13.13    0.70
  -1  -6   7   16.30    3.11
  -1  -6   7   12.27    0.63
   0   6  -7   31.52    1.24
   0   6  -7   32.85    1.31
   0   6  -7   30.79    1.34
   0   6  -7   36.60    4.07
   0  -6   7   36.22    3.45
   0  -6   7   31.16    1.15
   0  -6   7   32.04    1.20
  -1   6  -7   13.30    0.71
  -1   6  -7   12.76    0.58
  -1   6  -7   14.72    2.66
  -1   6  -7   13.40    0.65
   1  -6   7   10.72    1.99
  -2   6  -7    4.87    0.45
  -2   6  -7    4.73    0.30
  -2   6  -7    5.96    1.88
  -2   6  -7    4.80    0.36
  -2   6  -7    4.93    0.29
   2  -6   7    4.27    1.59
  -3   6  -7    1.48    0.34
  -3   6  -7    1.89    0.19
  -3   6  -7    0.45    1.50
  -3   6  -7    1.83    0.26
  -3   6  -7    1.67    0.23
   3  -6   7    0.75    1.46
  -4   6  -7   10.96    0.51
  -4   6  -7   11.22    0.57
  -4   6  -7   10.70    0.71
  -4   6  -7   12.34    0.74
  -5   6  -7    5.42    0.72
  -5   6  -7    4.59    0.38
   6   5  -7    2.30    0.58
   6   5  -7    0.86    0.65
  -6  -5   7    2.06    0.64
  -6  -5   7    2.70    1.13
   5   5  -7    1.78    0.51
   5   5  -7    1.69    0.46
   5   5  -7    2.09    0.48
   5   5  -7   10.40    7.22
  -5  -5   7    2.68    0.50
  -5  -5   7    2.42    0.47
  -5  -5   7    3.27    0.53
  -5  -5   7   -1.51    5.77
   4   5  -7   13.91    0.89
   4   5  -7   15.68    0.86
   4   5  -7   13.87    0.91
   4   5  -7   13.18    5.57
  -4  -5   7   13.46    4.61
  -4  -5   7   14.78    0.88
  -4  -5   7   15.09    0.82
  -4  -5   7   14.71    0.82
  -4  -5   7   16.11    0.84
   3   5  -7   14.49    0.85
   3   5  -7   14.39    0.80
   3   5  -7   12.85    0.80
   3   5  -7   18.08    4.18
  -3  -5   7   14.42    0.71
  -3  -5   7   14.24    0.75
  -3  -5   7   14.66    0.72
  -3  -5   7   14.78    0.81
  -3  -5   7   13.37    3.60
   2   5  -7    3.55    2.77
   2   5  -7    6.31    0.48
   2   5  -7    5.84    0.48
   2   5  -7    5.89    0.44
  -2  -5   7    6.41    0.47
  -2  -5   7    6.19    0.44
  -2  -5   7    5.24    2.67
  -2  -5   7    5.67    0.40
  -2  -5   7    5.92    0.34
   1   5  -7   11.86    0.64
   1   5  -7   12.58    0.64
   1   5  -7   11.79    0.60
   1   5  -7   11.08    2.68
  -1  -5   7   11.97    0.43
  -1  -5   7   12.56    0.65
  -1  -5   7   12.57    0.59
  -1  -5   7   11.77    0.44
  -1  -5   7   10.80    2.44
  -1  -5   7   11.79    0.53
   0   5  -7   10.98    0.52
   0   5  -7   11.33    0.57
   0   5  -7   11.79    0.61
   0   5  -7   12.40    2.45
   0  -5   7   10.85    0.45
   0  -5   7   10.20    1.94
   0  -5   7   11.67    0.49
  -1   5  -7   11.99    0.55
  -1   5  -7   12.04    0.47
  -1   5  -7    8.72    1.88
  -1   5  -7   12.22    0.64
  -1   5  -7   12.30    0.51
   1  -5   7   11.64    1.61
  -2   5  -7    8.05    1.38
  -2   5  -7    6.46    0.46
  -2   5  -7    5.63    0.28
  -2   5  -7    5.93    0.33
  -2   5  -7    6.08    0.35
   2  -5   7    6.46    1.25
  -3   5  -7   14.67    0.73
  -3   5  -7   14.55    0.60
  -3   5  -7   14.03    1.61
  -3   5  -7   14.78    0.57
  -4   5  -7   14.43    0.73
  -4   5  -7   15.00    0.60
  -4   5  -7   14.73    0.84
  -4   5  -7   14.50    0.63
  -5   5  -7    2.14    0.24
  -5   5  -7    1.88    0.24
  -5   5  -7    1.67    0.24
  -5   5  -7    1.32    0.33
  -5   5  -7    1.36    0.48
  -6   5  -7    2.17    0.64
   6   4  -7    0.23    0.47
   6   4  -7   -0.39    0.51
  -6  -4   7    0.46    0.55
   5   4  -7    0.65    0.37
   5   4  -7    3.72    5.95
   5   4  -7    0.01    0.35
   5   4  -7    1.11    0.39
  -5  -4   7    0.58    0.40
  -5  -4   7    1.29    0.39
  -5  -4   7   -2.63    5.34
  -5  -4   7    0.30    0.36
   4   4  -7    1.01    4.33
   4   4  -7    6.89    0.54
   4   4  -7    6.85    0.60
   4   4  -7    6.36    0.63
  -4  -4   7    7.65    0.56
  -4  -4   7    7.57    0.57
  -4  -4   7    3.03    7.61
  -4  -4   7    7.24    0.60
  -4  -4   7    7.17    0.58
   3   4  -7   27.79    4.43
   3   4  -7   26.77    1.25
   3   4  -7   28.35    1.23
   3   4  -7   29.62    1.26
  -3  -4   7   27.97    1.24
  -3  -4   7   30.61    4.34
  -3  -4   7   30.84    1.21
  -3  -4   7   30.19    1.23
  -3  -4   7   30.07    1.21
   2   4  -7   19.44    0.89
   2   4  -7   18.95    0.86
   2   4  -7   17.87    3.27
   2   4  -7   19.55    0.89
  -2  -4   7   19.61    0.83
  -2  -4   7   20.16    0.80
  -2  -4   7   20.43    0.88
  -2  -4   7   21.38    3.43
  -2  -4   7   18.77    0.87
   1   4  -7   12.78    0.62
   1   4  -7   14.03    2.60
   1   4  -7   13.32    0.65
   1   4  -7   12.42    0.58
  -1  -4   7   13.25    0.55
  -1  -4   7   12.89    0.59
  -1  -4   7   13.38    2.26
  -1  -4   7   12.69    0.63
  -1  -4   7   12.94    0.48
   0   4  -7   34.08    1.29
   0   4  -7   30.87    2.75
   0   4  -7   33.15    1.24
   0   4  -7   33.12    1.20
   0  -4   7   27.28    2.54
   0  -4   7   32.17    1.15
   0  -4   7   32.79    1.18
  -1   4  -7   12.88    1.71
  -1   4  -7   13.10    0.51
  -1   4  -7   13.38    0.55
  -1   4  -7   12.69    0.61
  -1   4  -7   12.61    0.50
   1  -4   7   14.29    1.45
  -2   4  -7   18.93    0.72
  -2   4  -7   19.55    0.85
  -2   4  -7   20.23    0.70
  -2   4  -7   18.89    0.80
  -2   4  -7   17.84    1.52
   2  -4   7   20.80    1.41
  -3   4  -7   28.93    1.03
  -3   4  -7   29.63    1.04
  -3   4  -7   27.95    1.21
  -4   4  -7    7.16    0.43
  -4   4  -7    6.99    0.37
  -4   4  -7    7.09    0.36
  -4   4  -7    7.56    0.60
  -5   4  -7    1.03    0.25
  -5   4  -7    0.96    0.21
  -5   4  -7    0.57    0.13
  -5   4  -7   -0.06    0.71
  -5   4  -7    1.37    0.66
  -5   4  -7    0.62    0.38
  -6   4  -7    0.85    0.50
  -6   4  -7    0.33    0.53
  -6   4  -7    1.09    0.31
   6   3  -7    3.88    0.56
   6   3  -7    3.48    0.53
   6   3  -7    4.02    0.48
  -6  -3   7    2.99    0.59
  -6  -3   7    4.55    0.70
  -6  -3   7    3.97    0.63
   5   3  -7   22.94    1.15
   5   3  -7   24.84    1.24
   5   3  -7   23.51    1.14
  -5  -3   7   22.50    1.13
  -5  -3   7   25.35    5.55
  -5  -3   7   23.38    1.21
  -5  -3   7   24.01    1.23
   4   3  -7   39.40    5.53
   4   3  -7   33.46    1.46
   4   3  -7   34.29    1.43
   4   3  -7   34.21    1.42
  -4  -3   7   33.86    1.41
  -4  -3   7   33.03    1.45
  -4  -3   7   33.09    1.41
  -4  -3   7   34.07    1.45
   3   3  -7   17.18    0.82
   3   3  -7   17.69    0.84
   3   3  -7   16.52    0.82
   3   3  -7   17.25    3.32
  -3  -3   7   17.35    0.80
  -3  -3   7   17.31    0.80
  -3  -3   7   16.62    0.82
  -3  -3   7   17.69    0.79
  -3  -3   7   21.61    3.34
   2   3  -7   57.88    2.19
   2   3  -7   59.03    2.18
   2   3  -7   64.90    4.69
   2   3  -7   58.08    2.20
  -2  -3   7   60.06    2.18
  -2  -3   7   59.70    4.44
  -2  -3   7   62.25    2.19
  -2  -3   7   59.81    2.15
  -2  -3   7   55.55    2.12
   1   3  -7   79.43    2.74
   1   3  -7   75.90    2.75
   1   3  -7   76.77    4.59
   1   3  -7   75.33    2.77
  -1  -3   7   80.70    2.77
  -1  -3   7   79.42    2.73
  -1  -3   7   73.22    4.44
  -1  -3   7   75.29    2.70
   0   3  -7   35.36    2.64
   0   3  -7   38.50    1.38
   0   3  -7   38.66    1.45
   0   3  -7   38.34    1.40
   0  -3   7   39.99    1.44
   0  -3   7   38.29    1.35
   0  -3   7   38.08    2.51
  -1   3  -7   74.12    2.54
  -1   3  -7   71.82    2.63
  -1   3  -7   79.58    3.37
  -1   3  -7   72.89    2.52
  -1   3  -7   70.38    2.56
   1  -3   7   76.57    3.15
  -2   3  -7   58.67    2.12
  -2   3  -7   57.93    2.13
  -3   3  -7   15.56    0.78
  -3   3  -7   16.16    0.69
  -3   3  -7   16.18    0.62
  -3   3  -7   16.25    0.59
  -4   3  -7   33.98    1.23
  -4   3  -7   33.96    1.23
  -4   3  -7   32.62    1.24
  -4   3  -7   31.94    1.79
  -4   3  -7   33.14    2.01
  -4   3  -7   33.81    1.47
  -5   3  -7   22.04    1.21
  -5   3  -7   22.36    2.32
  -5   3  -7   22.52    0.94
  -5   3  -7   23.96    0.96
  -5   3  -7   18.76    2.49
  -6   3  -7    3.30    0.53
  -6   3  -7    4.59    0.75
  -6   3  -7    5.92    2.19
  -6   3  -7    3.36    0.41
  -6   3  -7    4.11    0.46
   6   2  -7    6.50    0.81
   6   2  -7    5.90    0.38
   6   2  -7    6.67    0.68
  -6  -2   7    7.70    0.81
  -6  -2   7    8.01    0.80
  -6  -2   7    7.28    0.86
   5   2  -7    9.81    0.67
   5   2  -7   10.43    0.56
   5   2  -7    9.18    0.80
   5   2  -7    9.35    0.77
   5   2  -7   10.24    0.53
  -5  -2   7    9.86    0.70
  -5  -2   7   13.71    4.61
  -5  -2   7   10.11    0.78
  -5  -2   7   10.90    0.70
  -5  -2   7    9.03    0.73
  -5  -2   7   12.58    4.36
   4   2  -7   28.39    1.25
   4   2  -7   30.17    1.25
   4   2  -7   28.36    1.22
  -4  -2   7   26.95    4.32
  -4  -2   7   29.76    1.25
  -4  -2   7   29.94    1.23
  -4  -2   7   24.12    5.01
  -4  -2   7   28.64    1.28
  -4  -2   7   27.94    1.24
   3   2  -7    0.79    2.21
   3   2  -7    2.58    0.28
   3   2  -7    2.28    0.30
   3   2  -7    2.84    0.31
  -3  -2   7    2.39    0.29
  -3  -2   7    2.21    0.29
  -3  -2   7    2.54    0.31
  -3  -2   7    2.47    2.07
  -3  -2   7    2.13    0.28
   2   2  -7   85.95    2.96
   2   2  -7   85.95    2.99
   2   2  -7   78.54    2.94
   2   2  -7   81.54    5.09
   2   2  -7   84.89    2.97
  -2  -2   7   80.90    5.02
  -2  -2   7   81.64    2.94
  -2  -2   7   87.08    2.98
  -2  -2   7   83.23    2.96
  -2  -2   7   79.22    2.93
   1   2  -7   56.06    1.97
   1   2  -7   50.45    1.94
   1   2  -7   54.91    1.94
   1   2  -7   56.75    3.54
   1   2  -7   51.44    1.89
  -1  -2   7   56.50    1.88
  -1  -2   7   52.07    1.92
  -1  -2   7   52.78    1.96
  -1  -2   7   55.49    1.92
  -1  -2   7   58.51    3.49
   0   2  -7    8.88    0.38
   0   2  -7    9.10    0.43
   0   2  -7    9.12    0.39
   0   2  -7    9.16    0.34
   0   2  -7   10.34    1.31
   0  -2   7    9.45    0.43
   0  -2   7    8.88    0.36
   0  -2   7    9.84    0.36
   0  -2   7    8.69    1.22
  -1   2  -7   54.58    1.94
  -1   2  -7   54.12    1.93
   1  -2   7   52.96    2.17
   1  -2   7   55.86    2.16
  -2   2  -7   82.55    2.91
  -2   2  -7   79.90    2.86
  -3   2  -7    2.66    0.16
  -3   2  -7    3.06    0.35
  -3   2  -7    2.92    0.59
  -3   2  -7    2.93    0.17
  -3   2  -7    2.53    0.22
  -3   2  -7    2.43    0.58
  -4   2  -7   28.40    1.07
  -4   2  -7   29.32    1.31
  -4   2  -7   27.70    1.08
  -4   2  -7   25.25    2.13
  -4   2  -7   26.46    2.22
  -4   2  -7   29.32    1.05
  -5   2  -7    9.78    0.56
  -5   2  -7    8.03    1.97
  -5   2  -7    9.74    0.81
  -5   2  -7   11.74    0.62
  -6   2  -7    7.07    0.59
  -6   2  -7    7.54    0.63
  -6   2  -7    6.58    0.90
  -6   2  -7    6.44    0.63
   7   1  -7    6.18    0.73
  -7  -1   7    5.27    1.04
  -7  -1   7    5.15    0.81
   6   1  -7   15.56    1.04
   6   1  -7   17.80    0.91
  -6  -1   7   17.22    1.04
  -6  -1   7   16.83    1.11
  -6  -1   7   17.46    1.08
   5   1  -7   16.08    0.90
   5   1  -7   15.96    0.65
   5   1  -7   16.16    0.66
   5   1  -7   18.06    0.84
  -5  -1   7   17.26    0.87
  -5  -1   7   15.00    0.95
  -5  -1   7   20.29    4.64
  -5  -1   7   16.23    0.90
  -5  -1   7   20.78    4.55
  -5  -1   7   14.50    0.85
   4   1  -7   13.43    0.69
   4   1  -7   12.66    0.56
   4   1  -7   12.47    0.76
   4   1  -7   12.22    0.64
   4   1  -7   12.82    0.68
  -4  -1   7   11.81    0.66
  -4  -1   7    8.11    3.15
  -4  -1   7   11.90    0.71
  -4  -1   7   12.75    0.67
  -4  -1   7   11.51    3.31
  -4  -1   7   12.41    0.68
   3   1  -7    0.93    0.15
   3   1  -7    1.27    0.22
   3   1  -7    1.03    0.22
   3   1  -7    1.42    0.25
   3   1  -7    1.11    0.21
  -3  -1   7    1.86    1.97
  -3  -1   7   -0.05    1.81
  -3  -1   7    0.87    0.19
  -3  -1   7    0.80    0.19
  -3  -1   7    1.14    0.20
  -3  -1   7    1.00    0.21
   2   1  -7  198.25    6.89
   2   1  -7  176.32    6.88
   2   1  -7  211.91    6.88
   2   1  -7  203.25    6.89
  -2  -1   7  206.85    9.05
  -2  -1   7  198.55    6.89
  -2  -1   7  195.79    6.87
  -2  -1   7  195.79    6.87
  -2  -1   7  206.14    6.88
  -2  -1   7  210.60    8.86
   1   1  -7   52.46    1.86
   1   1  -7   55.70    1.89
   1   1  -7   53.15    1.86
   1   1  -7   50.43    1.84
  -1  -1   7   49.99    1.84
  -1  -1   7   50.85    3.20
  -1  -1   7   50.58    1.82
  -1  -1   7   54.24    1.88
  -1  -1   7   51.46    3.08
  -1  -1   7   51.02    1.84
   0   1  -7   26.82    0.99
   0   1  -7   27.84    0.99
   0   1  -7   27.76    1.00
   0   1  -7   27.59    1.06
   0   1  -7   28.22    1.04
   0  -1   7   27.92    0.98
   0  -1   7   30.12    1.04
   0  -1   7   28.20    0.99
   0  -1   7   29.59    1.75
  -1   1  -7   55.08    1.84
  -1   1  -7   50.06    2.12
  -1   1  -7   54.45    1.89
   1  -1   7   52.14    1.84
   1  -1   7   50.49    2.04
  -2   1  -7  196.34    6.91
  -2   1  -7  216.67    7.20
  -2   1  -7  185.65    6.87
   2  -1   7  210.29    7.31
  -3   1  -7    1.37    0.80
  -3   1  -7    0.90    0.13
  -3   1  -7    0.94    0.12
  -3   1  -7    1.11    0.13
  -3   1  -7    1.08    0.24
  -4   1  -7   12.00    0.50
  -4   1  -7   12.32    1.83
  -4   1  -7   11.85    1.88
  -4   1  -7   11.94    0.56
  -4   1  -7   11.90    0.74
  -4   1  -7   11.91    0.55
  -4   1  -7   11.72    0.54
  -5   1  -7   16.68    1.03
  -5   1  -7   16.47    0.78
  -5   1  -7   16.24    0.76
  -5   1  -7   15.53    0.74
  -5   1  -7   14.52    2.47
  -5   1  -7   16.16    2.74
  -6   1  -7   17.47    0.87
  -6   1  -7   18.31    1.25
  -6   1  -7   16.98    0.92
  -6   1  -7   17.40    0.92
  -7   1  -7    5.90    0.72
  -7   0   7    1.06    0.57
   6   0  -7    0.77    0.44
   6   0  -7    0.80    0.31
  -6   0   7    1.18    0.51
  -6   0   7    0.85    0.45
  -6   0   7    1.48    0.44
   5   0  -7   27.22    1.21
   5   0  -7   27.83    1.15
   5   0  -7   24.99    1.36
  -5   0   7   26.13    1.21
  -5   0   7   31.98    4.85
  -5   0   7   28.96    1.32
  -5   0   7   25.28    1.24
  -5   0   7   26.44    1.20
  -5   0   7   27.28    5.12
   4   0  -7    5.87    0.47
   4   0  -7    5.70    0.40
   4   0  -7    5.24    0.27
   4   0  -7    5.46    0.52
  -4   0   7    6.21    3.03
  -4   0   7    5.26    0.47
  -4   0   7    5.76    0.46
  -4   0   7    4.53    0.40
  -4   0   7    5.78    0.44
  -4   0   7    7.34    2.55
   3   0  -7   14.87    0.80
   3   0  -7   17.65    0.75
   3   0  -7   18.19    0.79
   3   0  -7   16.56    0.68
   3   0  -7   18.05    0.77
  -3   0   7   19.89    3.00
  -3   0   7   17.08    0.79
  -3   0   7   16.26    0.81
  -3   0   7   16.77    0.79
  -3   0   7   18.00    0.76
  -3   0   7   22.81    3.00
   2   0  -7   48.79    1.88
   2   0  -7   53.04    1.85
   2   0  -7   52.70    1.88
   2   0  -7   49.20    1.91
   2   0  -7   53.41    1.91
  -2   0   7   48.40    3.46
  -2   0   7   54.25    1.92
  -2   0   7   53.85    1.89
  -2   0   7   51.39    1.89
  -2   0   7   51.50    1.87
   1   0  -7   23.11    0.84
   1   0  -7   23.08    0.83
   1   0  -7   21.20    0.83
   1   0  -7   18.34    0.86
   1   0  -7   23.37    0.86
   1   0  -7   23.30    1.93
  -1   0   7   21.03    0.83
  -1   0   7   20.59    0.81
  -1   0   7   22.79    0.86
  -1   0   7   22.40    0.83
  -1   0   7   22.11    0.82
  -1   0   7   22.29    1.84
   0   0  -7    0.13    0.43
   0   0  -7    1.16    0.12
   0   0   7    1.04    0.56
   0   0   7    0.88    0.12
  -1   0  -7   22.02    0.79
  -1   0  -7   22.08    0.85
  -1   0  -7   21.58    1.29
  -1   0  -7   21.90    0.79
  -1   0  -7   21.63    0.78
   1   0   7   22.73    0.79
   1   0   7   24.35    1.37
   1   0   7   22.27    0.77
   1   0   7   22.80    0.87
   1   0   7   22.15    0.77
  -2   0  -7   48.76    2.52
  -2   0  -7   50.33    1.75
  -2   0  -7   52.37    1.79
  -2   0  -7   51.00    1.78
  -2   0  -7   52.90    1.84
   2   0   7   49.64    2.71
  -3   0  -7   16.79    0.69
  -3   0  -7   21.24    1.96
  -3   0  -7   16.80    0.69
  -3   0  -7   17.43    0.64
  -3   0  -7   16.93    0.67
   3   0   7   15.58    0.69
  -4   0  -7    5.55    0.31
  -4   0  -7    4.89    0.51
  -4   0  -7    5.59    0.31
  -4   0  -7    5.87    0.38
  -4   0  -7    4.82    1.71
  -4   0  -7    5.11    0.34
   4   0   7    5.05    1.95
  -5   0  -7   27.97    1.08
  -5   0  -7   27.39    1.40
  -5   0  -7   28.87    1.20
  -5   0  -7   28.17    1.17
  -5   0  -7   24.83    3.37
  -6   0  -7    0.50    0.37
  -6   0  -7    0.74    0.23
  -6   0  -7    0.48    0.53
  -7   0  -7    1.01    0.57
  -7   1   7    5.76    0.73
   6  -1  -7   18.49    0.84
   6  -1  -7   15.27    0.95
  -6   1   7   17.20    1.10
  -6   1   7   16.28    1.09
  -6   1   7   19.75    1.03
   5  -1  -7   14.33    0.99
   5  -1  -7   16.18    0.75
   5  -1  -7   15.73    0.84
  -5   1   7   15.64    0.91
  -5   1   7   18.83    4.39
  -5   1   7   16.05    0.95
  -5   1   7   16.56    3.88
  -5   1   7   16.05    0.88
   4  -1  -7   12.78    0.65
   4  -1  -7   12.39    0.58
   4  -1  -7   11.33    0.46
   4  -1  -7   11.06    0.74
  -4   1   7   11.75    0.69
  -4   1   7   12.34    0.62
  -4   1   7   11.44    0.69
  -4   1   7   11.45    0.65
  -4   1   7   13.12    3.03
  -4   1   7   14.99    3.26
   3  -1  -7    0.90    0.24
   3  -1  -7    1.34    0.22
   3  -1  -7    0.99    0.13
   3  -1  -7    0.90    0.16
  -3   1   7    0.92    0.17
  -3   1   7    1.15    0.22
  -3   1   7    1.36    0.22
  -3   1   7    0.88    0.22
  -3   1   7   -0.51    1.46
   2  -1  -7  207.37    6.96
   2  -1  -7  196.91    6.88
   2  -1  -7  194.11    6.86
   2  -1  -7  206.83    8.78
   2  -1  -7  204.82    6.90
  -2   1   7  208.34    6.90
  -2   1   7  193.41    6.88
  -2   1   7  212.14    8.67
  -2   1   7  189.28    6.92
  -2   1   7  201.54    6.92
  -2   1   7  198.60    6.86
   1  -1  -7   50.34    1.84
   1  -1  -7   52.69    1.87
   1  -1  -7   50.76    1.85
   1  -1  -7   53.96    1.87
   1  -1  -7   53.63    3.04
  -1   1   7   57.28    1.87
  -1   1   7   50.72    1.88
  -1   1   7   59.66    3.05
  -1   1   7   51.42    1.84
  -1   1   7   49.99    1.85
  -1   1   7   48.37    1.87
   0  -1  -7   28.85    1.88
   0  -1  -7   26.25    1.05
   0  -1  -7   27.24    1.00
   0  -1  -7   30.50    1.06
   0  -1  -7   27.80    1.05
   0   1   7   26.73    0.98
   0   1   7   25.82    1.76
   0   1   7   28.76    1.06
   0   1   7   27.12    1.00
  -1  -1  -7   51.14    1.86
  -1  -1  -7   53.46    1.81
  -1  -1  -7   44.51    2.53
  -1  -1  -7   50.32    1.81
   1   1   7   53.66    1.86
   1   1   7   53.58    1.79
   1   1   7   50.13    1.77
   1   1   7   52.66    1.80
   1   1   7   51.37    2.71
  -2  -1  -7  198.17    6.77
  -2  -1  -7  200.83    6.82
  -2  -1  -7  184.76    7.87
  -2  -1  -7  199.00    6.79
   2   1   7  198.13    6.76
   2   1   7  197.00    6.75
   2   1   7  200.99    6.82
   2   1   7  209.08    8.22
  -3  -1  -7    0.88    0.16
  -3  -1  -7    0.83    0.14
  -3  -1  -7    1.30    0.18
  -3  -1  -7   -0.20    1.19
   3   1   7    0.90    0.16
   3   1   7    1.27    0.14
   3   1   7   -0.08    1.33
  -4  -1  -7   12.10    0.46
  -4  -1  -7   10.75    0.64
  -4  -1  -7   11.49    0.62
  -4  -1  -7   12.39    0.78
  -4  -1  -7   11.80    2.38
  -4  -1  -7   12.85    0.56
   4   1   7   13.24    2.80
   4   1   7   11.96    0.49
   4   1   7   11.41    0.56
  -5  -1  -7   16.48    1.02
  -5  -1  -7   15.78    0.78
  -5  -1  -7   15.97    0.63
  -5  -1  -7   16.33    0.84
  -5  -1  -7   11.24    3.09
   5   1   7   15.37    0.59
   5   1   7   15.54    0.59
   5   1   7   14.41    0.68
   5   1   7   16.90    4.17
  -6  -1  -7   19.95    1.28
  -6  -1  -7   19.02    1.04
  -6  -1  -7   17.39    0.98
  -7  -1  -7    6.26    0.80
   6  -2  -7    7.12    0.50
   6  -2  -7    5.91    0.62
  -6   2   7    7.59    0.80
  -6   2   7    8.06    0.71
   5  -2  -7   12.02    0.89
   5  -2  -7   10.86    0.56
   5  -2  -7   10.13    0.65
  -5   2   7   11.60    0.75
  -5   2   7    8.55    5.62
  -5   2   7    9.45    0.75
  -5   2   7   12.01    0.80
  -5   2   7    9.56    4.23
  -5   2   7    9.38    0.89
   4  -2  -7   26.87    1.22
   4  -2  -7   27.46    1.31
   4  -2  -7   29.70    1.12
  -4   2   7   29.29    1.27
  -4   2   7   21.18    3.76
  -4   2   7   32.12    4.08
  -4   2   7   28.03    1.15
  -4   2   7   28.08    1.25
  -4   2   7   28.30    1.19
   3  -2  -7    2.54    0.24
   3  -2  -7    2.51    0.19
   3  -2  -7    2.49    0.28
   3  -2  -7   -0.10    1.78
   3  -2  -7    2.48    0.34
  -3   2   7    2.45    0.29
  -3   2   7    2.32    0.24
  -3   2   7    3.61    1.72
  -3   2   7    2.23    0.20
  -3   2   7    3.04    0.35
   2  -2  -7   87.85    3.01
   2  -2  -7   84.55    2.91
   2  -2  -7   81.63    2.91
   2  -2  -7   85.71    2.93
   2  -2  -7   77.86    4.65
  -2   2   7   86.73    2.91
  -2   2   7   77.44    2.91
  -2   2   7   85.55    2.94
  -2   2   7   82.30    2.98
  -2   2   7   82.81    4.48
  -2   2   7   78.24    2.95
   1  -2  -7   58.73    1.95
   1  -2  -7   57.52    1.99
   1  -2  -7   52.00    3.21
   1  -2  -7   54.11    1.95
   1  -2  -7   57.49    1.98
  -1   2   7   47.50    1.96
  -1   2   7   55.73    1.96
  -1   2   7   53.84    1.93
  -1   2   7   55.62    1.97
   0  -2  -7    9.25    0.46
   0  -2  -7   10.19    0.41
   0  -2  -7    9.50    0.43
   0  -2  -7    9.22    0.42
   0  -2  -7   10.08    1.44
   0   2   7    9.52    0.47
   0   2   7    9.49    0.42
   0   2   7    7.75    1.32
   0   2   7    9.68    0.40
  -1  -2  -7   60.31    3.18
  -1  -2  -7   56.98    2.04
  -1  -2  -7   53.71    2.00
   1   2   7   57.01    1.99
   1   2   7   56.33    2.04
   1   2   7   56.13    3.24
   1   2   7   53.78    1.97
  -2  -2  -7   84.78    2.90
  -2  -2  -7   80.59    4.39
  -2  -2  -7   84.61    2.96
  -2  -2  -7   84.24    2.94
   2   2   7   80.20    2.82
   2   2   7   85.22    2.91
   2   2   7   83.01    2.90
   2   2   7   84.26    4.66
   2   2   7   79.18    2.95
  -3  -2  -7    2.63    0.27
  -3  -2  -7    2.37    0.24
  -3  -2  -7    3.07    0.29
  -3  -2  -7    2.25    1.98
   3   2   7    2.22    0.29
   3   2   7    2.33    0.22
   3   2   7    2.49    0.24
   3   2   7    2.50    1.83
  -4  -2  -7   28.29    1.15
  -4  -2  -7   29.87    1.22
  -4  -2  -7   25.54    3.66
   4   2   7   28.34    4.07
   4   2   7   27.99    1.11
   4   2   7   27.51    1.16
   4   2   7   28.94    1.11
  -5  -2  -7   10.17    0.66
  -5  -2  -7   10.85    0.88
  -5  -2  -7    7.69    3.28
  -5  -2  -7   10.51    0.42
  -5  -2  -7   10.50    0.72
   5   2   7   15.27    4.42
   5   2   7   11.35    0.56
   5   2   7   10.45    0.54
   5   2   7   11.62    0.63
  -6  -2  -7    8.13    0.98
  -6  -2  -7    7.32    0.78
   6   2   7    7.57    0.43
   6  -3  -7    3.75    0.40
  -6   3   7    3.72    0.64
  -6   3   7    3.51    0.45
   5  -3  -7   23.66    0.96
   5  -3  -7   23.89    1.32
   5  -3  -7   23.60    1.71
  -5   3   7   22.76    1.21
  -5   3   7   21.24    1.19
  -5   3   7   24.91    5.13
  -5   3   7   24.60    1.06
  -5   3   7   22.91    4.22
  -5   3   7   23.58    1.15
   4  -3  -7   33.62    1.33
   4  -3  -7   34.71    1.28
   4  -3  -7   32.55    1.53
  -4   3   7   33.27    1.45
  -4   3   7   31.47    1.35
  -4   3   7   32.96    1.21
  -4   3   7   32.87    1.32
  -4   3   7   34.56    1.45
  -4   3   7   36.02    5.64
   3  -3  -7   16.53    0.86
   3  -3  -7   17.53    0.75
   3  -3  -7   16.50    0.69
   3  -3  -7   17.12    0.72
   3  -3  -7   15.25    2.93
  -3   3   7   16.11    0.76
  -3   3   7   17.36    0.83
  -3   3   7   17.01    0.73
  -3   3   7   20.56    2.95
  -3   3   7   18.07    0.82
  -3   3   7   15.32    0.70
   2  -3  -7   57.89    2.17
   2  -3  -7   57.69    2.16
   2  -3  -7   61.03    4.02
   2  -3  -7   59.47    2.24
   2  -3  -7   61.73    2.16
  -2   3   7   62.89    2.21
  -2   3   7   62.57    2.19
  -2   3   7   59.73    2.17
  -2   3   7   58.79    2.14
   1  -3  -7   76.10    2.71
   1  -3  -7   71.40    2.73
   1  -3  -7   80.36    2.75
   1  -3  -7   81.52    4.47
   1  -3  -7   75.38    2.69
  -1   3   7   73.67    2.74
  -1   3   7   78.70    2.68
  -1   3   7   79.83    2.72
  -1   3   7   75.50    2.72
  -1   3   7   77.42    4.14
   0  -3  -7   40.18    1.45
   0  -3  -7   35.06    2.69
   0  -3  -7   41.15    1.45
   0  -3  -7   35.26    1.47
   0  -3  -7   38.80    1.41
   0   3   7   36.77    1.48
   0   3   7   42.56    2.88
   0   3   7   39.50    1.44
   0   3   7   41.96    1.42
  -1  -3  -7   73.46    2.69
  -1  -3  -7   76.98    2.67
  -1  -3  -7   71.59    2.60
   1   3   7   77.50    2.70
   1   3   7   75.57    2.62
   1   3   7   75.17    2.64
   1   3   7   67.83    4.23
  -2  -3  -7   65.75    4.04
  -2  -3  -7   59.83    2.23
  -2  -3  -7   59.53    2.15
  -2  -3  -7   58.76    2.21
   2   3   7   58.10    2.10
   2   3   7   59.14    2.17
   2   3   7   60.92    4.34
   2   3   7   61.86    2.18
   2   3   7   62.07    2.24
  -3  -3  -7   16.84    0.79
  -3  -3  -7   17.00    0.81
  -3  -3  -7   16.20    0.73
  -3  -3  -7   18.37    2.88
   3   3   7   17.16    0.81
   3   3   7   18.10    3.18
   3   3   7   16.45    0.74
   3   3   7   17.06    0.74
   3   3   7   16.76    0.64
  -4  -3  -7   34.03    4.30
  -4  -3  -7   34.00    1.44
  -4  -3  -7   33.25    1.35
   4   3   7   41.62    5.49
   4   3   7   34.20    1.35
   4   3   7   34.75    1.36
  -5  -3  -7   15.66    4.06
  -5  -3  -7   23.56    1.13
  -5  -3  -7   23.23    1.33
  -5  -3  -7   21.62    1.04
   5   3   7   20.23    0.97
   5   3   7   23.16    1.07
   5   3   7   22.58    1.00
   5   3   7   26.11    5.59
  -6  -3  -7    3.77    0.62
  -6  -3  -7    2.80    0.70
   6   3   7    4.43    0.49
  -6   4   7   -0.04    0.38
  -6   4   7   -0.01    0.49
   5  -4  -7    0.53    0.21
   5  -4  -7    1.12    0.29
  -5   4   7    0.54    0.35
  -5   4   7    1.00    0.28
  -5   4   7    0.76    0.40
   4  -4  -7    6.78    0.74
   4  -4  -7    7.17    0.42
   4  -4  -7    7.46    0.50
   4  -4  -7    2.27    2.89
  -4   4   7    8.09    0.49
  -4   4   7    7.22    0.42
  -4   4   7    7.83    0.53
  -4   4   7    7.30    0.58
  -4   4   7    3.22    2.64
  -4   4   7    6.35    0.65
   3  -4  -7   29.73    1.16
   3  -4  -7   30.68    1.18
   3  -4  -7   27.82    1.31
  -3   4   7   29.76    1.15
  -3   4   7   30.57    3.42
  -3   4   7   27.27    1.17
  -3   4   7   31.30    1.25
  -3   4   7   30.13    1.20
   2  -4  -7   18.27    2.73
   2  -4  -7   19.88    0.84
   2  -4  -7   20.33    0.84
   2  -4  -7   19.73    0.92
   2  -4  -7   20.03    0.87
  -2   4   7   20.76    0.82
  -2   4   7   20.44    0.86
  -2   4   7   20.12    0.87
  -2   4   7   21.69    0.89
   1  -4  -7   13.29    0.57
   1  -4  -7   12.51    0.64
   1  -4  -7   14.21    2.38
   1  -4  -7   13.80    0.61
   1  -4  -7   13.72    0.62
  -1   4   7   13.35    0.61
  -1   4   7   13.01    0.56
  -1   4   7   12.88    0.60
  -1   4   7   13.46    2.08
  -1   4   7   12.85    0.64
   0  -4  -7   33.63    1.34
   0  -4  -7   32.27    1.29
   0  -4  -7   33.57    1.23
   0  -4  -7   32.00    1.26
   0  -4  -7   33.14    2.86
   0   4   7   34.56    1.35
   0   4   7   33.50    1.28
   0   4   7   35.47    3.02
  -1  -4  -7    9.87    0.63
  -1  -4  -7   12.04    0.59
  -1  -4  -7   12.35    0.63
  -1  -4  -7   15.29    2.22
   1   4   7   11.98    0.62
   1   4   7   12.47    0.54
   1   4   7   14.39    2.54
   1   4   7   10.95    0.70
  -2  -4  -7   18.63    0.87
  -2  -4  -7   15.69    2.61
  -2  -4  -7   19.68    0.81
  -2  -4  -7   19.37    0.89
   2   4   7   19.96    0.84
   2   4   7   19.36    0.77
   2   4   7   19.31    0.82
   2   4   7   24.52    3.44
   2   4   7   19.52    0.91
  -3  -4  -7   24.10    3.63
  -3  -4  -7   28.93    1.19
  -3  -4  -7   29.89    1.28
   3   4   7   30.25    4.50
   3   4   7   32.92    1.31
   3   4   7   29.86    1.23
   3   4   7   29.90    1.22
   3   4   7   29.16    1.12
  -4  -4  -7    7.84    3.00
  -4  -4  -7    6.49    0.51
   4   4   7    0.16    3.69
   4   4   7    7.74    0.52
   4   4   7    5.99    0.60
   4   4   7    7.47    0.53
   4   4   7    7.48    0.37
  -5  -4  -7   11.18    4.08
  -5  -4  -7    0.94    0.54
  -6  -4  -7    0.35    0.52
  -6  -4  -7    0.61    0.64
   6   4   7    0.37    0.42
  -6   5   7    2.11    0.62
  -6   5   7    1.76    0.45
   5  -5  -7    1.83    0.24
   5  -5  -7    1.60    0.29
  -5   5   7    1.73    0.44
  -5   5   7    1.91    0.23
  -5   5   7    2.25    0.35
   4  -5  -7   14.12    1.01
   4  -5  -7   20.76    4.03
   4  -5  -7   14.85    0.68
   4  -5  -7   13.61    0.72
  -4   5   7   16.21    0.85
  -4   5   7   14.27    0.71
  -4   5   7   14.40    3.30
  -4   5   7   13.19    0.95
  -4   5   7   15.19    0.82
   3  -5  -7   13.09    0.83
   3  -5  -7   14.40    0.68
   3  -5  -7   14.17    0.70
  -3   5   7   16.01    0.77
  -3   5   7   13.17    2.72
  -3   5   7   13.65    0.74
  -3   5   7   15.94    0.76
  -3   5   7   15.40    0.68
   2  -5  -7    6.19    0.40
   2  -5  -7    6.70    0.41
   2  -5  -7    5.60    0.46
   2  -5  -7    6.46    2.32
  -2   5   7    6.53    2.16
  -2   5   7    4.88    0.52
  -2   5   7    6.11    0.43
  -2   5   7    6.11    0.41
  -2   5   7    5.58    0.36
   1  -5  -7   10.04    0.67
   1  -5  -7   11.75    0.59
   1  -5  -7   13.94    2.65
   1  -5  -7   11.25    0.58
  -1   5   7   11.35    0.65
  -1   5   7   11.76    2.33
  -1   5   7   12.29    0.58
  -1   5   7   11.47    0.53
  -1   5   7   11.92    0.60
   0  -5  -7   11.33    2.22
   0  -5  -7   11.23    0.57
   0  -5  -7   11.69    0.53
   0  -5  -7   11.72    0.60
   0   5   7   11.65    0.54
   0   5   7   11.51    0.58
   0   5   7   12.26    0.67
   0   5   7   12.50    2.51
  -1  -5  -7   12.06    0.54
  -1  -5  -7   11.88    2.43
  -1  -5  -7   12.31    0.65
  -1  -5  -7   11.00    0.63
   1   5   7   11.33    0.61
   1   5   7   11.44    2.80
   1   5   7   12.57    0.59
   1   5   7   11.93    0.68
  -2  -5  -7    7.47    2.33
  -2  -5  -7    5.91    0.47
   2   5   7    6.14    0.44
   2   5   7    7.04    0.48
   2   5   7    6.21    0.37
   2   5   7    8.53    3.11
   2   5   7    5.68    0.54
  -3  -5  -7   14.83    0.84
  -3  -5  -7   14.56    0.71
  -3  -5  -7   14.09    3.27
   3   5   7   14.81    0.66
   3   5   7   13.22    0.85
   3   5   7   15.19    0.77
   3   5   7   22.04    4.32
   3   5   7   15.62    0.80
  -4  -5  -7   15.85    4.18
  -4  -5  -7   13.97    0.76
  -4  -5  -7   15.97    0.94
   4   5   7   14.53    0.66
   4   5   7   13.55    0.79
   4   5   7   15.25    0.93
   4   5   7   15.85    0.84
   4   5   7   14.71    5.21
  -5  -5  -7    1.52    0.50
  -5  -5  -7    2.09    0.58
   5   5   7    2.22    0.55
   5   5   7    2.13    0.44
   5   5   7    2.63    0.49
   5   5   7    2.41    0.27
  -6  -5  -7    1.11    0.77
  -6  -5  -7    1.89    0.64
   6   5   7    1.84    0.53
  -5   6   7    6.11    0.56
  -5   6   7    5.09    0.63
   4  -6  -7   10.04    0.62
   4  -6  -7   10.87    0.57
  -4   6   7   11.58    0.77
  -4   6   7   10.35    0.72
  -4   6   7   10.15    0.70
  -4   6   7   12.12    0.63
   3  -6  -7   -0.29    3.03
  -3   6   7   -2.46    2.43
   2  -6  -7    4.99    0.39
   2  -6  -7    7.16    2.69
   2  -6  -7    4.62    0.48
   2  -6  -7    4.79    0.41
  -2   6   7    4.53    2.43
  -2   6   7    4.23    0.48
  -2   6   7    5.94    0.38
  -2   6   7    5.55    0.44
  -2   6   7    5.29    0.43
   1  -6  -7   10.95    2.76
   1  -6  -7   13.36    0.70
   1  -6  -7   12.72    0.67
   1  -6  -7   13.06    0.61
  -1   6   7   17.41    3.17
  -1   6   7   12.19    0.67
  -1   6   7   12.57    0.60
  -1   6   7   12.74    0.77
   0  -6  -7   29.42    1.30
   0  -6  -7   31.12    1.22
   0  -6  -7   25.44    3.63
   0  -6  -7   32.74    1.28
   0   6   7   40.63    4.42
   0   6   7   32.31    1.31
   0   6   7   33.37    1.26
   0   6   7   31.24    1.39
  -1  -6  -7   13.54    0.61
  -1  -6  -7   13.44    0.65
  -1  -6  -7   13.32    0.74
  -1  -6  -7   13.63    2.86
   1   6   7   11.74    0.76
   1   6   7   12.94    0.65
   1   6   7   12.41    0.69
   1   6   7   13.37    3.37
   1   6   7   12.63    0.66
  -2  -6  -7    4.83    0.56
  -2  -6  -7    1.62    2.62
  -2  -6  -7    4.58    0.37
   2   6   7    4.05    3.06
   2   6   7    4.17    0.47
   2   6   7    5.30    0.60
   2   6   7    4.80    0.37
   2   6   7    4.58    0.45
  -3  -6  -7   -1.95    3.01
  -3  -6  -7    1.58    0.41
  -3  -6  -7    1.70    0.31
   3   6   7    2.19    0.28
   3   6   7    2.28    0.40
   3   6   7    1.68    0.35
   3   6   7    6.59    4.51
   3   6   7    2.21    0.48
  -4  -6  -7   16.40    4.62
  -4  -6  -7   12.89    0.88
   4   6   7   10.82    0.80
   4   6   7   11.54    0.62
   4   6   7    7.70    6.35
   4   6   7   11.12    0.76
   4   6   7   12.11    0.98
  -5  -6  -7    5.61    0.76
  -5  -6  -7    5.67    0.87
   5   6   7    6.87    0.78
  -5   7   7    5.40    0.69
  -5   7   7    6.09    0.64
   4  -7  -7    2.90    0.36
  -4   7   7    2.77    0.45
  -4   7   7    3.46    0.40
  -4   7   7    3.12    0.48
   3  -7  -7   17.56    1.08
   3  -7  -7   17.42    0.89
   3  -7  -7   18.32    0.84
  -3   7   7   18.05    1.03
  -3   7   7   18.65    0.94
  -3   7   7   17.92    0.82
  -3   7   7   17.17    0.97
   2  -7  -7    5.94    0.63
   2  -7  -7    6.69    0.50
   2  -7  -7    6.77    0.48
   2  -7  -7    5.38    3.34
  -2   7   7    6.87    0.46
  -2   7   7    6.29    0.51
  -2   7   7    7.32    0.65
  -2   7   7   10.76    3.39
  -2   7   7    7.50    0.59
   1  -7  -7   15.61    0.73
   1  -7  -7   15.41    0.83
   1  -7  -7   13.18    3.47
   1  -7  -7   14.85    0.81
  -1   7   7   15.33    0.80
  -1   7   7   16.65    0.77
  -1   7   7   15.65    3.75
  -1   7   7   15.27    0.95
   0  -7  -7   88.91    3.20
   0  -7  -7   92.10    3.31
   0  -7  -7   90.22    3.26
   0  -7  -7   81.52    6.34
   0   7   7   92.00    3.24
   0   7   7   88.45    3.40
   0   7   7   87.54    3.28
   0   7   7   93.77    7.16
  -1  -7  -7   17.28    0.91
  -1  -7  -7   15.09    0.75
  -1  -7  -7   15.56    3.61
  -1  -7  -7   15.62    0.78
   1   7   7   16.49    0.81
   1   7   7   15.56    0.79
   1   7   7   15.13    0.95
   1   7   7   15.27    0.84
   1   7   7   11.68    4.02
  -2  -7  -7    6.88    0.53
  -2  -7  -7    7.48    3.63
  -2  -7  -7    7.05    0.62
  -2  -7  -7    6.13    0.51
   2   7   7    5.72    5.07
   2   7   7    7.05    0.61
   2   7   7    6.75    0.73
   2   7   7    6.72    0.51
   2   7   7    7.68    0.55
  -3  -7  -7   19.04    1.07
  -3  -7  -7   16.45    4.52
   3   7   7   23.14    6.54
   3   7   7   19.15    0.91
   3   7   7   17.46    0.98
  -4  -7  -7    3.84    0.67
  -4  -7  -7    6.34    5.24
   4   7   7    1.68    8.24
   4   7   7    3.60    0.48
   4   7   7    3.55    0.56
  -5  -7  -7    5.20    0.92
   5   7   7    7.25    0.93
  -4   8   7    4.92    0.62
  -4   8   7    3.81    0.49
   3  -8  -7   14.58    0.78
  -3   8   7   14.50    1.07
  -3   8   7   14.77    0.77
  -3   8   7   16.34    0.91
   2  -8  -7    1.52    0.51
   2  -8  -7    1.38    0.33
   2  -8  -7    1.27    0.34
  -2   8   7    2.00    0.53
   1  -8  -7    5.34    0.49
   1  -8  -7    5.89    0.64
   1  -8  -7    6.71    0.60
  -1   8   7    5.54    0.74
  -1   8   7    6.61    0.52
   0  -8  -7    0.59    0.37
   0  -8  -7    0.83    0.32
   0   8   7    1.06    0.30
   0   8   7   -4.20    6.87
  -1  -8  -7    6.88    0.50
  -1  -8  -7   10.54    4.26
  -1  -8  -7    6.22    0.65
  -1  -8  -7    6.03    0.55
   1   8   7    5.90    0.56
   1   8   7    6.90    4.84
   1   8   7    6.28    0.54
  -2  -8  -7    0.89    0.50
  -2  -8  -7    0.74    0.35
   2   8   7    1.39    0.39
   2   8   7    4.48    7.94
   2   8   7    1.06    0.34
  -3  -8  -7   14.11    0.86
  -3  -8  -7   13.46    1.01
   3   8   7   12.26    0.93
   3   8   7   13.05    0.90
  -4  -8  -7    3.21    0.83
   4   8   7    4.74    0.61
   4   8   7    5.45    0.75
  -3   9   7    0.39    0.43
  -3   9   7    0.91    0.42
   2  -9  -7    0.86    0.40
  -2   9   7    0.01    0.34
   1  -9  -7    7.46    0.82
   1  -9  -7    7.64    0.72
   1  -9  -7    8.04    0.62
  -1   9   7    7.57    0.60
   0  -9  -7    0.87    0.43
   0  -9  -7    0.24    0.33
   0  -9  -7   -0.23    0.43
   0   9   7    0.25    0.36
   0   9   7    0.71    0.43
  -1  -9  -7    8.55    0.71
  -1  -9  -7    9.26    0.90
   1   9   7    7.30    0.75
   1   9   7    7.10    0.68
  -2  -9  -7    1.03    0.60
  -2  -9  -7    0.24    0.39
   2   9   7    0.82    0.45
   2   9   7    0.66    0.45
  -3  -9  -7   -0.16    0.71
   3   9   7    0.93    0.50
   3   9   7    0.50    0.57
   1 -10  -7    3.98    0.65
  -1  10   7    2.90    0.56
  -1  10   7    2.71    0.75
   0 -10  -7   14.39    1.14
   0  10   7   13.23    0.96
   0  10   7   14.34    1.05
  -1 -10  -7    1.81    0.71
   1  10   7    3.97    0.67
   1  10  -8    0.30    0.58
   0  10  -8    2.62    0.60
  -1  10  -8    0.33    0.47
   3   9  -8    8.23    0.95
   3   9  -8    5.34    0.88
  -3  -9   8    7.00    0.80
   2   9  -8   18.10    1.19
   2   9  -8   17.08    1.12
  -2  -9   8   17.61    1.04
  -2  -9   8   16.96    0.90
   1   9  -8    2.38    0.45
   1   9  -8    1.76    0.55
  -1  -9   8    2.32    0.38
  -1  -9   8    1.77    0.43
   0   9  -8    0.76    0.36
   0   9  -8    0.42    0.45
  -1   9  -8    2.72    0.53
  -1   9  -8    1.74    0.52
  -1   9  -8    1.69    0.39
  -2   9  -8   16.32    0.99
  -2   9  -8   15.28    1.15
  -2   9  -8   17.70    0.87
  -3   9  -8    7.49    0.61
  -3   9  -8    8.16    0.94
   4   8  -8    1.81    0.64
   4   8  -8    2.80    0.75
  -4  -8   8    2.58    0.67
   3   8  -8   20.08    1.28
   3   8  -8   22.51    1.24
  -3  -8   8   21.88    1.23
   2   8  -8    7.58    0.76
   2   8  -8    7.11    0.71
  -2  -8   8    6.93    0.65
  -2  -8   8    5.69    0.52
   1   8  -8    4.01    0.54
   1   8  -8    4.23    0.57
   1   8  -8    3.90    0.49
  -1  -8   8    4.11    0.47
  -1  -8   8    4.01    0.38
   0   8  -8   61.37    2.53
   0   8  -8   62.25    2.47
   0   8  -8   63.73    2.41
   0  -8   8   64.95    2.23
   0  -8   8   65.24    2.27
  -1   8  -8    4.23    0.43
  -1   8  -8    3.83    0.48
  -1   8  -8    4.45    0.57
  -2   8  -8    6.76    0.71
  -2   8  -8    6.37    0.59
  -2   8  -8    7.19    0.49
  -3   8  -8   20.97    0.90
  -3   8  -8   20.74    0.90
  -3   8  -8   20.27    1.18
  -3   8  -8   20.60    0.99
  -4   8  -8    2.48    0.64
   5   7  -8   13.86    1.15
  -5  -7   8   14.37    1.13
  -5  -7   8   20.12    1.91
   4   7  -8    8.76    0.82
   4   7  -8    8.46    0.88
  -4  -7   8   11.83    0.95
  -4  -7   8   10.65    0.72
   3   7  -8    4.67    0.57
   3   7  -8    5.78    0.70
  -3  -7   8    4.21    0.52
  -3  -7   8    3.99    0.40
  -3  -7   8    4.78    0.60
   2   7  -8   -1.33    4.30
   2   7  -8    1.18    0.32
   2   7  -8    1.44    0.38
   2   7  -8    0.88    0.40
  -2  -7   8    1.34    0.15
  -2  -7   8    5.96    3.75
  -2  -7   8    1.68    0.35
  -2  -7   8    1.32    0.27
  -2  -7   8    1.68    0.17
   1   7  -8    3.79    0.48
   1   7  -8    3.81    0.49
   1   7  -8    2.70    3.70
   1   7  -8    3.22    0.41
  -1  -7   8    3.10    0.29
  -1  -7   8    2.79    0.36
   0   7  -8    8.43    0.54
   0   7  -8    9.49    0.65
   0   7  -8    8.34    3.37
   0   7  -8    9.95    0.65
   0  -7   8    8.18    2.59
   0  -7   8    8.94    0.41
   0  -7   8    9.72    0.45
  -1   7  -8    3.35    0.46
  -1   7  -8    4.01    0.33
  -1   7  -8    2.80    2.67
  -1   7  -8    3.49    0.46
   1  -7   8    0.48    1.94
  -2   7  -8    1.31    0.34
  -2   7  -8    1.43    0.29
  -2   7  -8    1.21    2.37
  -2   7  -8    1.39    0.21
  -2   7  -8    1.98    0.22
  -3   7  -8    4.76    0.44
  -3   7  -8    0.10    1.96
  -3   7  -8    4.80    0.40
  -3   7  -8    5.01    0.61
   3  -7   8    6.75    2.03
  -4   7  -8   10.20    0.51
  -4   7  -8   10.09    0.85
  -4   7  -8    9.98    0.83
  -4   7  -8    9.84    0.68
  -4   7  -8    9.38    0.68
  -5   7  -8   11.93    1.06
  -5   7  -8   13.44    0.96
   5   6  -8    1.01    0.54
   5   6  -8    1.23    0.51
  -5  -6   8   -0.21    0.46
  -5  -6   8    1.01    0.47
   4   6  -8    1.01    0.38
   4   6  -8    1.51    0.43
   4   6  -8   -1.22    5.84
  -4  -6   8    1.61    0.35
  -4  -6   8    1.01    0.42
  -4  -6   8    1.50    0.42
  -4  -6   8   12.21    5.64
   3   6  -8    8.65    0.72
   3   6  -8    8.68    0.63
   3   6  -8    3.02    4.43
   3   6  -8    8.50    0.68
  -3  -6   8    9.09    0.67
  -3  -6   8    7.57    0.67
  -3  -6   8   18.38    4.41
  -3  -6   8    9.13    0.61
  -3  -6   8    9.19    0.53
   2   6  -8    4.63    0.43
   2   6  -8    4.22    0.46
   2   6  -8    4.65    0.50
   2   6  -8    6.20    3.59
  -2  -6   8    4.54    0.46
  -2  -6   8    7.61    3.12
  -2  -6   8    4.36    0.27
  -2  -6   8    3.50    0.48
  -2  -6   8    3.63    0.37
   1   6  -8    5.28    0.49
   1   6  -8    3.62    0.46
   1   6  -8    5.11    0.42
   1   6  -8    1.21    3.14
  -1  -6   8    4.15    0.37
   0   6  -8    9.19    2.50
   0   6  -8    5.37    0.48
   0   6  -8    5.35    0.37
   0   6  -8    5.35    0.42
   0  -6   8    5.46    0.28
   0  -6   8    3.23    1.93
   0  -6   8    5.48    0.31
  -1   6  -8    4.68    0.39
  -1   6  -8    4.16    0.45
  -1   6  -8    4.67    0.30
   1  -6   8    4.69    1.55
  -2   6  -8    4.39    0.43
  -2   6  -8    3.86    0.26
  -2   6  -8    4.13    0.28
  -2   6  -8    4.57    0.34
  -2   6  -8    3.94    1.79
   2  -6   8    3.84    1.47
  -3   6  -8    9.22    0.54
  -3   6  -8    8.08    1.51
  -3   6  -8    9.09    0.49
  -3   6  -8   10.28    0.65
  -3   6  -8    9.20    0.42
   3  -6   8   10.55    1.44
  -4   6  -8    1.42    0.39
  -4   6  -8    1.51    0.34
  -4   6  -8    1.81    0.36
  -4   6  -8    1.55    0.23
  -4   6  -8    1.14    0.18
  -5   6  -8    0.94    0.21
  -5   6  -8    1.07    0.45
  -5   6  -8    0.85    0.42
   6   5  -8    1.48    0.65
   6   5  -8    0.99    0.58
  -6  -5   8    0.90    0.61
   5   5  -8    3.14    0.57
   5   5  -8    3.62    0.55
   5   5  -8    2.06    0.50
   5   5  -8    7.22    7.99
  -5  -5   8    3.18    0.59
  -5  -5   8    3.75    0.55
  -5  -5   8   -2.39    6.46
  -5  -5   8    2.16    0.48
   4   5  -8    7.52    0.66
   4   5  -8    6.93    0.65
   4   5  -8   11.79    5.35
   4   5  -8    7.95    0.70
  -4  -5   8    6.76    0.68
  -4  -5   8    6.42    0.61
  -4  -5   8    6.81    0.58
  -4  -5   8    6.34    0.55
   3   5  -8    1.06    0.30
   3   5  -8    5.97    3.96
   3   5  -8    1.16    0.35
  -3  -5   8    1.19    0.23
  -3  -5   8   -0.12    3.43
  -3  -5   8    1.40    0.31
  -3  -5   8    1.64    0.29
  -3  -5   8    1.36    0.31
   2   5  -8   18.23    0.88
   2   5  -8   17.55    0.87
   2   5  -8   14.43    3.64
   2   5  -8   17.00    0.82
  -2  -5   8   19.55    0.79
  -2  -5   8   17.96    0.83
  -2  -5   8   17.45    0.84
  -2  -5   8   16.75    0.71
  -2  -5   8    8.27    2.98
   1   5  -8    4.61    2.45
   1   5  -8    4.22    0.41
   1   5  -8    4.04    0.40
   1   5  -8    4.75    0.34
  -1  -5   8    3.55    0.36
  -1  -5   8    1.66    2.28
  -1  -5   8    4.48    0.29
  -1  -5   8    4.80    0.33
   0   5  -8   46.76    1.74
   0   5  -8   47.87    1.79
   0   5  -8   45.09    3.85
   0   5  -8   48.34    1.84
   0  -5   8   48.82    1.70
   0  -5   8   43.71    3.44
   0  -5   8   48.69    1.69
  -1   5  -8    4.36    0.37
  -1   5  -8    3.90    0.25
  -1   5  -8    4.59    1.56
  -1   5  -8    4.29    0.31
  -1   5  -8    4.61    0.21
   1  -5   8    4.16    1.30
  -2   5  -8   18.39    0.86
  -2   5  -8   17.22    2.04
  -2   5  -8   18.15    0.73
  -2   5  -8   18.53    0.76
  -2   5  -8   18.31    0.69
   2  -5   8   18.95    1.81
  -3   5  -8    1.42    0.14
  -3   5  -8    0.97    0.28
  -3   5  -8    1.20    0.16
  -3   5  -8    0.91    0.23
  -4   5  -8    7.39    0.59
  -4   5  -8    6.10    0.37
  -4   5  -8    7.21    0.48
  -4   5  -8    6.42    0.34
  -5   5  -8    4.07    0.41
  -5   5  -8    3.14    0.33
  -5   5  -8    2.71    0.36
  -5   5  -8    3.73    0.33
  -5   5  -8    3.43    0.52
  -6   5  -8    1.15    0.64
   6   4  -8    2.31    0.59
   6   4  -8    3.84    0.64
  -6  -4   8    2.82    0.68
  -6  -4   8    3.74    0.66
   5   4  -8    1.67    0.43
   5   4  -8    0.74    0.38
   5   4  -8    1.62    0.42
  -5  -4   8    1.48    0.42
  -5  -4   8   -3.10    5.19
  -5  -4   8    1.71    0.45
  -5  -4   8    1.61    0.42
   4   4  -8    2.05    0.36
   4   4  -8   -2.29    4.46
   4   4  -8    1.75    0.44
   4   4  -8    2.65    0.42
  -4  -4   8    2.67    0.37
  -4  -4   8    2.02    0.37
  -4  -4   8    2.57    0.37
  -4  -4   8   -1.53    6.69
  -4  -4   8    1.88    0.34
   3   4  -8   13.95    3.78
   3   4  -8    9.66    0.64
   3   4  -8    9.76    0.63
   3   4  -8   10.57    0.61
  -3  -4   8   10.37    0.64
  -3  -4   8   10.86    0.60
  -3  -4   8   10.59    3.48
  -3  -4   8   10.13    0.56
  -3  -4   8    9.74    0.61
   2   4  -8   14.73    0.71
   2   4  -8   11.35    2.74
   2   4  -8   15.10    0.73
   2   4  -8   14.41    0.73
  -2  -4   8   14.54    0.71
  -2  -4   8   14.36    2.80
  -2  -4   8   15.06    0.70
  -2  -4   8   13.73    0.61
  -2  -4   8   15.27    0.66
   1   4  -8   20.61    0.85
   1   4  -8   21.64    0.91
   1   4  -8   19.35    2.88
   1   4  -8   21.47    0.88
  -1  -4   8   19.36    0.83
  -1  -4   8   19.71    0.89
  -1  -4   8   20.08    0.70
  -1  -4   8   19.96    0.79
  -1  -4   8   21.26    2.86
   0   4  -8    4.85    0.27
   0   4  -8    5.05    0.35
   0   4  -8    3.72    1.44
   0   4  -8    4.39    0.31
   0  -4   8    4.78    0.22
   0  -4   8    3.75    1.26
   0  -4   8    4.70    0.24
  -1   4  -8   21.04    0.80
  -1   4  -8   20.44    0.76
  -1   4  -8   20.63    0.76
  -1   4  -8   18.82    1.97
  -1   4  -8   20.29    0.88
   1  -4   8   21.33    1.75
  -2   4  -8   13.70    0.63
  -2   4  -8   14.20    0.52
  -2   4  -8   14.28    0.68
  -2   4  -8   14.33    0.55
  -2   4  -8   14.91    1.20
   2  -4   8   13.99    1.03
  -3   4  -8   11.00    0.42
  -3   4  -8   10.67    0.61
  -3   4  -8   10.66    0.43
  -4   4  -8    2.10    0.38
  -4   4  -8    2.33    0.22
  -4   4  -8    2.26    0.20
  -4   4  -8    2.14    0.31
  -5   4  -8    1.55    0.45
  -5   4  -8    1.51    0.23
  -5   4  -8    1.57    0.26
  -5   4  -8    1.63    0.19
  -6   4  -8    3.03    0.69
  -6   4  -8    3.65    0.47
   6   3  -8    9.06    0.84
   6   3  -8    8.92    0.83
   6   3  -8    9.13    0.62
  -6  -3   8    9.18    1.01
  -6  -3   8    7.78    0.81
  -6  -3   8    8.71    0.94
  -5  -3   8   -1.31    4.93
  -5  -3   8   -9.59    4.70
   4   3  -8    9.48    0.62
   4   3  -8    7.64    0.63
   4   3  -8   12.22    4.15
   4   3  -8    9.32    0.60
  -4  -3   8    7.98    0.58
  -4  -3   8    9.21    0.60
  -4  -3   8    8.58    0.72
  -4  -3   8    9.62    0.63
   3   3  -8   10.66    0.59
   3   3  -8   10.19    0.59
   3   3  -8    8.90    3.09
   3   3  -8   10.01    0.60
  -3  -3   8   10.60    2.80
  -3  -3   8    9.44    0.57
  -3  -3   8    9.70    0.55
  -3  -3   8   10.53    0.60
  -3  -3   8   10.69    0.56
   2   3  -8   56.37    2.10
   2   3  -8   56.91    4.52
   2   3  -8   57.87    2.14
  -2  -3   8   48.21    4.32
  -2  -3   8   59.43    2.13
  -2  -3   8   57.47    2.08
  -2  -3   8   54.74    2.05
  -2  -3   8   59.84    2.12
   1   3  -8   15.29    0.66
   1   3  -8   14.93    2.25
   1   3  -8   13.16    0.61
   1   3  -8   14.26    0.60
  -1  -3   8   13.03    0.61
  -1  -3   8   13.62    0.56
  -1  -3   8   13.48    0.58
  -1  -3   8   13.83    2.19
  -1  -3   8   11.85    0.54
   0   3  -8   72.24    2.69
   0   3  -8   78.51    2.63
   0   3  -8   78.78    2.64
   0   3  -8   74.04    4.00
   0  -3   8   79.40    3.99
   0  -3   8   75.40    2.68
   0  -3   8   72.28    2.59
   0  -3   8   72.93    2.58
  -1   3  -8   12.85    0.59
  -1   3  -8   13.72    0.49
  -1   3  -8   11.61    1.30
  -1   3  -8   13.00    0.47
  -1   3  -8   12.06    0.52
   1  -3   8   13.19    1.13
  -2   3  -8   51.20    1.95
  -2   3  -8   54.92    1.94
  -3   3  -8   10.91    0.52
  -3   3  -8   10.34    0.40
  -3   3  -8   10.25    0.38
  -3   3  -8    9.89    0.59
  -4   3  -8    8.65    0.65
  -4   3  -8    7.98    0.41
  -4   3  -8    9.76    0.46
  -4   3  -8    8.72    0.41
  -5   3  -8    2.76    1.02
  -5   3  -8    2.26    0.46
  -5   3  -8    2.84    0.34
  -5   3  -8    2.50    1.01
  -5   3  -8    2.61    0.32
  -6   3  -8    9.65    0.64
  -6   3  -8    7.22    1.85
  -6   3  -8    9.40    0.95
  -6   3  -8    9.95    0.76
  -6   3  -8    9.29    0.75
   6   2  -8   14.87    0.89
   6   2  -8   13.55    0.60
  -6  -2   8   11.35    1.01
  -6  -2   8   12.23    0.90
  -6  -2   8   13.44    0.98
   5   2  -8   16.19    0.87
   5   2  -8   15.54    0.85
   5   2  -8   16.40    0.91
   5   2  -8   16.57    0.72
  -5  -2   8   14.45    0.86
  -5  -2   8   13.95    0.88
  -5  -2   8   10.96    4.94
  -5  -2   8   13.95    0.88
  -5  -2   8   14.66    0.89
  -5  -2   8    7.09    4.52
   4   2  -8    2.41    0.38
   4   2  -8    1.62    0.29
   4   2  -8    1.70    0.29
  -4  -2   8    3.24    2.90
  -4  -2   8    2.07    0.34
  -4  -2   8    1.49    0.32
  -4  -2   8    1.35    0.29
  -4  -2   8    2.10    0.34
   3   2  -8    3.73    0.35
   3   2  -8    3.47    0.33
   3   2  -8    3.89    0.37
   3   2  -8    4.41    0.38
  -3  -2   8    4.33    0.36
  -3  -2   8    3.31    0.33
  -3  -2   8    4.27    0.37
  -3  -2   8    4.12    0.34
  -3  -2   8    4.86    2.39
   2   2  -8  276.59   11.53
   2   2  -8  260.16    8.95
   2   2  -8  257.22    8.92
   2   2  -8  261.03    8.93
   2   2  -8  257.19    8.91
  -2  -2   8  253.58    8.90
  -2  -2   8  253.60    8.93
  -2  -2   8  256.51    8.91
  -2  -2   8  258.98    8.89
  -2  -2   8  270.51   11.39
   1   2  -8  136.93    5.23
   1   2  -8  163.11    7.06
   1   2  -8  141.33    5.15
   1   2  -8  154.33    5.20
   1   2  -8  152.95    5.21
  -1  -2   8  151.14    6.94
  -1  -2   8  157.38    5.14
  -1  -2   8  152.84    5.19
  -1  -2   8  147.63    5.23
  -1  -2   8  154.10    5.18
   0   2  -8    5.77    0.33
   0   2  -8    6.25    0.29
   0   2  -8    6.05    0.28
   0   2  -8    6.55    0.24
   0  -2   8    6.08    0.32
   0  -2   8    6.34    0.25
   0  -2   8    6.07    0.25
   0  -2   8    4.88    0.99
  -1   2  -8  147.31    5.20
   1  -2   8  148.54    5.48
   1  -2   8  158.01    5.54
  -2   2  -8  260.73    8.69
  -2   2  -8  250.61    8.66
  -2   2  -8  249.87    8.72
  -3   2  -8    4.54    0.40
  -3   2  -8    4.07    0.19
  -3   2  -8    4.02    0.28
  -3   2  -8    4.16    0.37
  -4   2  -8    1.78    0.21
  -4   2  -8    1.10    0.95
  -4   2  -8    1.64    0.19
  -4   2  -8    1.21    0.90
  -4   2  -8    1.92    0.21
  -4   2  -8    1.81    0.36
  -5   2  -8   15.91    0.73
  -5   2  -8   15.37    0.72
  -5   2  -8   13.53    2.04
  -5   2  -8   15.53    0.77
  -5   2  -8   15.61    2.20
  -5   2  -8   13.58    0.93
  -6   2  -8   12.72    0.74
  -6   2  -8    8.70    2.75
  -6   2  -8   11.76    0.76
  -6   2  -8   12.53    1.03
  -6   2  -8   12.72    0.77
   7   1  -8    4.13    0.59
  -7  -1   8    5.85    1.16
   6   1  -8    5.03    0.64
   6   1  -8    4.90    0.61
  -6  -1   8    6.50    0.80
  -6  -1   8    5.53    0.71
  -6  -1   8    4.51    0.62
   5   1  -8   39.29    1.56
   5   1  -8   38.59    1.63
   5   1  -8   38.80    1.41
  -5  -1   8   36.45    1.60
  -5  -1   8   39.08    1.69
  -5  -1   8   38.11    1.63
  -5  -1   8   28.84    5.29
  -5  -1   8   38.46    1.64
  -5  -1   8   44.17    6.39
   4   1  -8    6.71    0.52
   4   1  -8    6.86    0.51
   4   1  -8    7.22    0.39
   4   1  -8    7.08    0.48
   4   1  -8    6.33    0.58
  -4  -1   8    6.01    0.50
  -4  -1   8    7.48    0.55
  -4  -1   8    7.13    0.53
  -4  -1   8    6.82    0.52
  -4  -1   8    5.14    3.13
  -4  -1   8    4.85    2.90
   3   1  -8    6.87    0.47
   3   1  -8    6.68    0.43
   3   1  -8    5.99    0.43
   3   1  -8    6.48    0.41
   3   1  -8    6.67    0.37
  -3  -1   8    8.06    2.36
  -3  -1   8    8.48    2.26
  -3  -1   8    6.92    0.42
  -3  -1   8    5.91    0.49
  -3  -1   8    7.14    0.45
  -3  -1   8    7.12    0.43
   2   1  -8   88.60    3.48
   2   1  -8  101.63    3.49
   2   1  -8   99.51    3.49
   2   1  -8  104.31    3.52
   2   1  -8   95.13    3.46
  -2  -1   8   95.96    3.47
  -2  -1   8   95.81    5.51
  -2  -1   8  100.19    3.51
  -2  -1   8  105.09    5.50
  -2  -1   8   99.46    3.48
  -2  -1   8  103.38    3.48
   1   1  -8   26.05    1.05
   1   1  -8   26.69    1.01
   1   1  -8   27.41    1.05
   1   1  -8   27.37    1.03
   1   1  -8   27.45    1.03
  -1  -1   8   27.98    1.03
  -1  -1   8   28.56    1.02
  -1  -1   8   27.36    1.00
  -1  -1   8   26.51    2.33
  -1  -1   8   28.97    1.06
  -1  -1   8   24.78    2.21
   0   1  -8   97.13    4.18
   0   1  -8   98.02    3.27
   0   1  -8   90.63    3.21
   0   1  -8   93.44    3.29
   0   1  -8   91.36    3.21
   0   1  -8   93.44    3.23
   0  -1   8   90.62    3.21
   0  -1   8   96.29    4.14
   0  -1   8   93.62    3.20
   0  -1   8   94.71    3.30
  -1   1  -8   27.18    0.99
  -1   1  -8   27.22    1.57
  -1   1  -8   26.73    0.93
  -1   1  -8   27.15    1.04
  -1   1  -8   27.01    0.93
   1  -1   8   28.14    1.31
   1  -1   8   26.14    0.98
  -2   1  -8   92.71    3.21
  -2   1  -8   90.15    3.22
  -2   1  -8   98.73    3.27
  -2   1  -8   99.61    3.57
  -2   1  -8   96.44    3.32
   2  -1   8   91.68    3.68
  -3   1  -8    7.44    0.36
  -3   1  -8    6.69    0.96
  -3   1  -8    6.41    0.49
  -3   1  -8    6.07    0.30
  -3   1  -8    6.78    0.31
  -4   1  -8    6.68    0.35
  -4   1  -8    6.86    0.37
  -4   1  -8    6.29    0.56
  -4   1  -8    8.02    1.52
  -4   1  -8    9.62    1.72
  -4   1  -8    6.87    0.37
  -4   1  -8    7.10    0.40
  -5   1  -8   40.08    1.50
  -5   1  -8   37.01    1.44
  -5   1  -8   36.70    1.74
  -5   1  -8   33.39    3.65
  -5   1  -8   33.29    3.87
  -5   1  -8   38.76    1.46
  -6   1  -8    5.16    0.59
  -6   1  -8    4.51    0.70
  -6   1  -8    5.22    0.59
  -6   1  -8    5.81    0.48
   7   0  -8   -0.19    0.70
  -7   0   8    0.37    0.60
   6   0  -8   59.53    2.27
   6   0  -8   53.76    2.32
  -6   0   8   55.79    2.42
  -6   0   8   64.50    2.54
  -6   0   8   61.92    2.40
   5   0  -8    2.59    0.41
   5   0  -8    2.08    0.51
   5   0  -8    2.85    0.37
  -5   0   8    3.20    0.46
  -5   0   8    5.68    3.89
  -5   0   8    3.04    0.41
  -5   0   8    2.21    3.64
  -5   0   8    3.13    0.45
  -5   0   8    3.05    0.44
   4   0  -8   15.00    0.85
   4   0  -8   14.87    0.70
   4   0  -8   14.66    0.60
   4   0  -8   15.18    0.77
  -4   0   8   15.19    0.74
  -4   0   8   14.65    0.78
  -4   0   8   19.18    3.65
  -4   0   8   13.78    0.73
  -4   0   8   13.25    0.77
  -4   0   8   16.86    3.48
   3   0  -8    5.73    0.53
   3   0  -8    6.69    0.38
   3   0  -8    6.13    0.32
   3   0  -8    5.57    0.39
   3   0  -8    6.98    0.43
  -3   0   8    6.03    0.38
  -3   0   8    5.54    0.39
  -3   0   8    6.12    0.42
  -3   0   8    4.53    1.89
  -3   0   8    3.19    2.08
  -3   0   8    5.22    0.40
   2   0  -8   52.52    1.96
   2   0  -8   51.43    1.93
   2   0  -8   56.61    1.97
   2   0  -8   51.96    1.90
   2   0  -8   50.85    1.92
  -2   0   8   53.91    1.94
  -2   0   8   52.50    1.96
  -2   0   8   48.84    3.59
  -2   0   8   54.14    1.92
  -2   0   8   54.89    1.94
   1   0  -8   52.92    1.93
   1   0  -8   50.95    1.93
   1   0  -8   52.16    3.19
   1   0  -8   52.66    1.92
   1   0  -8   56.39    1.92
   1   0  -8   55.71    1.92
  -1   0   8   53.20    1.94
  -1   0   8   53.03    1.89
  -1   0   8   53.82    1.92
  -1   0   8   54.24    3.14
  -1   0   8   55.07    1.93
  -1   0   8   55.68    1.91
   0   0  -8  214.97    7.44
   0   0  -8  225.18    7.40
   0   0  -8  214.42    7.39
   0   0  -8  219.95    8.34
   0   0  -8  203.49    7.37
   0   0  -8  211.10    7.41
   0   0   8  223.08    7.41
   0   0   8  219.45    8.25
   0   0   8  222.39    7.45
   0   0   8  216.20    7.37
   0   0   8  218.18    7.39
  -1   0  -8   49.13    2.52
  -1   0  -8   54.13    1.86
  -1   0  -8   49.27    1.90
  -1   0  -8   54.29    1.93
  -1   0  -8   53.00    1.85
   1   0   8   53.51    1.84
   1   0   8   56.54    1.94
   1   0   8   53.32    1.84
   1   0   8   57.44    2.53
   1   0   8   57.32    1.86
  -2   0  -8   51.28    1.84
  -2   0  -8   51.41    1.75
  -2   0  -8   42.58    2.44
  -2   0  -8   52.64    1.77
  -2   0  -8   51.65    1.78
   2   0   8   52.15    1.85
   2   0   8   51.52    2.76
  -3   0  -8    5.81    0.31
  -3   0  -8    5.90    0.34
  -3   0  -8    5.48    0.32
  -3   0  -8    6.79    1.28
  -3   0  -8    5.95    0.26
   3   0   8    6.19    0.35
   3   0   8    7.59    1.56
  -4   0  -8   15.37    0.65
  -4   0  -8   14.66    0.63
  -4   0  -8   11.53    1.95
  -4   0  -8   14.75    0.86
  -4   0  -8   15.17    0.68
  -4   0  -8   14.88    0.59
   4   0   8   14.66    0.64
   4   0   8   14.58    2.51
  -5   0  -8    3.02    0.52
  -5   0  -8    2.94    0.36
  -5   0  -8    0.82    2.06
  -5   0  -8    2.79    0.26
  -5   0  -8    2.83    0.34
  -6   0  -8   58.34    2.30
  -6   0  -8   63.52    2.67
  -6   0  -8   58.79    2.15
  -7   0  -8    0.12    0.54
  -7   1   8    3.14    0.63
   6  -1  -8    5.78    0.70
   6  -1  -8    5.58    0.52
  -6   1   8    5.60    0.74
  -6   1   8    5.64    0.61
   5  -1  -8   41.45    1.55
   5  -1  -8   38.70    1.83
   5  -1  -8   41.48    1.62
  -5   1   8   38.44    1.72
  -5   1   8   43.32    6.06
  -5   1   8   38.05    1.70
  -5   1   8   41.06    1.62
  -5   1   8   41.57    5.67
  -5   1   8   36.29    1.64
   4  -1  -8    6.85    0.43
   4  -1  -8    7.84    0.61
   4  -1  -8    6.34    0.31
   4  -1  -8    6.85    0.50
  -4   1   8    7.37    0.53
  -4   1   8    1.94    2.76
  -4   1   8    7.12    0.52
  -4   1   8    6.64    0.52
  -4   1   8    7.78    0.49
  -4   1   8    6.87    2.68
   3  -1  -8    7.35    0.34
   3  -1  -8    6.67    0.38
   3  -1  -8    7.22    0.43
   3  -1  -8    5.89    0.47
  -3   1   8    5.43    1.99
  -3   1   8    7.02    0.47
  -3   1   8    6.29    0.42
  -3   1   8    7.03    0.45
  -3   1   8    6.07    0.39
   2  -1  -8   93.92    3.42
   2  -1  -8   95.71    5.19
   2  -1  -8   96.33    3.37
   2  -1  -8   95.12    3.36
   2  -1  -8   93.48    3.34
  -2   1   8   95.34    3.37
  -2   1   8   94.23    3.35
  -2   1   8   97.70    3.40
  -2   1   8  104.68    3.43
  -2   1   8   91.54    3.35
  -2   1   8   98.28    5.08
   1  -1  -8   27.01    1.02
   1  -1  -8   26.83    1.01
   1  -1  -8   25.47    1.03
   1  -1  -8   27.13    1.04
   1  -1  -8   27.51    2.23
  -1   1   8   27.38    1.05
  -1   1   8   25.98    2.18
  -1   1   8   26.16    1.03
  -1   1   8   29.44    1.03
  -1   1   8   28.02    1.03
  -1   1   8   27.75    1.00
   0  -1  -8   88.49    3.22
   0  -1  -8   96.61    3.25
   0  -1  -8   90.86    4.25
   0  -1  -8   89.98    3.29
   0  -1  -8   90.52    3.25
   0   1   8   86.26    3.22
   0   1   8  106.41    4.32
   0   1   8   98.04    3.26
   0   1   8   95.11    3.25
   0   1   8   98.92    3.30
  -1  -1  -8   29.12    1.08
  -1  -1  -8   23.12    2.43
  -1  -1  -8   29.00    1.02
   1   1   8   27.36    1.01
   1   1   8   28.69    1.08
   1   1   8   26.52    1.00
   1   1   8   26.89    0.98
   1   1   8   30.58    1.97
  -2  -1  -8   94.09    3.40
  -2  -1  -8   98.59    3.35
  -2  -1  -8   97.78    3.37
  -2  -1  -8   93.77    4.45
   2   1   8   94.80    3.41
   2   1   8   97.40    3.33
   2   1   8  101.77    4.79
   2   1   8   97.07    3.33
  -3  -1  -8    6.33    0.37
  -3  -1  -8    6.70    0.38
  -3  -1  -8    6.72    0.35
   3   1   8    4.59    1.51
   3   1   8    6.93    0.31
   3   1   8    6.39    0.30
   3   1   8    5.99    0.39
  -4  -1  -8    6.97    0.40
  -4  -1  -8    6.69    0.46
  -4  -1  -8    5.94    0.46
  -4  -1  -8    5.23    1.94
  -4  -1  -8    6.79    0.61
   4   1   8    7.79    0.43
   4   1   8    6.42    0.31
   4   1   8    4.24    2.38
   4   1   8    7.11    0.31
  -5  -1  -8   38.68    1.33
  -5  -1  -8   38.95    4.50
  -5  -1  -8   37.69    1.57
  -5  -1  -8   37.63    1.51
  -5  -1  -8   39.56    1.80
   5   1   8   37.81    1.44
   5   1   8   32.10    4.61
  -6  -1  -8    5.11    0.65
  -6  -1  -8    7.50    0.95
  -6  -1  -8    5.29    0.25
  -6  -1  -8    4.85    0.62
  -7  -1  -8    4.42    0.74
   6  -2  -8   13.16    0.82
   6  -2  -8   12.94    0.70
  -6   2   8   12.17    0.80
  -6   2   8   11.91    0.95
   5  -2  -8   15.59    1.08
   5  -2  -8   14.78    0.73
   5  -2  -8   15.28    0.85
  -5   2   8   15.09    0.97
  -5   2   8   15.19    4.75
  -5   2   8   15.58    0.94
  -5   2   8   19.41    4.02
  -5   2   8   16.88    0.91
  -5   2   8   16.29    0.83
   4  -2  -8    1.96    0.30
   4  -2  -8    2.28    0.42
   4  -2  -8    2.27    0.27
  -4   2   8    0.11    2.67
  -4   2   8    1.87    0.34
  -4   2   8    2.07    0.28
  -4   2   8    2.05    0.29
  -4   2   8    2.36    2.37
  -4   2   8    2.15    0.35
   3  -2  -8    3.96    0.35
   3  -2  -8    5.43    2.20
   3  -2  -8    3.80    0.25
   3  -2  -8    4.01    0.29
   3  -2  -8    3.96    0.40
  -3   2   8    4.10    0.31
  -3   2   8    3.94    0.27
  -3   2   8    4.26    0.35
  -3   2   8    3.63    0.39
  -3   2   8    3.32    1.81
  -3   2   8    4.11    0.36
   2  -2  -8  265.12    8.80
   2  -2  -8  257.79    8.80
   2  -2  -8  257.17    8.81
   2  -2  -8  259.44    8.88
   2  -2  -8  267.54   10.93
  -2   2   8  273.39   10.74
  -2   2   8  259.46    8.84
  -2   2   8  229.25    8.79
  -2   2   8  263.48    8.87
  -2   2   8  255.16    8.79
  -2   2   8  248.81    8.81
   1  -2  -8  147.86    5.25
   1  -2  -8  150.87    5.25
   1  -2  -8  146.49    5.28
   1  -2  -8  158.50    6.81
   1  -2  -8  163.81    5.30
  -1   2   8  156.93    5.29
  -1   2   8  152.26    5.26
  -1   2   8  146.35    5.23
  -1   2   8  153.81    5.28
   0  -2  -8    5.43    1.16
   0  -2  -8    5.44    0.28
   0  -2  -8    6.32    0.31
   0  -2  -8    6.06    0.31
   0  -2  -8    6.18    0.35
   0   2   8    6.31    0.36
   0   2   8    6.35    0.28
   0   2   8    6.09    0.31
   0   2   8    5.75    1.20
  -1  -2  -8  159.15    5.36
  -1  -2  -8  136.95    6.56
  -1  -2  -8  150.92    5.27
   1   2   8  157.84    5.28
   1   2   8  159.07    5.36
   1   2   8  155.29    6.71
   1   2   8  157.29    5.30
  -2  -2  -8  247.93    8.95
  -2  -2  -8  261.95    9.00
  -2  -2  -8  258.75   10.51
  -2  -2  -8  281.76    9.05
   2   2   8  250.93    8.96
   2   2   8  266.82    8.97
   2   2   8  274.46    9.04
   2   2   8  260.27   10.81
  -3  -2  -8    3.70    0.33
  -3  -2  -8    4.25    0.30
  -3  -2  -8    4.83    1.67
  -3  -2  -8    4.62    0.35
   3   2   8    4.14    0.27
   3   2   8    5.45    1.95
   3   2   8    4.28    0.36
   3   2   8    3.87    0.28
  -4  -2  -8    1.71    0.31
  -4  -2  -8    1.77    2.12
  -4  -2  -8    2.47    0.31
  -4  -2  -8    1.87    0.26
   4   2   8    1.87    0.23
   4   2   8    3.42    2.54
   4   2   8    2.37    0.31
   4   2   8    2.30    0.27
  -5  -2  -8   14.47    0.99
  -5  -2  -8   11.00    3.35
  -5  -2  -8   13.66    0.74
  -5  -2  -8   14.69    0.85
   5   2   8   14.78    0.66
   5   2   8   16.23    0.77
   5   2   8   15.72    0.68
   5   2   8   18.22    4.30
  -6  -2  -8   12.39    0.93
  -6  -2  -8   12.97    1.11
   6   2   8   12.38    0.55
   6  -3  -8    9.09    0.56
  -6   3   8    8.46    0.85
  -6   3   8    8.56    0.72
   5  -3  -8    2.86    0.35
   5  -3  -8    2.78    0.38
  -5   3   8   -5.12    4.01
  -5   3   8    2.69    0.34
  -5   3   8    2.94    0.48
  -5   3   8    2.76    0.43
  -5   3   8    3.12    0.54
   4  -3  -8    9.11    0.47
   4  -3  -8    7.96    0.53
   4  -3  -8    7.37    0.69
  -4   3   8    8.67    0.65
  -4   3   8    8.84    0.56
  -4   3   8    7.38    0.48
  -4   3   8    3.98    2.69
  -4   3   8    7.88    0.59
   3  -3  -8   10.82    0.52
   3  -3  -8   11.63    0.56
   3  -3  -8    9.38    0.64
   3  -3  -8   10.78    0.51
   3  -3  -8   10.09    2.64
  -3   3   8   10.06    0.59
  -3   3   8   11.53    0.54
  -3   3   8   10.60    0.62
  -3   3   8   15.54    2.71
  -3   3   8   10.84    0.56
  -3   3   8   11.00    0.52
   2  -3  -8   55.79    4.00
   2  -3  -8   57.23    2.04
   2  -3  -8   58.50    2.05
   2  -3  -8   57.51    2.06
  -2   3   8   57.25    2.03
  -2   3   8   52.28    2.07
  -2   3   8   56.63    2.06
  -2   3   8   55.39    2.05
   1  -3  -8   13.92    0.62
   1  -3  -8   13.31    0.59
   1  -3  -8   14.19    0.59
   1  -3  -8   14.25    0.64
   1  -3  -8   13.97    2.06
  -1   3   8   12.77    0.63
  -1   3   8   13.74    0.60
  -1   3   8   13.94    1.96
  -1   3   8   13.95    0.61
  -1   3   8   13.85    0.57
   0  -3  -8   76.47    2.80
   0  -3  -8   74.52    2.75
   0  -3  -8   76.30    2.84
   0  -3  -8   82.50    4.39
   0  -3  -8   78.45    2.79
   0   3   8   80.47    2.76
   0   3   8   81.78    2.86
   0   3   8   80.00    4.30
   0   3   8   82.87    2.80
  -1  -3  -8   13.16    1.90
  -1  -3  -8   13.13    0.66
  -1  -3  -8   13.16    0.56
  -1  -3  -8   12.46    0.60
   1   3   8   14.30    0.61
   1   3   8   14.02    0.66
   1   3   8   15.04    2.14
   1   3   8   14.36    0.58
  -2  -3  -8   58.39    2.05
  -2  -3  -8   59.10    2.11
  -2  -3  -8   56.33    2.13
  -2  -3  -8   59.60    3.90
   2   3   8   55.29    2.06
   2   3   8   54.59    2.13
   2   3   8   56.01    1.98
   2   3   8   58.66    4.18
   2   3   8   57.30    2.07
  -3  -3  -8   10.06    0.59
  -3  -3  -8   10.97    0.54
  -3  -3  -8   11.42    0.61
  -3  -3  -8   11.83    2.38
   3   3   8    8.65    2.54
   3   3   8   10.75    0.55
   3   3   8   10.60    0.62
   3   3   8   11.48    0.55
  -4  -3  -8    9.72    0.55
  -4  -3  -8    8.95    2.56
  -4  -3  -8    8.73    0.59
   4   3   8    7.58    0.50
   4   3   8    9.02    3.40
   4   3   8    9.40    0.52
   4   3   8    7.50    0.59
  -5  -3  -8    2.46    0.39
  -5  -3  -8    3.38    3.46
  -5  -3  -8    1.89    0.51
  -5  -3  -8    2.15    0.43
   5   3   8    2.47    0.41
   5   3   8    1.94    0.30
   5   3   8    7.42    5.61
   5   3   8    2.62    0.34
  -6  -3  -8   11.36    1.15
  -6  -3  -8    7.14    0.88
   6   3   8    9.69    0.60
  -6   4   8    3.16    0.50
  -6   4   8    2.35    0.58
   5  -4  -8    0.69    0.23
  -5   4   8    1.34    0.28
  -5   4   8    0.99    0.38
  -5   4   8    1.56    0.45
   4  -4  -8    3.51    3.16
   4  -4  -8    2.26    0.27
   4  -4  -8    2.50    0.48
  -4   4   8    1.98    0.25
  -4   4   8    1.94    0.33
  -4   4   8    1.76    2.62
  -4   4   8    3.05    0.47
  -4   4   8    2.18    0.36
  -4   4   8    1.90    0.27
   3  -4  -8   10.07    0.69
   3  -4  -8   11.72    0.64
   3  -4  -8    7.47    2.65
   3  -4  -8   10.26    0.54
  -3   4   8   11.38    0.54
  -3   4   8   11.10    2.51
  -3   4   8   11.12    0.57
  -3   4   8   10.99    0.60
  -3   4   8   10.84    0.63
   2  -4  -8   14.70    0.69
   2  -4  -8   15.27    2.61
   2  -4  -8   13.95    0.64
   2  -4  -8   14.29    0.73
   2  -4  -8   14.15    0.65
  -2   4   8   14.77    0.70
  -2   4   8   14.87    0.68
  -2   4   8   14.51    0.62
  -2   4   8   14.71    0.68
  -2   4   8   10.05    2.13
   1  -4  -8   19.86    0.86
   1  -4  -8   17.60    2.60
   1  -4  -8   20.62    0.91
   1  -4  -8   21.77    0.84
   1  -4  -8   20.45    0.88
  -1   4   8   23.14    2.63
  -1   4   8   19.94    0.86
  -1   4   8   20.62    0.82
  -1   4   8   21.93    0.93
   0  -4  -8    4.82    0.31
   0  -4  -8    4.22    0.36
   0  -4  -8    5.13    1.67
   0  -4  -8    5.05    0.33
   0  -4  -8    4.68    0.28
   0   4   8    4.98    0.40
   0   4   8    5.61    1.62
   0   4   8    4.69    0.32
  -1  -4  -8   19.36    0.83
  -1  -4  -8   18.97    0.80
  -1  -4  -8   22.29    0.93
  -1  -4  -8   19.53    2.45
  -1  -4  -8   20.92    0.88
   1   4   8   20.00    2.90
   1   4   8   19.85    0.81
   1   4   8   19.10    0.93
  -2  -4  -8   17.22    2.62
  -2  -4  -8   14.91    0.65
  -2  -4  -8   14.33    0.72
  -2  -4  -8   15.95    0.76
   2   4   8   14.18    0.68
   2   4   8   16.40    2.91
   2   4   8   14.46    0.75
   2   4   8   14.01    0.66
   2   4   8   14.75    0.61
  -3  -4  -8    8.44    2.69
  -3  -4  -8   10.22    0.63
  -3  -4  -8   10.51    0.54
   3   4   8   10.80    0.47
   3   4   8   10.00    0.57
   3   4   8   10.65    0.60
   3   4   8   15.10    3.54
   3   4   8   11.09    0.66
  -4  -4  -8    1.97    0.46
  -4  -4  -8    2.48    0.34
  -4  -4  -8    1.96    2.85
   4   4   8    2.16    0.33
   4   4   8    2.69    0.19
   4   4   8    2.39    0.40
   4   4   8    0.59    3.83
   4   4   8    2.25    0.32
  -5  -4  -8    1.10    0.53
  -5  -4  -8    2.39    5.40
  -5  -4  -8    1.64    0.44
   5   4   8    1.62    0.45
   5   4   8    0.94    0.36
   5   4   8    1.61    0.34
  -6  -4  -8    3.03    0.77
  -6  -4  -8    3.48    0.64
  -6   5   8    0.77    0.42
  -6   5   8    0.84    0.55
   5  -5  -8    3.11    0.39
   5  -5  -8    3.47    0.44
  -5   5   8    2.86    0.52
  -5   5   8    3.46    0.42
   4  -5  -8   11.23    4.23
   4  -5  -8    6.45    0.45
   4  -5  -8    5.43    0.70
  -4   5   8    5.07    0.67
  -4   5   8    7.29    0.56
  -4   5   8    7.20    0.48
  -4   5   8    7.40    0.50
  -4   5   8    1.42    2.87
  -4   5   8    7.51    0.60
   3  -5  -8    1.09    0.22
   3  -5  -8    1.03    0.25
   3  -5  -8    0.88    0.33
  -3   5   8    3.13    2.21
  -3   5   8    1.39    0.21
  -3   5   8    0.91    0.30
  -3   5   8    1.20    0.28
  -3   5   8    1.02    0.25
   2  -5  -8   20.50    3.15
   2  -5  -8   17.75    0.82
   2  -5  -8   18.14    0.90
   2  -5  -8   18.95    0.81
  -2   5   8   15.86    2.80
  -2   5   8   19.06    0.89
  -2   5   8   17.69    0.82
  -2   5   8   20.29    0.87
  -2   5   8   18.39    0.78
   1  -5  -8    4.55    0.38
   1  -5  -8    4.51    0.37
   1  -5  -8    0.08    1.82
   1  -5  -8    4.19    0.32
  -1   5   8    6.77    2.01
  -1   5   8    4.32    0.34
  -1   5   8    4.51    0.37
  -1   5   8    4.61    0.42
  -1   5   8    4.20    0.29
   0  -5  -8   48.94    1.83
   0  -5  -8   47.92    1.91
   0  -5  -8   48.68    1.86
   0  -5  -8   46.54    1.77
   0  -5  -8   52.32    4.09
   0   5   8   48.49    1.91
   0   5   8   50.37    4.18
   0   5   8   49.34    1.84
   0   5   8   49.47    1.80
  -1  -5  -8    4.55    0.42
  -1  -5  -8    4.21    0.35
  -1  -5  -8    5.06    1.93
  -1  -5  -8    5.01    0.31
   1   5   8    7.12    2.42
   1   5   8    4.88    0.35
   1   5   8    4.59    0.47
   1   5   8    4.40    0.37
  -2  -5  -8   18.14    0.89
  -2  -5  -8   18.24    3.11
   2   5   8   17.32    0.76
   2   5   8   18.32    0.93
   2   5   8   18.60    0.83
   2   5   8   24.31    4.03
   2   5   8   18.19    0.85
  -3  -5  -8    1.35    0.24
  -3  -5  -8   -0.53    2.48
   3   5   8    0.90    0.36
   3   5   8    1.44    0.29
   3   5   8   -0.76    3.38
   3   5   8    1.15    0.29
   3   5   8    1.10    0.18
  -4  -5  -8    6.75    0.70
  -4  -5  -8    6.48    3.67
  -4  -5  -8    6.67    0.51
   4   5   8    6.81    0.38
   4   5   8    6.77    0.57
   4   5   8    6.41    0.61
   4   5   8    5.76    0.70
   4   5   8   -4.47    4.47
  -5  -5  -8    3.52    0.58
   5   5   8    3.86    0.62
   5   5   8    3.83    0.54
   5   5   8    3.26    0.48
  -6  -5  -8    0.63    0.70
  -6  -5  -8    0.61    0.85
   6   5   8    1.32    0.51
  -5   6   8    0.75    0.34
  -5   6   8    0.48    0.40
   4  -6  -8    1.35    0.28
   4  -6  -8    1.30    0.55
  -4   6   8    1.35    0.35
  -4   6   8    1.58    0.42
  -4   6   8    1.23    0.36
  -4   6   8    1.77    0.29
   3  -6  -8    9.96    0.56
   3  -6  -8    8.77    0.76
   3  -6  -8    4.69    3.65
   3  -6  -8    8.49    0.56
  -3   6   8    7.42    0.58
  -3   6   8    7.67    0.65
  -3   6   8   10.34    0.63
  -3   6   8   10.21    5.12
  -3   6   8    8.52    0.60
   2  -6  -8    6.67    2.77
   2  -6  -8    4.69    0.39
   2  -6  -8    3.54    0.39
   2  -6  -8    3.98    0.51
  -2   6   8    4.52    0.45
  -2   6   8    4.99    0.37
  -2   6   8    3.57    2.57
  -2   6   8    5.28    0.41
  -2   6   8    4.21    0.51
   1  -6  -8    4.47    0.44
   1  -6  -8    4.34    0.42
   1  -6  -8    4.64    0.37
   1  -6  -8    5.33    2.35
  -1   6   8    5.08    0.41
  -1   6   8    4.74    0.34
  -1   6   8    4.71    0.49
  -1   6   8    5.83    2.68
   0  -6  -8    5.63    0.35
   0  -6  -8    5.48    0.45
   0  -6  -8    5.61    0.42
   0  -6  -8    2.37    2.38
   0   6   8    4.57    0.42
   0   6   8    5.48    0.57
   0   6   8    5.40    0.38
   0   6   8   10.23    2.89
  -1  -6  -8    1.20    2.41
  -1  -6  -8    5.22    0.46
  -1  -6  -8    4.36    0.39
  -1  -6  -8    5.32    0.38
   1   6   8    4.98    0.47
   1   6   8    4.66    0.52
   1   6   8    5.64    0.40
   1   6   8    3.11    2.86
  -2  -6  -8    3.84    0.56
  -2  -6  -8    7.61    2.73
  -2  -6  -8    3.57    0.35
   2   6   8    4.16    0.53
   2   6   8    4.70    0.36
   2   6   8   -1.89    6.09
   2   6   8    3.83    0.50
  -3  -6  -8   12.07    3.43
  -3  -6  -8    8.82    0.56
  -3  -6  -8    8.54    0.68
   3   6   8    9.28    0.70
   3   6   8    8.89    4.88
   3   6   8    8.55    0.52
   3   6   8    8.55    0.81
   3   6   8    9.45    0.62
  -4  -6  -8   -6.31    4.29
  -4  -6  -8   -0.16    0.41
   4   6   8    1.42    0.52
   4   6   8    0.91    0.39
   4   6   8   -6.36    5.25
  -5  -6  -8    1.23    0.61
   5   6   8    1.76    0.48
  -5   7   8   13.02    0.82
  -5   7   8   11.96    1.02
   4  -7  -8    8.92    0.61
  -4   7   8   10.16    0.62
  -4   7   8    8.85    0.80
  -4   7   8   12.38    0.83
   3  -7  -8    4.34    0.51
   3  -7  -8    4.06    0.64
   3  -7  -8    4.24    0.46
  -3   7   8    4.87    0.49
  -3   7   8    6.08    0.69
  -3   7   8    4.59    0.40
  -3   7   8    4.16    0.52
   2  -7  -8    1.72    0.30
   2  -7  -8   -1.29    3.13
   2  -7  -8    1.80    0.41
   2  -7  -8    1.52    0.32
  -2   7   8    2.03    0.27
  -2   7   8    1.03    0.39
  -2   7   8    1.67    0.34
  -2   7   8    4.98    3.43
   1  -7  -8    3.55    3.19
   1  -7  -8    3.74    0.42
   1  -7  -8    3.58    0.48
   1  -7  -8    2.90    0.37
  -1   7   8    4.37    3.21
  -1   7   8    3.83    0.48
  -1   7   8    3.08    0.33
  -1   7   8    3.17    0.50
   0  -7  -8    8.67    0.53
   0  -7  -8   11.53    3.44
   0  -7  -8    9.07    0.65
   0  -7  -8    8.80    0.58
   0   7   8    9.21    0.61
   0   7   8    8.21    3.54
   0   7   8    8.32    0.52
   0   7   8    9.01    0.74
  -1  -7  -8    4.84    2.96
  -1  -7  -8    3.50    0.45
  -1  -7  -8    3.50    0.35
  -1  -7  -8    3.19    0.39
   1   7   8    3.53    0.39
   1   7   8    3.16    0.52
   1   7   8    4.91    3.88
   1   7   8    3.08    0.42
   1   7   8    3.45    0.42
  -2  -7  -8    1.22    0.31
  -2  -7  -8    1.13    0.41
  -2  -7  -8   -7.08    3.95
   2   7   8    1.23    0.31
   2   7   8    1.05    0.39
   2   7   8    1.21    4.44
   2   7   8    0.54    0.45
  -3  -7  -8    2.12    4.11
  -3  -7  -8    4.67    0.59
   3   7   8    4.16    0.54
   3   7   8    4.84    0.47
   3   7   8    2.49    5.58
  -4  -7  -8   10.17    5.64
  -4  -7  -8    9.65    0.98
   4   7   8   10.47    7.95
   4   7   8    9.85    0.86
   4   7   8    9.71    0.64
   5   7   8   12.47    1.10
  -4   8   8    2.37    0.51
  -4   8   8    1.49    0.39
   3  -8  -8   20.51    1.01
  -3   8   8   19.59    0.98
  -3   8   8   21.51    1.30
  -3   8   8   21.65    1.10
   2  -8  -8    6.29    0.63
   2  -8  -8    7.72    0.60
   2  -8  -8    8.01    0.82
  -2   8   8    7.78    0.53
  -2   8   8    6.73    0.86
   1  -8  -8    3.27    0.50
   1  -8  -8    4.23    0.60
   1  -8  -8    3.59    0.41
  -1   8   8    3.93    0.43
  -1   8   8    4.92    0.74
   0  -8  -8   64.09    2.46
   0  -8  -8   64.99    2.51
   0  -8  -8   61.45    2.37
   0   8   8   66.18    2.45
  -1  -8  -8    3.38    0.51
  -1  -8  -8   10.55    6.20
  -1  -8  -8    3.76    0.57
  -1  -8  -8    4.53    0.43
   1   8   8    4.41    0.54
   1   8   8    4.05    0.48
   1   8   8    7.86    5.49
  -2  -8  -8    5.86    0.70
  -2  -8  -8    6.60    0.62
   2   8   8    6.85    0.72
   2   8   8    8.36    0.70
  -3  -8  -8   21.42    1.25
   3   8   8   20.37    1.06
   3   8   8   21.60    1.20
  -4  -8  -8    1.75    0.78
   4   8   8    1.87    0.58
  -3   9   8    7.86    0.72
  -3   9   8    6.46    0.76
  -2   9   8   16.81    0.93
   1  -9  -8    1.36    0.37
   1  -9  -8    1.68    0.46
   1  -9  -8    1.29    0.52
  -1   9   8    1.40    0.40
   0  -9  -8    0.34    0.48
   0  -9  -8    0.47    0.43
   0   9   8   -0.72    0.38
   0   9   8    0.02    0.32
  -1  -9  -8    1.58    0.41
  -1  -9  -8    2.38    0.60
   1   9   8    2.07    0.50
   1   9   8    1.85    0.43
  -2  -9  -8   16.83    1.23
   2   9   8   17.40    1.08
   2   9   8   14.96    1.01
  -3  -9  -8    5.36    0.88
   3   9   8    5.99    1.15
   3   9   8    8.69    0.85
   1 -10  -8    0.03    0.57
  -1  10   8   -0.18    0.70
  -1  10   8    0.92    0.49
   0 -10  -8    1.95    0.62
   0  10   8    2.51    0.62
   0  10   8    2.00    0.60
  -1 -10  -8   -1.11    0.64
   1  10   8   -0.15    0.57
   0  10  -9    1.44    0.53
   3   9  -9    1.30    0.71
  -3  -9   9    2.25    0.63
   2   9  -9    9.41    1.04
   2   9  -9    8.96    0.92
  -2  -9   9   11.49    0.92
  -2  -9   9   11.33    0.87
   1   9  -9    0.30    0.46
   1   9  -9    0.11    0.40
  -1  -9   9    0.51    0.32
   0   9  -9    0.69    0.44
   0   9  -9    0.12    0.37
  -1   9  -9    0.11    0.33
  -1   9  -9   -0.63    0.48
  -1   9  -9    0.54    0.44
  -2   9  -9    8.71    0.65
  -2   9  -9    9.69    0.83
  -2   9  -9    7.93    0.95
  -3   9  -9    2.29    0.68
  -3   9  -9    2.42    0.39
   4   8  -9    2.22    1.12
   4   8  -9    1.63    0.65
  -4  -8   9    2.75    0.70
   3   8  -9    2.41    0.64
   3   8  -9    2.97    0.54
  -3  -8   9    2.92    0.55
   2   8  -9    5.47    0.67
   2   8  -9    5.49    0.76
  -2  -8   9    5.42    0.50
  -2  -8   9    6.42    0.62
   1   8  -9    5.76    0.66
   1   8  -9    6.33    0.66
   1   8  -9    5.36    0.54
  -1  -8   9    5.47    0.41
  -1  -8   9    5.89    0.50
   0   8  -9    2.16    0.46
   0   8  -9    2.30    0.37
   0   8  -9    3.29    0.51
   0  -8   9    4.17    0.28
   0  -8   9    3.68    0.30
  -1   8  -9    6.35    0.63
  -1   8  -9    5.56    0.46
  -1   8  -9    4.75    0.61
  -2   8  -9    5.04    0.52
  -2   8  -9    5.59    0.45
  -2   8  -9    5.21    0.65
  -3   8  -9    2.07    0.52
  -3   8  -9    2.55    0.39
  -3   8  -9    5.76    2.67
  -3   8  -9    3.03    0.36
  -3   8  -9    2.68    0.31
   3  -8   9    1.49    2.51
  -4   8  -9    2.12    0.62
   5   7  -9    9.16    1.06
   4   7  -9   16.25    1.09
   4   7  -9   15.35    1.10
  -4  -7   9   18.26    1.15
  -4  -7   9   15.40    0.87
   3   7  -9    0.22    0.42
   3   7  -9    1.08    0.39
  -3  -7   9   -0.19    0.31
  -3  -7   9    0.54    0.39
  -3  -7   9    0.73    0.20
   2   7  -9    9.48    0.71
   2   7  -9    8.67    0.73
   2   7  -9    8.46    0.62
   2   7  -9    9.42    5.05
  -2  -7   9    9.71    0.65
  -2  -7   9   12.95    4.30
  -2  -7   9    8.56    0.55
   1   7  -9    7.21    0.65
   1   7  -9    6.11    0.59
  -1  -7   9    6.46    0.40
  -1  -7   9    5.92    0.46
   0   7  -9    7.25    3.06
   0   7  -9    6.68    0.47
   0   7  -9    5.80    0.56
   0   7  -9    7.04    0.58
   0  -7   9    7.14    0.36
   0  -7   9    5.84    2.64
   0  -7   9    7.13    0.33
  -1   7  -9    7.79    0.45
  -1   7  -9    8.82    2.72
  -1   7  -9    7.39    0.54
  -1   7  -9    7.55    0.63
   1  -7   9    2.97    1.97
  -2   7  -9   10.13    0.72
  -2   7  -9    9.48    0.58
  -2   7  -9    9.19    0.48
  -2   7  -9    9.81    0.44
   2  -7   9    8.48    2.15
  -3   7  -9    0.49    0.17
  -3   7  -9    0.33    0.35
  -3   7  -9    1.19    1.68
  -3   7  -9    0.60    0.26
  -3   7  -9    0.70    0.21
   3  -7   9    0.81    1.50
  -4   7  -9   15.51    0.87
  -4   7  -9   15.63    0.69
  -4   7  -9   15.30    1.01
  -4   7  -9   18.16    1.04
  -5   7  -9    7.32    0.93
  -5   7  -9    9.18    0.88
   5   6  -9    5.90    0.70
   5   6  -9    5.27    0.74
  -5  -6   9    3.92    0.71
  -5  -6   9    5.76    0.76
   4   6  -9    6.73    0.71
   4   6  -9    7.54    0.75
  -4  -6   9    6.44    0.56
  -4  -6   9    5.82    0.68
  -4  -6   9    5.60    0.70
   3   6  -9    5.93    0.62
   3   6  -9    3.98    0.53
   3   6  -9    2.40    4.97
   3   6  -9    4.80    0.52
  -3  -6   9    6.42    0.59
  -3  -6   9    4.63    0.38
  -3  -6   9    4.35    0.45
  -3  -6   9    4.48    4.05
  -3  -6   9    5.33    0.57
   2   6  -9    6.05    3.78
   2   6  -9    6.96    0.59
   2   6  -9    7.45    0.60
  -2  -6   9    7.21    0.34
  -2  -6   9    3.71    3.20
  -2  -6   9    7.54    0.45
  -2  -6   9    8.14    0.56
  -2  -6   9    7.24    0.56
   1   6  -9   11.04    0.69
   1   6  -9   11.66    0.63
   1   6  -9   11.18    0.69
   1   6  -9   11.08    3.38
  -1  -6   9   11.52    0.58
   0   6  -9   49.46    1.96
   0   6  -9   50.63    4.65
   0   6  -9   54.36    2.04
   0   6  -9   51.93    1.92
   0  -6   9   51.10    1.83
   0  -6   9   49.85    1.80
   0  -6   9   55.91    4.23
  -1   6  -9   11.57    0.61
  -1   6  -9   14.81    2.53
  -1   6  -9   12.24    0.54
  -1   6  -9   11.12    0.68
   1  -6   9    9.22    1.87
  -2   6  -9    6.80    1.85
  -2   6  -9    9.01    0.60
  -2   6  -9    7.73    0.38
  -2   6  -9    7.18    0.37
  -2   6  -9    7.37    0.45
  -3   6  -9    4.35    0.34
  -3   6  -9    4.80    0.40
  -3   6  -9    4.44    0.51
  -3   6  -9    4.74    0.27
  -4   6  -9    4.96    0.60
  -4   6  -9    6.92    0.57
  -4   6  -9    5.85    0.33
  -4   6  -9    5.93    0.40
  -4   6  -9    5.23    0.55
  -5   6  -9    4.50    0.62
  -5   6  -9    5.49    0.74
   6   5  -9   10.43    1.14
   6   5  -9    9.89    1.04
  -6  -5   9    8.44    1.05
   5   5  -9    5.41    0.74
   5   5  -9    4.25    0.58
   5   5  -9    4.87    0.64
   5   5  -9    2.92    7.40
  -5  -5   9    4.83    0.60
  -5  -5   9    3.37    6.73
  -5  -5   9    4.57    0.60
   4   5  -9   -5.64    4.95
   4   5  -9    3.50    0.50
   4   5  -9    4.46    0.53
  -4  -5   9    3.87    0.47
  -4  -5   9    3.54    7.88
  -4  -5   9    3.28    0.48
  -4  -5   9    3.67    0.45
  -4  -5   9    4.82    0.56
   3   5  -9    7.20    0.54
   3   5  -9    4.34    4.09
   3   5  -9    6.84    0.56
   3   5  -9    6.54    0.65
  -3  -5   9    7.64    0.58
  -3  -5   9    6.74    0.44
  -3  -5   9   11.53    3.55
  -3  -5   9    7.21    0.58
  -3  -5   9    7.05    0.49
   2   5  -9    3.33    0.40
   2   5  -9    0.33    2.67
   2   5  -9    4.03    0.41
   2   5  -9    4.20    0.43
  -2  -5   9    4.19    0.39
  -2  -5   9    3.43    0.24
  -2  -5   9    3.40    0.41
  -2  -5   9    3.10    0.34
  -2  -5   9    4.65    2.67
   1   5  -9   14.22    0.76
   1   5  -9   15.33    0.70
   1   5  -9   15.55    0.75
   1   5  -9   14.63    3.18
  -1  -5   9   15.06    0.63
  -1  -5   9   14.12    0.73
  -1  -5   9   15.47    0.68
   0   5  -9    3.06    0.32
   0   5  -9    3.37    0.27
   0   5  -9    3.64    0.37
   0   5  -9    3.07    1.89
   0  -5   9    4.41    1.77
   0  -5   9    3.40    0.21
  -1   5  -9   15.95    0.76
  -1   5  -9   14.68    3.56
  -1   5  -9   15.30    0.62
  -1   5  -9   15.11    0.66
   1  -5   9   12.72    1.74
  -2   5  -9    3.53    0.27
  -2   5  -9    3.57    0.26
  -2   5  -9    2.30    1.14
  -2   5  -9    3.47    0.36
   2  -5   9    3.77    0.98
  -3   5  -9    6.14    0.51
  -3   5  -9    6.99    0.47
  -3   5  -9    6.49    0.33
  -3   5  -9    6.57    0.29
  -4   5  -9    4.82    0.49
  -4   5  -9    3.66    0.42
  -4   5  -9    3.28    0.29
  -4   5  -9    3.79    0.24
  -4   5  -9    3.94    0.49
  -5   5  -9    5.77    0.69
  -5   5  -9    5.12    0.67
  -5   5  -9    4.28    0.43
  -5   5  -9    4.88    0.35
  -5   5  -9    4.20    0.42
  -6   5  -9   10.42    1.10
  -6   5  -9    9.02    0.90
   6   4  -9    6.81    0.88
   6   4  -9    5.59    0.69
   6   4  -9    5.28    0.72
  -6  -4   9    7.98    0.96
  -6  -4   9    6.29    0.75
   5   4  -9    4.73    0.59
   5   4  -9    5.28    0.66
  -5  -4   9    4.48    0.58
  -5  -4   9    4.49    0.59
  -5  -4   9    1.09    5.69
  -5  -4   9    4.54    0.59
   4   4  -9    5.03    4.89
   4   4  -9    1.30    0.39
   4   4  -9    1.05    0.33
   4   4  -9    0.80    0.31
  -4  -4   9    0.64    0.27
  -4  -4   9    7.16    4.43
  -4  -4   9    0.88    0.32
  -4  -4   9    0.73    0.30
  -4  -4   9    1.16    0.32
   3   4  -9    8.52    0.62
   3   4  -9   10.26    0.64
   3   4  -9   14.18    3.63
   3   4  -9   10.23    0.60
  -3  -4   9   11.28    3.40
  -3  -4   9    8.78    0.52
  -3  -4   9   10.26    0.59
  -3  -4   9    9.76    0.60
  -3  -4   9    9.23    0.61
   2   4  -9   11.22    0.64
   2   4  -9   12.48    2.94
   2   4  -9   11.57    0.60
   2   4  -9   11.32    0.64
  -2  -4   9   11.88    0.61
  -2  -4   9   12.04    0.62
  -2  -4   9   11.60    0.51
  -2  -4   9   10.62    2.77
  -2  -4   9   12.29    0.57
   1   4  -9   83.27    3.04
   1   4  -9   90.16    3.12
   1   4  -9   88.45    3.08
   1   4  -9   82.08    5.40
  -1  -4   9   81.47    3.08
  -1  -4   9   85.10    3.02
  -1  -4   9   86.61    2.99
   0   4  -9    1.54    0.17
   0   4  -9    1.40    0.22
   0   4  -9    1.48    0.20
   0   4  -9    2.62    1.47
   0  -4   9    2.39    1.22
   0  -4   9    1.37    0.13
   0  -4   9    1.46    0.11
  -1   4  -9   83.27    2.91
  -1   4  -9   84.57    3.05
  -1   4  -9   84.73    2.95
  -1   4  -9   82.39    2.92
  -1   4  -9   90.33    4.35
   1  -4   9   84.67    3.88
  -2   4  -9   12.68    0.61
  -2   4  -9   11.58    0.56
  -2   4  -9   11.62    0.44
  -2   4  -9   12.14    0.47
  -3   4  -9    9.31    0.54
  -3   4  -9    9.33    0.54
  -3   4  -9    9.37    0.36
  -3   4  -9    9.41    0.56
  -3   4  -9    8.99    0.37
  -4   4  -9    0.74    0.14
  -4   4  -9    0.97    0.30
  -4   4  -9    0.89    0.14
  -4   4  -9    0.68    0.20
  -5   4  -9    5.31    0.37
  -5   4  -9    5.44    0.42
  -5   4  -9    5.01    0.68
  -5   4  -9    4.66    0.35
  -6   4  -9    7.33    0.76
  -6   4  -9    7.47    1.02
   6   3  -9   14.00    0.81
   6   3  -9   15.58    1.04
   6   3  -9   14.59    1.03
  -6  -3   9   14.96    1.02
  -6  -3   9   16.73    1.16
   5   3  -9    4.35    0.53
   5   3  -9    3.34    0.54
   5   3  -9    4.57    0.56
  -5  -3   9    4.56    0.59
  -5  -3   9    4.79    0.57
  -5  -3   9    6.82    4.81
  -5  -3   9    4.83    0.62
  -5  -3   9    5.80    4.83
   4   3  -9   41.30    1.73
   4   3  -9   40.43    1.76
   4   3  -9   41.43    1.82
  -4  -3   9   44.79    6.83
  -4  -3   9   40.63    1.69
  -4  -3   9   45.29    1.75
  -4  -3   9   44.03    1.73
   3   3  -9   14.23    0.76
   3   3  -9   14.82    0.71
   3   3  -9   15.47    3.29
   3   3  -9   13.65    0.72
  -3  -3   9   13.16    0.69
  -3  -3   9   13.59    0.67
  -3  -3   9   13.93    0.69
  -3  -3   9   13.66    3.30
  -3  -3   9   12.74    0.72
   2   3  -9   12.65    0.63
   2   3  -9   11.39    0.58
   2   3  -9   10.74    0.61
   2   3  -9   12.47    2.73
  -2  -3   9   11.54    2.35
  -2  -3   9   11.96    0.56
  -2  -3   9   12.02    0.52
  -2  -3   9   11.28    0.67
  -2  -3   9   11.72    0.57
   1   3  -9  193.91    6.94
   1   3  -9  203.41    6.93
   1   3  -9  202.19    6.98
   1   3  -9  209.00    9.13
  -1  -3   9  217.12    6.97
  -1  -3   9  196.81    6.89
  -1  -3   9  210.71    9.09
  -1  -3   9  182.97    6.90
   0   3  -9    4.75    0.32
   0   3  -9    4.24    1.22
   0   3  -9    4.92    0.26
   0   3  -9    4.49    0.27
   0  -3   9    4.44    0.21
   0  -3   9    4.69    0.20
   0  -3   9    3.03    1.13
   0  -3   9    4.70    0.31
  -1   3  -9  191.58    6.48
  -1   3  -9  185.44    6.51
  -1   3  -9  192.60    6.46
  -1   3  -9  190.08    6.58
   1  -3   9  193.91    7.15
  -2   3  -9   12.10    0.56
  -2   3  -9   11.22    0.56
  -2   3  -9   12.53    0.60
  -3   3  -9   13.54    0.50
  -3   3  -9   14.83    0.65
  -3   3  -9   14.08    0.73
  -3   3  -9   13.52    0.49
  -3   3  -9   14.07    0.65
  -4   3  -9   39.92    1.46
  -4   3  -9   41.66    1.73
  -4   3  -9   39.92    1.52
  -4   3  -9   41.39    1.47
  -5   3  -9    3.67    0.35
  -5   3  -9    4.28    0.37
  -5   3  -9    4.03    0.58
  -5   3  -9    3.75    0.26
  -6   3  -9   14.35    0.78
  -6   3  -9   14.53    1.17
   6   2  -9    0.37    0.44
   6   2  -9    0.32    0.21
  -6  -2   9    0.55    0.41
  -6  -2   9    0.81    0.47
   5   2  -9    9.08    0.55
   5   2  -9   10.75    0.70
   5   2  -9   10.65    0.81
  -5  -2   9    8.38    4.32
  -5  -2   9   11.02    0.72
  -5  -2   9    8.52    0.69
  -5  -2   9    8.67    0.74
  -5  -2   9    8.87    0.70
  -5  -2   9    8.77    4.43
   4   2  -9    0.23    0.19
   4   2  -9    0.09    0.24
   4   2  -9    0.56    0.24
   4   2  -9    0.26    0.28
  -4  -2   9    0.10    0.26
  -4  -2   9    0.71    0.25
  -4  -2   9    1.02    2.86
  -4  -2   9   -0.30    0.22
  -4  -2   9    0.24    0.24
   3   2  -9   26.50    1.15
   3   2  -9   28.04    1.14
   3   2  -9   30.72    1.18
   3   2  -9   25.21    1.14
  -3  -2   9   25.44    3.62
  -3  -2   9   25.66    1.12
  -3  -2   9   27.21    1.14
  -3  -2   9   27.41    1.15
  -3  -2   9   26.96    1.12
  -3  -2   9   29.23    3.95
   2   2  -9   29.56    1.14
   2   2  -9   28.90    1.12
   2   2  -9   25.32    1.13
   2   2  -9   26.95    1.10
  -2  -2   9   29.95    1.11
  -2  -2   9   29.09    1.11
  -2  -2   9   25.03    3.16
  -2  -2   9   27.15    1.07
  -2  -2   9   27.19    1.13
   1   2  -9    6.28    0.38
   1   2  -9    6.62    0.37
   1   2  -9    6.49    0.31
   1   2  -9    6.40    0.35
  -1  -2   9    7.23    0.34
  -1  -2   9    6.82    0.29
  -1  -2   9    6.43    0.33
  -1  -2   9    7.07    0.38
  -1  -2   9    5.99    1.60
   0   2  -9   91.45    3.13
   0   2  -9   90.50    3.19
   0   2  -9   92.50    3.15
   0   2  -9   89.67    3.08
   0  -2   9   88.04    3.09
   0  -2   9   91.54    4.32
   0  -2   9   92.97    4.24
   0  -2   9   90.11    3.17
   0  -2   9   87.58    3.08
  -1   2  -9    6.66    0.39
  -1   2  -9    6.70    0.34
  -1   2  -9    6.31    0.24
  -1   2  -9    6.62    0.25
   1  -2   9    5.79    0.82
   1  -2   9    6.71    0.74
  -2   2  -9   26.57    1.11
  -2   2  -9   29.36    1.10
  -2   2  -9   26.89    1.04
  -3   2  -9   26.92    0.94
  -3   2  -9   26.30    1.05
  -3   2  -9   26.66    0.93
  -3   2  -9   26.85    1.03
  -3   2  -9   25.86    1.15
  -4   2  -9    0.43    0.13
  -4   2  -9    0.15    0.13
  -4   2  -9    0.21    0.12
  -4   2  -9    0.27    0.71
  -4   2  -9    0.27    0.29
  -5   2  -9   10.13    0.55
  -5   2  -9    7.80    1.54
  -5   2  -9    9.54    0.53
  -5   2  -9    9.13    0.82
  -5   2  -9   10.86    1.79
  -5   2  -9   10.08    0.57
  -6   2  -9   -0.21    0.33
  -6   2  -9    0.22    0.31
  -6   2  -9    0.51    0.51
  -6   2  -9    0.88    2.34
  -6   2  -9    0.46    0.35
   6   1  -9    0.34    0.52
   6   1  -9    1.16    0.39
  -6  -1   9    1.70    0.52
  -6  -1   9    1.35    0.44
  -6  -1   9    0.47    0.52
   5   1  -9   23.84    1.00
   5   1  -9   27.39    1.26
  -5  -1   9   26.55    1.27
  -5  -1   9   29.11    5.46
  -5  -1   9   23.44    1.20
  -5  -1   9   24.38    5.09
  -5  -1   9   29.11    1.24
  -5  -1   9   25.75    1.26
   4   1  -9   39.80    1.47
   4   1  -9   39.64    1.56
   4   1  -9   40.50    1.67
   4   1  -9   38.47    1.58
   4   1  -9   38.99    1.59
  -4  -1   9   36.75    1.58
  -4  -1   9   39.00    1.57
  -4  -1   9   36.76    1.59
  -4  -1   9   37.72    1.56
  -4  -1   9   43.77    5.34
  -4  -1   9   43.49    5.16
   3   1  -9   90.67    3.23
   3   1  -9   89.84    3.19
   3   1  -9   90.26    3.29
   3   1  -9   92.95    3.26
   3   1  -9   90.40    3.26
  -3  -1   9   85.49    3.25
  -3  -1   9   96.49    3.25
  -3  -1   9   90.69    3.24
  -3  -1   9   81.33    5.86
  -3  -1   9   88.38    5.89
  -3  -1   9   88.36    3.25
   2   1  -9   62.12    2.35
   2   1  -9   65.96    2.35
   2   1  -9   64.02    2.34
   2   1  -9   64.35    2.38
   2   1  -9   64.49    2.36
  -2  -1   9   66.39    4.45
  -2  -1   9   64.92    2.33
  -2  -1   9   68.30    2.38
  -2  -1   9   66.65    4.36
  -2  -1   9   61.69    2.32
  -2  -1   9   67.53    2.35
   1   1  -9   67.76    2.43
   1   1  -9   63.25    2.38
   1   1  -9   70.04    2.44
   1   1  -9   68.01    2.40
   1   1  -9   63.95    2.39
  -1  -1   9   78.72    3.98
  -1  -1   9   65.18    2.38
  -1  -1   9   70.57    2.37
  -1  -1   9   68.82    2.40
  -1  -1   9   71.29    2.44
  -1  -1   9   61.02    3.87
   0   1  -9   74.85    2.53
   0   1  -9   71.09    2.59
   0   1  -9   72.92    2.51
   0   1  -9   70.13    2.51
   0   1  -9   73.42    2.57
   0  -1   9   70.29    2.49
   0  -1   9   76.69    3.52
   0  -1   9   77.00    2.57
   0  -1   9   70.73    2.51
  -1   1  -9   68.20    2.34
  -1   1  -9   62.59    2.21
  -1   1  -9   60.29    2.78
  -1   1  -9   64.08    2.23
  -1   1  -9   66.89    2.28
   1  -1   9   67.66    2.27
   1  -1   9   64.57    2.69
  -2   1  -9   62.96    2.16
  -2   1  -9   64.00    2.22
  -2   1  -9   61.91    2.16
  -2   1  -9   63.56    2.28
  -2   1  -9   62.68    2.56
   2  -1   9   66.16    2.71
  -3   1  -9   90.18    3.11
  -3   1  -9   91.31    3.12
  -3   1  -9   87.51    3.31
  -3   1  -9   91.67    3.13
  -3   1  -9   89.23    4.03
  -3   1  -9   91.47    3.19
   3  -1   9   90.98    4.06
  -4   1  -9   37.23    1.63
  -4   1  -9   35.54    2.86
  -4   1  -9   39.98    1.40
  -4   1  -9   36.67    1.40
  -4   1  -9   38.05    1.39
  -4   1  -9   35.07    2.58
  -4   1  -9   37.35    1.39
  -5   1  -9   26.11    1.36
  -5   1  -9   31.03    3.57
  -5   1  -9   28.23    3.17
  -5   1  -9   25.74    1.10
  -5   1  -9   25.97    1.11
  -5   1  -9   27.52    0.99
  -5   1  -9   26.54    1.06
  -6   1  -9    1.07    0.37
  -6   1  -9    1.86    0.38
  -6   1  -9    1.51    0.59
  -6   1  -9    1.46    0.28
   6   0  -9    8.30    0.84
   6   0  -9   10.02    0.69
  -6   0   9   11.25    0.82
  -6   0   9    9.36    0.92
   5   0  -9    0.27    0.36
   5   0  -9    0.92    0.45
   5   0  -9    0.09    0.23
  -5   0   9    0.24    0.34
  -5   0   9    4.33    4.03
  -5   0   9   -2.57    3.61
  -5   0   9    0.55    0.27
  -5   0   9    0.15    0.34
  -5   0   9    0.61    0.32
   4   0  -9   16.85    0.73
   4   0  -9   18.84    0.85
   4   0  -9   16.33    0.95
   4   0  -9   19.27    0.90
  -4   0   9   18.31    0.87
  -4   0   9   18.12    0.86
  -4   0   9   19.12    0.93
  -4   0   9   18.93    0.92
  -4   0   9   21.98    4.02
  -4   0   9   23.22    3.80
   3   0  -9   51.86    1.81
   3   0  -9   48.28    1.89
   3   0  -9   45.61    1.94
   3   0  -9   49.68    1.85
  -3   0   9   53.11    1.91
  -3   0   9   46.83    1.89
  -3   0   9   48.50    1.85
  -3   0   9   49.71    4.38
  -3   0   9   56.04    4.36
  -3   0   9   50.56    1.87
   2   0  -9    8.00    0.46
   2   0  -9    7.75    0.44
   2   0  -9    8.75    1.95
   2   0  -9    8.15    0.44
   2   0  -9    8.21    0.41
   2   0  -9    8.52    0.42
  -2   0   9    7.44    0.40
  -2   0   9    8.61    0.43
  -2   0   9    8.99    0.47
  -2   0   9    8.52    1.93
  -2   0   9    9.06    0.44
   1   0  -9    8.05    0.39
   1   0  -9    7.03    0.36
   1   0  -9    7.69    0.37
   1   0  -9    7.50    0.39
   1   0  -9    7.68    0.37
   1   0  -9    7.37    1.48
  -1   0   9    8.20    1.48
  -1   0   9    8.67    0.36
  -1   0   9    7.83    0.37
  -1   0   9    7.12    0.39
  -1   0   9    7.48    0.34
  -1   0   9    8.15    0.40
   0   0  -9   -0.30    0.60
   0   0  -9    0.11    0.06
   0   0   9    0.15    0.06
   0   0   9    0.22    0.09
   0   0   9    0.53    0.67
  -1   0  -9    7.67    0.39
  -1   0  -9    7.20    0.30
  -1   0  -9    8.13    1.01
  -1   0  -9    7.68    0.31
  -1   0  -9    7.53    0.32
   1   0   9    8.36    0.98
   1   0   9    7.66    0.39
   1   0   9    7.56    0.31
   1   0   9    7.28    0.28
   1   0   9    7.55    0.29
  -2   0  -9    8.40    0.35
  -2   0  -9    7.84    0.31
  -2   0  -9    8.07    0.34
  -2   0  -9    8.54    1.05
  -2   0  -9    7.69    0.41
   2   0   9    7.58    1.14
   2   0   9    8.09    0.42
  -3   0  -9   47.72    1.66
  -3   0  -9   45.01    3.26
  -3   0  -9   50.60    1.74
  -3   0  -9   47.68    1.72
  -3   0  -9   49.28    1.77
  -3   0  -9   49.22    1.67
   3   0   9   43.35    3.10
   3   0   9   47.90    1.77
  -4   0  -9   17.57    0.99
  -4   0  -9   18.87    0.78
  -4   0  -9   18.61    0.78
  -4   0  -9   19.51    0.81
  -4   0  -9   18.49    0.70
  -4   0  -9   17.18    2.37
   4   0   9   18.54    0.78
   4   0   9   19.10    2.70
  -5   0  -9    3.00    2.11
  -5   0  -9   -0.02    0.36
  -5   0  -9    0.78    0.23
  -5   0  -9    0.35    0.24
  -6   0  -9    9.16    0.68
  -6   0  -9    9.33    0.97
   6  -1  -9    0.16    0.45
  -6   1   9    1.98    0.45
  -6   1   9    0.83    0.48
   5  -1  -9   24.96    1.19
   5  -1  -9   26.44    1.12
   5  -1  -9   23.56    1.34
  -5   1   9   27.87    1.20
  -5   1   9   24.76    1.19
  -5   1   9   29.10    5.30
  -5   1   9   26.57    1.30
  -5   1   9   29.00    4.79
  -5   1   9   27.60    1.30
   4  -1  -9   33.92    1.62
   4  -1  -9   38.55    1.37
   4  -1  -9   40.14    1.54
   4  -1  -9   39.56    1.48
  -4   1   9   38.22    1.50
  -4   1   9   38.14    4.55
  -4   1   9   43.03    5.16
  -4   1   9   37.12    1.58
  -4   1   9   37.06    1.58
  -4   1   9   36.63    1.53
   3  -1  -9   87.49    3.11
   3  -1  -9   91.15    3.16
   3  -1  -9   76.89    5.47
   3  -1  -9   94.43    3.29
   3  -1  -9   86.47    3.27
  -3   1   9   89.18    3.19
  -3   1   9   89.14    3.24
  -3   1   9   86.62    3.16
  -3   1   9   90.28    5.45
  -3   1   9   91.71    3.23
   2  -1  -9   61.99    2.36
   2  -1  -9   64.12    4.20
   2  -1  -9   64.66    2.30
   2  -1  -9   64.90    2.31
   2  -1  -9   68.77    2.32
  -2   1   9   63.76    2.32
  -2   1   9   64.39    4.03
  -2   1   9   67.69    2.34
  -2   1   9   62.03    2.35
  -2   1   9   61.23    2.29
  -2   1   9   64.28    2.30
   1  -1  -9   68.95    2.35
   1  -1  -9   62.00    2.37
   1  -1  -9   74.81    2.39
   1  -1  -9   60.14    3.68
   1  -1  -9   65.73    2.35
  -1   1   9   62.32    2.35
  -1   1   9   66.89    2.36
  -1   1   9   65.96    2.33
  -1   1   9   68.49    2.39
  -1   1   9   69.16    2.39
  -1   1   9   65.31    3.66
   0  -1  -9   76.47    3.69
   0  -1  -9   70.89    2.53
   0  -1  -9   72.67    2.55
   0  -1  -9   74.24    2.61
   0  -1  -9   73.14    2.56
   0   1   9   69.83    2.57
   0   1   9   71.80    2.60
   0   1   9   76.24    2.53
   0   1   9   72.67    3.61
   0   1   9   74.08    2.55
  -1  -1  -9   65.83    2.36
  -1  -1  -9   70.02    3.30
  -1  -1  -9   65.14    2.29
  -1  -1  -9   64.84    2.27
   1   1   9   61.93    3.27
   1   1   9   65.95    2.28
   1   1   9   64.23    2.27
   1   1   9   66.88    2.36
   1   1   9   65.20    2.26
  -2  -1  -9   67.06    2.33
  -2  -1  -9   63.93    2.28
  -2  -1  -9   65.23    2.25
  -2  -1  -9   66.52    3.39
   2   1   9   63.26    2.24
   2   1   9   59.43    3.61
   2   1   9   64.38    2.33
   2   1   9   64.25    2.23
  -3  -1  -9   92.72    3.23
  -3  -1  -9   97.17    4.80
  -3  -1  -9   95.54    3.26
  -3  -1  -9   91.99    3.20
   3   1   9   84.22    5.02
   3   1   9   88.62    3.25
   3   1   9   88.84    3.15
   3   1   9   91.81    3.14
  -4  -1  -9   32.87    3.29
  -4  -1  -9   35.67    1.41
  -4  -1  -9   38.15    1.46
  -4  -1  -9   38.39    1.42
   4   1   9   30.84    4.01
   4   1   9   35.85    1.30
   4   1   9   38.48    1.29
   4   1   9   36.83    1.42
  -5  -1  -9   27.06    1.19
  -5  -1  -9   27.31    3.75
  -5  -1  -9   26.28    1.11
  -5  -1  -9   25.42    1.36
   5   1   9   24.95    1.06
   5   1   9   28.24    4.43
  -6  -1  -9    1.24    0.41
  -6  -1  -9    0.76    0.40
  -6  -1  -9    1.05    0.55
   6  -2  -9    0.34    0.29
   6  -2  -9    0.65    0.44
  -6   2   9    0.47    0.36
  -6   2   9    0.28    0.43
   5  -2  -9    9.77    0.70
   5  -2  -9    9.32    0.57
   5  -2  -9    8.14    0.83
  -5   2   9    9.97    0.73
  -5   2   9    0.13    4.14
  -5   2   9   10.43    0.70
  -5   2   9    8.94    3.69
  -5   2   9    9.61    0.80
  -5   2   9   10.00    0.64
   4  -2  -9    0.36    0.11
   4  -2  -9    0.12    0.23
   4  -2  -9    0.59    0.19
   4  -2  -9    0.66    0.33
  -4   2   9    0.31    0.28
  -4   2   9    0.18    0.25
  -4   2   9    0.35    0.20
  -4   2   9    3.62    2.57
  -4   2   9    0.22    0.23
   3  -2  -9   26.14    1.19
   3  -2  -9   25.71    1.18
   3  -2  -9   24.65    3.60
   3  -2  -9   26.11    1.03
   3  -2  -9   27.25    1.07
  -3   2   9   28.19    1.15
  -3   2   9   28.48    1.17
  -3   2   9   27.67    1.12
  -3   2   9   27.67    3.14
  -3   2   9   28.67    1.08
  -3   2   9   24.92    1.04
   2  -2  -9   27.15    2.94
   2  -2  -9   26.55    1.09
   2  -2  -9   26.28    1.14
   2  -2  -9   27.79    1.08
   2  -2  -9   29.64    1.10
  -2   2   9   28.53    1.07
  -2   2   9   28.59    1.10
  -2   2   9   27.18    1.10
  -2   2   9   30.40    1.16
  -2   2   9   28.85    1.13
  -2   2   9   26.21    2.71
   1  -2  -9    7.46    0.38
   1  -2  -9    6.40    0.33
   1  -2  -9    5.88    0.36
   1  -2  -9    7.15    1.47
   1  -2  -9    6.12    0.33
  -1   2   9    7.32    0.36
  -1   2   9    6.85    0.38
  -1   2   9    5.72    0.36
  -1   2   9    6.69    0.32
  -1   2   9    6.01    0.34
   0  -2  -9   94.37    3.22
   0  -2  -9   95.10    4.62
   0  -2  -9   95.27    3.27
   0  -2  -9   91.46    3.19
   0  -2  -9   93.18    3.23
   0   2   9   88.16    3.21
   0   2   9   91.90    3.18
   0   2   9   90.89    3.21
   0   2   9   84.63    3.26
   0   2   9   99.95    4.59
  -1  -2  -9    6.11    0.37
  -1  -2  -9    6.56    0.34
  -1  -2  -9    6.25    0.30
  -1  -2  -9    7.08    1.30
   1   2   9    6.46    0.29
   1   2   9    5.30    1.28
   1   2   9    6.32    0.30
   1   2   9    6.90    0.40
   1   2   9    6.13    0.32
  -2  -2  -9   26.32    1.07
  -2  -2  -9   27.94    1.12
  -2  -2  -9   23.94    2.35
  -2  -2  -9   28.33    1.04
   2   2   9   27.08    2.76
   2   2   9   29.04    1.04
   2   2   9   27.69    1.12
   2   2   9   27.51    1.04
  -3  -2  -9   28.50    1.12
  -3  -2  -9   26.53    1.11
  -3  -2  -9   26.54    1.05
  -3  -2  -9   26.62    2.96
   3   2   9   27.81    1.13
   3   2   9   27.64    1.04
   3   2   9   27.52    3.37
   3   2   9   26.07    1.04
  -4  -2  -9    0.38    0.24
  -4  -2  -9    2.58    2.00
  -4  -2  -9    0.23    0.18
  -4  -2  -9    0.12    0.18
   4   2   9    0.11    0.14
   4   2   9    0.13    2.51
   4   2   9    0.13    0.22
   4   2   9    0.37    0.15
  -5  -2  -9   11.07    0.64
  -5  -2  -9    9.80    0.69
  -5  -2  -9   10.71    3.35
  -5  -2  -9   11.60    0.93
   5   2   9    9.83    0.50
   5   2   9    9.89    0.49
   5   2   9   10.37    0.65
   5   2   9    4.20    4.46
  -6  -2  -9   -0.49    0.52
  -6  -2  -9    0.42    0.44
   6  -3  -9   14.14    0.75
  -6   3   9   13.87    1.02
  -6   3   9   13.99    0.88
   5  -3  -9    4.67    0.54
   5  -3  -9    4.63    0.38
  -5   3   9    4.81    0.62
  -5   3   9    6.47    4.38
  -5   3   9    3.97    0.50
  -5   3   9    2.89    0.55
  -5   3   9    4.64    0.45
   4  -3  -9   36.73    4.86
   4  -3  -9   38.50    1.78
   4  -3  -9   42.48    1.57
   4  -3  -9   42.22    1.63
  -4   3   9   41.67    1.60
  -4   3   9   41.76    1.51
  -4   3   9   41.10    1.73
  -4   3   9   38.43    4.56
  -4   3   9   40.98    1.66
   3  -3  -9   14.46    0.62
   3  -3  -9   11.92    0.70
   3  -3  -9   14.01    0.77
   3  -3  -9   13.66    0.62
   3  -3  -9    7.79    2.57
  -3   3   9   13.30    0.62
  -3   3   9   12.72    2.66
  -3   3   9   13.83    0.71
  -3   3   9   13.81    0.75
  -3   3   9   14.54    0.64
  -3   3   9   13.91    0.69
   2  -3  -9   11.22    0.56
   2  -3  -9    8.43    2.09
   2  -3  -9   12.48    0.64
   2  -3  -9   11.52    0.55
   2  -3  -9   12.06    0.56
  -2   3   9   11.58    0.58
  -2   3   9   13.11    0.54
  -2   3   9   12.44    0.58
  -2   3   9    8.84    1.95
  -2   3   9   10.25    0.62
   1  -3  -9  206.11    6.86
   1  -3  -9  200.86    8.67
   1  -3  -9  200.28    6.81
   1  -3  -9  198.02    6.83
   1  -3  -9  192.05    6.87
  -1   3   9  203.09    6.88
  -1   3   9  188.01    6.79
  -1   3   9  205.39    8.57
  -1   3   9  198.31    6.83
  -1   3   9  195.51    6.84
   0  -3  -9    4.96    0.35
   0  -3  -9    4.68    0.30
   0  -3  -9    4.25    0.25
   0  -3  -9    4.77    0.31
   0  -3  -9    4.81    1.43
   0   3   9    4.35    1.38
   0   3   9    4.42    0.34
   0   3   9    4.30    0.26
   0   3   9    4.62    0.29
  -1  -3  -9  212.11    6.94
  -1  -3  -9  198.15    6.87
  -1  -3  -9  173.60    8.34
  -1  -3  -9  190.38    6.81
   1   3   9  212.66    6.94
   1   3   9  216.64    8.91
   1   3   9  195.27    6.83
   1   3   9  195.39    6.85
  -2  -3  -9   10.02    2.00
  -2  -3  -9   10.22    0.66
  -2  -3  -9   11.01    0.60
  -2  -3  -9   12.64    0.59
   2   3   9   12.33    2.44
   2   3   9   11.76    0.46
   2   3   9   12.70    0.56
   2   3   9   11.51    0.62
   2   3   9   12.18    0.54
  -3  -3  -9   13.58    0.64
  -3  -3  -9   15.81    2.61
  -3  -3  -9   14.59    0.72
  -3  -3  -9   13.84    0.70
   3   3   9   13.33    0.74
   3   3   9   14.09    0.65
   3   3   9   13.71    0.64
   3   3   9   17.83    3.22
  -4  -3  -9   42.42    1.71
  -4  -3  -9   39.82    1.60
  -4  -3  -9   42.19    4.40
   4   3   9   40.79    1.60
   4   3   9   42.35    1.69
   4   3   9   43.45    1.60
   4   3   9   38.30    5.32
  -5  -3  -9    8.10    3.79
  -5  -3  -9    5.12    0.62
  -5  -3  -9    4.41    0.70
  -5  -3  -9    3.53    0.46
   5   3   9    4.80    0.60
   5   3   9    4.42    0.42
   5   3   9    4.61    0.46
  -6  -3  -9   15.45    1.32
  -6  -3  -9   16.20    1.10
   6   3   9   14.95    0.75
  -6   4   9    6.17    0.78
  -6   4   9    6.24    0.63
   5  -4  -9    5.75    0.58
   5  -4  -9    5.03    0.44
  -5   4   9    4.87    0.68
  -5   4   9    5.21    0.52
  -5   4   9    5.39    0.63
   4  -4  -9    1.06    0.29
   4  -4  -9    0.99    0.42
   4  -4  -9    0.96    0.23
  -4   4   9    0.59    0.28
  -4   4   9    0.84    0.21
  -4   4   9    0.89    0.26
  -4   4   9    1.40    0.39
  -4   4   9    0.82    0.30
  -4   4   9   -0.38    2.87
   3  -4  -9    9.46    0.52
   3  -4  -9    9.96    0.55
   3  -4  -9    9.44    2.98
   3  -4  -9    9.46    0.66
  -3   4   9   10.49    0.59
  -3   4   9    9.63    0.50
  -3   4   9    9.48    0.59
  -3   4   9    9.50    0.54
  -3   4   9    6.76    2.46
   2  -4  -9    9.75    2.35
   2  -4  -9   11.84    0.67
   2  -4  -9   12.80    0.60
   2  -4  -9   11.21    0.60
  -2   4   9   12.57    2.29
  -2   4   9   13.12    0.62
  -2   4   9   12.51    0.61
  -2   4   9   10.95    0.62
  -2   4   9   12.32    0.55
   1  -4  -9   87.19    3.06
   1  -4  -9   84.16    3.00
   1  -4  -9   76.11    3.01
  -1   4   9   91.47    3.08
  -1   4   9   87.11    2.96
  -1   4   9   79.77    2.99
  -1   4   9   85.65    4.96
  -1   4   9   81.65    3.00
   0  -4  -9    1.72    0.21
   0  -4  -9    1.52    0.22
   0  -4  -9    1.38    0.25
   0  -4  -9    1.88    1.37
   0   4   9    1.52    0.25
   0   4   9    2.04    1.60
  -1  -4  -9   82.16    3.11
  -1  -4  -9   89.98    3.09
  -1  -4  -9   83.57    4.88
  -1  -4  -9   85.16    3.00
   1   4   9   82.43    3.12
   1   4   9   79.30    3.01
   1   4   9   97.79    5.50
   1   4   9   87.68    3.05
  -2  -4  -9   12.13    0.63
  -2  -4  -9   11.40    0.65
  -2  -4  -9   14.34    2.43
   2   4   9   12.61    0.59
   2   4   9   14.27    2.84
   2   4   9   11.72    0.51
   2   4   9   11.27    0.66
   2   4   9   11.38    0.59
  -3  -4  -9    9.19    0.51
  -3  -4  -9   10.13    0.64
  -3  -4  -9   10.21    0.61
  -3  -4  -9    8.84    2.57
   3   4   9    9.13    0.56
   3   4   9    9.54    0.66
   3   4   9   15.14    3.55
   3   4   9    9.68    0.55
   3   4   9    9.58    0.42
  -4  -4  -9    0.74    0.24
  -4  -4  -9   -4.38    2.77
  -4  -4  -9    0.62    0.32
   4   4   9    0.37    0.27
   4   4   9    1.10    0.35
   4   4   9   -3.96    3.63
   4   4   9    0.46    0.25
  -5  -4  -9    5.06    0.61
   5   4   9    5.50    0.73
   5   4   9    6.11    0.59
   5   4   9    4.91    0.51
  -6  -4  -9    5.74    1.00
  -6  -4  -9    7.23    0.85
   6   4   9    7.08    0.66
  -6   5   9    9.17    0.79
   5  -5  -9    4.51    0.45
  -5   5   9    3.78    0.46
  -5   5   9    6.02    0.66
   4  -5  -9    3.72    0.39
   4  -5  -9    4.71    0.50
   4  -5  -9    3.28    0.57
  -4   5   9    4.15    0.42
  -4   5   9    3.69    0.52
  -4   5   9    4.97    0.55
  -4   5   9   10.43    3.99
  -4   5   9    4.86    0.69
  -4   5   9    4.05    0.45
   3  -5  -9    1.61    2.97
   3  -5  -9    7.07    0.45
   3  -5  -9    7.09    0.65
   3  -5  -9    6.22    0.48
  -3   5   9    6.59    0.42
  -3   5   9    6.67    0.53
  -3   5   9    7.57    0.54
  -3   5   9    4.64    2.37
  -3   5   9    7.23    0.54
   2  -5  -9    3.36    0.34
   2  -5  -9    4.08    2.26
   2  -5  -9    3.53    0.41
   2  -5  -9    3.56    0.35
  -2   5   9    4.17    0.38
  -2   5   9    3.64    0.42
  -2   5   9    3.38    0.28
  -2   5   9    2.99    0.38
  -2   5   9    5.06    2.07
   1  -5  -9   15.83    0.78
   1  -5  -9   14.51    0.74
   1  -5  -9   16.74    0.73
   1  -5  -9   15.25    0.68
  -1   5   9   16.30    0.74
  -1   5   9   14.40    0.70
  -1   5   9   15.52    0.67
  -1   5   9   12.75    2.54
  -1   5   9   14.11    0.77
   0  -5  -9    3.57    0.33
   0  -5  -9    3.25    0.38
   0  -5  -9    3.66    0.31
   0  -5  -9    3.58    0.27
   0  -5  -9    2.72    1.77
   0   5   9    2.96    0.32
   0   5   9    5.13    2.15
   0   5   9    3.31    0.43
   0   5   9    3.67    0.28
  -1  -5  -9   15.34    0.80
  -1  -5  -9   15.86    0.68
  -1  -5  -9   15.15    2.73
  -1  -5  -9   14.73    0.70
  -1  -5  -9   14.85    0.75
   1   5   9   15.40    0.70
   1   5   9   14.38    0.80
   1   5   9   15.73    0.73
   1   5   9   13.43    3.04
  -2  -5  -9    4.23    0.34
  -2  -5  -9    4.22    0.44
  -2  -5  -9    1.73    2.09
   2   5   9    3.40    0.35
   2   5   9    3.79    0.47
   2   5   9    3.40    0.28
   2   5   9    3.05    0.37
  -3  -5  -9    5.09    2.91
  -3  -5  -9    4.94    0.63
  -3  -5  -9    6.39    0.45
   3   5   9    6.50    0.54
   3   5   9    7.18    0.66
   3   5   9    7.20    3.96
   3   5   9    7.37    0.52
   3   5   9    6.93    0.38
  -4  -5  -9   -0.30    3.62
  -4  -5  -9    3.23    0.42
  -4  -5  -9    3.57    0.52
   4   5   9    1.46    4.56
   4   5   9    3.54    0.46
   4   5   9    5.06    0.61
   4   5   9    3.87    0.28
   4   5   9    3.36    0.42
  -5  -5  -9    4.69    0.63
   5   5   9    3.18    0.50
   5   5   9    4.51    0.68
   5   5   9    4.30    0.52
  -6  -5  -9    9.10    1.17
  -6  -5  -9    7.43    1.18
   6   5   9    8.52    0.86
  -5   6   9    4.31    0.62
  -5   6   9    5.62    0.53
   4  -6  -9    5.67    0.49
   4  -6  -9    6.88    0.59
  -4   6   9    6.71    0.65
  -4   6   9    5.15    0.48
  -4   6   9    5.21    0.58
   3  -6  -9    5.59    0.44
   3  -6  -9    4.91    0.66
   3  -6  -9    4.24    0.47
   3  -6  -9    2.13    5.47
  -3   6   9    9.76    3.22
  -3   6   9    5.09    0.47
  -3   6   9    5.52    0.42
  -3   6   9    4.67    0.56
  -3   6   9    4.70    0.50
   2  -6  -9    6.70    3.10
   2  -6  -9    7.07    0.59
   2  -6  -9    9.06    0.54
   2  -6  -9    6.94    0.49
  -2   6   9    6.52    0.51
  -2   6   9    4.37    2.64
  -2   6   9    7.79    0.62
  -2   6   9    7.85    0.46
  -2   6   9    7.94    0.53
   1  -6  -9   11.85    0.67
   1  -6  -9   10.86    0.57
   1  -6  -9   11.93    0.67
   1  -6  -9    9.20    3.12
  -1   6   9   12.13    0.75
  -1   6   9   13.80    3.02
  -1   6   9   11.06    0.63
  -1   6   9   11.79    0.59
   0  -6  -9   50.26    1.86
   0  -6  -9   51.43    1.93
   0  -6  -9   54.18    1.99
   0  -6  -9   46.12    7.47
   0   6   9   48.02    1.93
   0   6   9   50.53    1.89
   0   6   9   45.03    4.74
   0   6   9   50.19    2.05
  -1  -6  -9    8.10    2.83
  -1  -6  -9   10.77    0.56
  -1  -6  -9   11.03    0.60
  -1  -6  -9   11.42    0.70
   1   6   9   12.41    3.66
   1   6   9   11.31    0.75
   1   6   9   11.22    0.59
   1   6   9   11.80    0.67
  -2  -6  -9    6.94    0.48
  -2  -6  -9    7.21    0.50
  -2  -6  -9    7.82    0.63
   2   6   9   11.72    3.71
   2   6   9    8.12    0.61
   2   6   9    7.33    0.46
   2   6   9    8.00    0.68
   2   6   9    7.00    0.62
  -3  -6  -9    3.82    0.51
  -3  -6  -9    2.72    3.21
   3   6   9    4.44    0.48
   3   6   9    4.57    4.84
   3   6   9    5.41    0.39
   3   6   9    5.50    0.72
   3   6   9    4.07    0.52
  -4  -6  -9    5.51    0.69
  -4  -6  -9   12.26    4.56
   4   6   9    5.49    0.41
   4   6   9    6.36    0.63
   4   6   9   18.96    6.91
   4   6   9    4.91    0.64
   4   6   9    5.53    0.57
  -5  -6  -9    5.38    0.79
   5   6   9    7.02    0.79
  -5   7   9    8.47    0.75
  -5   7   9    8.42    0.97
   4  -7  -9   17.30    0.82
  -4   7   9   14.58    0.99
  -4   7   9   16.60    0.86
  -4   7   9   15.42    0.99
   3  -7  -9    0.25    0.45
   3  -7  -9    0.43    0.29
   3  -7  -9    1.00    0.32
  -3   7   9    0.66    0.24
  -3   7   9    0.17    0.29
  -3   7   9    0.11    0.43
   2  -7  -9   10.87    4.22
   2  -7  -9    8.42    0.60
   2  -7  -9    9.15    0.61
   2  -7  -9    9.30    0.73
  -2   7   9   14.44    3.85
  -2   7   9    7.27    0.71
  -2   7   9    9.15    0.52
  -2   7   9    9.33    0.61
  -2   7   9    8.24    0.63
   1  -7  -9    6.79    0.48
   1  -7  -9    6.65    0.55
   1  -7  -9    4.39    3.21
   1  -7  -9    7.05    0.59
  -1   7   9    6.36    0.71
  -1   7   9   12.52    3.50
  -1   7   9    5.97    0.54
   0  -7  -9    7.04    0.48
   0  -7  -9   11.23    3.20
   0  -7  -9    6.82    0.52
   0   7   9    5.57    3.57
   0   7   9    7.33    0.48
   0   7   9    6.76    0.59
   0   7   9    6.09    0.68
  -1  -7  -9    6.38    0.51
  -1  -7  -9    5.42    0.44
  -1  -7  -9    4.28    2.90
  -1  -7  -9    7.87    0.66
   1   7   9    6.18    0.56
   1   7   9    7.06    0.76
   1   7   9    7.33    0.53
   1   7   9   12.22    4.21
   1   7   9    7.46    0.54
  -2  -7  -9   12.83    4.10
  -2  -7  -9   10.18    0.59
  -2  -7  -9    9.55    0.78
  -2  -7  -9    8.70    0.62
   2   7   9    9.14    0.59
   2   7   9    9.82    0.74
   2   7   9    8.82    4.89
   2   7   9    9.06    0.66
   2   7   9    7.90    0.86
  -3  -7  -9   10.21    4.51
  -3  -7  -9    0.56    0.41
   3   7   9    0.69    0.38
   3   7   9    1.49    6.29
   3   7   9    0.71    0.26
  -4  -7  -9    3.01    5.72
  -4  -7  -9   16.17    1.10
   4   7   9   15.37    0.79
   4   7   9   14.73    1.01
   5   7   9   10.38    1.02
  -4   8   9    2.50    0.53
  -4   8   9    1.37    0.43
   3  -8  -9    1.99    0.43
  -3   8   9    3.20    0.48
  -3   8   9    1.80    0.61
  -3   8   9    3.21    0.42
   2  -8  -9    5.19    0.81
   2  -8  -9    6.64    0.81
   2  -8  -9    6.65    0.57
  -2   8   9    6.36    0.51
  -2   8   9    5.93    0.76
   1  -8  -9    5.58    0.53
   1  -8  -9    5.56    0.62
   1  -8  -9    6.07    0.66
  -1   8   9    5.73    0.53
   0  -8  -9    3.87    0.47
   0  -8  -9    2.87    0.43
   0  -8  -9    2.38    0.46
   0   8   9    3.49    0.43
  -1  -8  -9    6.63    0.70
  -1  -8  -9    5.71    0.59
   1   8   9    5.58    0.57
   1   8   9    1.23    6.48
   1   8   9    6.18    0.58
  -2  -8  -9    6.73    0.63
  -2  -8  -9    5.53    0.70
   2   8   9    6.04    0.61
  -3  -8  -9    3.05    0.63
   3   8   9    2.22    0.52
   3   8   9    3.51    0.46
  -4  -8  -9    1.61    1.19
   4   8   9    1.05    0.64
  -3   9   9    2.18    0.49
  -3   9   9    2.44    0.44
   2  -9  -9    9.13    0.81
  -2   9   9    8.59    0.71
   1  -9  -9   -0.60    0.69
   1  -9  -9    0.56    0.37
   1  -9  -9    0.44    0.47
  -1   9   9   -0.14    0.30
   0  -9  -9   -0.04    0.49
   0  -9  -9    0.65    0.44
   0   9   9    0.27    0.44
   0   9   9   -0.06    0.36
  -1  -9  -9    0.21    0.55
  -1  -9  -9    0.28    0.41
   1   9   9    0.15    0.41
   1   9   9    0.97    0.44
  -2  -9  -9    8.15    0.90
   2   9   9    9.33    0.79
   2   9   9    7.61    0.78
   3   9   9    2.72    0.54
   0 -10  -9    0.89    0.63
   0  10   9    1.44    0.61
   0  10 -10    0.51    0.53
   3   9 -10    0.41    0.71
  -3  -9  10    1.50    0.58
   2   9 -10    5.05    0.70
   2   9 -10    6.09    0.82
  -2  -9  10    6.59    0.70
   1   9 -10    8.98    0.75
   1   9 -10    8.24    0.95
  -1  -9  10    8.62    0.61
   0   9 -10    0.02    0.44
   0   9 -10    0.06    0.37
  -1   9 -10    7.73    0.96
  -1   9 -10    8.19    0.86
  -1   9 -10    8.57    0.70
  -2   9 -10    6.42    0.59
  -2   9 -10    5.41    0.74
   4   8 -10    1.46    0.66
  -4  -8  10    0.75    0.57
   3   8 -10    1.24    0.47
   3   8 -10    2.20    0.63
  -3  -8  10    1.39    0.49
   2   8 -10    2.40    0.49
   2   8 -10    1.79    0.51
  -2  -8  10    1.91    0.41
   1   8 -10    2.84    0.62
   1   8 -10    3.26    0.47
   1   8 -10    3.17    0.53
  -1  -8  10    3.19    0.35
  -1  -8  10    2.74    0.34
   0   8 -10   -0.19    0.33
   0   8 -10    0.25    0.38
   0   8 -10   -0.11    0.26
   0  -8  10    0.35    0.15
   0  -8  10    0.13    0.11
  -1   8 -10    3.07    0.36
  -1   8 -10    2.54    0.48
  -1   8 -10    3.33    0.47
  -2   8 -10    2.04    0.30
  -2   8 -10    2.58    0.41
  -2   8 -10    1.52    0.47
  -3   8 -10    1.86    0.54
  -3   8 -10    2.07    0.28
  -3   8 -10    1.43    0.25
  -3   8 -10   -0.43    2.57
  -4   8 -10    1.43    0.59
   4   7 -10    3.79    0.60
   4   7 -10    4.12    0.66
  -4  -7  10    3.65    0.50
  -4  -7  10    3.71    0.59
   3   7 -10    0.42    0.41
   3   7 -10    1.13    0.47
  -3  -7  10    1.09    0.32
  -3  -7  10    0.83    0.19
  -3  -7  10    1.10    0.43
   2   7 -10    4.93    0.58
   2   7 -10   13.43    7.90
   2   7 -10    5.56    0.66
   2   7 -10    4.50    0.54
  -2  -7  10    3.74    0.45
  -2  -7  10    4.39    0.50
   1   7 -10    4.26    0.49
   1   7 -10    4.65    0.54
   1   7 -10    2.58    4.08
  -1  -7  10    4.19    0.40
  -1  -7  10    1.81    3.12
  -1  -7  10    4.44    0.33
   0   7 -10    2.43    0.40
   0   7 -10    2.15    0.29
   0   7 -10    1.10    3.08
   0   7 -10    1.61    0.36
   0  -7  10    2.45    0.20
   0  -7  10    7.55    2.58
  -1   7 -10   -0.22    2.79
  -1   7 -10    3.90    0.45
  -1   7 -10    4.10    0.36
  -1   7 -10    4.68    0.49
   1  -7  10    2.76    2.04
  -2   7 -10    5.29    0.29
  -2   7 -10    5.57    0.36
  -2   7 -10    4.98    0.46
  -2   7 -10    5.26    0.56
  -2   7 -10    5.22    2.47
   2  -7  10    5.57    1.99
  -3   7 -10    0.49    0.39
  -3   7 -10    1.21    0.20
  -3   7 -10    1.05    0.23
  -4   7 -10    3.51    0.31
  -4   7 -10    3.75    0.51
  -4   7 -10    2.86    0.53
  -4   7 -10    3.33    0.54
   5   6 -10   13.45    1.08
   5   6 -10   13.78    1.12
  -5  -6  10   12.72    1.00
  -5  -6  10   11.91    0.91
   4   6 -10    5.80    0.66
   4   6 -10    6.89    0.73
  -4  -6  10    5.62    0.61
  -4  -6  10    5.40    0.52
   3   6 -10   23.41    1.14
   3   6 -10   26.01    1.24
   3   6 -10   23.60    6.11
   3   6 -10   22.67    1.19
  -3  -6  10   23.56    0.97
  -3  -6  10   21.48    1.12
  -3  -6  10   15.76    5.00
  -3  -6  10   24.61    1.13
  -3  -6  10   22.91    1.05
   2   6 -10    7.07    3.80
   2   6 -10    4.60    0.51
   2   6 -10    4.04    0.51
  -2  -6  10   13.76    3.45
  -2  -6  10    3.57    0.47
  -2  -6  10    4.02    0.38
  -2  -6  10    3.20    0.42
   1   6 -10   14.31    0.71
   1   6 -10   14.75    0.79
   1   6 -10   13.41    0.77
  -1  -6  10   12.96    0.65
   0   6 -10    1.72    0.29
   0   6 -10    2.01    2.29
   0   6 -10    1.34    0.23
   0   6 -10    1.60    0.31
   0  -6  10    2.09    1.90
   0  -6  10    1.29    0.16
  -1   6 -10   13.17    0.59
  -1   6 -10   13.07    0.73
  -1   6 -10   13.34    0.66
  -1   6 -10   11.82    2.55
   1  -6  10   10.87    1.95
  -2   6 -10    4.16    0.26
  -2   6 -10    4.09    0.35
  -2   6 -10    3.61    0.64
  -2   6 -10    4.21    0.26
   2  -6  10    5.55    1.37
  -3   6 -10   25.07    1.04
  -3   6 -10   24.03    1.15
  -3   6 -10   23.74    0.95
  -4   6 -10    6.60    0.33
  -4   6 -10    5.63    0.58
  -4   6 -10    5.48    0.39
  -4   6 -10    6.30    0.63
  -4   6 -10    6.97    0.59
  -5   6 -10   14.22    1.00
  -5   6 -10   12.42    0.93
   5   5 -10   -0.53    0.45
   5   5 -10    0.08    0.49
  -5  -5  10    0.30    0.40
  -5  -5  10    0.92    0.50
   4   5 -10    0.46    5.24
   4   5 -10    0.40    0.32
   4   5 -10    0.80    0.35
  -4  -5  10   -0.02    0.40
  -4  -5  10    1.25    0.36
  -4  -5  10   -0.01    0.36
  -4  -5  10   -5.03    4.32
  -4  -5  10    0.43    0.26
   3   5 -10    3.89    0.53
   3   5 -10    4.52    0.46
   3   5 -10    4.98    0.56
   3   5 -10    7.00    3.74
  -3  -5  10    1.65    3.59
  -3  -5  10    3.71    0.49
  -3  -5  10    4.95    0.51
  -3  -5  10    3.65    0.41
  -3  -5  10    4.42    0.35
   2   5 -10   10.80    0.62
   2   5 -10   13.93    3.32
   2   5 -10   11.10    0.68
   2   5 -10   10.33    0.69
  -2  -5  10   10.98    0.61
  -2  -5  10   11.69    0.67
  -2  -5  10   11.32    0.58
  -2  -5  10   10.53    0.46
  -2  -5  10   13.90    3.25
   1   5 -10    2.84    0.36
   1   5 -10    2.72    0.34
   1   5 -10    3.69    2.51
   1   5 -10    2.69    0.29
  -1  -5  10    1.98    0.26
  -1  -5  10    2.59    0.34
  -1  -5  10    2.74    0.25
   0   5 -10   10.26    0.60
   0   5 -10   10.22    0.56
   0   5 -10    9.93    0.50
   0   5 -10   12.72    2.37
   0  -5  10   10.72    0.41
   0  -5  10   10.57    0.42
   0  -5  10   11.20    2.02
  -1   5 -10    2.95    0.22
  -1   5 -10    2.47    0.27
  -1   5 -10    2.68    0.33
  -1   5 -10    3.54    1.52
  -1   5 -10    2.79    0.13
   1  -5  10    2.18    1.22
  -2   5 -10   11.80    0.64
  -2   5 -10   11.15    0.45
  -2   5 -10   11.25    0.52
  -2   5 -10   11.00    1.40
  -2   5 -10   10.57    0.49
   2  -5  10   10.96    1.30
  -3   5 -10    4.36    0.22
  -3   5 -10    4.50    0.40
  -3   5 -10    4.70    0.44
  -3   5 -10    4.35    0.29
  -4   5 -10    0.42    0.11
  -4   5 -10    0.93    0.30
  -4   5 -10    0.47    0.25
  -4   5 -10    0.51    0.14
  -4   5 -10    0.43    0.29
  -5   5 -10    0.03    0.17
  -5   5 -10    0.21    0.24
  -5   5 -10    0.67    0.44
  -5   5 -10    0.10    0.35
   6   4 -10    1.22    0.61
   6   4 -10    0.71    0.50
   6   4 -10    1.07    0.53
  -6  -4  10    1.70    0.59
  -6  -4  10    0.60    0.54
   5   4 -10   18.30    1.08
   5   4 -10   16.43    1.07
  -5  -4  10   20.46    1.08
  -5  -4  10   20.30    1.09
  -5  -4  10   19.15    1.08
  -5  -4  10   27.67    9.78
  -5  -4  10    8.74    6.14
   4   4 -10    5.45    0.53
   4   4 -10    0.38    4.75
   4   4 -10    4.97    0.61
  -4  -4  10    5.56    0.53
  -4  -4  10    4.50    0.57
  -4  -4  10    5.07    0.52
  -4  -4  10    4.88    0.47
  -4  -4  10    5.34    4.50
   3   4 -10   18.18    0.95
   3   4 -10   18.91    0.89
   3   4 -10   20.84    4.15
   3   4 -10   19.32    0.95
  -3  -4  10   17.69    0.80
  -3  -4  10   17.63    0.86
  -3  -4  10   18.82    0.90
  -3  -4  10   19.18    3.87
  -3  -4  10   16.67    0.88
   2   4 -10    7.78    2.50
   2   4 -10    7.64    0.52
   2   4 -10    7.97    0.51
   2   4 -10    8.44    0.56
  -2  -4  10    8.14    0.38
  -2  -4  10    7.80    0.50
  -2  -4  10    7.86    0.44
  -2  -4  10    7.70    0.48
  -2  -4  10    7.31    2.53
   1   4 -10  118.87    4.01
   1   4 -10  113.39    6.56
   1   4 -10  109.71    4.06
   1   4 -10  111.69    4.02
  -1  -4  10  110.37    3.96
  -1  -4  10  116.67    4.04
  -1  -4  10  114.11    3.94
   0   4 -10    7.20    0.45
   0   4 -10    9.51    1.86
   0   4 -10    7.74    0.42
   0   4 -10    7.55    0.38
   0  -4  10    7.78    0.32
   0  -4  10    5.96    1.57
   0  -4  10    7.42    0.45
   0  -4  10    7.63    0.30
  -1   4 -10  114.23    3.93
  -1   4 -10  115.06    5.20
  -1   4 -10  109.44    3.82
  -1   4 -10  108.85    3.78
  -1   4 -10  112.88    3.79
   1  -4  10  102.04    4.71
  -2   4 -10    8.09    0.43
  -2   4 -10    7.49    0.30
  -2   4 -10    7.63    0.46
  -2   4 -10    7.75    0.33
  -3   4 -10   18.90    0.83
  -3   4 -10   18.90    0.84
  -3   4 -10   16.41    0.64
  -3   4 -10   17.07    0.85
  -3   4 -10   17.94    0.64
  -4   4 -10    4.87    0.53
  -4   4 -10    4.49    0.40
  -4   4 -10    4.51    0.26
  -4   4 -10    4.84    0.44
  -5   4 -10   19.81    1.14
  -5   4 -10   19.67    0.81
  -5   4 -10   18.66    0.84
  -5   4 -10   20.49    0.97
  -5   4 -10   20.46    0.84
  -6   4 -10    0.43    0.38
  -6   4 -10    0.90    0.60
   6   3 -10    0.71    0.35
   6   3 -10    2.37    0.52
   6   3 -10    0.51    0.47
  -6  -3  10    1.27    0.50
  -6  -3  10    1.67    0.53
   5   3 -10    2.73    0.56
   5   3 -10    3.20    0.39
   5   3 -10    3.54    0.50
   5   3 -10    2.13    0.44
  -5  -3  10    2.86    0.45
  -5  -3  10    2.81    0.50
  -5  -3  10    2.65    0.50
  -5  -3  10   -0.05    5.36
  -5  -3  10    0.27    5.37
   4   3 -10    8.79    0.74
   4   3 -10    9.90    0.64
   4   3 -10    9.01    0.74
  -4  -3  10    8.93    0.61
  -4  -3  10    8.65    0.61
  -4  -3  10   10.33    4.22
  -4  -3  10    3.25    3.99
  -4  -3  10    9.40    0.66
  -4  -3  10    9.69    0.64
   3   3 -10   11.93    0.67
   3   3 -10   12.36    0.71
   3   3 -10   12.14    0.70
  -3  -3  10   17.52    3.24
  -3  -3  10   13.85    0.70
  -3  -3  10   12.59    0.63
  -3  -3  10   13.67    0.68
  -3  -3  10   12.27    0.67
   2   3 -10   28.71    1.32
   2   3 -10   34.53    1.33
   2   3 -10   31.98    1.30
   2   3 -10   34.41    3.92
  -2  -3  10   32.21    1.35
  -2  -3  10   34.07    1.30
  -2  -3  10   37.61    3.81
  -2  -3  10   32.58    1.22
  -2  -3  10   33.95    1.33
   1   3 -10   20.47    0.86
   1   3 -10   20.44    0.84
   1   3 -10   20.89    0.90
   1   3 -10   20.45    0.76
   1   3 -10   23.31    2.91
  -1  -3  10   21.47    0.88
  -1  -3  10   20.41    0.81
  -1  -3  10   22.68    0.82
  -1  -3  10   18.14    0.76
  -1  -3  10   15.48    2.96
   0   3 -10    6.32    0.39
   0   3 -10    6.19    1.38
   0   3 -10    6.35    0.32
   0   3 -10    6.57    0.34
   0  -3  10    6.50    0.38
   0  -3  10    6.53    1.30
   0  -3  10    6.66    0.27
   0  -3  10    6.60    0.27
  -1   3 -10   21.00    0.74
  -1   3 -10   21.42    0.73
  -1   3 -10   19.78    0.78
  -1   3 -10   18.34    0.83
   1  -3  10   18.76    1.49
   1  -3  10   21.41    1.57
  -2   3 -10   32.41    1.24
  -2   3 -10   30.27    1.24
  -2   3 -10   32.71    1.28
  -3   3 -10   10.97    0.66
  -3   3 -10   13.00    0.62
  -3   3 -10   12.87    0.60
  -4   3 -10   10.89    0.54
  -4   3 -10    9.69    0.42
  -4   3 -10    8.01    0.49
  -4   3 -10    9.67    0.53
  -4   3 -10    9.75    0.70
  -5   3 -10    2.99    0.28
  -5   3 -10    3.10    0.51
  -5   3 -10    2.98    0.33
  -5   3 -10    3.10    0.34
  -6   3 -10    0.91    0.31
  -6   3 -10    1.60    0.34
  -6   3 -10    1.10    0.61
   6   2 -10    4.23    0.57
   6   2 -10    4.44    0.53
  -6  -2  10    4.67    0.70
  -6  -2  10    4.01    0.58
   5   2 -10    5.25    0.61
   5   2 -10    5.48    0.58
   5   2 -10    5.22    0.44
   5   2 -10    4.77    0.58
  -5  -2  10    9.26    4.99
  -5  -2  10    4.94    0.55
  -5  -2  10    5.50    0.67
  -5  -2  10    5.86    0.59
  -5  -2  10   10.09    4.89
   4   2 -10    7.84    0.63
   4   2 -10    8.06    0.57
   4   2 -10    8.72    0.56
   4   2 -10    8.72    0.51
   4   2 -10    6.92    0.65
  -4  -2  10    0.57    3.21
  -4  -2  10    8.60    0.57
  -4  -2  10    8.20    0.61
  -4  -2  10    8.23    0.59
  -4  -2  10   -1.15    6.06
  -4  -2  10    8.36    0.58
   3   2 -10   52.95    2.05
   3   2 -10   52.37    2.04
   3   2 -10   52.06    2.04
   3   2 -10   55.79    2.03
  -3  -2  10   53.15    4.91
  -3  -2  10   53.91    2.01
  -3  -2  10   44.51    4.98
  -3  -2  10   49.29    1.99
  -3  -2  10   54.00    2.01
  -3  -2  10   58.34    2.12
   2   2 -10   85.39    3.20
   2   2 -10   90.49    3.20
   2   2 -10   93.46    3.24
   2   2 -10   89.42    3.18
  -2  -2  10   79.52    5.30
  -2  -2  10   85.50    5.56
  -2  -2  10   93.70    3.15
  -2  -2  10   89.02    3.18
  -2  -2  10   93.84    3.23
  -2  -2  10   87.77    3.17
   1   2 -10    5.75    0.32
   1   2 -10    6.08    0.37
   1   2 -10    6.10    0.35
   1   2 -10    5.42    0.29
  -1  -2  10    5.69    0.36
  -1  -2  10    5.63    0.30
  -1  -2  10    6.99    1.65
  -1  -2  10    7.51    1.66
  -1  -2  10    5.90    0.26
  -1  -2  10    5.46    0.31
   0   2 -10   17.09    0.66
   0   2 -10   18.44    0.62
   0   2 -10   16.33    0.66
   0   2 -10   15.01    0.70
   0  -2  10   16.85    0.61
   0  -2  10   18.07    0.71
   0  -2  10   14.34    1.72
   0  -2  10   16.67    1.85
   0  -2  10   16.80    0.62
  -1   2 -10    6.12    0.23
  -1   2 -10    5.65    0.24
  -1   2 -10    5.52    0.32
  -1   2 -10    5.75    0.36
   1  -2  10    6.13    0.32
   1  -2  10    5.70    0.74
   1  -2  10    7.13    0.96
  -2   2 -10   87.44    3.11
  -2   2 -10   87.39    3.12
  -2   2 -10   86.39    3.06
  -3   2 -10   50.86    1.90
  -3   2 -10   50.53    1.86
  -3   2 -10   50.85    1.76
  -3   2 -10   51.43    2.01
  -3   2 -10   53.10    1.77
  -4   2 -10    8.53    0.42
  -4   2 -10   10.51    0.70
  -4   2 -10    8.57    0.41
  -4   2 -10    8.80    0.46
  -4   2 -10   10.69    0.89
  -4   2 -10    8.11    0.74
  -4   2 -10    8.98    0.47
  -5   2 -10    5.40    0.65
  -5   2 -10    5.23    0.41
  -5   2 -10    5.70    0.44
  -5   2 -10    5.54    0.40
  -5   2 -10    4.94    1.43
  -5   2 -10    2.71    1.13
  -5   2 -10    5.28    0.31
  -6   2 -10    4.76    0.54
  -6   2 -10    6.64    2.19
  -6   2 -10    3.90    0.73
  -6   2 -10    3.30    0.43
   6   1 -10    0.01    0.38
   6   1 -10    0.13    0.54
  -6  -1  10    0.25    0.44
  -6  -1  10   -0.05    0.40
   5   1 -10   14.43    1.04
   5   1 -10   15.37    0.79
   5   1 -10   13.69    0.64
   5   1 -10   13.26    0.85
  -5  -1  10   14.22    0.82
  -5  -1  10   15.39    0.92
  -5  -1  10   14.08    0.89
  -5  -1  10   17.38    5.07
  -5  -1  10   14.03    0.84
  -5  -1  10   14.55    5.08
   4   1 -10    5.63    0.48
   4   1 -10    4.79    0.45
   4   1 -10    4.27    0.46
   4   1 -10    5.90    0.37
   4   1 -10    3.83    0.52
  -4  -1  10    5.18    0.50
  -4  -1  10    4.43    0.46
  -4  -1  10    5.27    0.49
  -4  -1  10    1.14    2.97
  -4  -1  10    6.01    0.53
  -4  -1  10    5.76    2.75
   3   1 -10   54.67    2.14
   3   1 -10   57.09    2.17
   3   1 -10   60.44    2.11
   3   1 -10   57.05    2.13
   3   1 -10   56.26    2.18
  -3  -1  10   54.48    4.81
  -3  -1  10   60.37    2.19
  -3  -1  10   54.69    4.94
  -3  -1  10   56.17    2.13
  -3  -1  10   56.04    2.14
  -3  -1  10   58.75    2.15
   2   1 -10   13.73    0.65
   2   1 -10   14.77    0.65
   2   1 -10   14.45    0.64
   2   1 -10   14.59    0.68
   2   1 -10   12.86    0.64
  -2  -1  10   17.57    2.53
  -2  -1  10   14.18    0.63
  -2  -1  10   14.32    0.67
  -2  -1  10   16.10    2.52
  -2  -1  10   13.41    0.61
  -2  -1  10   15.56    0.66
   1   1 -10  230.03    8.47
   1   1 -10  247.41    8.48
   1   1 -10  264.03    8.53
   1   1 -10  238.61    8.52
   1   1 -10  244.80    8.49
  -1  -1  10  268.76   10.51
  -1  -1  10  263.44    8.46
  -1  -1  10  231.85    8.51
  -1  -1  10  244.61    8.45
  -1  -1  10  239.61    8.47
  -1  -1  10  264.92   10.22
   0   1 -10   -0.03    0.08
   0   1 -10   -0.11    0.06
   0   1 -10   -0.04    0.10
   0   1 -10   -0.01    0.05
   0   1 -10   -0.67    0.73
   0   1 -10   -0.11    0.09
   0  -1  10    0.40    0.72
   0  -1  10   -0.07    0.04
   0  -1  10    0.03    0.08
   0  -1  10   -0.06    0.06
  -1   1 -10  243.60    8.26
  -1   1 -10  236.18    8.86
  -1   1 -10  247.28    8.20
  -1   1 -10  234.65    8.15
  -2   1 -10   14.89    1.02
  -2   1 -10   15.12    0.66
  -2   1 -10   14.48    0.53
  -2   1 -10   14.53    0.58
  -2   1 -10   14.42    0.53
   2  -1  10   14.83    1.14
  -3   1 -10   54.58    2.15
  -3   1 -10   58.45    1.95
  -3   1 -10   56.49    2.03
  -3   1 -10   45.36    2.81
  -3   1 -10   59.10    1.96
  -3   1 -10   55.94    1.94
   3  -1  10   55.04    2.87
  -4   1 -10    4.33    0.32
  -4   1 -10    4.93    0.32
  -4   1 -10    3.72    1.50
  -4   1 -10    4.69    1.17
  -4   1 -10    4.60    0.53
  -4   1 -10    5.16    0.33
  -4   1 -10    4.66    0.28
  -5   1 -10   13.98    0.59
  -5   1 -10   13.87    0.63
  -5   1 -10   13.76    0.69
  -5   1 -10   12.62    2.05
  -5   1 -10   14.75    0.99
  -5   1 -10   12.83    0.73
  -6   1 -10    0.11    0.17
  -6   1 -10    0.03    0.55
  -6   1 -10    0.62    0.34
  -6   1 -10    0.02    0.33
   6   0 -10    2.95    0.43
   6   0 -10    2.27    0.58
  -6   0  10    3.68    0.62
  -6   0  10    3.03    0.50
   5   0 -10    9.23    0.59
   5   0 -10    8.49    0.71
   5   0 -10    9.42    0.80
   5   0 -10    7.91    0.39
  -5   0  10    9.64    0.70
  -5   0  10    8.16    0.73
  -5   0  10   10.79    4.38
  -5   0  10    7.90    0.66
  -5   0  10    8.27    0.64
  -5   0  10    4.86    4.37
   4   0 -10    3.33    0.27
   4   0 -10    3.31    0.48
   4   0 -10    3.84    0.36
   4   0 -10    2.82    0.38
  -4   0  10    3.73    0.42
  -4   0  10    3.60    0.40
  -4   0  10    3.26    0.45
  -4   0  10    7.45    3.05
  -4   0  10    4.23    3.24
  -4   0  10    4.18    0.41
   3   0 -10   35.90    1.41
   3   0 -10   37.37    1.44
   3   0 -10   36.82    1.46
   3   0 -10   35.20    1.48
   3   0 -10   35.94    1.37
  -3   0  10   37.20    1.43
  -3   0  10   32.64    1.42
  -3   0  10   33.01    3.98
  -3   0  10   37.25    1.42
  -3   0  10   35.54    4.02
  -3   0  10   39.08    1.48
   2   0 -10    0.48    1.30
   2   0 -10    0.93    0.18
   2   0 -10    0.57    0.14
   2   0 -10    1.02    0.19
   2   0 -10    0.83    0.17
   2   0 -10    0.54    0.13
  -2   0  10    0.82    0.15
  -2   0  10    0.62    0.14
  -2   0  10    0.75    0.16
  -2   0  10    1.62    1.56
  -2   0  10    0.76    0.18
   1   0 -10    3.01    0.24
   1   0 -10    3.10    0.21
   1   0 -10    2.64    0.21
   1   0 -10    2.84    1.21
   1   0 -10    2.68    0.23
   1   0 -10    2.74    0.20
  -1   0  10    2.57    0.23
  -1   0  10    2.60    0.19
  -1   0  10    3.17    0.25
  -1   0  10    2.98    0.23
  -1   0  10    3.05    0.19
  -1   0  10    2.78    1.24
   0   0 -10  110.93    3.82
   0   0 -10  112.72    3.82
   0   0 -10  107.46    3.87
   0   0 -10  110.69    3.84
   0   0 -10  113.74    3.80
   0   0  10  114.03    4.86
   0   0  10  111.14    3.88
   0   0  10  110.54    3.81
   0   0  10  110.05    3.84
   0   0  10  106.30    3.78
  -1   0 -10    2.71    0.15
  -1   0 -10    4.86    0.85
  -1   0 -10    2.91    0.16
  -1   0 -10    2.73    0.17
  -1   0 -10    2.71    0.23
   1   0  10    2.61    0.24
   1   0  10    2.36    0.16
   1   0  10    3.14    0.76
   1   0  10    2.84    0.14
  -2   0 -10    0.69    0.09
  -2   0 -10    0.91    0.11
  -2   0 -10    0.96    0.12
  -2   0 -10    0.58    0.15
  -2   0 -10    0.85    0.60
   2   0  10    0.74    0.80
   2   0  10    0.76    0.16
  -3   0 -10   34.96    1.23
  -3   0 -10   32.30    2.32
  -3   0 -10   37.01    1.37
  -3   0 -10   36.25    1.32
  -3   0 -10   36.21    1.30
  -3   0 -10   36.39    1.24
   3   0  10   35.12    1.37
   3   0  10   35.76    2.83
  -4   0 -10    3.96    0.31
  -4   0 -10    4.39    1.45
  -4   0 -10    3.42    0.32
  -4   0 -10    3.43    0.19
  -4   0 -10    4.24    0.54
  -4   0 -10    4.00    0.30
   4   0  10    5.32    2.15
   4   0  10    3.80    0.33
  -5   0 -10    7.89    0.35
  -5   0 -10    8.85    0.56
  -5   0 -10    7.89    0.75
  -5   0 -10    9.26    2.37
  -5   0 -10    7.95    0.45
  -5   0 -10    9.02    0.53
  -6   0 -10    2.16    0.63
  -6   0 -10    2.43    0.67
  -6   0 -10    2.98    0.44
   6  -1 -10   -1.00    0.47
   6  -1 -10   -0.03    0.32
  -6   1  10   -0.03    0.40
  -6   1  10   -0.62    0.41
   5  -1 -10   13.44    0.73
   5  -1 -10   12.15    0.97
   5  -1 -10   14.23    0.84
  -5   1  10   25.03    5.23
  -5   1  10   13.32    0.86
  -5   1  10   13.68    0.82
  -5   1  10    9.73    4.18
  -5   1  10   14.62    0.93
  -5   1  10   15.78    0.82
   4  -1 -10    4.36    0.57
   4  -1 -10    4.89    0.44
   4  -1 -10    4.56    0.30
   4  -1 -10    6.08    0.42
  -4   1  10    5.21    0.41
  -4   1  10    5.65    0.50
  -4   1  10    5.40    0.50
  -4   1  10    6.70    2.90
  -4   1  10    3.90    2.97
  -4   1  10    4.41    0.51
   3  -1 -10   58.52    2.06
   3  -1 -10   56.41    2.20
   3  -1 -10   57.86    2.13
   3  -1 -10   57.82    2.09
   3  -1 -10   54.23    4.73
  -3   1  10   59.15    2.10
  -3   1  10   56.52    2.12
  -3   1  10   56.36    4.45
  -3   1  10   56.92    2.17
  -3   1  10   52.71    2.13
   2  -1 -10   13.65    0.61
   2  -1 -10   14.19    0.62
   2  -1 -10   12.84    2.26
   2  -1 -10   14.09    0.67
   2  -1 -10   14.17    0.63
  -2   1  10   13.77    0.63
  -2   1  10   13.92    0.67
  -2   1  10   14.26    0.62
  -2   1  10   14.22    0.63
  -2   1  10   13.16    0.60
  -2   1  10   16.76    2.37
   1  -1 -10  254.49    8.35
   1  -1 -10  235.32    8.33
   1  -1 -10  243.50    8.35
   1  -1 -10  237.47    8.31
   1  -1 -10  266.22   10.18
   1  -1 -10  232.92    8.30
  -1   1  10  243.52    8.35
  -1   1  10  244.06    8.32
  -1   1  10  244.74    8.29
  -1   1  10  242.92    8.35
  -1   1  10  237.31    8.31
  -1   1  10  240.71    9.85
   0  -1 -10   -0.01    0.07
   0  -1 -10   -0.01    0.06
   0  -1 -10   -0.07    0.10
   0  -1 -10   -0.04    0.07
   0  -1 -10    0.12    0.08
   0  -1 -10    0.93    0.86
   0   1  10    0.01    0.10
   0   1  10   -0.07    0.08
   0   1  10    0.02    0.08
   0   1  10    0.50    0.83
  -1  -1 -10  249.58    8.33
  -1  -1 -10  248.73    8.40
  -1  -1 -10  252.81    9.49
  -1  -1 -10  240.54    8.30
   1   1  10  238.21    8.30
   1   1  10  240.08    8.30
   1   1  10  233.12    9.45
   1   1  10  252.78    8.41
  -2  -1 -10   14.32    0.60
  -2  -1 -10   15.06    1.64
  -2  -1 -10   14.22    0.57
  -2  -1 -10   14.30    0.65
   2   1  10   14.99    0.67
   2   1  10   13.94    0.55
   2   1  10   14.76    0.56
   2   1  10   12.31    1.77
  -3  -1 -10   56.72    2.04
  -3  -1 -10   57.48    2.08
  -3  -1 -10   59.03    2.11
  -3  -1 -10   51.54    3.42
   3   1  10   57.61    1.98
   3   1  10   57.39    2.11
   3   1  10   55.34    3.95
   3   1  10   57.79    1.99
  -4  -1 -10    4.64    0.36
  -4  -1 -10    4.25    1.85
  -4  -1 -10    5.27    0.40
  -4  -1 -10    4.94    0.38
   4   1  10    5.38    2.48
   4   1  10    6.18    0.43
  -5  -1 -10   17.92    3.15
  -5  -1 -10   13.80    1.01
  -5  -1 -10   12.73    0.75
  -5  -1 -10   12.78    0.71
   5   1  10   13.79    0.68
   5   1  10    7.16    3.90
  -6  -1 -10    0.34    0.37
  -6  -1 -10    0.69    0.57
  -6  -1 -10    0.07    0.37
   6  -2 -10    3.02    0.55
   6  -2 -10    4.54    0.56
  -6   2  10    4.08    0.62
  -6   2  10    4.70    0.57
   5  -2 -10    5.90    0.47
   5  -2 -10    4.28    1.07
   5  -2 -10    5.86    0.62
  -5   2  10    5.73    0.60
  -5   2  10    5.13    0.70
  -5   2  10    5.66    0.59
  -5   2  10    5.06    0.48
  -5   2  10    9.41    4.14
  -5   2  10    0.22    4.13
   4  -2 -10    8.42    0.50
   4  -2 -10    8.43    0.41
   4  -2 -10    7.70    0.71
   4  -2 -10    8.88    0.58
  -4   2  10    8.18    0.58
  -4   2  10    7.36    0.55
  -4   2  10    8.77    0.63
  -4   2  10    4.71    2.80
  -4   2  10    8.00    0.50
   3  -2 -10   52.86    1.89
   3  -2 -10   48.27    2.02
   3  -2 -10   50.66    1.94
   3  -2 -10   51.32    4.61
   3  -2 -10   53.79    1.92
  -3   2  10   51.74    1.91
  -3   2  10   50.89    2.00
  -3   2  10   50.75    1.95
  -3   2  10   56.65    1.90
  -3   2  10   49.41    1.97
  -3   2  10   49.64    4.18
   2  -2 -10   93.36    3.29
   2  -2 -10   89.04    3.20
   2  -2 -10   87.71    5.38
   2  -2 -10   93.63    3.22
   2  -2 -10   84.76    3.20
  -2   2  10   89.80    3.19
  -2   2  10  102.80    5.37
  -2   2  10   94.43    3.28
  -2   2  10   86.10    3.23
  -2   2  10   92.34    3.22
  -2   2  10   88.66    3.22
   1  -2 -10    5.72    1.50
   1  -2 -10    5.92    0.36
   1  -2 -10    5.31    0.32
   1  -2 -10    5.94    0.36
   1  -2 -10    5.52    0.31
  -1   2  10    6.25    0.34
  -1   2  10    6.27    0.37
  -1   2  10    5.93    0.36
  -1   2  10    5.83    0.30
  -1   2  10    5.90    0.34
   0  -2 -10   16.25    0.70
   0  -2 -10   17.62    0.67
   0  -2 -10   16.36    0.74
   0  -2 -10   16.11    0.69
   0   2  10   17.83    0.70
   0   2  10   19.40    0.77
   0   2  10   16.81    0.70
   0   2  10   17.53    0.67
   0   2  10   15.55    1.87
  -1  -2 -10    6.17    0.34
  -1  -2 -10    5.62    1.25
  -1  -2 -10    5.65    0.29
  -1  -2 -10    5.95    0.37
   1   2  10    5.70    0.29
   1   2  10    5.74    0.28
   1   2  10    5.73    0.38
   1   2  10    5.87    0.32
   1   2  10    7.02    1.49
  -2  -2 -10   88.53    3.12
  -2  -2 -10   89.84    3.08
  -2  -2 -10   86.89    3.17
  -2  -2 -10   89.02    4.62
   2   2  10   76.92    4.79
   2   2  10   89.10    3.08
   2   2  10   88.80    3.08
   2   2  10   92.21    3.18
  -3  -2 -10   53.68    1.95
  -3  -2 -10   47.67    3.72
  -3  -2 -10   50.47    1.96
   3   2  10   53.86    1.88
   3   2  10   50.08    4.33
   3   2  10   50.78    1.96
   3   2  10   52.73    1.86
  -4  -2 -10    8.49    0.50
  -4  -2 -10    9.45    0.57
  -4  -2 -10    5.66    2.36
  -4  -2 -10    9.29    0.54
   4   2  10    8.21    0.57
   4   2  10    7.45    3.16
   4   2  10    8.90    0.43
   4   2  10    8.04    0.43
  -5  -2 -10    5.12    0.50
  -5  -2 -10    5.36    0.72
  -5  -2 -10    5.33    0.57
  -5  -2 -10    7.83    3.34
   5   2  10    5.23    0.32
   5   2  10    5.42    0.34
   5   2  10    5.02    0.59
  -6  -2 -10    3.58    0.58
  -6  -2 -10    5.11    0.84
   6  -3 -10    1.52    0.34
  -6   3  10    1.93    0.51
  -6   3  10    1.09    0.43
   5  -3 -10    2.96    0.43
   5  -3 -10    3.29    0.40
  -5   3  10    2.85    0.49
  -5   3  10    3.12    4.48
  -5   3  10    3.42    0.51
  -5   3  10    2.80    0.40
   4  -3 -10    9.64    0.53
   4  -3 -10   10.57    0.62
   4  -3 -10    9.75    0.78
   4  -3 -10    8.57    3.53
  -4   3  10    9.65    0.65
  -4   3  10    9.49    0.64
  -4   3  10    9.13    0.69
  -4   3  10   10.84    3.26
  -4   3  10    9.17    0.56
  -4   3  10    8.37    0.48
   3  -3 -10   12.66    0.59
   3  -3 -10   12.09    0.62
   3  -3 -10   13.13    0.73
   3  -3 -10   12.34    0.60
   3  -3 -10    9.34    2.76
  -3   3  10   11.13    0.62
  -3   3  10   11.92    0.65
  -3   3  10   12.78    0.61
  -3   3  10    8.62    2.43
  -3   3  10   11.70    0.69
  -3   3  10   12.68    0.59
   2  -3 -10   31.38    1.28
   2  -3 -10   30.28    1.33
   2  -3 -10   34.46    1.27
   2  -3 -10   32.22    1.34
   2  -3 -10   30.67    3.36
  -2   3  10   32.68    1.28
  -2   3  10   32.74    1.30
  -2   3  10   32.65    1.29
  -2   3  10   32.99    1.34
  -2   3  10   34.94    1.25
   1  -3 -10   21.97    0.89
   1  -3 -10   20.81    2.53
   1  -3 -10   21.28    0.91
   1  -3 -10   20.69    0.93
   1  -3 -10   22.61    0.87
  -1   3  10   24.58    2.53
  -1   3  10   22.74    0.91
  -1   3  10   21.39    0.89
  -1   3  10   22.03    0.86
  -1   3  10   23.16    0.95
   0  -3 -10    6.32    0.42
   0  -3 -10    6.65    0.34
   0  -3 -10    6.67    0.37
   0  -3 -10    6.51    0.37
   0   3  10    6.67    0.37
   0   3  10    6.00    0.32
   0   3  10    7.14    0.43
   0   3  10    8.02    1.67
  -1  -3 -10   22.27    0.96
  -1  -3 -10   22.27    0.91
  -1  -3 -10   25.52    2.46
  -1  -3 -10   21.13    0.85
   1   3  10   22.57    0.97
   1   3  10   21.59    0.88
   1   3  10   22.30    2.52
   1   3  10   21.55    0.86
  -2  -3 -10   32.21    1.31
  -2  -3 -10   33.24    1.36
  -2  -3 -10   33.46    1.27
  -2  -3 -10   31.95    3.01
   2   3  10   33.20    1.27
   2   3  10   34.23    1.28
   2   3  10   34.12    1.19
   2   3  10   34.49    3.57
  -3  -3 -10   11.57    2.37
  -3  -3 -10   12.25    0.59
  -3  -3 -10   12.29    0.67
  -3  -3 -10   12.53    0.68
   3   3  10   11.14    0.66
   3   3  10   12.28    2.99
   3   3  10   12.79    0.60
   3   3  10   13.04    0.60
  -4  -3 -10    8.38    2.84
  -4  -3 -10    9.28    0.56
  -4  -3 -10    9.17    0.66
  -4  -3 -10    9.38    0.60
   4   3  10    9.53    0.53
   4   3  10   10.54    0.67
   4   3  10    7.00    3.50
  -5  -3 -10    3.26    0.41
  -5  -3 -10    3.01    0.47
  -5  -3 -10    2.98    0.61
   5   3  10    3.28    0.47
   5   3  10    3.23    0.39
  -6  -3 -10    0.55    0.54
  -6  -3 -10    1.20    0.62
  -6   4  10    0.43    0.43
  -6   4  10    1.03    0.53
   5  -4 -10   18.21    0.98
   5  -4 -10   19.23    0.88
  -5   4  10   19.07    0.95
  -5   4  10   19.18    1.09
   4  -4 -10    5.82    3.69
   4  -4 -10    5.10    0.50
   4  -4 -10    4.64    0.42
   4  -4 -10    5.20    0.70
  -4   4  10    4.61    0.49
  -4   4  10    4.33    0.49
  -4   4  10    3.21    2.98
  -4   4  10    5.66    0.42
  -4   4  10    5.10    0.62
  -4   4  10    4.49    0.43
   3  -4 -10   19.02    3.51
   3  -4 -10   16.74    0.96
   3  -4 -10   19.16    0.82
   3  -4 -10   18.82    0.83
   3  -4 -10   17.75    0.83
  -3   4  10   17.71    0.95
  -3   4  10   17.64    0.80
  -3   4  10   17.86    0.88
  -3   4  10   18.65    0.84
  -3   4  10   21.15    3.36
  -3   4  10   17.94    0.85
   2  -4 -10    7.44    2.26
   2  -4 -10    7.55    0.48
   2  -4 -10    8.42    0.47
   2  -4 -10    7.31    0.52
   2  -4 -10    7.91    0.46
  -2   4  10    7.74    0.49
  -2   4  10    8.61    0.49
  -2   4  10    5.93    2.04
  -2   4  10    8.09    0.42
  -2   4  10    7.15    0.50
   1  -4 -10  117.74    4.06
   1  -4 -10  109.03    6.18
   1  -4 -10  113.22    4.00
   1  -4 -10  115.15    3.96
   1  -4 -10  117.40    4.03
  -1   4  10  108.14    6.02
  -1   4  10  112.70    3.95
  -1   4  10  110.74    3.99
  -1   4  10  112.71    4.01
   0  -4 -10    7.39    0.44
   0  -4 -10    7.71    0.49
   0  -4 -10    8.20    0.40
   0   4  10    6.96    1.87
   0   4  10    7.10    0.50
   0   4  10    8.01    0.43
  -1  -4 -10  102.78    5.84
  -1  -4 -10  111.22    4.01
  -1  -4 -10  116.78    3.97
  -1  -4 -10  108.30    3.88
  -1  -4 -10  115.91    3.94
   1   4  10  112.21    6.31
   1   4  10  109.95    3.90
   1   4  10  115.45    3.93
   1   4  10  106.99    4.01
  -2  -4 -10    8.09    0.55
  -2  -4 -10    8.29    0.51
  -2  -4 -10    8.81    2.29
   2   4  10    7.95    0.56
   2   4  10    7.92    0.45
   2   4  10    8.23    0.49
   2   4  10    8.22    0.38
  -3  -4 -10   17.65    0.91
  -3  -4 -10   17.78    0.80
  -3  -4 -10   17.87    0.90
  -3  -4 -10   18.28    3.11
   3   4  10   16.98    3.67
   3   4  10   18.74    0.84
   3   4  10   18.30    0.95
   3   4  10   18.16    0.83
   3   4  10   18.88    0.70
  -4  -4 -10   10.93    3.25
  -4  -4 -10    5.57    0.43
  -4  -4 -10    3.87    0.53
   4   4  10    5.27    0.50
   4   4  10    5.45    0.46
   4   4  10    5.25    0.63
   4   4  10    3.09    4.01
  -5  -4 -10   19.82    1.10
   5   4  10   19.02    1.11
   5   4  10   19.12    0.96
   5   4  10   19.65    0.95
  -6  -4 -10    0.61    0.62
  -6  -4 -10    0.69    0.71
   6   4  10    0.20    0.43
   5  -5 -10    0.04    0.29
   5  -5 -10   -0.07    0.47
  -5   5  10    1.03    0.44
  -5   5  10   -0.22    0.30
   4  -5 -10    0.27    0.31
   4  -5 -10    0.26    0.24
   4  -5 -10    0.91    0.52
  -4   5  10    0.49    0.31
  -4   5  10    0.80    0.37
  -4   5  10    0.56    0.24
  -4   5  10    0.58    0.28
   3  -5 -10    4.56    0.43
   3  -5 -10   -3.48    3.02
   3  -5 -10    3.95    0.54
   3  -5 -10    4.77    0.39
  -3   5  10    4.59    0.45
  -3   5  10    0.86    2.53
  -3   5  10    4.50    0.38
  -3   5  10    4.03    0.45
   2  -5 -10   11.35    0.70
   2  -5 -10   12.33    2.94
   2  -5 -10   10.90    0.58
   2  -5 -10   10.43    0.59
   2  -5 -10   11.39    0.64
  -2   5  10   10.52    0.60
  -2   5  10   11.72    0.62
  -2   5  10   11.74    0.56
  -2   5  10   10.99    2.60
  -2   5  10    9.77    0.66
   1  -5 -10    2.99    0.39
   1  -5 -10    3.54    2.36
   1  -5 -10    3.03    0.28
   1  -5 -10    2.82    0.33
   1  -5 -10    2.94    0.35
  -1   5  10    3.13    0.34
  -1   5  10   -0.80    1.73
  -1   5  10    3.00    0.27
  -1   5  10    2.33    0.35
  -1   5  10    3.05    0.31
   0  -5 -10   10.73    0.67
   0  -5 -10   10.12    0.51
   0  -5 -10   11.64    0.58
   0  -5 -10   10.79    2.55
   0  -5 -10   11.59    0.62
   0   5  10   10.28    0.57
   0   5  10   10.14    0.52
   0   5  10   11.44    0.67
   0   5  10   13.08    2.74
  -1  -5 -10    3.04    0.39
  -1  -5 -10    2.81    0.26
  -1  -5 -10    2.85    0.35
  -1  -5 -10    1.20    2.06
  -1  -5 -10    2.71    0.31
   1   5  10    2.86    0.29
   1   5  10    2.94    0.33
   1   5  10    2.82    0.39
   1   5  10    5.43    2.53
  -2  -5 -10   12.02    0.68
  -2  -5 -10   11.48    0.70
  -2  -5 -10   11.08    0.58
   2   5  10   11.81    0.64
   2   5  10   10.44    0.73
   2   5  10   11.05    0.53
   2   5  10   11.11    0.61
   2   5  10   11.40    3.43
  -3  -5 -10    4.78    0.43
  -3  -5 -10    9.00    2.92
  -3  -5 -10    3.88    0.48
   3   5  10    5.06    0.57
   3   5  10    4.14    0.48
   3   5  10    4.97    0.31
   3   5  10    4.52    0.42
   3   5  10    5.10    3.74
  -4  -5 -10   -0.15    0.28
  -4  -5 -10   -0.12    0.34
   4   5  10    0.35    5.05
   4   5  10   -0.04    0.28
   4   5  10    0.72    0.34
   4   5  10    0.74    0.46
   4   5  10    0.41    0.13
  -5  -5 -10    0.72    0.47
   5   5  10   -0.47    0.55
   5   5  10    0.32    0.38
   5   5  10   -0.24    0.41
  -5   6  10   11.80    0.78
  -5   6  10   11.51    0.90
   4  -6 -10    5.48    0.62
   4  -6 -10    6.15    0.54
  -4   6  10    6.52    0.61
  -4   6  10    6.37    0.52
  -4   6  10    5.83    0.62
   3  -6 -10   23.31    1.28
   3  -6 -10   23.36    1.06
   3  -6 -10   24.14    1.08
   3  -6 -10   26.73    4.63
  -3   6  10   24.73    1.13
  -3   6  10   24.24    1.16
  -3   6  10   23.51    1.12
  -3   6  10   28.35    4.28
  -3   6  10   25.21    1.04
   2  -6 -10    3.70    0.43
   2  -6 -10    4.03    0.41
   2  -6 -10    3.85    0.54
   2  -6 -10    7.10    3.14
  -2   6  10    3.34    0.42
  -2   6  10    4.47    0.44
  -2   6  10    2.04    2.49
  -2   6  10    4.83    0.54
   1  -6 -10   13.14    0.65
   1  -6 -10   12.45    0.73
   1  -6 -10   11.49    2.93
   1  -6 -10   12.43    0.69
  -1   6  10   12.94    0.62
  -1   6  10   13.33    0.81
  -1   6  10   13.15    0.69
  -1   6  10   13.37    3.24
   0  -6 -10    1.50    0.26
   0  -6 -10    2.03    2.27
   0  -6 -10    1.15    0.21
   0  -6 -10    1.74    0.31
   0   6  10    0.77    0.32
   0   6  10    2.31    2.63
   0   6  10    1.28    0.23
   0   6  10    1.48    0.28
  -1  -6 -10   14.36    0.72
  -1  -6 -10   13.34    0.65
  -1  -6 -10   13.76    0.76
  -1  -6 -10   16.36    3.32
   1   6  10   13.18    3.35
   1   6  10   12.43    0.82
   1   6  10   14.87    0.69
   1   6  10   12.89    0.72
  -2  -6 -10    3.57    0.40
  -2  -6 -10    3.80    0.36
  -2  -6 -10    9.98    3.32
  -2  -6 -10    4.18    0.48
   2   6  10    3.58    0.39
   2   6  10    3.59    0.45
   2   6  10    3.77    0.52
   2   6  10    5.14    4.03
   2   6  10    3.97    0.35
  -3  -6 -10   24.77    1.23
  -3  -6 -10   27.03    4.53
   3   6  10   23.02    1.13
   3   6  10   25.03    1.15
   3   6  10   22.98    5.60
   3   6  10   24.90    1.27
   3   6  10   23.97    1.00
  -4  -6 -10    2.20    4.16
  -4  -6 -10    5.93    0.72
   4   6  10    5.56    0.39
   4   6  10   -0.25    6.73
   4   6  10    5.97    0.87
   4   6  10    5.64    0.65
   4   6  10    7.07    0.65
  -5  -6 -10   11.86    1.06
   5   6  10   12.56    0.95
   4  -7 -10    3.25    0.43
  -4   7  10    3.40    0.52
  -4   7  10    3.85    0.45
  -4   7  10    2.84    0.57
   3  -7 -10    1.09    0.36
   3  -7 -10    1.47    0.33
  -3   7  10    0.61    0.33
  -3   7  10    1.55    0.47
  -3   7  10    1.31    0.27
   2  -7 -10    4.66    0.52
   2  -7 -10    4.98    0.67
   2  -7 -10    4.50    0.49
  -2   7  10    4.58    0.52
  -2   7  10    6.55    0.70
  -2   7  10    4.40    4.33
  -2   7  10    5.17    0.42
  -2   7  10    5.97    0.52
   1  -7 -10    4.22    0.49
   1  -7 -10    4.61    0.44
   1  -7 -10    4.63    0.55
   1  -7 -10    4.42    3.58
  -1   7  10    3.93    3.31
  -1   7  10    4.53    0.54
  -1   7  10    4.54    0.62
   0  -7 -10    3.27    3.27
   0  -7 -10    2.09    0.31
   0  -7 -10    2.61    0.42
   0  -7 -10    2.53    0.37
   0   7  10    2.83    0.39
   0   7  10    1.61    0.47
   0   7  10    2.30    0.31
   0   7  10    3.08    3.77
  -1  -7 -10    4.46    0.44
  -1  -7 -10    3.95    0.46
  -1  -7 -10   10.81    3.58
  -1  -7 -10    5.08    0.60
   1   7  10    4.21    0.50
   1   7  10    3.96    0.45
   1   7  10    4.20    0.58
   1   7  10    0.65    4.14
   1   7  10    4.24    0.42
  -2  -7 -10    5.06    3.73
  -2  -7 -10    4.55    0.53
  -2  -7 -10    4.95    0.60
   2   7  10    2.10    4.56
   2   7  10    4.98    0.50
   2   7  10    5.90    0.46
   2   7  10    5.61    0.67
  -3  -7 -10    1.49    0.46
  -3  -7 -10    1.29    4.37
   3   7  10   -2.89    6.51
   3   7  10    1.01    0.27
   3   7  10    1.30    0.36
  -4  -7 -10    3.77    0.66
   4   7  10    3.57    0.45
   4   7  10    2.89    0.59
  -4   8  10    1.33    0.49
  -4   8  10    2.05    0.44
   3  -8 -10    1.56    0.42
  -3   8  10    2.54    0.49
  -3   8  10    1.34    0.61
  -3   8  10    2.43    0.38
   2  -8 -10    1.70    0.42
   2  -8 -10    2.11    0.40
  -2   8  10    2.43    0.39
   1  -8 -10    3.40    0.41
   1  -8 -10    2.47    0.48
   1  -8 -10    3.07    0.49
  -1   8  10    2.71    0.36
   0  -8 -10    0.37    0.29
   0  -8 -10   -0.29    0.34
   0  -8 -10    0.44    0.42
   0   8  10    0.30    0.28
  -1  -8 -10    3.19    0.44
  -1  -8 -10    2.15    0.53
   1   8  10    2.62    0.41
   1   8  10    2.89    0.42
  -2  -8 -10    1.99    0.57
  -2  -8 -10    2.30    0.41
   2   8  10    2.34    0.47
  -3  -8 -10    1.87    0.58
   3   8  10    1.25    0.37
   3   8  10    1.48    0.47
   4   8  10    0.91    0.56
  -3   9  10    0.24    0.47
  -3   9  10    1.39    0.46
   2  -9 -10    6.50    0.77
  -2   9  10    6.48    0.60
   1  -9 -10    8.23    0.86
  -1   9  10    8.74    0.72
   0  -9 -10   -0.59    0.47
   0   9  10    0.25    0.36
   0   9  10   -0.37    0.44
  -1  -9 -10    7.65    0.97
   1   9  10    8.52    0.78
   1   9  10    8.23    0.72
  -2  -9 -10    6.15    0.83
   2   9  10    5.20    0.63
   2   9  10    5.43    0.69
   2   9 -11    0.88    0.47
   2   9 -11    0.74    0.58
  -2  -9  11    1.80    0.45
   1   9 -11    5.57    0.74
   1   9 -11    5.36    0.63
  -1  -9  11    5.67    0.51
   0   9 -11    1.93    0.53
   0   9 -11    0.78    0.40
  -1   9 -11    4.99    0.78
  -1   9 -11    4.69    0.70
  -1   9 -11    6.80    0.62
  -2   9 -11    2.31    0.57
  -2   9 -11    1.04    0.37
   4   8 -11    0.31    0.66
  -4  -8  11    0.16    0.63
   3   8 -11    7.16    0.85
   3   8 -11    7.47    0.86
  -3  -8  11    7.40    0.81
   2   8 -11    4.38    0.60
   2   8 -11    6.48    0.80
  -2  -8  11    3.82    0.48
   1   8 -11    4.96    0.59
   1   8 -11    5.39    0.65
  -1  -8  11    4.73    0.45
  -1  -8  11    4.71    0.37
   0   8 -11    0.63    0.31
   0   8 -11    1.18    0.41
   0   8 -11    1.76    0.45
  -1   8 -11    6.06    0.62
  -1   8 -11    5.86    0.50
  -1   8 -11    4.97    0.63
  -2   8 -11    4.77    0.59
  -2   8 -11    5.25    0.60
  -2   8 -11    4.59    0.44
  -3   8 -11    7.13    0.85
  -3   8 -11    7.94    0.51
  -4   8 -11    0.60    0.58
   4   7 -11    4.95    0.74
   4   7 -11    4.96    0.69
  -4  -7  11    5.75    0.70
  -4  -7  11    5.69    0.55
   3   7 -11    3.69    0.53
   3   7 -11    4.79    0.65
  -3  -7  11    5.19    0.59
  -3  -7  11    4.20    0.30
  -3  -7  11    5.54    0.57
   2   7 -11    2.96    0.50
   2   7 -11    2.44    0.49
   2   7 -11    3.07    0.46
  -2  -7  11    3.18    0.36
  -2  -7  11    3.82    0.42
   1   7 -11    6.28    0.63
   1   7 -11    5.12    0.58
   1   7 -11    5.42    0.60
   1   7 -11    0.29    4.03
  -1  -7  11    6.12    0.48
  -1  -7  11    5.03    0.41
  -1  -7  11    2.86    3.14
   0   7 -11   20.14    1.00
   0   7 -11   20.33    4.27
   0   7 -11   21.94    0.96
   0   7 -11   22.56    1.10
   0  -7  11   20.02    0.75
   0  -7  11   19.92    0.74
   0  -7  11   26.30    3.69
  -1   7 -11    5.75    0.49
  -1   7 -11    5.43    0.41
  -1   7 -11    4.46    2.86
  -1   7 -11    6.21    0.56
   1  -7  11    4.15    2.11
  -2   7 -11    1.59    2.31
  -2   7 -11    3.08    0.30
  -2   7 -11    2.95    0.22
  -2   7 -11    3.55    0.51
  -2   7 -11    3.52    0.37
   2  -7  11    1.61    1.82
  -3   7 -11    4.17    0.38
  -3   7 -11    4.34    0.33
  -3   7 -11    4.14    0.56
  -4   7 -11    5.37    0.57
  -4   7 -11    6.13    0.78
   5   6 -11    2.91    0.64
   5   6 -11    3.52    0.64
  -5  -6  11    3.13    0.53
  -5  -6  11    3.26    0.70
   4   6 -11    3.81    0.59
   4   6 -11    4.01    0.62
  -4  -6  11    4.24    0.57
  -4  -6  11    3.32    0.40
   3   6 -11   13.83    0.90
   3   6 -11   20.01    5.85
   3   6 -11   13.46    0.83
  -3  -6  11   13.85    0.63
  -3  -6  11   14.39    0.78
  -3  -6  11   11.24    4.88
  -3  -6  11   11.98    0.82
  -3  -6  11   15.36    0.85
   2   6 -11    1.32    0.38
   2   6 -11    2.88    3.65
   2   6 -11    0.81    0.33
   2   6 -11    0.83    0.27
  -2  -6  11    1.03    0.24
  -2  -6  11   -0.44    3.38
  -2  -6  11    1.24    0.32
  -2  -6  11    1.12    0.29
   1   6 -11   35.06    1.47
   1   6 -11   35.59    1.43
   1   6 -11   34.49    5.08
  -1  -6  11   34.88    1.36
  -1  -6  11   35.40    4.53
   0   6 -11   13.14    3.00
   0   6 -11   17.83    0.88
   0   6 -11   15.01    0.73
   0   6 -11   15.62    0.79
   0  -6  11   16.28    2.69
   0  -6  11   15.73    0.60
   0  -6  11   16.21    0.59
  -1   6 -11   36.32    1.33
  -1   6 -11   37.13    1.50
  -1   6 -11   34.47    1.37
  -1   6 -11   32.99    3.79
   1  -6  11   26.62    2.99
  -2   6 -11    1.37    0.22
  -2   6 -11    0.96    1.52
  -2   6 -11    1.15    0.16
  -2   6 -11    1.01    0.15
   2  -6  11    2.98    1.21
  -3   6 -11   13.91    0.62
  -3   6 -11   13.34    0.82
  -3   6 -11   14.48    0.69
  -4   6 -11    3.89    0.47
  -4   6 -11    4.37    0.53
  -4   6 -11    3.91    0.25
  -4   6 -11    4.24    0.48
  -4   6 -11    3.63    0.31
  -5   6 -11    3.35    0.59
  -5   6 -11    4.05    0.57
   5   5 -11    2.58    0.55
   5   5 -11    1.85    0.54
  -5  -5  11    1.76    0.42
  -5  -5  11    2.37    0.51
   4   5 -11    1.18    0.40
   4   5 -11    0.92    0.36
   4   5 -11   -4.60    5.17
  -4  -5  11   -0.96    5.27
  -4  -5  11    1.17    0.40
  -4  -5  11    1.00    0.38
   3   5 -11    0.59    0.36
   3   5 -11    1.43    3.99
   3   5 -11    1.27    0.31
   3   5 -11    0.64    0.37
  -3  -5  11    0.82    0.30
  -3  -5  11    0.59    0.31
  -3  -5  11    0.81    0.32
  -3  -5  11   -2.27    3.90
  -3  -5  11    0.53    0.17
   2   5 -11    6.58    0.55
   2   5 -11    6.98    0.53
   2   5 -11    8.35    0.61
   2   5 -11   10.14    3.46
  -2  -5  11    7.42    0.50
  -2  -5  11    7.72    0.33
  -2  -5  11    8.24    0.47
  -2  -5  11    7.78    0.56
  -2  -5  11    6.40    3.01
   1   5 -11   36.44    5.22
   1   5 -11   49.87    1.88
   1   5 -11   47.86    1.95
   1   5 -11   50.43    1.91
  -1  -5  11   50.28    1.78
  -1  -5  11   52.42    1.83
  -1  -5  11   48.62    1.92
   0   5 -11    0.15    0.18
   0   5 -11    0.13    0.14
   0   5 -11   -0.03    1.79
   0   5 -11    0.13    0.20
   0  -5  11   -0.27    1.57
   0  -5  11    0.05    0.07
   0  -5  11    0.22    0.06
  -1   5 -11   48.48    1.78
  -1   5 -11   49.36    3.60
  -1   5 -11   48.89    1.74
  -1   5 -11   46.67    1.88
   1  -5  11   50.30    3.10
  -2   5 -11    6.67    0.37
  -2   5 -11    7.21    0.38
  -2   5 -11    7.34    0.32
  -2   5 -11    7.40    0.52
   2  -5  11    7.00    0.82
   2  -5  11    7.84    0.96
  -3   5 -11    0.52    0.25
  -3   5 -11    0.62    0.15
  -3   5 -11    0.43    0.27
  -3   5 -11    0.58    0.09
  -3   5 -11    0.78    0.22
  -4   5 -11    1.00    0.15
  -4   5 -11    0.95    0.28
  -4   5 -11    0.79    0.30
  -4   5 -11    0.95    0.13
  -4   5 -11    0.73    0.32
  -5   5 -11    1.97    0.34
  -5   5 -11    2.53    0.44
  -5   5 -11    2.34    0.49
  -5   5 -11    2.16    0.22
   6   4 -11    0.28    0.58
   6   4 -11    0.70    0.55
  -6  -4  11    0.95    0.64
  -6  -4  11    0.31    0.55
   5   4 -11    8.45    0.80
   5   4 -11    9.77    0.83
  -5  -4  11   11.95    6.56
  -5  -4  11    8.15    0.74
  -5  -4  11   11.03    0.86
   4   4 -11   15.69    0.95
   4   4 -11   15.29    0.90
   4   4 -11   14.89    0.90
  -4  -4  11   15.43    0.81
  -4  -4  11   15.80    0.87
  -4  -4  11   16.49    0.92
  -4  -4  11   17.12    0.90
  -4  -4  11   16.12    4.77
   3   4 -11   12.62    3.88
   3   4 -11    7.73    0.60
   3   4 -11    7.94    0.54
   3   4 -11    6.58    0.58
  -3  -4  11    7.21    0.44
  -3  -4  11    7.73    0.55
  -3  -4  11    7.91    0.53
  -3  -4  11    6.98    0.50
  -3  -4  11    9.60    3.66
   2   4 -11    5.65    2.59
   2   4 -11    3.82    0.36
   2   4 -11    4.07    0.41
   2   4 -11    4.09    0.45
  -2  -4  11    4.43    0.35
  -2  -4  11    3.23    0.37
  -2  -4  11    3.96    0.32
  -2  -4  11    4.34    0.25
  -2  -4  11    4.85    2.54
   1   4 -11   13.15    2.75
   1   4 -11   12.85    0.68
   1   4 -11   12.01    0.59
  -1  -4  11   12.09    0.56
  -1  -4  11   12.26    0.55
  -1  -4  11   13.34    0.65
   0   4 -11  162.84    5.48
   0   4 -11  157.70    5.45
   0   4 -11  160.32    7.46
   0   4 -11  154.64    5.55
   0  -4  11  149.55    5.36
   0  -4  11  153.07    5.37
   0  -4  11  168.09    5.54
   0  -4  11  160.06    7.21
  -1   4 -11   12.01    0.63
  -1   4 -11   12.22    0.49
  -1   4 -11   12.04    0.52
  -1   4 -11   11.93    0.48
   1  -4  11   13.32    1.55
  -2   4 -11    3.57    0.20
  -2   4 -11    3.46    0.29
  -2   4 -11    4.33    0.35
  -3   4 -11    7.62    0.52
  -3   4 -11    7.16    0.51
  -3   4 -11    8.25    0.50
  -3   4 -11    7.86    0.29
  -3   4 -11    7.66    0.30
  -4   4 -11   15.91    0.90
  -4   4 -11   15.28    0.60
  -4   4 -11   15.72    0.61
  -4   4 -11   16.15    0.79
  -4   4 -11   15.91    0.77
  -5   4 -11    8.98    0.83
  -5   4 -11    9.53    0.55
  -5   4 -11    9.86    0.64
  -5   4 -11    9.43    0.50
  -5   4 -11    9.54    0.48
  -6   4 -11    0.15    0.37
  -6   4 -11   -0.47    0.56
   6   3 -11    0.85    0.50
   6   3 -11    0.98    0.52
   6   3 -11    1.05    0.53
  -6  -3  11    1.89    0.57
  -6  -3  11    1.39    0.58
   5   3 -11    7.86    0.61
   5   3 -11    7.90    0.69
   5   3 -11    8.25    0.73
  -5  -3  11    7.41    0.75
  -5  -3  11    9.10    5.63
  -5  -3  11   14.15    6.95
  -5  -3  11    8.84    0.70
  -5  -3  11    8.46    0.68
   4   3 -11    2.43    0.37
   4   3 -11    1.80    0.42
   4   3 -11    2.68    0.40
  -4  -3  11    2.85    0.41
  -4  -3  11    2.20    0.34
  -4  -3  11    1.20    3.65
  -4  -3  11    1.94    0.35
  -4  -3  11    4.93    4.04
  -4  -3  11    2.63    0.39
   3   3 -11   39.61    1.65
   3   3 -11   42.65    1.68
   3   3 -11   40.07    1.62
  -3  -3  11   41.20    1.57
  -3  -3  11   34.32    4.86
  -3  -3  11   40.56    1.61
  -3  -3  11   40.63    1.60
  -3  -3  11   40.65    1.65
   2   3 -11   23.51    1.00
   2   3 -11   23.77    1.03
   2   3 -11   22.98    0.98
   2   3 -11   22.38    0.93
  -2  -3  11   24.04    0.89
  -2  -3  11   21.85    1.01
  -2  -3  11   24.11    1.01
  -2  -3  11   21.78    0.95
  -2  -3  11   19.58    3.13
   1   3 -11   57.42    2.21
   1   3 -11   59.80    2.26
   1   3 -11   60.78    2.20
   1   3 -11   62.81    2.12
  -1  -3  11   62.51    2.17
  -1  -3  11   63.32    2.16
  -1  -3  11   58.90    2.33
  -1  -3  11   60.15    2.09
   0   3 -11    0.97    0.14
   0   3 -11    1.04    0.15
   0   3 -11    1.05    0.07
   0   3 -11    0.82    0.19
   0  -3  11    0.80    0.09
   0  -3  11    0.75    1.05
   0  -3  11    0.66    0.09
   0  -3  11    1.21    1.07
   0  -3  11    1.35    0.21
  -1   3 -11   54.30    2.14
  -1   3 -11   60.97    2.04
  -1   3 -11   58.43    2.04
  -1   3 -11   55.33    2.08
   1  -3  11   60.60    2.89
   1  -3  11   65.83    2.94
  -2   3 -11   22.14    0.94
  -2   3 -11   23.44    0.99
  -2   3 -11   23.55    0.96
  -3   3 -11   40.99    1.55
  -3   3 -11   40.48    1.65
  -3   3 -11   41.41    1.59
  -4   3 -11    1.90    0.26
  -4   3 -11    2.16    0.20
  -4   3 -11    2.36    0.30
  -4   3 -11    3.06    0.45
  -4   3 -11    2.47    0.21
  -5   3 -11    8.22    0.46
  -5   3 -11    8.85    0.53
  -5   3 -11    8.29    0.47
  -5   3 -11    8.72    0.47
  -5   3 -11    7.62    0.80
  -6   3 -11    0.77    0.31
  -6   3 -11    1.11    0.32
  -6   3 -11    1.05    0.62
   6   2 -11    1.00    0.48
  -6  -2  11    3.06    0.59
  -6  -2  11    2.76    0.58
   5   2 -11   11.68    0.86
   5   2 -11   12.00    0.75
   5   2 -11   11.04    0.81
   5   2 -11   11.59    0.66
  -5  -2  11   18.04    5.40
  -5  -2  11   16.79    5.66
  -5  -2  11   11.41    0.78
  -5  -2  11   13.06    0.79
  -5  -2  11   11.76    0.85
   4   2 -11    7.67    0.69
   4   2 -11    8.81    0.62
   4   2 -11   10.04    0.61
   4   2 -11    9.09    0.55
   4   2 -11    9.17    0.68
  -4  -2  11    9.12    0.67
  -4  -2  11    9.92    0.62
  -4  -2  11    9.99    0.98
  -4  -2  11    7.95    3.83
  -4  -2  11    9.55    0.63
   3   2 -11   15.41    0.80
   3   2 -11   14.43    0.79
   3   2 -11   15.87    0.78
   3   2 -11   16.26    0.81
   3   2 -11   17.34    0.78
  -3  -2  11   19.43    3.49
  -3  -2  11   20.96    3.41
  -3  -2  11   16.66    0.79
  -3  -2  11   16.25    0.75
  -3  -2  11   17.48    0.78
  -3  -2  11   16.36    0.81
   2   2 -11   26.59    1.04
   2   2 -11   24.36    1.00
   2   2 -11   24.14    1.05
  -2  -2  11   25.10    1.01
  -2  -2  11   26.53    3.42
  -2  -2  11   25.98    3.42
  -2  -2  11   24.31    1.00
  -2  -2  11   24.77    0.96
  -2  -2  11   23.37    1.12
   1   2 -11   27.84    1.01
   1   2 -11   27.23    1.06
   1   2 -11   26.69    1.06
   1   2 -11   27.69    1.11
  -1  -2  11   27.95    2.84
  -1  -2  11   26.86    1.03
  -1  -2  11   26.55    2.78
  -1  -2  11   28.13    0.99
  -1  -2  11   25.34    1.08
  -1  -2  11   26.66    1.02
   0   2 -11   51.63    1.90
   0   2 -11   51.56    1.80
   0   2 -11   50.82    1.84
   0   2 -11   52.58    1.93
   0   2 -11   50.19    1.83
   0  -2  11   52.55    1.78
   0  -2  11   51.70    1.79
   0  -2  11   47.89    3.00
   0  -2  11   51.81    3.17
   0  -2  11   53.14    1.89
  -1   2 -11   24.01    0.99
  -1   2 -11   26.31    0.90
  -1   2 -11   26.62    0.91
  -1   2 -11   24.77    1.04
   1  -2  11   26.28    1.56
   1  -2  11   26.04    1.73
   1  -2  11   25.06    0.98
  -2   2 -11   25.34    1.02
  -2   2 -11   23.68    0.95
  -3   2 -11   17.25    0.68
  -3   2 -11   15.83    0.58
  -3   2 -11   16.04    0.83
  -3   2 -11   15.07    0.72
  -3   2 -11   16.60    0.58
  -4   2 -11    8.42    0.66
  -4   2 -11    9.79    0.44
  -4   2 -11    9.05    0.47
  -4   2 -11   10.42    0.51
  -4   2 -11    9.28    0.43
  -5   2 -11   15.32    1.50
  -5   2 -11   11.41    0.58
  -5   2 -11   11.28    0.61
  -5   2 -11   10.92    1.23
  -5   2 -11   11.46    0.57
  -5   2 -11   10.29    0.89
  -5   2 -11   11.73    0.54
  -5   2 -11   11.78    0.60
  -6   2 -11    2.50    0.39
  -6   2 -11    3.16    0.69
  -6   2 -11   -0.52    1.70
  -6   2 -11    2.88    0.57
  -6   2 -11    2.93    0.32
   6   1 -11    0.67    0.41
  -6  -1  11    0.69    0.42
  -6  -1  11   -0.32    0.46
   5   1 -11    6.90    0.43
   5   1 -11    6.68    0.73
   5   1 -11    5.99    0.57
   5   1 -11    6.74    0.76
  -5  -1  11    7.27    0.64
  -5  -1  11    6.48    0.66
  -5  -1  11    0.93    4.82
  -5  -1  11    5.90    0.68
  -5  -1  11    5.92    0.64
  -5  -1  11    9.55    4.42
   4   1 -11   50.64    1.88
   4   1 -11   46.30    2.03
   4   1 -11   51.01    2.00
   4   1 -11   51.32    2.01
   4   1 -11   51.55    1.96
  -4  -1  11   49.52    1.97
  -4  -1  11   57.74    6.13
  -4  -1  11   50.44    1.96
  -4  -1  11   48.65    2.00
  -4  -1  11   50.80    2.00
  -4  -1  11   51.99    5.81
   3   1 -11   15.11    0.75
   3   1 -11   13.62    0.71
   3   1 -11   14.45    0.69
   3   1 -11   15.25    0.76
  -3  -1  11   15.58    0.73
  -3  -1  11   17.03    0.74
  -3  -1  11   15.36    3.11
  -3  -1  11   17.19    3.20
  -3  -1  11   15.12    0.73
  -3  -1  11   15.60    0.78
   2   1 -11   16.34    0.75
   2   1 -11   15.84    0.75
   2   1 -11   16.84    0.75
   2   1 -11   17.06    0.79
   2   1 -11   18.56    0.77
  -2  -1  11   20.74    3.03
  -2  -1  11   17.24    0.73
  -2  -1  11   17.08    0.79
  -2  -1  11   17.31    0.75
  -2  -1  11   18.05    0.72
  -2  -1  11   17.08    2.63
   1   1 -11   64.73    2.40
   1   1 -11   65.77    2.45
   1   1 -11   66.51    2.41
   1   1 -11   67.39    2.39
   1   1 -11   69.08    2.45
  -1  -1  11   67.84    2.40
  -1  -1  11   71.37    2.37
  -1  -1  11   65.67    2.37
  -1  -1  11   70.34    2.45
  -1  -1  11   65.88    3.98
   0   1 -11   99.90    4.65
   0   1 -11  101.01    3.37
   0   1 -11   87.29    3.42
   0   1 -11   99.20    3.41
   0   1 -11   97.99    3.39
   0   1 -11  103.74    3.48
   0  -1  11   96.71    3.36
   0  -1  11  100.53    3.42
   0  -1  11   95.30    3.34
   0  -1  11   95.95    4.51
  -1   1 -11   65.19    2.32
  -1   1 -11   62.61    2.25
  -1   1 -11   67.76    3.12
  -1   1 -11   67.86    2.39
  -1   1 -11   65.89    2.27
   1  -1  11   66.71    2.31
   1  -1  11   64.25    2.93
  -2   1 -11   16.33    0.65
  -2   1 -11   17.04    0.73
  -2   1 -11   16.69    0.59
  -2   1 -11   15.14    1.16
  -2   1 -11   16.25    0.64
   2  -1  11   16.74    1.27
  -3   1 -11   14.83    1.23
  -3   1 -11   15.55    0.60
  -3   1 -11   15.83    0.69
  -3   1 -11   15.28    0.59
  -3   1 -11   14.84    0.59
   3  -1  11   15.00    1.60
  -4   1 -11   50.47    2.09
  -4   1 -11   50.73    1.82
  -4   1 -11   50.87    1.79
  -4   1 -11   50.07    1.87
  -4   1 -11   51.22    2.81
  -4   1 -11   49.89    1.84
  -5   1 -11    5.70    0.38
  -5   1 -11    7.23    2.15
  -5   1 -11    5.05    0.65
  -5   1 -11    3.95    1.65
  -5   1 -11    6.85    0.39
  -5   1 -11    6.86    0.35
  -5   1 -11    6.72    0.49
  -5   1 -11    7.60    0.72
  -6   1 -11    0.42    0.18
  -6   1 -11    0.66    0.34
  -6   1 -11   -0.43    0.52
  -6   1 -11    0.56    0.34
   6   0 -11   -0.62    0.54
   6   0 -11    0.44    0.37
  -6   0  11    0.44    0.39
  -6   0  11    0.40    0.46
   5   0 -11   18.79    1.17
   5   0 -11   17.08    0.73
   5   0 -11   18.64    0.93
   5   0 -11   17.72    1.02
  -5   0  11   19.10    5.06
  -5   0  11   18.54    1.03
  -5   0  11   19.19    0.94
  -5   0  11   17.17    1.02
  -5   0  11   19.90    5.29
  -5   0  11   18.36    1.02
   4   0 -11   53.34    2.21
   4   0 -11   58.25    2.19
   4   0 -11   56.68    2.10
   4   0 -11   54.98    2.30
  -4   0  11   58.25    2.20
  -4   0  11   63.83    5.92
  -4   0  11   60.88    2.29
  -4   0  11   60.61    2.26
  -4   0  11   56.05    2.21
  -4   0  11   67.83    6.30
   3   0 -11   32.45    1.31
   3   0 -11   31.05    1.26
   3   0 -11   30.48    1.27
   3   0 -11   30.28    1.33
   3   0 -11   30.51    1.22
  -3   0  11   31.35    1.28
  -3   0  11   32.29    1.26
  -3   0  11   30.71    1.28
  -3   0  11   36.21    3.97
  -3   0  11   32.59    1.33
  -3   0  11   31.88    3.96
   2   0 -11    0.88    0.18
   2   0 -11    0.97    0.19
   2   0 -11    1.20    0.18
   2   0 -11    0.92    1.39
   2   0 -11    1.06    0.17
   2   0 -11    1.07    0.19
  -2   0  11    0.81    0.15
  -2   0  11    1.01    0.20
  -2   0  11   -0.22    1.54
  -2   0  11    1.30    0.22
  -2   0  11    1.12    0.17
   1   0 -11    5.35    0.30
   1   0 -11    4.78    0.29
   1   0 -11    5.22    0.30
   1   0 -11    6.02    1.76
   1   0 -11    5.17    0.33
   1   0 -11    5.03    0.33
  -1   0  11    4.70    0.26
  -1   0  11    4.97    0.28
  -1   0  11    6.56    1.51
  -1   0  11    4.74    0.33
  -1   0  11    5.15    0.30
  -1   0  11    4.65    0.32
   0   0 -11    0.20    0.09
   0   0 -11    0.06    0.07
   0   0 -11    0.33    0.08
   0   0 -11    0.25    0.08
   0   0 -11    0.23    0.12
   0   0 -11    1.24    0.87
   0   0  11    0.22    0.09
   0   0  11   -0.11    0.77
   0   0  11    0.12    0.08
   0   0  11    0.17    0.11
  -1   0 -11    5.17    0.24
  -1   0 -11    4.62    0.25
  -1   0 -11    4.39    0.31
  -1   0 -11    3.58    0.87
   1   0  11    4.47    0.21
   1   0  11    4.91    0.33
   1   0  11    4.73    0.21
   1   0  11    4.50    0.24
   1   0  11    5.66    0.96
  -2   0 -11    1.30    0.14
  -2   0 -11    1.28    0.13
  -2   0 -11    0.37    0.63
  -2   0 -11    0.99    0.18
   2   0  11    0.95    0.19
   2   0  11    1.06    0.85
  -3   0 -11   31.30    1.15
  -3   0 -11   27.92    2.17
  -3   0 -11   31.72    1.06
  -3   0 -11   31.16    1.13
  -3   0 -11   30.70    1.22
   3   0  11   27.60    2.63
   3   0  11   30.56    1.22
  -4   0 -11   56.63    2.07
  -4   0 -11   57.44    2.04
  -4   0 -11   59.62    2.09
  -4   0 -11   56.85    2.30
  -4   0 -11   53.48    3.52
   4   0  11   50.62    4.19
   4   0  11   55.07    2.08
  -5   0 -11   12.87    2.53
  -5   0 -11   18.16    1.14
  -5   0 -11   19.41    0.88
  -5   0 -11   18.14    0.79
  -5   0 -11   18.13    0.83
   5   0  11   13.24    4.01
  -6   0 -11    0.70    0.61
  -6   0 -11    0.67    0.63
  -6   0 -11   -0.11    0.34
   6  -1 -11    0.12    0.33
   6  -1 -11    1.22    0.53
  -6   1  11    0.89    0.47
  -6   1  11    1.18    0.43
   5  -1 -11    6.39    0.36
   5  -1 -11    6.94    0.52
   5  -1 -11    6.20    0.77
   5  -1 -11    6.06    0.64
  -5   1  11    6.14    0.60
  -5   1  11    7.72    0.75
  -5   1  11    5.68    0.53
  -5   1  11    4.33    4.49
  -5   1  11    5.24    4.02
  -5   1  11    6.41    0.62
   4  -1 -11   50.65    2.06
   4  -1 -11   50.46    1.89
   4  -1 -11   50.44    1.80
   4  -1 -11   48.05    1.93
  -4   1  11   49.00    1.97
  -4   1  11   42.86    4.99
  -4   1  11   37.66    5.34
  -4   1  11   48.56    1.94
  -4   1  11   49.38    1.99
  -4   1  11   53.14    1.92
   3  -1 -11   14.45    0.79
   3  -1 -11   14.17    2.98
   3  -1 -11   14.39    0.69
   3  -1 -11   15.07    0.74
   3  -1 -11   15.53    0.67
  -3   1  11   17.93    2.92
  -3   1  11   16.40    0.76
  -3   1  11   14.95    0.73
  -3   1  11   14.55    0.69
  -3   1  11   16.15    0.79
   2  -1 -11   17.14    0.79
   2  -1 -11   17.52    0.74
   2  -1 -11   17.51    0.74
   2  -1 -11   17.67    0.75
   2  -1 -11   15.36    2.48
  -2   1  11   17.27    0.71
  -2   1  11   18.58    0.76
  -2   1  11   16.09    0.75
  -2   1  11   16.84    2.54
  -2   1  11   16.65    0.78
  -2   1  11   16.21    0.74
   1  -1 -11   61.36    3.98
   1  -1 -11   65.79    2.44
   1  -1 -11   74.74    2.40
   1  -1 -11   67.95    2.42
   1  -1 -11   66.87    2.40
   1  -1 -11   63.36    2.43
  -1   1  11   68.97    2.41
  -1   1  11   69.07    2.38
  -1   1  11   65.39    2.44
  -1   1  11   68.49    2.41
  -1   1  11   68.40    2.45
  -1   1  11   66.57    3.93
   0  -1 -11  111.80    4.98
   0  -1 -11   97.89    3.51
   0  -1 -11  100.82    3.54
   0  -1 -11  107.12    3.62
   0  -1 -11  103.01    3.55
   0  -1 -11   95.86    3.54
   0   1  11  107.15    3.62
   0   1  11   98.54    3.54
   0   1  11  100.58    3.55
   0   1  11  101.10    4.83
   0   1  11  100.80    3.51
  -1  -1 -11   67.07    2.40
  -1  -1 -11   67.44    2.38
  -1  -1 -11   68.55    2.49
  -1  -1 -11   79.32    3.69
   1   1  11   68.60    2.38
   1   1  11   67.66    2.39
   1   1  11   65.88    2.38
   1   1  11   66.69    3.57
   1   1  11   69.14    2.49
  -2  -1 -11   15.86    0.73
  -2  -1 -11   16.65    0.66
  -2  -1 -11   16.05    0.63
  -2  -1 -11   14.70    1.72
   2   1  11   16.57    0.62
   2   1  11   15.79    0.74
   2   1  11   16.66    0.62
   2   1  11   13.33    1.91
  -3  -1 -11   18.84    2.19
  -3  -1 -11   15.73    0.64
  -3  -1 -11   14.89    0.71
  -3  -1 -11   14.92    0.67
   3   1  11   14.85    0.56
   3   1  11   20.73    2.72
   3   1  11   15.42    0.57
   3   1  11   14.40    0.71
  -4  -1 -11   50.58    1.89
  -4  -1 -11   43.85    3.69
  -4  -1 -11   49.08    1.83
  -4  -1 -11   50.13    1.88
   4   1  11   51.91    1.89
   4   1  11   45.44    4.51
  -5  -1 -11    7.01    0.46
  -5  -1 -11    6.36    0.48
  -5  -1 -11    6.27    0.74
  -5  -1 -11    3.89    2.54
  -5  -1 -11    6.07    0.54
   5   1  11    6.30    0.50
  -6  -1 -11    0.50    0.38
  -6  -1 -11    0.34    0.62
  -6  -1 -11    0.50    0.42
   6  -2 -11    3.07    0.42
   6  -2 -11    2.40    0.54
  -6   2  11    1.81    0.52
  -6   2  11    3.71    0.52
   5  -2 -11   10.91    0.64
   5  -2 -11   10.68    0.77
  -5   2  11   11.47    0.78
  -5   2  11    9.39    0.75
  -5   2  11   11.20    0.84
  -5   2  11    9.01    4.98
  -5   2  11   11.66    0.67
   4  -2 -11    9.96    0.54
   4  -2 -11    8.56    0.71
   4  -2 -11    9.01    0.61
   4  -2 -11    9.84    0.46
  -4   2  11    9.04    0.53
  -4   2  11    9.09    0.70
  -4   2  11    8.33    0.68
  -4   2  11    5.33    2.89
  -4   2  11    8.73    0.63
   3  -2 -11   13.23    3.05
   3  -2 -11   17.93    0.79
   3  -2 -11   16.25    0.86
   3  -2 -11   15.53    0.70
   3  -2 -11   16.26    0.73
  -3   2  11   16.12    0.82
  -3   2  11   17.02    2.76
  -3   2  11   16.01    0.73
  -3   2  11   17.66    0.80
  -3   2  11   16.42    0.79
  -3   2  11   14.89    0.71
   2  -2 -11   25.99    3.09
   2  -2 -11   23.13    0.97
   2  -2 -11   25.47    0.98
   2  -2 -11   23.12    0.95
   2  -2 -11   22.34    1.09
  -2   2  11   19.99    1.06
  -2   2  11   25.96    0.99
  -2   2  11   20.88    1.03
  -2   2  11   25.46    0.94
  -2   2  11   20.87    2.80
  -2   2  11   24.87    0.98
   1  -2 -11   24.87    1.07
   1  -2 -11   28.60    2.74
   1  -2 -11   26.91    1.04
   1  -2 -11   27.65    1.03
   1  -2 -11   27.66    1.07
  -1   2  11   26.72    1.09
  -1   2  11   26.01    1.05
  -1   2  11   25.56    1.07
  -1   2  11   27.84    1.01
  -1   2  11   27.03    1.05
   0  -2 -11   50.20    1.88
   0  -2 -11   51.44    1.85
   0  -2 -11   53.64    1.90
   0  -2 -11   51.06    1.94
   0  -2 -11   54.22    3.54
   0   2  11   51.47    1.88
   0   2  11   49.61    1.88
   0   2  11   52.07    1.84
   0   2  11   55.52    3.35
   0   2  11   53.62    1.95
  -1  -2 -11   27.30    1.00
  -1  -2 -11   27.29    2.33
  -1  -2 -11   26.29    1.04
  -1  -2 -11   27.43    1.11
   1   2  11   26.56    0.99
   1   2  11   25.05    2.40
   1   2  11   27.35    1.02
   1   2  11   27.08    1.00
   1   2  11   26.95    1.11
  -2  -2 -11   23.07    0.96
  -2  -2 -11   19.10    2.22
  -2  -2 -11   25.60    0.93
  -2  -2 -11   24.35    1.02
   2   2  11   21.22    2.79
   2   2  11   24.08    0.92
   2   2  11   24.03    1.02
   2   2  11   24.60    0.92
  -3  -2 -11   13.36    0.73
  -3  -2 -11   11.89    2.10
  -3  -2 -11   17.37    0.76
  -3  -2 -11   17.50    0.79
   3   2  11   17.02    0.80
   3   2  11   16.91    0.67
   3   2  11   16.48    2.90
   3   2  11   16.86    0.68
  -4  -2 -11    9.07    0.58
  -4  -2 -11    9.94    0.60
  -4  -2 -11    9.98    0.53
  -4  -2 -11    8.22    2.47
   4   2  11    9.47    2.98
   4   2  11    9.42    0.45
   4   2  11    8.68    0.69
   4   2  11    9.24    0.45
  -5  -2 -11   12.02    1.00
  -5  -2 -11   11.36    0.68
  -5  -2 -11   11.28    5.48
  -5  -2 -11   11.54    0.78
   5   2  11   12.09    0.73
   5   2  11   11.24    0.49
  -6  -2 -11    2.35    0.72
  -6  -2 -11    2.40    0.54
   6  -3 -11    1.02    0.40
  -6   3  11    1.87    0.47
  -6   3  11    0.12    0.48
   5  -3 -11    9.24    0.73
   5  -3 -11    8.20    0.55
  -5   3  11    6.32    5.05
  -5   3  11    8.52    0.72
  -5   3  11    8.02    0.62
   4  -3 -11    2.25    0.27
   4  -3 -11    2.80    0.37
   4  -3 -11    5.79    3.35
   4  -3 -11    2.64    0.31
   4  -3 -11    3.12    0.50
  -4   3  11    3.09    0.44
  -4   3  11    2.48    0.46
  -4   3  11    2.04    0.38
  -4   3  11    1.91    0.25
  -4   3  11    1.95    2.99
   3  -3 -11   38.14    1.69
   3  -3 -11   41.14    1.56
   3  -3 -11   41.54    1.60
   3  -3 -11   35.14    4.45
   3  -3 -11   40.49    1.55
  -3   3  11   37.58    4.34
  -3   3  11   38.24    1.56
  -3   3  11   40.97    1.61
  -3   3  11   39.66    1.67
  -3   3  11   42.66    1.56
  -3   3  11   45.94    1.66
   2  -3 -11   24.60    0.98
   2  -3 -11   20.77    0.98
   2  -3 -11   23.28    0.97
   2  -3 -11   23.28    1.04
   2  -3 -11   24.73    3.37
  -2   3  11   23.52    0.94
  -2   3  11   27.85    1.03
  -2   3  11   21.80    3.13
  -2   3  11   22.64    1.03
  -2   3  11   24.20    1.00
  -2   3  11   23.88    1.01
   1  -3 -11   65.44    2.23
   1  -3 -11   60.73    2.29
   1  -3 -11   59.96    2.24
   1  -3 -11   58.05    2.34
   1  -3 -11   60.58    4.13
  -1   3  11   62.16    2.26
  -1   3  11   64.28    2.29
  -1   3  11   70.53    4.18
  -1   3  11   62.27    2.20
  -1   3  11   58.54    2.29
   0  -3 -11    0.87    0.14
   0  -3 -11    0.95    0.17
   0  -3 -11    1.08    1.45
   0  -3 -11    0.70    0.19
   0  -3 -11    0.95    0.17
   0   3  11    1.59    1.16
   0   3  11    0.84    0.13
   0   3  11    0.83    0.21
   0   3  11    1.19    0.18
  -1  -3 -11   63.39    2.25
  -1  -3 -11   58.00    2.11
  -1  -3 -11   60.03    3.82
  -1  -3 -11   60.62    2.18
   1   3  11   56.49    2.25
   1   3  11   60.09    2.15
   1   3  11   55.66    3.98
   1   3  11   59.97    2.13
  -2  -3 -11   22.72    0.97
  -2  -3 -11   17.98    2.63
  -2  -3 -11   22.04    1.01
   2   3  11   24.11    1.03
   2   3  11   23.66    0.92
   2   3  11   22.73    0.93
   2   3  11   23.18    0.83
  -3  -3 -11   41.33    1.64
  -3  -3 -11   41.03    1.56
  -3  -3 -11   40.27    1.65
  -3  -3 -11   40.69    3.91
   3   3  11   43.84    1.69
   3   3  11   36.27    4.51
   3   3  11   42.04    1.56
   3   3  11   41.38    1.56
  -4  -3 -11    2.15    0.30
  -4  -3 -11    2.52    0.36
  -4  -3 -11    2.18    0.38
  -4  -3 -11    2.68    2.52
   4   3  11    2.87    0.39
   4   3  11    2.78    3.13
   4   3  11    2.14    0.27
  -5  -3 -11    9.07    0.73
  -5  -3 -11    7.80    0.61
   5   3  11    7.13    0.72
   5   3  11    6.95    0.72
   5   3  11    8.38    0.51
  -6  -3 -11    0.91    0.68
  -6  -3 -11    1.30    0.53
  -6   4  11    0.79    0.45
  -6   4  11    0.90    0.57
   5  -4 -11    9.02    0.61
   5  -4 -11    8.73    0.75
  -5   4  11   10.34    0.81
  -5   4  11    8.79    0.65
   4  -4 -11   14.79    1.02
   4  -4 -11   15.13    0.83
   4  -4 -11   20.30    4.26
   4  -4 -11   15.39    0.75
  -4   4  11   16.14    0.76
  -4   4  11   16.01    0.88
  -4   4  11   14.75    0.84
  -4   4  11    9.12    3.62
  -4   4  11   15.19    0.94
  -4   4  11   15.98    0.76
   3  -4 -11    8.76    0.50
   3  -4 -11    6.63    3.10
   3  -4 -11    8.19    0.48
   3  -4 -11    8.34    0.52
   3  -4 -11    7.08    0.60
  -3   4  11    7.61    0.45
  -3   4  11    7.17    0.59
  -3   4  11    7.63    0.55
  -3   4  11   10.04    2.94
  -3   4  11    8.21    0.52
  -3   4  11    7.95    0.53
   2  -4 -11    4.60    0.36
   2  -4 -11    2.61    2.38
   2  -4 -11    4.34    0.38
   2  -4 -11    4.42    0.36
   2  -4 -11    4.29    0.42
  -2   4  11    3.74    0.36
  -2   4  11    4.27    0.37
  -2   4  11    4.14    0.30
  -2   4  11    4.88    1.97
   1  -4 -11   12.46    0.66
   1  -4 -11   13.08    0.65
   1  -4 -11   12.16    0.63
   1  -4 -11   13.23    2.51
   1  -4 -11   12.84    0.59
  -1   4  11   12.63    0.62
  -1   4  11   13.43    0.63
  -1   4  11   12.41    0.67
  -1   4  11   10.49    2.30
  -1   4  11   13.26    0.57
   0  -4 -11  163.31    5.53
   0  -4 -11  164.76    7.71
   0  -4 -11  155.69    5.46
   0  -4 -11  157.06    5.51
   0  -4 -11  161.58    5.59
   0   4  11  149.30    7.63
   0   4  11  161.68    5.51
   0   4  11  151.17    5.58
  -1  -4 -11   11.78    0.61
  -1  -4 -11   16.01    2.52
  -1  -4 -11   13.18    0.57
  -1  -4 -11   12.87    0.69
  -1  -4 -11   12.99    0.64
   1   4  11   12.91    0.62
   1   4  11   12.82    0.58
   1   4  11   10.95    2.52
   1   4  11   11.74    0.70
  -2  -4 -11    3.78    0.40
  -2  -4 -11    4.28    0.39
  -2  -4 -11    3.83    0.30
   2   4  11    3.58    0.36
   2   4  11    3.93    0.24
   2   4  11    4.50    0.32
   2   4  11    3.33    2.15
   2   4  11    3.65    0.44
  -3  -4 -11    8.64    0.57
  -3  -4 -11    8.24    0.58
  -3  -4 -11    7.59    0.46
  -3  -4 -11    6.46    2.37
   3   4  11    7.37    0.48
   3   4  11    8.00    0.63
   3   4  11    8.07    0.50
   3   4  11    2.18    3.10
   3   4  11    7.90    0.35
  -4  -4 -11   14.63    0.77
  -4  -4 -11   15.34    0.89
  -4  -4 -11    8.02    3.38
   4   4  11   15.39    0.92
   4   4  11   14.65    0.75
   4   4  11   15.95    0.79
   4   4  11   16.20    4.72
  -5  -4 -11    9.11    0.79
   5   4  11    9.39    0.88
   5   4  11   10.37    0.66
   5   4  11    9.84    0.69
  -6  -4 -11    1.01    0.80
  -6  -4 -11    1.40    0.66
   5  -5 -11    2.09    0.36
   5  -5 -11    1.61    0.61
  -5   5  11    2.25    0.39
  -5   5  11    3.52    0.55
   4  -5 -11    0.72    0.35
   4  -5 -11    0.76    0.26
  -4   5  11    0.19    0.45
  -4   5  11    0.99    0.34
  -4   5  11    1.18    0.28
  -4   5  11    1.22    0.40
   3  -5 -11    0.98    0.35
   3  -5 -11    0.72    0.27
   3  -5 -11    0.78    0.25
   3  -5 -11    2.59    3.24
  -3   5  11    0.62    2.56
  -3   5  11    1.31    0.29
  -3   5  11    0.84    0.27
  -3   5  11    0.67    0.29
   2  -5 -11    7.62    0.59
   2  -5 -11    9.04    2.79
   2  -5 -11    7.22    0.52
   2  -5 -11    6.95    0.47
   2  -5 -11    7.21    0.46
  -2   5  11    7.88    0.57
  -2   5  11    7.22    0.51
  -2   5  11    7.96    0.44
  -2   5  11    9.20    2.74
  -2   5  11    7.70    0.52
   1  -5 -11   50.89    1.94
   1  -5 -11   48.11    1.87
   1  -5 -11   51.27    1.98
   1  -5 -11   50.32    1.92
  -1   5  11   50.15    1.86
  -1   5  11   53.29    2.01
  -1   5  11   55.92    4.50
  -1   5  11   49.82    1.92
  -1   5  11   48.05    1.91
   0  -5 -11    0.35    0.21
   0  -5 -11    0.10    0.15
   0  -5 -11    0.27    0.17
   0  -5 -11   -0.01    0.22
   0  -5 -11   -1.12    2.00
   0   5  11    0.27    0.15
   0   5  11   -0.04    0.24
   0   5  11    0.19    0.18
   0   5  11    0.32    1.85
  -1  -5 -11   50.53    1.95
  -1  -5 -11   53.06    4.32
  -1  -5 -11   49.67    1.85
  -1  -5 -11   50.38    2.01
  -1  -5 -11   50.13    1.91
   1   5  11   50.74    2.02
   1   5  11   46.29    4.71
   1   5  11   51.44    1.88
   1   5  11   48.85    1.90
  -2  -5 -11    7.28    0.45
  -2  -5 -11    8.86    2.58
  -2  -5 -11    7.76    0.59
  -2  -5 -11    7.97    0.55
   2   5  11    8.23    0.48
   2   5  11    6.55    0.63
   2   5  11    7.08    0.49
   2   5  11    7.51    0.41
   2   5  11    9.02    3.15
  -3  -5 -11   -1.88    2.70
  -3  -5 -11    1.33    0.32
   3   5  11    0.80    0.40
   3   5  11    0.78    0.26
   3   5  11    2.44    3.36
   3   5  11    0.68    0.15
   3   5  11    0.98    0.31
  -4  -5 -11    0.98    0.38
  -4  -5 -11    1.38    3.37
   4   5  11    1.03    0.44
   4   5  11    0.44    0.30
   4   5  11    0.64    0.35
   4   5  11    1.32    5.27
  -5  -5 -11    2.26    0.59
   5   5  11    1.53    0.46
   5   5  11    2.89    0.64
  -5   6  11    3.83    0.62
  -5   6  11    3.58    0.49
   4  -6 -11    3.82    0.50
   4  -6 -11    3.88    0.43
  -4   6  11    4.75    0.44
  -4   6  11    3.30    0.47
  -4   6  11    3.54    0.51
   3  -6 -11   13.21    0.93
   3  -6 -11   13.26    0.77
   3  -6 -11   14.19    0.76
  -3   6  11   15.18    0.87
  -3   6  11   14.93    0.80
  -3   6  11   13.97    0.84
  -3   6  11   13.58    0.71
  -3   6  11   14.14    4.88
   2  -6 -11   -2.43    2.99
   2  -6 -11    1.42    0.30
   2  -6 -11    1.26    0.27
   2  -6 -11    1.09    0.36
  -2   6  11    1.08    0.32
  -2   6  11    0.71    0.35
  -2   6  11    5.34    2.86
  -2   6  11    0.88    0.21
   1  -6 -11   35.95    1.50
   1  -6 -11   36.14    1.42
   1  -6 -11   36.40    1.52
   1  -6 -11   43.81    5.10
  -1   6  11   33.41    4.74
  -1   6  11   37.19    1.60
  -1   6  11   36.93    1.50
  -1   6  11   35.67    1.49
   0  -6 -11   16.00    0.78
   0  -6 -11   14.37    0.71
   0  -6 -11   15.51    0.87
   0  -6 -11   17.59    3.27
   0  -6 -11   15.82    0.81
   0   6  11   14.98    0.89
   0   6  11   14.80    0.78
   0   6  11   17.17    3.53
   0   6  11   17.11    0.75
  -1  -6 -11   37.15    4.55
  -1  -6 -11   34.32    1.34
  -1  -6 -11   35.48    1.41
  -1  -6 -11   30.69    1.75
   1   6  11   34.65    1.42
   1   6  11   34.53    1.54
   1   6  11   34.86    4.92
  -2  -6 -11    0.97    0.23
  -2  -6 -11    0.20    2.95
  -2  -6 -11    0.87    0.28
  -2  -6 -11    1.26    0.33
   2   6  11    1.32    0.27
   2   6  11    1.10    0.31
   2   6  11    1.30    0.22
   2   6  11    0.99    0.39
   2   6  11    0.79    3.79
  -3  -6 -11   15.66    4.07
  -3  -6 -11   13.76    0.87
   3   6  11   14.08    0.81
   3   6  11   11.65    5.11
   3   6  11   14.71    0.66
   3   6  11   12.54    1.00
   3   6  11   12.63    0.79
  -4  -6 -11    7.10    4.72
  -4  -6 -11    4.02    0.60
   4   6  11    3.60    0.30
   4   6  11    5.12    8.18
   4   6  11    2.50    0.54
   4   6  11    4.41    0.56
  -5  -6 -11    3.33    0.74
   5   6  11    3.71    0.58
   4  -7 -11    6.18    0.62
  -4   7  11    5.72    0.72
  -4   7  11    4.48    0.51
   3  -7 -11    5.37    0.57
   3  -7 -11    4.33    0.50
  -3   7  11    4.00    0.56
  -3   7  11    4.14    0.47
  -3   7  11    5.47    0.60
   2  -7 -11    2.89    0.40
   2  -7 -11    3.23    0.53
  -2   7  11    2.95    0.41
  -2   7  11    3.73    0.57
  -2   7  11    2.40    0.32
   1  -7 -11    5.13    0.56
   1  -7 -11    5.08    3.82
   1  -7 -11    5.44    0.59
   1  -7 -11    5.80    0.44
  -1   7  11    5.54    3.60
  -1   7  11    4.52    0.58
  -1   7  11    4.96    0.53
   0  -7 -11   22.05    0.95
   0  -7 -11   18.73    4.09
   0  -7 -11   20.70    1.01
   0  -7 -11   21.52    1.07
   0   7  11   22.02    4.59
   0   7  11   19.71    1.18
   0   7  11   18.30    1.00
   0   7  11   23.20    0.97
  -1  -7 -11    5.33    0.52
  -1  -7 -11    5.39    0.62
  -1  -7 -11    4.51    0.48
  -1  -7 -11    8.23    3.74
   1   7  11    5.98    0.71
   1   7  11    3.94    5.20
   1   7  11    6.08    0.48
   1   7  11    6.16    0.60
  -2  -7 -11    3.47    0.46
  -2  -7 -11    0.08    3.70
  -2  -7 -11    2.79    0.53
   2   7  11    3.11    0.39
   2   7  11    2.25    0.38
   2   7  11    1.50    4.52
  -3  -7 -11    3.87    0.60
  -3  -7 -11   -3.23    4.56
   3   7  11    4.55    0.57
   3   7  11    4.45    0.46
   3   7  11    5.11    6.41
  -4  -7 -11    5.04    0.77
   4   7  11    6.21    0.70
  -4   8  11    0.48    0.39
  -4   8  11    0.58    0.49
   3  -8 -11    6.28    0.71
  -3   8  11    6.88    0.74
  -3   8  11    7.57    0.62
   2  -8 -11    4.46    0.51
   2  -8 -11    4.24    0.54
  -2   8  11    5.02    0.54
   1  -8 -11    4.78    0.70
   1  -8 -11    5.06    0.58
   1  -8 -11    5.75    0.56
  -1   8  11    5.11    0.49
   0  -8 -11    0.34    0.34
   0  -8 -11    0.64    0.43
   0  -8 -11    0.67    0.36
   0   8  11    1.16    0.30
  -1  -8 -11    5.82    0.62
  -1  -8 -11    6.00    0.76
   1   8  11    4.48    0.53
   1   8  11    5.72    0.58
  -2  -8 -11    4.99    0.67
   2   8  11    4.96    0.56
  -3  -8 -11    6.86    0.85
   3   8  11    7.07    0.83
   3   8  11    7.99    0.67
   4   8  11    0.46    0.66
   2  -9 -11    1.30    0.53
  -2   9  11    0.44    0.36
   1  -9 -11    5.51    0.67
  -1   9  11    4.86    0.58
   0  -9 -11    0.63    0.56
   0   9  11    1.41    0.42
  -1  -9 -11    6.54    0.79
   1   9  11    5.38    0.63
   1   9  11    5.59    0.66
  -2  -9 -11    1.80    0.65
   2   9  11    0.41    0.44
   2   9  11    0.35    0.47
   2   9 -12    3.74    0.82
   2   9 -12    3.43    0.61
  -2  -9  12    2.87    0.49
   1   9 -12    1.75    0.62
   1   9 -12    0.63    0.50
   0   9 -12    5.77    0.77
   0   9 -12    6.35    0.70
  -1   9 -12    0.86    0.53
  -1   9 -12    0.51    0.38
  -2   9 -12    3.65    0.71
  -2   9 -12    3.11    0.45
   3   8 -12    3.48    0.64
   3   8 -12    2.34    0.65
  -3  -8  12    2.68    0.54
   2   8 -12    6.71    0.83
   2   8 -12    6.17    0.68
  -2  -8  12    6.19    0.60
   1   8 -12    0.39    0.37
   1   8 -12    1.16    0.47
  -1  -8  12    0.68    0.25
  -1  -8  12    1.02    0.32
   0   8 -12    6.37    0.71
   0   8 -12    5.87    0.56
   0   8 -12    6.37    0.69
  -1   8 -12    1.09    0.28
  -1   8 -12    1.05    0.42
  -1   8 -12    1.01    0.45
  -2   8 -12    5.82    0.48
  -2   8 -12    5.14    0.52
  -2   8 -12    6.47    5.17
  -2   8 -12    6.44    0.78
  -3   8 -12    2.70    0.33
  -3   8 -12    3.59    0.63
   4   7 -12    2.64    0.56
   4   7 -12    2.41    0.63
  -4  -7  12    3.77    0.63
   3   7 -12    0.63    0.39
   3   7 -12    0.86    0.49
  -3  -7  12    0.34    0.11
  -3  -7  12    0.19    0.40
  -3  -7  12   -0.06    0.33
   2   7 -12   19.91    1.12
   2   7 -12   19.27    1.01
  -2  -7  12   19.88    0.95
  -2  -7  12   18.60    0.87
   1   7 -12    2.66    0.38
   1   7 -12    3.35    4.00
   1   7 -12    2.42    0.47
   1   7 -12    3.40    0.49
  -1  -7  12   -0.51    3.79
  -1  -7  12    3.00    0.34
   0   7 -12    3.18    3.22
   0   7 -12    0.77    0.26
   0   7 -12    0.45    0.32
   0   7 -12    0.51    0.35
   0  -7  12   -4.09    2.41
  -1   7 -12    2.61    0.30
  -1   7 -12    3.12    0.38
  -1   7 -12    4.53    2.94
  -1   7 -12    3.35    0.49
   1  -7  12    2.31    2.23
  -2   7 -12   19.76    0.82
  -2   7 -12   18.71    0.71
  -2   7 -12   19.83    0.89
  -2   7 -12   18.05    1.01
  -2   7 -12   18.54    2.77
   2  -7  12   18.94    2.70
  -3   7 -12    0.37    0.17
  -3   7 -12    0.48    0.20
  -3   7 -12    0.75    0.41
  -3   7 -12    0.53    0.25
  -4   7 -12    2.53    0.40
  -4   7 -12    1.63    0.50
  -4   7 -12    2.49    0.56
   5   6 -12    3.26    0.71
   5   6 -12    2.73    0.65
  -5  -6  12    1.99    0.61
  -5  -6  12    3.48    0.53
   4   6 -12    3.36    0.55
   4   6 -12    4.06    0.63
  -4  -6  12    4.21    0.47
  -4  -6  12    3.88    0.58
   3   6 -12    7.82    0.66
   3   6 -12    5.34    5.23
   3   6 -12    9.44    0.75
  -3  -6  12    7.65    0.62
  -3  -6  12    8.06    0.42
  -3  -6  12    6.91    0.69
  -3  -6  12    8.16    0.67
   2   6 -12   10.47    0.74
   2   6 -12   10.08    0.67
   2   6 -12   12.15    0.76
   2   6 -12   10.29    4.19
  -2  -6  12   11.63    0.60
  -2  -6  12    9.25    3.85
  -2  -6  12   10.94    0.74
  -2  -6  12   10.83    0.64
   1   6 -12    3.86    0.48
   1   6 -12    4.12    0.52
   1   6 -12    2.34    3.17
   1   6 -12    3.39    0.39
  -1  -6  12    3.96    0.49
  -1  -6  12    7.11    2.78
  -1  -6  12    4.78    0.35
   0   6 -12   18.04    3.27
   0   6 -12   15.14    0.71
   0   6 -12   14.26    0.75
   0  -6  12   14.14    0.52
   0  -6  12   16.35    2.78
  -1   6 -12    0.94    2.05
  -1   6 -12    4.49    0.40
  -1   6 -12    4.10    0.32
   1  -6  12    5.04    1.68
  -2   6 -12   11.15    0.57
  -2   6 -12   11.14    0.69
  -2   6 -12   10.61    0.49
  -2   6 -12   10.85    0.48
   2  -6  12   14.22    1.84
  -3   6 -12    8.75    0.67
  -3   6 -12    8.59    0.39
  -3   6 -12    9.20    0.53
  -3   6 -12    8.18    0.45
  -4   6 -12    4.13    0.25
  -4   6 -12    4.39    0.57
  -4   6 -12    3.01    0.47
  -4   6 -12    3.70    0.52
  -4   6 -12    3.69    0.30
  -5   6 -12    4.33    0.60
  -5   6 -12    2.90    0.57
   5   5 -12   -0.15    0.48
   5   5 -12    0.48    0.45
  -5  -5  12    0.80    0.40
  -5  -5  12    0.83    0.51
   4   5 -12    5.12    0.69
   4   5 -12    4.68    0.58
  -4  -5  12    4.24    0.54
  -4  -5  12    4.55    0.47
  -4  -5  12    1.84    5.98
  -4  -5  12    5.18    0.66
   3   5 -12   52.46    6.95
   3   5 -12   42.59    1.84
   3   5 -12   43.84    1.86
   3   5 -12   44.48    1.81
  -3  -5  12   45.65    1.82
  -3  -5  12   45.62    6.24
  -3  -5  12   41.12    1.72
  -3  -5  12   45.00    1.65
   2   5 -12   80.67    3.01
   2   5 -12   74.68    2.92
   2   5 -12   82.59    7.02
   2   5 -12   77.72    2.96
  -2  -5  12   85.19    2.73
  -2  -5  12   81.50    2.89
  -2  -5  12   72.07    6.62
  -2  -5  12   81.04    2.85
  -2  -5  12   73.25    2.94
   1   5 -12    1.42    0.32
   1   5 -12    4.88    2.80
   1   5 -12    1.75    0.27
   1   5 -12    1.92    0.30
  -1  -5  12    1.73    0.30
  -1  -5  12    1.78    0.23
  -1  -5  12    2.85    2.26
  -1  -5  12    1.76    0.22
   0   5 -12    7.57    2.32
   0   5 -12    7.01    0.46
   0   5 -12    7.47    0.43
   0   5 -12    8.82    0.56
   0  -5  12    6.94    0.32
   0  -5  12    6.37    2.06
   0  -5  12    7.28    0.29
  -1   5 -12    1.72    0.30
  -1   5 -12    1.55    0.18
  -1   5 -12    2.06    0.24
  -1   5 -12    2.09    1.56
   1  -5  12    0.47    1.13
  -2   5 -12   77.07    2.81
  -2   5 -12   83.71    2.96
  -2   5 -12   79.43    2.75
  -2   5 -12   78.53    2.79
  -3   5 -12   42.70    1.75
  -3   5 -12   43.35    1.52
  -3   5 -12   43.63    1.54
  -3   5 -12   44.52    1.71
  -3   5 -12   43.88    1.78
  -4   5 -12    5.68    0.58
  -4   5 -12    5.40    0.53
  -4   5 -12    5.35    0.26
  -4   5 -12    5.09    0.56
  -5   5 -12   -0.54    0.42
  -5   5 -12    0.39    0.34
  -5   5 -12    0.17    0.30
   6   4 -12    8.17    0.92
   6   4 -12    7.33    0.87
  -6  -4  12    6.96    1.23
  -6  -4  12    6.78    0.93
   5   4 -12    6.12    0.68
   5   4 -12    6.36    0.71
   5   4 -12    5.75    0.65
  -5  -4  12    6.15    0.65
  -5  -4  12    5.32    0.67
  -5  -4  12    6.44    6.72
   4   4 -12    6.42    0.64
   4   4 -12    5.08    0.60
   4   4 -12    7.08    0.60
  -4  -4  12    6.48    0.57
  -4  -4  12    6.20    0.58
  -4  -4  12    6.60    0.64
  -4  -4  12    5.19    5.13
  -4  -4  12    5.48    0.50
  -4  -4  12    0.10    4.39
   3   4 -12    8.40    0.58
   3   4 -12    8.18    0.59
   3   4 -12    7.74    0.62
  -3  -4  12   -1.32    3.39
  -3  -4  12    8.25    0.61
  -3  -4  12    7.97    0.55
  -3  -4  12    7.72    0.45
  -3  -4  12    6.82    0.56
   2   4 -12   42.46    1.66
   2   4 -12   43.18    5.04
   2   4 -12   44.73    1.74
   2   4 -12   42.61    1.69
  -2  -4  12   41.28    1.68
  -2  -4  12   31.87    4.61
  -2  -4  12   43.58    1.52
  -2  -4  12   40.35    1.61
  -2  -4  12   43.09    1.61
   1   4 -12   69.82    2.53
   1   4 -12   67.86    2.45
   1   4 -12   61.36    2.46
  -1  -4  12   65.93    2.39
  -1  -4  12   68.55    2.38
  -1  -4  12   68.64    2.50
   0   4 -12   18.70    0.79
   0   4 -12   17.02    2.42
   0   4 -12   17.16    0.84
   0   4 -12   19.22    0.77
   0  -4  12   18.45    0.84
   0  -4  12   18.62    0.66
   0  -4  12   18.71    2.62
   0  -4  12   19.03    0.66
  -1   4 -12   64.38    2.33
  -1   4 -12   72.86    2.46
  -1   4 -12   65.93    2.31
  -1   4 -12   61.99    2.29
   1  -4  12   66.99    3.53
   1  -4  12   63.79    3.36
  -2   4 -12   41.66    1.48
  -2   4 -12   40.51    1.58
  -2   4 -12   41.48    1.64
  -2   4 -12   44.25    1.70
  -2   4 -12   43.07    1.46
  -3   4 -12    6.77    0.48
  -3   4 -12    7.92    0.53
  -3   4 -12    7.66    0.52
  -4   4 -12    5.83    0.48
  -4   4 -12    5.61    0.27
  -4   4 -12    5.63    0.46
  -4   4 -12    6.08    0.58
  -4   4 -12    5.77    0.28
  -5   4 -12    5.99    0.37
  -5   4 -12    5.37    0.51
  -5   4 -12    6.13    0.47
  -5   4 -12    5.17    0.38
  -5   4 -12    4.97    0.72
  -6   4 -12    4.81    0.81
   6   3 -12    2.34    0.59
   6   3 -12    1.60    0.57
  -6  -3  12    1.96    0.59
  -6  -3  12    2.39    0.63
   5   3 -12    4.94    0.55
   5   3 -12    6.03    0.64
   5   3 -12    6.03    0.70
  -5  -3  12    2.81    5.29
  -5  -3  12    6.39    0.74
  -5  -3  12    6.83    0.70
  -5  -3  12    6.13    0.66
  -5  -3  12    8.64    6.05
   4   3 -12   25.09    1.17
   4   3 -12   22.88    1.11
   4   3 -12   24.52    1.24
  -4  -3  12   14.88    4.74
  -4  -3  12   25.78    1.20
  -4  -3  12   24.08    1.15
  -4  -3  12   27.23    6.57
  -4  -3  12   24.61    1.14
  -4  -3  12   25.41    1.12
   3   3 -12    5.79    0.51
   3   3 -12    5.12    0.49
   3   3 -12    5.00    0.45
  -3  -3  12    5.59    0.51
  -3  -3  12    5.79    0.45
  -3  -3  12    6.17    0.39
  -3  -3  12    6.46    0.48
  -3  -3  12    7.22    3.31
   2   3 -12   17.59    0.80
   2   3 -12   18.90    0.87
   2   3 -12   19.21    0.87
   2   3 -12   20.09    0.92
  -2  -3  12   19.02    0.89
  -2  -3  12   19.80    0.76
  -2  -3  12   15.15    3.03
  -2  -3  12   19.33    0.83
  -2  -3  12   21.73    3.50
  -2  -3  12   19.68    0.83
   1   3 -12   17.13    0.69
   1   3 -12   19.07    0.79
   1   3 -12   19.17    0.79
   1   3 -12   18.24    0.83
  -1  -3  12   17.73    0.66
  -1  -3  12   17.37    0.72
  -1  -3  12   14.73    2.52
  -1  -3  12   18.01    0.73
  -1  -3  12   18.04    0.81
   0   3 -12   25.31    1.00
   0   3 -12   24.94    0.91
   0   3 -12   27.59    1.00
   0   3 -12   26.67    1.08
   0  -3  12   25.95    0.91
   0  -3  12   26.29    1.06
   0  -3  12   26.52    0.92
   0  -3  12   25.77    3.80
   0  -3  12   20.56    2.38
  -1   3 -12   18.50    0.81
  -1   3 -12   18.50    0.85
  -1   3 -12   18.58    0.69
  -1   3 -12   17.83    0.69
   1  -3  12   19.79    1.71
  -2   3 -12   17.33    0.82
  -2   3 -12   19.65    0.88
  -2   3 -12   20.44    0.83
  -3   3 -12    6.26    0.44
  -3   3 -12    4.78    0.46
  -3   3 -12    5.58    0.38
  -4   3 -12   24.59    0.89
  -4   3 -12   22.72    1.16
  -4   3 -12   23.42    0.88
  -4   3 -12   24.55    1.04
  -4   3 -12   25.15    1.02
  -5   3 -12    5.49    0.41
  -5   3 -12    6.05    0.45
  -5   3 -12    6.03    0.39
  -5   3 -12    5.66    0.72
  -5   3 -12    4.54    0.38
  -6   3 -12    2.08    0.35
  -6   3 -12    1.89    0.66
   6   2 -12    6.84    0.73
  -6  -2  12    6.13    0.74
  -6  -2  12    5.92    0.75
   5   2 -12   12.02    0.85
   5   2 -12   11.37    0.94
   5   2 -12   12.87    0.70
   5   2 -12   12.10    0.77
  -5  -2  12   15.03    5.48
  -5  -2  12   11.21    0.78
  -5  -2  12   24.96    6.28
  -5  -2  12   11.70    0.89
  -5  -2  12   12.08    0.81
   4   2 -12   23.04    0.98
   4   2 -12   21.01    1.09
   4   2 -12   20.44    1.09
   4   2 -12   21.02    1.05
  -4  -2  12   20.62    1.03
  -4  -2  12   21.28    1.02
  -4  -2  12   20.93    1.07
  -4  -2  12   19.65    4.49
  -4  -2  12   27.14    6.17
  -4  -2  12   22.09    1.02
   3   2 -12    9.40    0.56
   3   2 -12   10.54    0.61
   3   2 -12    9.32    0.56
   3   2 -12    9.47    0.59
   3   2 -12    9.71    0.61
  -3  -2  12    9.01    0.55
  -3  -2  12   11.70    3.14
  -3  -2  12   10.71    3.25
  -3  -2  12    9.65    0.55
  -3  -2  12    9.74    0.53
  -3  -2  12    8.35    0.59
   2   2 -12   12.33    0.62
   2   2 -12   10.37    0.55
   2   2 -12   10.75    0.57
   2   2 -12   11.26    0.59
   2   2 -12    9.76    0.53
  -2  -2  12   10.57    0.61
  -2  -2  12   12.02    2.60
  -2  -2  12   10.61    0.49
  -2  -2  12   10.78    0.58
  -2  -2  12    9.90    0.53
  -2  -2  12   12.02    2.64
   1   2 -12   23.48    0.94
   1   2 -12   22.46    0.93
   1   2 -12   21.03    0.92
   1   2 -12   24.01    1.00
   1   2 -12   25.05    1.00
  -1  -2  12   21.93    0.88
  -1  -2  12   21.90    2.77
  -1  -2  12   22.87    0.86
  -1  -2  12   23.91    0.97
  -1  -2  12   24.50    2.82
  -1  -2  12   23.76    0.91
   0   2 -12    0.03    0.12
   0   2 -12    0.02    0.13
   0   2 -12    0.04    0.09
   0   2 -12    0.06    0.08
   0  -2  12    0.57    1.04
   0  -2  12    0.10    0.06
   0  -2  12    0.11    0.11
   0  -2  12    0.05    0.04
   0  -2  12    0.71    0.97
  -1   2 -12   23.25    0.84
  -1   2 -12   23.70    0.98
  -1   2 -12   23.74    0.93
  -1   2 -12   22.48    0.82
   1  -2  12   22.65    1.78
   1  -2  12   23.15    1.57
   1  -2  12   21.71    0.90
  -2   2 -12   10.09    0.48
  -2   2 -12   10.69    0.55
  -3   2 -12    9.64    0.36
  -3   2 -12    9.18    0.36
  -3   2 -12    9.61    0.46
  -3   2 -12    9.60    0.60
  -3   2 -12   10.20    0.54
  -4   2 -12   22.02    0.83
  -4   2 -12   21.18    0.82
  -4   2 -12   21.98    1.12
  -4   2 -12   21.70    0.87
  -4   2 -12   20.66    0.91
  -5   2 -12   12.67    0.63
  -5   2 -12   12.19    0.59
  -5   2 -12   11.09    0.88
  -5   2 -12   12.40    0.61
  -5   2 -12   11.83    0.58
  -5   2 -12   11.69    0.58
  -6   2 -12    6.66    0.66
  -6   2 -12    5.34    0.58
  -6   2 -12    5.66    0.80
   6   1 -12    3.52    0.53
  -6  -1  12    3.71    0.57
  -6  -1  12    5.07    0.71
   5   1 -12    7.23    0.75
   5   1 -12    7.06    0.84
   5   1 -12    6.81    0.61
   5   1 -12    5.33    0.43
  -5  -1  12    6.39    0.74
  -5  -1  12    6.62    0.59
  -5  -1  12    2.74    4.67
  -5  -1  12    5.68    0.64
  -5  -1  12    0.01    5.40
   4   1 -12   10.19    0.75
   4   1 -12   10.50    0.64
   4   1 -12    9.65    0.55
   4   1 -12    9.79    0.67
   4   1 -12   11.19    0.73
  -4  -1  12    9.56    0.70
  -4  -1  12   14.04    3.84
  -4  -1  12   12.20    4.01
  -4  -1  12   11.45    0.67
  -4  -1  12   10.31    0.65
  -4  -1  12   10.93    0.65
   3   1 -12   35.68    1.53
   3   1 -12   38.11    1.48
   3   1 -12   36.05    1.49
   3   1 -12   35.12    1.44
   3   1 -12   36.47    1.51
  -3  -1  12   42.72    4.47
  -3  -1  12   37.04    1.45
  -3  -1  12   36.98    1.52
  -3  -1  12   38.46    1.47
  -3  -1  12   46.45    4.61
  -3  -1  12   36.28    1.47
   2   1 -12  100.50    3.64
   2   1 -12  103.72    3.61
   2   1 -12   99.95    3.61
   2   1 -12  101.12    3.60
  -2  -1  12   94.98    6.03
  -2  -1  12  108.82    6.11
  -2  -1  12  102.73    3.59
  -2  -1  12   97.95    3.56
  -2  -1  12  102.66    3.56
   1   1 -12   97.51    3.52
   1   1 -12  101.10    3.54
   1   1 -12   99.89    3.59
   1   1 -12   96.46    3.53
   1   1 -12  100.13    3.59
  -1  -1  12  100.72    3.50
  -1  -1  12  101.08    3.50
  -1  -1  12   99.50    5.30
  -1  -1  12  111.10    3.60
  -1  -1  12  101.81    3.53
   0   1 -12   49.75    3.28
   0   1 -12   59.36    2.14
   0   1 -12   57.31    2.22
   0   1 -12   61.15    2.19
   0   1 -12   63.03    2.13
   0   1 -12   64.03    2.12
   0  -1  12   60.92    3.35
   0  -1  12   61.03    2.11
   0  -1  12   61.06    2.09
   0  -1  12   62.06    2.18
  -1   1 -12   97.34    3.43
  -1   1 -12  101.28    4.41
  -1   1 -12  100.40    3.51
  -1   1 -12   99.70    3.45
  -1   1 -12  102.56    3.58
   1  -1  12  107.01    4.27
   1  -1  12   96.96    3.49
  -2   1 -12   96.38    3.33
  -2   1 -12   96.52    3.33
  -2   1 -12   94.58    3.38
  -2   1 -12   95.99    3.47
  -2   1 -12  103.99    4.01
   2  -1  12   99.01    4.04
  -3   1 -12   37.40    1.34
  -3   1 -12   38.33    1.45
  -3   1 -12   37.18    1.33
  -3   1 -12   36.41    1.34
   3  -1  12   37.20    2.29
  -4   1 -12   10.73    0.55
  -4   1 -12   10.64    0.76
  -4   1 -12   10.03    0.48
  -4   1 -12    9.77    0.44
  -4   1 -12   10.78    0.50
  -4   1 -12    9.97    1.33
  -5   1 -12    6.58    0.42
  -5   1 -12    5.57    0.46
  -5   1 -12    6.49    0.33
  -5   1 -12    5.04    1.56
  -5   1 -12    8.85    2.12
  -5   1 -12    5.96    0.76
  -6   1 -12    3.01    0.71
  -6   1 -12    3.90    0.46
  -6   1 -12    4.11    0.45
   6   0 -12   10.79    0.78
  -6   0  12   11.50    0.83
  -6   0  12   11.31    0.95
   5   0 -12   14.09    0.92
   5   0 -12   13.59    0.98
   5   0 -12   13.12    0.74
   5   0 -12   13.58    0.61
  -5   0  12   12.30    0.91
  -5   0  12   13.10    0.84
  -5   0  12    5.70    5.16
  -5   0  12   14.64    0.98
  -5   0  12   13.57    0.78
  -5   0  12   15.50    4.70
   4   0 -12    7.87    0.59
   4   0 -12    7.91    0.53
   4   0 -12    7.21    0.68
   4   0 -12    8.28    0.46
  -4   0  12   11.54    3.73
  -4   0  12    8.42    0.58
  -4   0  12    9.02    0.66
  -4   0  12    4.66    3.29
  -4   0  12    8.47    0.58
  -4   0  12    8.82    0.55
   3   0 -12   46.19    1.89
   3   0 -12   47.31    1.87
   3   0 -12   46.38    1.79
   3   0 -12   49.16    1.86
   3   0 -12   47.39    1.82
  -3   0  12   45.79    1.83
  -3   0  12   47.28    1.81
  -3   0  12   48.72    4.66
  -3   0  12   50.50    1.90
  -3   0  12   50.04    1.85
  -3   0  12   52.21    4.93
   2   0 -12    1.09    0.20
   2   0 -12    1.34    0.19
   2   0 -12    1.32    0.22
   2   0 -12    0.06    1.72
   2   0 -12    1.14    0.20
   2   0 -12    1.24    0.20
  -2   0  12    1.29    0.20
  -2   0  12    1.07    0.17
  -2   0  12    1.17    0.18
  -2   0  12    0.88    0.21
  -2   0  12    2.37    1.76
   1   0 -12   17.57    0.74
   1   0 -12   18.62    0.75
   1   0 -12   17.63    0.79
   1   0 -12   17.84    0.74
   1   0 -12   17.86    0.78
   1   0 -12   17.33    2.26
  -1   0  12   18.91    0.73
  -1   0  12   18.21    0.79
  -1   0  12   18.27    0.79
  -1   0  12   18.43    0.71
  -1   0  12   17.91    0.75
  -1   0  12   21.47    2.32
   0   0 -12   90.44    3.05
   0   0 -12   87.90    3.10
   0   0 -12   87.80    4.46
   0   0 -12   88.13    3.07
   0   0 -12   87.44    3.07
   0   0 -12   84.04    3.14
   0   0  12   87.78    3.03
   0   0  12   89.21    3.15
   0   0  12   87.47    3.10
   0   0  12   89.71    3.07
  -1   0 -12   17.39    0.71
  -1   0 -12   17.86    0.79
  -1   0 -12   18.66    0.70
  -1   0 -12   18.09    0.68
  -1   0 -12   18.66    1.69
   1   0  12   18.69    1.65
   1   0  12   18.47    0.81
   1   0  12   18.78    0.71
   1   0  12   18.10    0.67
   1   0  12   18.68    0.66
  -2   0 -12    1.82    0.76
  -2   0 -12    1.18    0.12
  -2   0 -12    1.54    0.13
  -2   0 -12    1.18    0.21
  -2   0 -12    1.16    0.14
   2   0  12    1.44    0.23
   2   0  12    1.42    0.87
  -3   0 -12   48.38    1.69
  -3   0 -12   40.37    2.68
  -3   0 -12   46.92    1.67
  -3   0 -12   49.14    1.78
   3   0  12   46.30    1.77
   3   0  12   45.77    3.28
  -4   0 -12    8.05    0.44
  -4   0 -12    7.96    0.48
  -4   0 -12   10.29    1.69
  -4   0 -12    8.98    0.50
   4   0  12    7.90    0.52
   4   0  12    5.98    2.22
  -5   0 -12   13.52    0.72
  -5   0 -12   11.72    2.37
  -5   0 -12   13.20    0.66
  -5   0 -12   13.45    1.01
  -5   0 -12   13.73    0.68
  -6   0 -12   10.69    0.75
  -6   0 -12   12.72    1.08
   6  -1 -12    3.86    0.48
   6  -1 -12    3.85    0.65
  -6   1  12    4.06    0.53
  -6   1  12    4.25    0.64
   5  -1 -12    6.50    0.69
   5  -1 -12    6.02    0.34
   5  -1 -12    6.57    0.94
   5  -1 -12    7.17    0.54
  -5   1  12    5.77    0.75
  -5   1  12    2.23    4.45
  -5   1  12   -2.74    4.32
  -5   1  12    5.28    0.60
  -5   1  12    6.77    0.67
  -5   1  12    5.92    0.54
   4  -1 -12   10.74    0.78
   4  -1 -12    8.37    0.62
   4  -1 -12   11.17    0.61
   4  -1 -12   10.64    0.51
  -4   1  12   10.28    0.59
  -4   1  12    4.94    3.14
  -4   1  12   10.01    0.64
  -4   1  12    9.95    0.71
  -4   1  12    7.02    3.63
  -4   1  12    9.79    0.64
   3  -1 -12   39.46    1.46
   3  -1 -12   35.73    1.49
   3  -1 -12   37.28    1.47
   3  -1 -12   34.22    4.23
   3  -1 -12   36.66    1.57
  -3   1  12   38.16    4.12
  -3   1  12   37.98    1.55
  -3   1  12   40.55    1.48
  -3   1  12   37.12    1.51
  -3   1  12   39.62    1.52
   2  -1 -12   97.43    3.53
   2  -1 -12   96.17    5.78
   2  -1 -12   99.32    3.55
   2  -1 -12   99.73    3.59
  -2   1  12  109.23    5.81
  -2   1  12  106.66    3.52
  -2   1  12   98.23    3.55
  -2   1  12   95.85    3.54
   1  -1 -12  102.56    3.65
   1  -1 -12  108.45    3.67
   1  -1 -12  108.84    3.64
   1  -1 -12   94.96    5.38
   1  -1 -12  100.46    3.62
   1  -1 -12  111.97    3.62
  -1   1  12  100.65    3.65
  -1   1  12   98.92    3.61
  -1   1  12  100.54    3.66
  -1   1  12  107.32    3.63
  -1   1  12  105.58    5.35
  -1   1  12   97.70    3.58
   0  -1 -12   64.57    3.69
   0  -1 -12   60.80    2.17
   0  -1 -12   59.27    2.23
   0  -1 -12   60.05    2.14
   0  -1 -12   61.45    2.17
   0  -1 -12   60.81    2.16
   0   1  12   61.54    2.18
   0   1  12   62.79    2.16
   0   1  12   56.70    2.22
   0   1  12   59.99    3.52
   0   1  12   61.24    2.12
  -1  -1 -12   94.26    3.44
  -1  -1 -12   99.83    3.48
  -1  -1 -12  101.40    3.57
   1   1  12  111.97    4.88
   1   1  12  101.39    3.46
   1   1  12   99.28    3.56
   1   1  12   96.69    3.45
   1   1  12   99.51    3.44
  -2  -1 -12   99.55    3.43
  -2  -1 -12   91.56    4.65
  -2  -1 -12  101.83    3.46
  -2  -1 -12  105.02    3.56
   2   1  12  101.25    3.55
   2   1  12   99.54    3.41
   2   1  12   90.54    6.62
   2   1  12   97.09    3.41
  -3  -1 -12   38.08    1.38
  -3  -1 -12   37.11    1.42
  -3  -1 -12   36.86    1.48
  -3  -1 -12   38.30    2.90
   3   1  12   36.93    1.48
   3   1  12   42.16    3.59
   3   1  12   37.34    1.30
  -4  -1 -12   10.47    0.59
  -4  -1 -12   10.42    0.58
  -4  -1 -12   10.65    0.54
  -4  -1 -12    9.99    2.15
   4   1  12   10.26    0.63
   4   1  12    8.35    2.58
  -5  -1 -12    5.38    0.75
  -5  -1 -12    6.68    0.48
  -5  -1 -12    5.93    0.47
  -5  -1 -12    8.40    4.33
  -5  -1 -12    5.75    0.56
   5   1  12    5.95    0.53
  -6  -1 -12    4.61    0.55
  -6  -1 -12    4.15    0.80
  -6  -1 -12    2.96    0.47
   6  -2 -12    6.96    0.63
   6  -2 -12    6.27    0.70
  -6   2  12    5.58    0.72
  -6   2  12    5.93    0.69
   5  -2 -12   11.97    0.84
  -5   2  12   12.99    0.87
  -5   2  12   10.91    0.73
  -5   2  12    7.70    5.32
  -5   2  12   13.38    1.17
   4  -2 -12   23.05    1.05
   4  -2 -12   20.73    0.89
   4  -2 -12   23.47    0.98
   4  -2 -12   22.26    1.19
  -4   2  12   22.70    1.07
  -4   2  12   25.01    4.03
  -4   2  12   21.08    1.12
  -4   2  12   21.00    1.12
  -4   2  12   22.14    1.05
   3  -2 -12   10.23    0.56
   3  -2 -12    9.73    2.75
   3  -2 -12    8.87    0.62
   3  -2 -12    9.54    0.50
   3  -2 -12   10.05    0.54
  -3   2  12    9.64    0.58
  -3   2  12    9.27    0.52
  -3   2  12    8.97    0.50
  -3   2  12   10.25    0.58
  -3   2  12    9.27    0.61
  -3   2  12   12.04    2.78
   2  -2 -12   10.39    0.53
   2  -2 -12    9.73    0.53
   2  -2 -12   12.51    2.50
   2  -2 -12   10.70    0.59
   2  -2 -12   10.09    0.51
  -2   2  12   10.86    0.55
  -2   2  12    9.75    0.53
  -2   2  12   10.45    0.50
  -2   2  12   10.97    0.60
  -2   2  12   10.49    2.41
  -2   2  12   10.41    0.55
   1  -2 -12   22.89    0.94
   1  -2 -12   22.37    0.92
   1  -2 -12   20.39    0.95
   1  -2 -12   21.81    3.03
   1  -2 -12   23.77    0.92
  -1   2  12   23.46    0.97
  -1   2  12   22.98    0.93
  -1   2  12   23.74    0.89
  -1   2  12   25.03    0.94
  -1   2  12   23.91    0.97
  -1   2  12   14.90    2.46
   0  -2 -12    0.17    0.09
   0  -2 -12    0.09    0.11
   0  -2 -12   -0.64    1.13
   0  -2 -12   -0.10    0.13
   0  -2 -12    0.18    0.11
   0   2  12   -0.84    0.89
   0   2  12    0.24    0.08
   0   2  12    0.09    0.11
   0   2  12    0.27    0.16
   0   2  12    0.18    0.11
  -1  -2 -12   23.40    0.88
  -1  -2 -12   21.86    0.98
  -1  -2 -12   21.50    2.23
  -1  -2 -12   23.13    0.92
   1   2  12   22.33    0.90
   1   2  12   23.94    0.88
   1   2  12   24.07    1.00
   1   2  12   23.31    0.88
   1   2  12   24.81    2.47
  -2  -2 -12    8.25    1.71
  -2  -2 -12   10.35    0.52
  -2  -2 -12   11.23    0.59
  -2  -2 -12   10.26    0.47
   2   2  12   10.60    0.47
   2   2  12   10.61    0.60
   2   2  12   10.84    0.48
   2   2  12   11.50    2.14
  -3  -2 -12    9.61    2.08
  -3  -2 -12    9.58    0.46
  -3  -2 -12    9.69    0.53
  -3  -2 -12    9.23    0.56
   3   2  12    6.07    2.28
   3   2  12    9.79    0.45
   3   2  12    9.13    0.44
   3   2  12    8.58    0.65
  -4  -2 -12   23.72    3.22
  -4  -2 -12   20.02    0.97
  -4  -2 -12   22.23    0.98
  -4  -2 -12   21.82    0.92
   4   2  12   21.57    0.84
   4   2  12   22.26    1.03
   4   2  12   21.77    3.78
   4   2  12   21.12    0.84
  -5  -2 -12   13.99    1.05
  -5  -2 -12   10.64    0.68
   5   2  12   12.17    0.77
  -6  -2 -12    6.01    0.69
  -6  -2 -12    6.05    0.85
   6  -3 -12    1.41    0.40
  -6   3  12    2.07    0.56
  -6   3  12    2.66    0.48
   5  -3 -12    6.04    0.51
   5  -3 -12    5.49    0.60
  -5   3  12    6.44    0.64
  -5   3  12    5.97    0.53
  -5   3  12   -1.01    5.53
   4  -3 -12   24.50    1.13
   4  -3 -12   18.92    4.37
   4  -3 -12   25.28    1.05
   4  -3 -12   23.94    1.26
   4  -3 -12   24.25    1.00
  -4   3  12   14.74    3.78
  -4   3  12   24.84    1.15
  -4   3  12   25.28    1.06
  -4   3  12   22.79    1.12
  -4   3  12   24.70    1.24
  -4   3  12   24.83    1.01
   3  -3 -12    5.76    0.54
   3  -3 -12    5.42    0.45
   3  -3 -12    5.66    0.41
   3  -3 -12    5.41    0.39
   3  -3 -12    6.93    2.83
  -3   3  12    5.30    0.43
  -3   3  12    4.62    0.46
  -3   3  12    5.54    0.50
  -3   3  12    6.03    0.43
  -3   3  12    3.80    2.61
  -3   3  12    4.95    0.39
   2  -3 -12   19.46    0.90
   2  -3 -12   18.89    0.82
   2  -3 -12   18.33    0.83
   2  -3 -12   18.21    3.15
   2  -3 -12   19.20    0.85
  -2   3  12   18.42    0.79
  -2   3  12   19.57    0.86
  -2   3  12   18.56    0.86
  -2   3  12   17.87    0.89
  -2   3  12   19.85    0.85
   1  -3 -12   17.89    0.81
   1  -3 -12   19.31    2.81
   1  -3 -12   18.55    0.79
   1  -3 -12   18.24    0.84
   1  -3 -12   16.98    0.75
  -1   3  12   18.61    0.80
  -1   3  12   18.15    0.74
  -1   3  12   18.52    0.83
  -1   3  12   20.34    2.75
  -1   3  12   19.67    0.81
  -1   3  12   17.92    0.84
   0  -3 -12   27.94    1.05
   0  -3 -12   22.71    1.08
   0  -3 -12   27.61    1.11
   0   3  12   28.00    2.80
   0   3  12   25.39    1.03
   0   3  12   25.87    1.12
   0   3  12   24.63    0.98
   0   3  12   26.29    1.03
  -1  -3 -12   18.62    0.80
  -1  -3 -12   18.08    2.54
  -1  -3 -12   17.65    0.85
   1   3  12   17.97    0.75
   1   3  12   19.15    0.79
   1   3  12   20.46    2.62
   1   3  12   19.44    0.88
   1   3  12   18.52    0.76
  -2  -3 -12   17.99    0.76
  -2  -3 -12   19.40    0.90
  -2  -3 -12   17.62    0.83
   2   3  12   18.81    0.79
   2   3  12   21.82    3.25
   2   3  12   19.91    0.79
   2   3  12   19.37    0.71
   2   3  12   17.80    0.89
   2   3  12   18.73    0.69
  -3  -3 -12    5.61    0.43
  -3  -3 -12    5.61    0.38
  -3  -3 -12    4.42    2.01
  -3  -3 -12    5.90    0.48
   3   3  12    5.96    0.38
   3   3  12    6.30    2.73
   3   3  12    5.79    0.38
   3   3  12    4.94    0.50
  -4  -3 -12   20.31    3.26
  -4  -3 -12   25.18    1.14
  -4  -3 -12   24.48    1.05
  -4  -3 -12   23.93    1.13
   4   3  12   25.63    1.18
   4   3  12   24.65    1.02
   4   3  12   25.35    1.03
   4   3  12   28.43    4.62
  -5  -3 -12    4.98    0.55
  -5  -3 -12    5.09    0.59
   5   3  12    5.42    0.43
   5   3  12    6.24    0.70
   5   3  12    5.18    0.45
  -6  -3 -12    2.38    0.61
  -6  -3 -12    1.71    0.78
  -6   4  12    6.96    1.02
  -6   4  12    6.19    0.69
   5  -4 -12    5.65    0.73
   5  -4 -12    5.15    0.51
  -5   4  12    6.43    0.58
  -5   4  12    5.79    0.66
   4  -4 -12    5.10    0.46
   4  -4 -12   15.17    4.16
   4  -4 -12    6.18    0.59
   4  -4 -12    5.04    0.70
  -4   4  12    5.52    0.62
  -4   4  12    5.56    0.48
  -4   4  12    6.98    0.59
  -4   4  12    6.73    0.49
  -4   4  12    4.77    0.61
  -4   4  12    5.12    3.38
   3  -4 -12    8.64    0.55
   3  -4 -12    7.19    0.64
   3  -4 -12    8.13    0.51
   3  -4 -12    7.90    0.51
  -3   4  12    8.55    0.55
  -3   4  12    7.09    0.61
  -3   4  12   10.97    3.05
  -3   4  12    8.35    0.56
  -3   4  12    5.97    0.80
  -3   4  12    8.14    0.47
   2  -4 -12   45.32    1.76
   2  -4 -12   42.02    1.70
   2  -4 -12   38.94    4.43
   2  -4 -12   45.84    1.68
   2  -4 -12   43.09    1.66
  -2   4  12   48.05    4.20
  -2   4  12   41.68    1.69
  -2   4  12   42.15    1.72
  -2   4  12   45.80    1.76
  -2   4  12   43.76    1.63
  -2   4  12   41.92    1.68
   1  -4 -12   66.91    2.55
   1  -4 -12   72.48    5.13
   1  -4 -12   70.42    2.52
   1  -4 -12   68.92    2.49
   1  -4 -12   69.28    2.46
  -1   4  12   68.78    2.56
  -1   4  12   71.12    2.51
  -1   4  12   63.08    2.48
  -1   4  12   64.45    4.63
  -1   4  12   66.28    2.43
   0  -4 -12   16.39    2.72
   0  -4 -12   19.31    0.80
   0  -4 -12   18.96    0.85
   0  -4 -12   21.51    0.87
   0  -4 -12   20.44    0.94
   0   4  12   18.29    0.83
   0   4  12   16.67    2.65
   0   4  12   19.14    0.92
  -1  -4 -12   67.22    2.45
  -1  -4 -12   61.56    2.29
  -1  -4 -12   64.14    2.35
  -1  -4 -12   60.03    4.40
  -1  -4 -12   63.04    2.37
   1   4  12   64.67    2.33
   1   4  12   63.55    2.43
   1   4  12   63.85    2.30
   1   4  12   64.56    4.84
  -2  -4 -12   43.83    1.63
  -2  -4 -12   42.79    3.95
  -2  -4 -12   44.25    1.77
  -2  -4 -12   42.22    1.72
   2   4  12   43.18    1.78
   2   4  12   43.35    1.57
   2   4  12   43.58    1.65
   2   4  12   44.68    1.67
   2   4  12   47.11    4.77
  -3  -4 -12    7.53    0.59
  -3  -4 -12    8.20    0.61
  -3  -4 -12    8.07    2.72
  -3  -4 -12    7.43    0.46
   3   4  12    7.19    0.64
   3   4  12    7.65    0.49
   3   4  12    3.25    3.03
   3   4  12    7.24    0.30
   3   4  12    8.17    0.48
  -4  -4 -12    5.22    0.45
  -4  -4 -12    5.61    0.61
  -4  -4 -12    6.15    3.14
   4   4  12    5.51    0.67
   4   4  12    6.15    4.22
   4   4  12    6.01    0.49
   4   4  12    5.76    0.49
  -5  -4 -12    5.40    0.70
   5   4  12    5.17    0.56
   5   4  12    5.88    0.69
   5   4  12    5.67    0.55
  -6  -4 -12    5.56    1.05
  -6  -4 -12    5.92    0.83
   5  -5 -12    0.41    0.33
  -5   5  12    0.43    0.34
  -5   5  12   -0.03    0.38
   4  -5 -12    5.57    0.50
   4  -5 -12    5.41    0.63
  -4   5  12    5.34    0.55
  -4   5  12    5.66    0.49
  -4   5  12    4.73    0.55
   3  -5 -12   44.39    1.90
   3  -5 -12   44.79    1.74
   3  -5 -12   43.58    1.72
   3  -5 -12   45.53    1.75
   3  -5 -12   39.55    5.54
  -3   5  12   43.84    1.68
  -3   5  12   42.85    1.77
  -3   5  12   45.54    5.06
  -3   5  12   44.31    1.78
  -3   5  12   43.30    1.77
  -3   5  12   42.54    1.87
   2  -5 -12   80.08    3.00
   2  -5 -12   80.43    2.90
   2  -5 -12   77.26    2.87
   2  -5 -12   68.12    5.88
   2  -5 -12   78.41    2.95
  -2   5  12   86.13    2.95
  -2   5  12   81.38    5.85
  -2   5  12   83.86    2.98
  -2   5  12   75.34    2.84
  -2   5  12   76.31    2.91
   1  -5 -12    3.20    2.86
   1  -5 -12    1.59    0.33
   1  -5 -12    1.35    0.27
   1  -5 -12    1.76    0.30
   1  -5 -12    1.60    0.24
  -1   5  12    1.54    0.33
  -1   5  12    1.43    0.27
  -1   5  12    3.25    2.25
  -1   5  12    1.92    0.24
  -1   5  12    1.39    0.25
   0  -5 -12    7.44    0.43
   0  -5 -12    8.43    0.54
   0  -5 -12   11.10    2.51
   0  -5 -12    7.92    0.49
   0  -5 -12    7.84    0.57
   0   5  12    6.89    0.60
   0   5  12    8.01    0.44
   0   5  12    5.64    2.21
   0   5  12    7.78    0.49
  -1  -5 -12    1.40    0.22
  -1  -5 -12    1.47    0.29
  -1  -5 -12    1.77    0.27
  -1  -5 -12    1.91    0.35
  -1  -5 -12    3.80    2.10
   1   5  12    1.95    0.29
   1   5  12    1.92    0.39
   1   5  12    3.56    2.48
   1   5  12    1.62    0.24
  -2  -5 -12   77.23    2.91
  -2  -5 -12   93.85    6.09
  -2  -5 -12   80.13    3.08
  -2  -5 -12   82.06    3.04
   2   5  12   83.95    6.81
   2   5  12   78.40    2.95
   2   5  12   82.30    3.11
   2   5  12   80.44    2.97
   2   5  12   82.85    2.88
  -3  -5 -12   34.46    4.97
  -3  -5 -12   45.43    1.81
   3   5  12   43.65    1.71
   3   5  12   43.88    1.72
   3   5  12   38.75    6.12
   3   5  12   43.28    1.85
   3   5  12   41.85    1.56
  -4  -5 -12    9.16    3.77
  -4  -5 -12    5.21    0.62
   4   5  12    5.55    0.54
   4   5  12    4.61    0.59
   4   5  12   10.06    5.39
   4   5  12    5.34    0.68
  -5  -5 -12    1.55    0.58
   5   5  12    0.12    0.38
   5   5  12   -0.25    0.57
   5   5  12    0.47    0.44
  -5   6  12    2.68    0.54
  -5   6  12    2.23    0.46
   4  -6 -12    3.50    0.51
   4  -6 -12    4.64    0.55
  -4   6  12    4.37    0.50
  -4   6  12    3.54    0.52
  -4   6  12    4.21    0.57
   3  -6 -12    6.30    0.75
   3  -6 -12    9.73    0.66
   3  -6 -12    8.54    0.61
  -3   6  12    8.83    0.71
  -3   6  12    9.68    0.67
  -3   6  12    8.68    0.73
  -3   6  12    8.26    0.53
   2  -6 -12   10.92    0.62
   2  -6 -12   10.10    0.66
   2  -6 -12    7.98    3.38
   2  -6 -12   11.53    0.78
  -2   6  12   11.32    0.66
  -2   6  12   11.56    0.68
  -2   6  12   10.89    0.57
  -2   6  12    9.44    0.74
  -2   6  12    4.30    3.23
   1  -6 -12    7.72    5.85
   1  -6 -12    5.11    0.47
   1  -6 -12    3.65    0.46
   1  -6 -12    4.23    0.50
   1  -6 -12    4.32    0.42
  -1   6  12    4.84    0.37
  -1   6  12    4.10    0.54
  -1   6  12    4.00    2.75
  -1   6  12    4.61    0.45
   0  -6 -12   14.00    0.77
   0  -6 -12   13.44    0.67
   0  -6 -12   13.84    0.85
   0  -6 -12   17.29    3.53
   0  -6 -12   13.74    0.74
   0   6  12   14.83    0.78
   0   6  12    7.95    3.30
   0   6  12   15.24    0.88
  -1  -6 -12    3.72    0.36
  -1  -6 -12    4.45    0.45
  -1  -6 -12    3.58    0.45
  -1  -6 -12    3.90    0.50
  -1  -6 -12    4.83    2.87
   1   6  12    4.25    0.57
   1   6  12    4.28    0.45
   1   6  12    4.65    0.40
   1   6  12    7.60    4.42
  -2  -6 -12   10.73    0.59
  -2  -6 -12   10.52    0.71
  -2  -6 -12   10.04    0.67
  -2  -6 -12    4.54    3.35
   2   6  12   11.34    0.56
   2   6  12   10.08    0.65
   2   6  12   13.45    4.63
   2   6  12   11.62    0.83
   2   6  12    9.93    0.66
  -3  -6 -12    7.75    0.71
  -3  -6 -12    2.61    3.84
   3   6  12    9.22    0.90
   3   6  12    8.43    0.60
   3   6  12    8.22    0.69
   3   6  12    5.21    4.83
   3   6  12    8.14    0.47
  -4  -6 -12    4.45    0.66
   4   6  12    3.72    0.66
   4   6  12    4.60    0.54
   4   6  12    3.75    0.27
  -5  -6 -12    2.71    0.67
   5   6  12    2.22    0.54
  -4   7  12    2.57    0.44
  -4   7  12    2.25    0.51
   3  -7 -12    0.59    0.36
   3  -7 -12    0.13    0.38
  -3   7  12    0.60    0.29
  -3   7  12    0.51    0.45
  -3   7  12    0.27    0.35
   2  -7 -12   20.68    1.02
   2  -7 -12   19.06    0.96
   2  -7 -12   19.13    1.13
  -2   7  12   15.62    1.12
  -2   7  12   20.62    0.91
  -2   7  12   20.91    1.01
   1  -7 -12    2.52    0.42
   1  -7 -12   -5.71    3.67
   1  -7 -12    3.41    0.40
   1  -7 -12    2.34    0.42
  -1   7  12    4.31    3.70
  -1   7  12    2.21    0.40
  -1   7  12    2.39    0.51
   0  -7 -12    6.03    3.64
   0  -7 -12    0.63    0.35
   0  -7 -12    0.54    0.26
   0  -7 -12    0.56    0.29
   0   7  12   -0.08    0.32
   0   7  12    0.92    0.43
   0   7  12   -5.33    3.85
   0   7  12    0.58    0.26
  -1  -7 -12    2.48    0.39
  -1  -7 -12    3.06    0.49
  -1  -7 -12    2.24    0.32
   1   7  12    9.18    4.94
   1   7  12    2.33    0.58
   1   7  12    2.86    0.42
   1   7  12    2.23    0.34
  -2  -7 -12   21.09    4.51
  -2  -7 -12   19.61    1.00
  -2  -7 -12   18.09    1.06
   2   7  12   20.04    0.92
   2   7  12   14.57    5.48
   2   7  12   20.36    1.01
  -3  -7 -12   -0.39    4.72
  -3  -7 -12    0.27    0.47
   3   7  12   -2.46    6.57
   3   7  12    0.14    0.25
   3   7  12    0.84    0.39
  -4  -7 -12    1.93    0.61
   4   7  12    2.47    0.56
   3  -8 -12    3.07    0.52
  -3   8  12    2.69    0.42
  -3   8  12    3.46    0.54
   2  -8 -12    5.23    0.62
   2  -8 -12    6.75    0.67
  -2   8  12    6.84    0.59
   1  -8 -12    1.09    0.46
   1  -8 -12    0.00    0.67
   1  -8 -12    0.46    0.35
  -1   8  12    0.93    0.33
   0  -8 -12    4.25    0.64
   0  -8 -12    5.91    0.73
   0   8  12    4.87    0.50
  -1  -8 -12    0.72    0.43
  -1  -8 -12    0.66    0.36
   1   8  12    0.94    0.36
   1   8  12    0.67    0.34
  -2  -8 -12    5.58    0.69
   2   8  12    4.83    0.58
   2   8  12    6.18    0.94
  -3  -8 -12    3.98    0.71
   3   8  12    2.45    0.41
   3   8  12    3.58    0.55
   2  -9 -12    3.01    0.62
  -2   9  12    2.41    0.48
   1  -9 -12    0.26    0.51
  -1   9  12    0.11    0.35
   0  -9 -12    5.96    0.76
   0   9  12    5.55    0.63
  -1  -9 -12   -0.56    0.51
   1   9  12   -0.39    0.40
   1   9  12    0.32    0.45
  -2  -9 -12    4.08    0.77
   2   9  12    3.12    0.54
   2   9  12    2.77    0.65
   2   9 -13   -0.16    0.48
   2   9 -13    0.91    0.73
  -2  -9  13    0.79    0.42
   1   9 -13    5.33    0.78
   1   9 -13    7.17    0.83
   0   9 -13   17.21    1.02
   0   9 -13   17.62    1.27
  -1   9 -13    6.93    0.92
  -1   9 -13    6.31    0.65
  -2   9 -13    0.51    0.61
  -2   9 -13    0.85    0.38
   3   8 -13    1.03    0.57
   3   8 -13    1.22    0.63
  -3  -8  13    1.16    0.49
   2   8 -13    2.64    0.54
   2   8 -13    3.39    0.64
  -2  -8  13    3.02    0.51
   1   8 -13    4.23    0.55
   1   8 -13    4.35    0.61
  -1  -8  13    3.35    0.42
  -1  -8  13    4.06    0.39
   0   8 -13    1.00    0.34
   0   8 -13    2.30    0.46
   0   8 -13    1.06    0.45
  -1   8 -13    4.41    0.54
  -1   8 -13    4.85    0.65
  -1   8 -13    4.34    0.48
  -2   8 -13    2.56    4.11
  -2   8 -13    2.15    0.33
  -2   8 -13    2.13    0.43
  -2   8 -13    1.86    0.53
  -3   8 -13    1.35    0.34
  -3   8 -13    1.21    0.51
   4   7 -13   -0.02    0.50
   4   7 -13    1.60    0.64
  -4  -7  13    1.06    0.54
   3   7 -13    2.02    0.45
   3   7 -13    2.44    0.55
  -3  -7  13    1.66    0.39
  -3  -7  13    2.62    0.46
   2   7 -13   24.50    1.29
   2   7 -13   23.17    1.16
  -2  -7  13   23.25    1.08
  -2  -7  13   24.07    1.03
   1   7 -13    9.40    0.66
   1   7 -13    9.84    0.80
   1   7 -13    9.87    0.79
  -1  -7  13    9.95    0.49
  -1  -7  13    9.47    0.51
   0   7 -13    0.38    0.25
   0   7 -13    0.20    0.35
   0   7 -13    0.98    0.34
   0   7 -13    1.96    3.38
   0  -7  13    1.19    2.73
  -1   7 -13   10.48    0.68
  -1   7 -13   11.77    3.20
  -1   7 -13   10.68    0.76
  -1   7 -13   10.73    0.58
   1  -7  13    8.30    3.50
  -2   7 -13   23.81    1.03
  -2   7 -13   23.40    0.96
  -2   7 -13   23.70    1.20
   2  -7  13   21.13    2.59
  -3   7 -13    2.47    0.49
  -3   7 -13    2.17    0.25
  -3   7 -13    2.50    0.33
  -3   7 -13    2.13    0.31
  -4   7 -13    0.08    0.33
  -4   7 -13    0.24    0.46
  -4   7 -13    0.54    0.46
   5   6 -13    5.32    0.81
   5   6 -13    5.52    0.89
  -5  -6  13    6.78    0.84
  -5  -6  13    4.97    0.69
   4   6 -13    1.18    0.54
   4   6 -13    1.52    0.51
  -4  -6  13    1.37    0.49
  -4  -6  13    1.36    0.28
   3   6 -13    2.24    0.44
   3   6 -13    2.97    0.54
  -3  -6  13    2.51    0.39
  -3  -6  13    2.53    0.25
  -3  -6  13    2.45    0.40
   2   6 -13   26.49    5.73
   2   6 -13   24.89    1.23
   2   6 -13   22.56    1.17
   2   6 -13   24.70    1.15
  -2  -6  13   25.45    1.08
  -2  -6  13   23.72    1.01
  -2  -6  13   25.35    4.73
  -2  -6  13   23.68    1.16
   1   6 -13   19.78    0.93
   1   6 -13   28.22    4.47
   1   6 -13   19.50    0.99
   1   6 -13   19.57    1.01
  -1  -6  13   18.95    0.98
  -1  -6  13   17.51    3.55
  -1  -6  13   18.97    0.81
   0   6 -13    0.05    0.17
   0   6 -13    0.08    0.25
   0   6 -13    0.23    0.27
   0   6 -13    0.08    2.61
   0  -6  13    0.11    2.23
  -1   6 -13   19.67    0.84
  -1   6 -13   20.36    1.02
  -1   6 -13   19.26    0.97
  -1   6 -13   26.83    3.53
   1  -6  13   21.38    2.78
  -2   6 -13   24.47    0.92
  -2   6 -13   24.44    0.95
  -2   6 -13   24.10    1.00
  -2   6 -13   26.14    1.18
   2  -6  13   26.98    2.15
   2  -6  13   22.63    1.83
  -3   6 -13    2.26    0.29
  -3   6 -13    2.38    0.46
  -3   6 -13    2.67    0.41
  -3   6 -13    2.32    0.28
  -3   6 -13    2.23    0.21
  -4   6 -13    1.43    0.18
  -4   6 -13    1.55    0.40
  -4   6 -13    1.12    0.40
  -4   6 -13    1.62    0.36
  -5   6 -13    5.45    0.66
  -5   6 -13    6.13    0.83
   5   5 -13   13.57    1.03
   5   5 -13   10.41    1.05
  -5  -5  13   10.88    0.83
  -5  -5  13   12.69    0.93
   4   5 -13    0.18    0.42
   4   5 -13    0.65    0.39
  -4  -5  13    0.91    0.39
  -4  -5  13    0.99    0.27
  -4  -5  13    3.12    8.67
   3   5 -13   -3.80    4.01
   3   5 -13    2.25    0.36
   3   5 -13    2.06    0.46
   3   5 -13    2.06    0.40
  -3  -5  13    1.19    0.31
  -3  -5  13    1.72    0.22
  -3  -5  13    1.62    0.34
  -3  -5  13    2.07    0.39
   2   5 -13   10.16    0.66
   2   5 -13   10.80    0.69
   2   5 -13   11.53    3.93
   2   5 -13   12.02    1.07
  -2  -5  13   11.18    0.58
  -2  -5  13   10.77    0.61
  -2  -5  13    8.16    3.47
  -2  -5  13   11.36    0.70
  -2  -5  13    9.92    0.41
   1   5 -13   29.57    1.25
   1   5 -13   32.18    1.31
   1   5 -13   38.71    4.47
   1   5 -13   29.12    1.34
  -1  -5  13   32.45    1.33
  -1  -5  13   29.73    1.18
  -1  -5  13   28.13    3.88
  -1  -5  13   30.62    1.15
   0   5 -13   20.35    2.98
   0   5 -13   16.38    0.99
   0   5 -13   16.56    0.86
   0   5 -13   17.67    0.77
   0  -5  13   24.23    3.12
  -1   5 -13   28.89    1.18
  -1   5 -13   30.83    1.30
  -1   5 -13   30.87    1.15
   1  -5  13   32.10    2.66
  -2   5 -13   10.14    0.43
  -2   5 -13   10.10    0.49
  -2   5 -13   10.24    0.62
  -2   5 -13    9.99    0.47
  -3   5 -13    2.44    0.35
  -3   5 -13    1.85    0.37
  -3   5 -13    2.07    0.35
  -3   5 -13    1.73    0.19
  -4   5 -13    0.54    0.48
  -4   5 -13    0.58    0.10
  -4   5 -13    0.88    0.32
  -4   5 -13    0.67    0.32
  -4   5 -13    0.87    0.12
  -5   5 -13   10.95    0.78
  -5   5 -13   10.21    0.72
  -5   5 -13   11.59    0.94
   6   4 -13    7.47    0.97
   6   4 -13    7.40    0.89
  -6  -4  13    8.96    0.96
   5   4 -13    5.96    0.80
   5   4 -13    6.06    0.70
  -5  -4  13    8.49    0.79
  -5  -4  13    6.18    0.67
   4   4 -13    9.94    0.74
   4   4 -13   13.18    1.33
   4   4 -13   10.54    0.80
  -4  -4  13    9.85    0.76
  -4  -4  13   15.09    5.52
  -4  -4  13   11.74    0.78
  -4  -4  13   19.33    5.45
  -4  -4  13   10.51    0.72
  -4  -4  13   10.93    0.65
   3   4 -13    0.61    0.31
   3   4 -13    1.08    0.37
   3   4 -13    0.56    0.34
  -3  -4  13    0.83    0.18
  -3  -4  13    5.95    3.65
  -3  -4  13    1.09    0.30
  -3  -4  13    0.63    0.25
  -3  -4  13    0.67    0.26
   2   4 -13   -0.14    0.20
   2   4 -13   -0.16    0.22
   2   4 -13    0.10    0.25
  -2  -4  13    1.86    2.56
  -2  -4  13   -0.24    0.21
  -2  -4  13    0.14    0.08
  -2  -4  13    0.10    0.18
  -2  -4  13   -0.05    0.16
   1   4 -13    4.42    0.37
   1   4 -13    4.60    0.34
   1   4 -13    4.31    0.40
  -1  -4  13    4.36    0.29
  -1  -4  13    4.03    0.38
  -1  -4  13    4.43    0.30
  -1  -4  13    4.33    2.20
   0   4 -13   63.64    2.41
   0   4 -13   65.43    2.31
   0   4 -13   61.62    2.32
   0  -4  13   66.19    2.19
   0  -4  13   65.05    2.38
   0  -4  13   63.38    4.22
   0  -4  13   61.70    4.23
  -1   4 -13    4.65    0.26
  -1   4 -13    4.03    0.28
  -1   4 -13    3.92    0.23
  -1   4 -13    4.35    0.38
   1  -4  13    5.19    1.22
   1  -4  13    3.17    1.23
  -2   4 -13    0.13    0.08
  -2   4 -13   -0.02    0.20
  -2   4 -13   -0.08    0.14
  -2   4 -13   -0.13    0.16
  -2   4 -13    0.03    0.06
  -3   4 -13    0.77    0.23
  -3   4 -13    0.73    0.25
  -3   4 -13    0.72    0.26
  -4   4 -13   11.12    0.75
  -4   4 -13   10.86    0.64
  -4   4 -13   10.68    0.43
  -4   4 -13   12.15    0.67
  -5   4 -13    6.49    0.53
  -5   4 -13    6.82    0.54
  -5   4 -13    6.84    0.38
  -5   4 -13    6.43    0.75
  -5   4 -13    6.09    0.56
  -6   4 -13    5.77    0.84
   6   3 -13   11.49    1.02
   6   3 -13    9.00    0.96
  -6  -3  13    8.12    0.90
  -6  -3  13    7.86    0.94
   5   3 -13   -0.07    0.34
   5   3 -13    0.35    0.33
   5   3 -13    0.15    0.40
  -5  -3  13    0.58    0.38
  -5  -3  13    0.70    6.10
  -5  -3  13   -0.55    6.31
  -5  -3  13    0.08    0.33
   4   3 -13    0.97    0.32
   4   3 -13    0.97    0.35
   4   3 -13    0.09    0.42
   4   3 -13    1.34    0.33
  -4  -3  13    0.85    0.27
  -4  -3  13    1.28    0.37
  -4  -3  13    0.75    0.32
  -4  -3  13    1.06    4.43
  -4  -3  13    1.24    0.35
  -4  -3  13    2.30    3.84
   3   3 -13   14.08    0.75
   3   3 -13   13.31    0.76
   3   3 -13   12.96    0.77
   3   3 -13   13.93    0.73
  -3  -3  13   14.09    0.71
  -3  -3  13   16.66    3.69
  -3  -3  13   13.10    0.64
  -3  -3  13   13.35    0.73
  -3  -3  13   13.76    0.77
  -3  -3  13   12.51    3.73
   2   3 -13   10.61    0.53
   2   3 -13   10.32    0.59
   2   3 -13   10.41    0.62
   2   3 -13   10.08    0.57
  -2  -3  13   10.55    0.56
  -2  -3  13    6.80    2.71
  -2  -3  13   10.87    2.85
  -2  -3  13   11.78    0.64
  -2  -3  13   10.50    0.47
  -2  -3  13   10.25    0.53
   1   3 -13   28.22    1.20
   1   3 -13   27.87    1.05
   1   3 -13   30.64    1.14
   1   3 -13   27.09    1.14
  -1  -3  13   28.61    1.09
  -1  -3  13   28.62    1.08
  -1  -3  13   35.70    3.56
  -1  -3  13   27.14    1.17
   0   3 -13   92.53    3.22
   0   3 -13   91.25    3.12
   0   3 -13   90.37    3.12
   0   3 -13   91.34    3.04
   0  -3  13   91.93    4.89
   0  -3  13   87.29    3.03
   0  -3  13   91.07    4.79
   0  -3  13   88.19    3.03
   0  -3  13   77.42    3.23
  -1   3 -13   29.59    1.07
  -1   3 -13   29.50    1.23
  -1   3 -13   28.37    1.18
   1  -3  13   30.38    1.17
   1  -3  13   28.35    2.02
   1  -3  13   28.31    2.09
  -2   3 -13   10.61    0.61
  -2   3 -13   10.96    0.39
  -2   3 -13   10.60    0.54
  -2   3 -13   10.41    0.56
  -2   3 -13   10.73    0.38
  -3   3 -13   13.49    0.73
  -3   3 -13   12.15    0.68
  -3   3 -13   13.22    0.63
  -4   3 -13    0.89    0.22
  -4   3 -13    1.00    0.35
  -4   3 -13    1.05    0.13
  -4   3 -13    1.72    0.27
  -4   3 -13    0.70    0.12
  -5   3 -13    0.60    0.42
  -5   3 -13    0.39    0.23
  -5   3 -13    0.15    0.19
  -5   3 -13    0.30    0.19
  -5   3 -13    0.31    0.22
  -6   3 -13    8.94    1.07
   6   2 -13   -0.43    0.50
  -6  -2  13    0.57    0.52
  -6  -2  13    0.50    0.47
   5   2 -13    1.74    0.44
   5   2 -13    2.02    0.33
   5   2 -13    1.57    0.41
  -5  -2  13    2.28    0.44
  -5  -2  13    1.23    0.44
  -5  -2  13    0.33    5.76
  -5  -2  13    6.62    5.39
  -5  -2  13    1.57    0.39
   4   2 -13   29.60    1.31
   4   2 -13   30.01    1.25
   4   2 -13   29.16    1.36
   4   2 -13   26.88    1.35
  -4  -2  13   28.95    1.29
  -4  -2  13   16.83    5.75
  -4  -2  13   28.50    1.33
  -4  -2  13   32.60    1.30
  -4  -2  13   30.55    1.29
  -4  -2  13   29.40    4.91
   3   2 -13    3.19    0.40
   3   2 -13    3.71    0.41
   3   2 -13    3.39    0.37
   3   2 -13    3.57    0.47
   3   2 -13    3.46    0.37
  -3  -2  13    3.43    0.33
  -3  -2  13    3.49    0.37
  -3  -2  13   -0.33    2.87
  -3  -2  13    2.74    2.86
  -3  -2  13    3.59    0.43
  -3  -2  13    3.47    0.37
   2   2 -13   24.85    1.05
   2   2 -13   25.76    1.03
   2   2 -13   25.21    1.10
   2   2 -13   24.28    1.08
   2   2 -13   26.15    1.07
  -2  -2  13   25.87    1.09
  -2  -2  13   26.25    3.69
  -2  -2  13   25.32    0.97
  -2  -2  13   23.33    3.56
  -2  -2  13   25.14    1.02
  -2  -2  13   23.02    1.09
   1   2 -13   30.53    1.16
   1   2 -13   30.72    1.21
   1   2 -13   30.42    1.21
   1   2 -13   32.61    1.27
   1   2 -13   30.73    1.28
  -1  -2  13   30.38    1.18
  -1  -2  13   29.80    3.21
  -1  -2  13   30.43    1.25
  -1  -2  13   29.38    3.14
  -1  -2  13   33.73    1.14
  -1  -2  13   31.50    1.16
   0   2 -13  120.99    4.11
   0   2 -13  118.25    3.95
   0   2 -13  123.03    4.07
   0   2 -13  115.72    3.99
   0   2 -13  110.60    3.98
   0  -2  13  111.62    5.56
   0  -2  13  112.85    3.92
   0  -2  13  103.83    5.33
   0  -2  13  118.45    4.04
   0  -2  13  110.74    3.93
  -1   2 -13   31.14    1.09
  -1   2 -13   31.27    1.11
  -1   2 -13   32.07    1.20
  -1   2 -13   30.75    1.25
   1  -2  13   29.27    2.17
   1  -2  13   31.12    1.95
   1  -2  13   27.93    1.16
  -2   2 -13   25.05    0.88
  -2   2 -13   24.78    0.99
  -2   2 -13   24.93    1.06
  -3   2 -13    3.22    0.42
  -3   2 -13    3.43    0.17
  -3   2 -13    3.64    0.27
  -3   2 -13    3.58    0.36
  -4   2 -13   28.67    1.08
  -4   2 -13   29.49    1.14
  -4   2 -13   29.02    1.39
  -4   2 -13   29.83    1.10
  -4   2 -13   30.64    1.21
  -5   2 -13    2.80    0.55
  -5   2 -13    1.65    0.26
  -5   2 -13    2.09    0.27
  -5   2 -13    1.76    0.24
  -5   2 -13    2.04    0.26
  -5   2 -13    1.69    0.27
  -6   2 -13    1.64    0.63
   6   1 -13    2.97    0.53
  -6  -1  13    2.49    0.55
  -6  -1  13    2.30    0.56
   5   1 -13    4.25    0.64
   5   1 -13    3.80    0.47
   5   1 -13    3.76    0.54
   5   1 -13    3.88    0.41
  -5  -1  13    3.55    0.52
  -5  -1  13    3.05    0.48
  -5  -1  13    3.96    0.56
  -5  -1  13    7.86    5.52
  -5  -1  13   -4.76    4.42
   4   1 -13   31.57    1.30
   4   1 -13   32.80    1.40
   4   1 -13   31.98    1.48
   4   1 -13   33.35    1.44
   4   1 -13   34.28    1.43
  -4  -1  13   30.39    1.38
  -4  -1  13   27.48    4.71
  -4  -1  13   30.46    1.46
  -4  -1  13   33.14    1.44
  -4  -1  13   34.11    5.42
  -4  -1  13   34.18    1.39
   3   1 -13   10.92    0.66
   3   1 -13   12.48    0.69
   3   1 -13   11.54    0.63
   3   1 -13   10.78    0.60
   3   1 -13   11.81    0.66
  -3  -1  13   11.87    0.64
  -3  -1  13   11.39    0.67
  -3  -1  13   16.25    3.24
  -3  -1  13    9.70    3.09
  -3  -1  13   12.84    0.62
  -3  -1  13   11.08    0.61
   2   1 -13  131.36    4.49
   2   1 -13  128.06    4.49
   2   1 -13  127.64    4.51
   2   1 -13  131.17    4.50
   2   1 -13  121.13    4.52
  -2  -1  13  121.46    7.08
  -2  -1  13  127.01    4.44
  -2  -1  13  126.99    4.53
  -2  -1  13  123.22    6.92
  -2  -1  13  131.59    4.45
   1   1 -13    7.42    0.45
   1   1 -13    8.23    0.42
   1   1 -13    8.74    0.41
   1   1 -13    7.86    0.42
   1   1 -13    7.25    0.46
  -1  -1  13    8.04    0.38
  -1  -1  13    8.48    1.87
  -1  -1  13    9.07    0.43
  -1  -1  13    8.00    0.46
  -1  -1  13    8.75    0.39
   0   1 -13   29.90    1.16
   0   1 -13   31.20    1.09
   0   1 -13   28.24    1.19
   0   1 -13   29.43    1.10
   0   1 -13   29.75    1.08
   0   1 -13   28.54    2.46
   0  -1  13   29.19    1.05
   0  -1  13   28.15    1.10
   0  -1  13   29.72    1.14
   0  -1  13   28.75    2.35
  -1   1 -13    6.53    1.17
  -1   1 -13    9.88    0.63
  -1   1 -13    7.95    0.36
  -1   1 -13    7.77    0.40
   1  -1  13    8.50    1.24
   1  -1  13    8.22    0.39
  -2   1 -13  127.26    4.37
  -2   1 -13  120.27    4.22
  -2   1 -13  129.56    5.01
  -2   1 -13  121.45    4.27
  -2   1 -13  120.16    4.20
  -3   1 -13   11.44    0.49
  -3   1 -13   10.43    1.30
  -3   1 -13   11.64    0.48
  -3   1 -13   12.73    0.63
   3  -1  13   11.59    1.60
  -4   1 -13   32.75    2.14
  -4   1 -13   32.28    1.31
  -4   1 -13   33.65    1.24
  -4   1 -13   32.76    1.21
  -4   1 -13   32.75    1.50
  -4   1 -13   31.47    1.18
  -5   1 -13    3.29    0.36
  -5   1 -13    3.49    0.50
  -5   1 -13    3.08    0.25
  -5   1 -13    3.55    1.86
  -5   1 -13    4.03    0.24
  -5   1 -13    4.22    0.42
  -5   1 -13    3.68    1.44
  -5   1 -13    3.22    0.58
  -6   1 -13    3.72    0.48
  -6   1 -13    2.89    0.48
  -6   1 -13    2.40    0.67
   6   0 -13   10.81    0.81
  -6   0  13    9.48    0.95
  -6   0  13   11.54    0.83
   5   0 -13   14.81    1.07
   5   0 -13   15.24    0.84
   5   0 -13   14.00    0.95
   5   0 -13   14.22    0.66
  -5   0  13   17.74    5.54
  -5   0  13   16.00    4.91
  -5   0  13   14.35    0.86
  -5   0  13   15.72    0.92
  -5   0  13   12.13    0.97
   4   0 -13  122.23    4.38
   4   0 -13  120.61    4.26
   4   0 -13  124.63    4.34
   4   0 -13  118.40    4.46
  -4   0  13  126.38    4.44
  -4   0  13  118.76    4.36
  -4   0  13  121.16    8.22
  -4   0  13  116.92    4.37
  -4   0  13  120.69    8.91
   3   0 -13   16.54    0.82
   3   0 -13   14.88    0.72
   3   0 -13   16.12    0.75
   3   0 -13   15.96    0.78
   3   0 -13   14.68    0.79
  -3   0  13   16.97    3.03
  -3   0  13   16.35    0.76
  -3   0  13   15.55    0.77
  -3   0  13   15.11    0.74
  -3   0  13   14.93    3.32
  -3   0  13   16.18    0.81
   2   0 -13    5.77    0.40
   2   0 -13    5.65    0.39
   2   0 -13    5.99    0.39
   2   0 -13    5.79    0.38
   2   0 -13    4.33    1.88
   2   0 -13    5.57    0.40
  -2   0  13    5.64    0.34
  -2   0  13    5.78    0.36
  -2   0  13    4.64    1.95
  -2   0  13    5.72    0.41
   1   0 -13  100.11    3.49
   1   0 -13   98.01    3.47
   1   0 -13  101.50    3.54
   1   0 -13   91.40    5.29
   1   0 -13  103.56    3.53
   1   0 -13   99.59    3.48
  -1   0  13   93.92    3.52
  -1   0  13   99.21    3.46
  -1   0  13   95.77    3.44
  -1   0  13  104.69    3.53
  -1   0  13   98.35    3.48
  -1   0  13  101.08    5.27
   0   0 -13   -0.14    0.09
   0   0 -13   -0.04    0.11
   0   0 -13   -0.19    0.08
   0   0 -13    1.02    0.97
   0   0 -13   -0.09    0.09
   0   0 -13   -0.13    0.13
   0   0  13   -0.18    0.13
   0   0  13    0.32    0.14
   0   0  13    0.06    0.11
   0   0  13    0.38    1.10
  -1   0 -13   96.03    3.41
  -1   0 -13   97.44    3.38
  -1   0 -13   94.20    3.40
  -1   0 -13   95.36    4.54
  -1   0 -13  100.31    3.51
   1   0  13   97.82    3.51
   1   0  13   97.50    3.36
   1   0  13  110.21    4.57
   1   0  13  100.94    3.45
   1   0  13   95.28    3.35
  -2   0 -13    5.78    0.27
  -2   0 -13    5.54    0.28
  -2   0 -13    5.67    0.27
  -2   0 -13    3.16    1.05
  -2   0 -13    5.57    0.40
   2   0  13    5.63    0.41
   2   0  13    5.54    1.20
  -3   0 -13   15.14    0.75
  -3   0 -13   15.90    0.63
  -3   0 -13   16.28    0.66
  -3   0 -13   16.83    1.80
   3   0  13   16.08    0.77
   3   0  13   14.72    2.04
  -4   0 -13  128.86    4.25
  -4   0 -13  124.59    4.34
  -4   0 -13  123.26    4.29
  -4   0 -13  119.32    5.68
   4   0  13  120.65    4.33
   4   0  13  112.37    6.30
  -5   0 -13   13.81    1.01
  -5   0 -13   14.73    0.75
  -5   0 -13   13.96    0.69
  -5   0 -13   13.86    0.71
  -5   0 -13   13.78    2.79
  -6   0 -13    9.02    0.66
  -6   0 -13    9.88    1.05
   6  -1 -13    2.54    0.48
  -6   1  13    2.92    0.62
  -6   1  13    3.06    0.50
   5  -1 -13    2.23    0.51
   5  -1 -13    4.62    0.50
   5  -1 -13    2.86    0.29
  -5   1  13    4.17    0.55
  -5   1  13    3.68    0.47
  -5   1  13    3.47    0.58
  -5   1  13   12.12    5.23
   4  -1 -13   33.26    1.39
   4  -1 -13   35.06    1.35
   4  -1 -13   31.04    1.25
   4  -1 -13   30.66    1.47
  -4   1  13   30.96    1.44
  -4   1  13   33.58    5.20
  -4   1  13   26.78    4.41
  -4   1  13   31.14    1.39
  -4   1  13   33.23    1.43
   3  -1 -13   11.96    0.57
   3  -1 -13   10.17    0.63
   3  -1 -13   11.98    0.70
   3  -1 -13   12.36    5.23
   3  -1 -13   12.33    0.60
  -3   1  13    9.76    0.55
  -3   1  13   10.31    0.66
  -3   1  13    9.27    2.85
  -3   1  13   11.58    0.62
  -3   1  13   10.49    0.61
   2  -1 -13  123.09    4.36
   2  -1 -13  110.92    6.65
   2  -1 -13  125.70    4.37
   2  -1 -13  123.46    4.38
  -2   1  13  127.91    4.38
  -2   1  13  120.69    4.36
  -2   1  13  126.57    4.38
  -2   1  13  125.64    6.65
  -2   1  13  131.55    4.43
  -2   1  13  121.89    4.33
   1  -1 -13    7.86    0.44
   1  -1 -13    8.99    0.43
   1  -1 -13    8.85    1.90
   1  -1 -13    9.33    0.48
   1  -1 -13    8.49    0.46
   1  -1 -13    8.64    0.43
  -1   1  13    8.09    0.42
  -1   1  13    8.19    0.39
  -1   1  13    7.84    0.43
  -1   1  13    7.81    0.47
  -1   1  13    8.82    0.48
  -1   1  13    7.85    1.83
   0  -1 -13   29.65    1.09
   0  -1 -13   30.38    1.19
   0  -1 -13   28.53    1.12
   0  -1 -13   31.23    2.56
   0  -1 -13   29.02    1.11
   0  -1 -13   26.03    1.11
   0   1  13   31.61    1.07
   0   1  13   30.93    2.53
   0   1  13   30.11    1.19
   0   1  13   28.35    1.10
   0   1  13   28.22    1.12
  -1  -1 -13    8.09    0.39
  -1  -1 -13    7.79    0.48
  -1  -1 -13    9.42    1.69
  -1  -1 -13    7.88    0.36
   1   1  13    8.61    1.51
   1   1  13    8.22    0.37
   1   1  13    8.52    0.35
   1   1  13    7.40    0.46
   1   1  13    7.65    0.37
  -2  -1 -13  114.70    6.06
  -2  -1 -13  123.19    4.21
  -2  -1 -13  119.96    4.30
   2   1  13  122.12    4.30
   2   1  13  122.22    4.15
   2   1  13  121.79    4.15
   2   1  13  120.73    5.80
  -3  -1 -13   11.79    0.50
  -3  -1 -13   11.35    0.54
  -3  -1 -13    9.87    1.68
  -3  -1 -13    9.79    0.59
   3   1  13   13.35    2.28
   3   1  13   10.33    0.62
  -4  -1 -13   34.17    3.26
  -4  -1 -13   33.12    1.34
  -4  -1 -13   31.65    1.26
  -4  -1 -13   34.31    1.33
   4   1  13   25.95    3.64
  -5  -1 -13    3.90    0.65
  -5  -1 -13    4.59    0.43
  -5  -1 -13    3.17    0.42
  -5  -1 -13    2.99    0.42
  -6  -1 -13    3.49    0.55
  -6  -1 -13    2.66    0.70
  -6  -1 -13    3.29    0.48
   6  -2 -13    0.57    0.37
   6  -2 -13    0.97    0.62
  -6   2  13    0.78    0.50
  -6   2  13    0.78    0.40
   5  -2 -13    2.27    0.48
   5  -2 -13    2.59    0.37
   5  -2 -13    1.66    0.21
  -5   2  13   -4.12    5.03
  -5   2  13    2.20    0.43
  -5   2  13    2.08    0.39
   4  -2 -13   30.05    1.32
   4  -2 -13   30.16    1.25
   4  -2 -13   30.34    1.19
   4  -2 -13   28.72    1.42
  -4   2  13   29.53    1.32
  -4   2  13   29.23    1.38
  -4   2  13   28.96    1.24
  -4   2  13   31.67    1.35
  -4   2  13   30.21    4.62
   3  -2 -13    3.81    0.34
   3  -2 -13    3.79    0.37
   3  -2 -13    3.47    0.43
   3  -2 -13    6.19    2.62
   3  -2 -13    3.79    0.33
  -3   2  13    3.75    0.44
  -3   2  13    3.43    0.31
  -3   2  13    4.09    0.36
  -3   2  13    1.26    2.33
  -3   2  13    3.84    0.39
  -3   2  13    3.39    0.38
   2  -2 -13   24.34    3.44
   2  -2 -13   26.85    1.04
   2  -2 -13   24.41    1.03
   2  -2 -13   25.94    1.10
   2  -2 -13   24.82    1.05
  -2   2  13   29.66    3.55
  -2   2  13   24.50    1.05
  -2   2  13   23.98    1.04
  -2   2  13   24.07    1.04
  -2   2  13   26.28    1.01
  -2   2  13   24.66    1.09
   1  -2 -13   32.25    1.24
   1  -2 -13   28.91    1.23
   1  -2 -13   30.45    1.28
   1  -2 -13   31.51    1.26
   1  -2 -13   29.90    3.18
  -1   2  13   33.51    1.26
  -1   2  13   31.23    1.20
  -1   2  13   33.89    1.26
  -1   2  13   32.24    3.22
  -1   2  13   35.02    1.31
  -1   2  13   33.61    1.29
   0  -2 -13  120.67    4.13
   0  -2 -13  117.47    4.01
   0  -2 -13  118.76    4.06
   0  -2 -13  116.84    5.78
   0  -2 -13  108.50    4.03
   0   2  13  113.94    4.05
   0   2  13  115.40    4.04
   0   2  13  114.43    5.69
   0   2  13  117.43    4.00
   0   2  13  113.67    4.11
  -1  -2 -13   31.92    1.18
  -1  -2 -13   31.33    2.69
  -1  -2 -13   32.50    1.31
  -1  -2 -13   31.21    1.22
   1   2  13   29.59    1.29
   1   2  13   32.50    1.33
   1   2  13   38.10    2.96
   1   2  13   31.87    1.18
   1   2  13   31.94    1.20
  -2  -2 -13   24.97    1.00
  -2  -2 -13   24.39    1.06
  -2  -2 -13   24.89    2.82
   2   2  13   24.71    0.95
   2   2  13   23.55    0.85
   2   2  13   25.50    0.94
   2   2  13   26.88    3.00
   2   2  13   23.40    1.15
  -3  -2 -13    3.27    1.64
  -3  -2 -13    3.48    0.34
  -3  -2 -13    3.14    0.38
  -3  -2 -13    3.35    0.29
   3   2  13    6.41    2.29
   3   2  13    3.40    0.42
   3   2  13    3.24    0.25
   3   2  13    3.24    0.26
  -4  -2 -13   31.04    1.29
  -4  -2 -13   30.71    3.75
  -4  -2 -13   29.80    1.19
  -4  -2 -13   29.46    1.27
   4   2  13   27.77    1.29
   4   2  13   30.59    1.16
   4   2  13   29.15    1.10
   4   2  13   34.71    4.79
  -5  -2 -13    2.58    0.36
  -5  -2 -13    2.39    0.36
   5   2  13    2.02    0.41
  -6  -2 -13   -1.27    0.46
  -6  -2 -13   -0.38    0.62
   6  -3 -13    7.79    0.69
  -6   3  13    8.66    0.97
  -6   3  13    8.96    0.79
   5  -3 -13    0.69    0.31
   5  -3 -13    0.19    0.43
  -5   3  13    0.37    0.31
  -5   3  13    0.17    0.34
   4  -3 -13    1.32    3.88
   4  -3 -13    1.48    0.29
   4  -3 -13    0.89    0.22
   4  -3 -13    1.72    0.45
   4  -3 -13    1.84    0.34
  -4   3  13    1.50    3.52
  -4   3  13    0.66    0.25
  -4   3  13    1.68    0.35
  -4   3  13    0.89    0.38
  -4   3  13    0.92    0.32
  -4   3  13    1.69    0.27
   3  -3 -13   13.09    0.80
   3  -3 -13   15.84    3.42
   3  -3 -13   13.15    0.68
   3  -3 -13   13.76    0.67
   3  -3 -13   14.40    0.73
  -3   3  13   14.33    0.73
  -3   3  13   12.29    0.79
  -3   3  13   13.76    0.73
  -3   3  13   12.49    0.69
  -3   3  13   10.29    2.74
  -3   3  13   14.29    0.66
   2  -3 -13   11.67    0.58
   2  -3 -13   10.89    0.59
   2  -3 -13   10.29    0.56
   2  -3 -13   10.49    0.62
   2  -3 -13   12.14    2.84
  -2   3  13   11.83    0.60
  -2   3  13   10.82    0.64
  -2   3  13   10.71    0.61
  -2   3  13   10.85    0.60
  -2   3  13   10.77    0.52
   1  -3 -13   30.04    1.17
   1  -3 -13   30.70    1.22
   1  -3 -13   29.17    1.18
   1  -3 -13   31.41    3.32
   1  -3 -13   31.82    1.25
  -1   3  13   30.59    3.18
  -1   3  13   30.06    1.20
  -1   3  13   27.96    1.13
  -1   3  13   29.37    1.19
   0  -3 -13   88.25    3.16
   0  -3 -13   88.02    3.22
   0  -3 -13   89.68    3.15
   0  -3 -13   89.57    3.11
   0   3  13   80.46    4.99
   0   3  13   88.93    3.15
   0   3  13   90.54    3.10
   0   3  13   87.79    3.23
  -1  -3 -13   30.84    1.27
  -1  -3 -13   27.01    2.96
  -1  -3 -13   30.06    1.13
  -1  -3 -13   29.80    1.18
  -1  -3 -13   28.71    1.18
   1   3  13   30.47    1.13
   1   3  13   29.80    1.16
   1   3  13   29.22    1.12
   1   3  13   29.24    1.26
   1   3  13   27.56    3.16
  -2  -3 -13   11.30    0.65
  -2  -3 -13    6.12    1.90
  -2  -3 -13   10.15    0.58
  -2  -3 -13   11.38    0.51
   2   3  13   14.14    2.56
   2   3  13   10.99    0.54
   2   3  13   10.39    0.64
   2   3  13   11.06    0.45
   2   3  13   10.67    0.52
  -3  -3 -13   13.20    0.71
  -3  -3 -13   13.11    0.64
  -3  -3 -13   17.86    2.78
  -3  -3 -13   13.44    0.76
   3   3  13   14.43    0.78
   3   3  13   13.89    0.64
   3   3  13   11.98    3.12
   3   3  13   14.15    0.65
  -4  -3 -13    0.91    0.24
  -4  -3 -13    1.24    0.35
  -4  -3 -13    1.42    0.34
  -4  -3 -13    3.82    2.49
   4   3  13    1.11    0.36
   4   3  13    2.31    3.46
   4   3  13    1.09    0.23
   4   3  13    1.05    0.23
  -5  -3 -13    0.16    0.28
  -5  -3 -13    0.30    0.38
   5   3  13   -0.25    0.41
   5   3  13   -0.14    0.22
   5   3  13    0.24    0.22
  -6  -3 -13   10.81    1.32
  -6  -3 -13    9.49    1.01
  -6   4  13    8.20    0.82
   5  -4 -13    5.30    0.58
   5  -4 -13    5.09    0.62
  -5   4  13    6.33    0.55
  -5   4  13    6.06    0.67
   4  -4 -13   10.35    0.74
   4  -4 -13   11.68    0.63
   4  -4 -13   11.64    1.01
   4  -4 -13   10.60    0.65
   4  -4 -13   15.97    4.52
  -4   4  13   -0.22    3.54
  -4   4  13   10.17    0.66
  -4   4  13   10.65    0.62
  -4   4  13   11.19    0.80
  -4   4  13   11.31    1.00
  -4   4  13   11.59    0.75
   3  -4 -13    0.31    0.32
   3  -4 -13   -0.37    2.91
   3  -4 -13    0.67    0.24
   3  -4 -13    0.99    0.26
   3  -4 -13    1.03    0.24
  -3   4  13    0.85    0.28
  -3   4  13    0.63    0.32
  -3   4  13    0.71    0.29
  -3   4  13    2.28    2.72
  -3   4  13    0.86    0.27
  -3   4  13    0.54    0.22
   2  -4 -13    0.28    0.18
   2  -4 -13    1.81    2.49
   2  -4 -13    0.27    0.24
   2  -4 -13    0.05    0.20
   2  -4 -13    0.30    0.20
  -2   4  13   -0.11    0.14
  -2   4  13   -0.05    0.25
  -2   4  13    0.56    2.12
  -2   4  13    0.07    0.23
  -2   4  13    0.06    0.20
  -2   4  13    0.08    0.17
   1  -4 -13    4.53    0.33
   1  -4 -13    4.43    0.36
   1  -4 -13    4.05    0.39
   1  -4 -13    3.74    0.41
   1  -4 -13    8.59    2.51
  -1   4  13    4.03    0.45
  -1   4  13    4.32    0.37
  -1   4  13    6.11    2.12
  -1   4  13    4.67    0.37
  -1   4  13    4.56    0.30
   0  -4 -13   66.12    2.41
   0  -4 -13   66.60    2.47
   0  -4 -13   65.80    2.55
   0  -4 -13   68.98    2.48
   0   4  13   70.38    2.47
   0   4  13   64.08    2.55
   0   4  13   72.35    4.87
  -1  -4 -13    4.92    0.38
  -1  -4 -13    6.82    2.04
  -1  -4 -13    4.65    0.38
  -1  -4 -13    4.70    0.44
  -1  -4 -13    3.89    0.31
   1   4  13    4.41    0.35
   1   4  13    3.69    2.07
   1   4  13    4.61    0.33
   1   4  13    4.43    0.45
  -2  -4 -13   -0.13    0.13
  -2  -4 -13   -0.97    1.99
  -2  -4 -13    0.09    0.22
  -2  -4 -13   -0.17    0.22
   2   4  13    0.12    0.16
   2   4  13    0.39    2.32
   2   4  13   -0.34    0.25
   2   4  13    0.42    0.21
   2   4  13   -0.20    0.09
  -3  -4 -13   -0.96    2.33
  -3  -4 -13    0.85    0.29
  -3  -4 -13    1.13    0.32
   3   4  13    0.96    0.37
   3   4  13    2.25    3.31
   3   4  13    0.74    0.24
   3   4  13    0.75    0.23
  -4  -4 -13   12.15    0.79
  -4  -4 -13   10.77    0.65
  -4  -4 -13   11.85    0.76
  -4  -4 -13   15.02    3.66
   4   4  13   11.24    0.63
   4   4  13    9.74    0.82
   4   4  13   10.92    4.62
   4   4  13    9.89    0.62
  -5  -4 -13    7.45    0.82
   5   4  13    6.85    0.89
   5   4  13    6.24    0.56
   5   4  13    6.52    0.57
  -6  -4 -13    8.78    1.09
   5  -5 -13   10.81    0.83
  -5   5  13   12.32    0.90
  -5   5  13   11.73    0.78
   4  -5 -13    1.12    0.40
  -4   5  13    0.74    0.29
  -4   5  13    0.49    0.33
  -4   5  13    0.41    0.34
   3  -5 -13    2.09    0.34
   3  -5 -13    2.24    0.37
   3  -5 -13    6.23    3.68
   3  -5 -13    1.94    0.32
   3  -5 -13    2.10    0.46
  -3   5  13    1.44    0.45
  -3   5  13    1.04    3.03
  -3   5  13    1.63    0.36
  -3   5  13    2.26    0.36
  -3   5  13    2.90    0.32
  -3   5  13    1.22    0.34
   2  -5 -13   11.81    3.28
   2  -5 -13    8.86    0.59
   2  -5 -13   10.42    0.67
   2  -5 -13   11.11    0.72
   2  -5 -13   10.01    0.61
  -2   5  13   10.41    0.62
  -2   5  13   10.28    0.66
  -2   5  13   10.48    0.60
  -2   5  13   11.08    0.64
  -2   5  13   11.34    3.19
   1  -5 -13   31.57    1.29
   1  -5 -13   31.48    1.22
   1  -5 -13   29.02    4.06
   1  -5 -13   29.27    1.26
   1  -5 -13   31.73    1.35
  -1   5  13   28.79    1.25
  -1   5  13   28.35    1.32
  -1   5  13   30.64    3.90
  -1   5  13   30.44    1.20
   0  -5 -13   18.54    0.85
   0  -5 -13   12.74    3.07
   0  -5 -13   18.25    0.88
   0  -5 -13   18.11    0.93
   0  -5 -13   17.54    0.78
   0   5  13   18.53    0.84
   0   5  13   20.02    3.27
   0   5  13   17.52    0.79
   0   5  13   18.00    0.96
  -1  -5 -13   29.82    1.36
  -1  -5 -13   31.42    1.20
  -1  -5 -13   29.12    1.25
  -1  -5 -13   30.43    1.30
  -1  -5 -13   26.68    3.86
   1   5  13   30.85    1.40
   1   5  13   29.91    1.25
   1   5  13   30.13    7.15
   1   5  13   31.93    1.23
  -2  -5 -13    9.92    0.70
  -2  -5 -13   10.40    0.55
  -2  -5 -13    8.17    0.88
  -2  -5 -13    8.08    2.81
   2   5  13   16.15    3.94
   2   5  13   10.71    0.59
   2   5  13   10.28    0.60
   2   5  13   10.34    0.49
   2   5  13    9.49    0.72
  -3  -5 -13    2.53    3.00
  -3  -5 -13    1.82    0.30
  -3  -5 -13    2.37    0.42
  -3  -5 -13    1.66    0.38
   3   5  13    1.75    0.45
   3   5  13    1.98    0.21
   3   5  13   -1.51    4.02
   3   5  13    1.55    0.34
   3   5  13    1.77    0.31
  -4  -5 -13    0.93    0.44
  -4  -5 -13   -4.45    3.72
   4   5  13    1.13    0.37
   4   5  13    0.49    0.32
   4   5  13    1.44    0.51
  -5  -5 -13   10.05    0.94
   5   5  13   11.51    0.78
   5   5  13   10.62    0.80
  -5   6  13    5.10    0.72
  -5   6  13    5.84    0.61
   4  -6 -13    2.19    0.47
   4  -6 -13    1.53    0.41
  -4   6  13    1.62    0.35
  -4   6  13    1.00    0.43
  -4   6  13    1.32    0.42
   3  -6 -13    2.43    0.47
   3  -6 -13    2.43    0.43
  -3   6  13    2.59    0.43
  -3   6  13    2.64    0.46
  -3   6  13    1.65    0.30
   2  -6 -13   22.40    1.18
   2  -6 -13   22.81    4.46
   2  -6 -13   24.78    1.17
   2  -6 -13   23.83    1.07
  -2   6  13   24.33    1.13
  -2   6  13   25.96    1.05
  -2   6  13   21.55    4.32
  -2   6  13   24.34    1.22
  -2   6  13   24.87    1.12
   1  -6 -13   19.52    0.98
   1  -6 -13   19.34    1.04
   1  -6 -13   17.30    1.01
   1  -6 -13   19.47    0.88
   1  -6 -13   17.75    4.15
  -1   6  13   20.51    0.97
  -1   6  13   18.44    1.06
  -1   6  13   20.19    0.86
  -1   6  13   21.01    4.07
   0  -6 -13    0.26    0.35
   0  -6 -13   -2.67    2.93
   0  -6 -13    0.07    0.22
   0  -6 -13    0.09    0.20
   0  -6 -13   -0.18    0.27
   0   6  13   -0.11    0.17
   0   6  13   -0.19    0.35
   0   6  13    2.00    3.12
   0   6  13   -0.30    0.26
  -1  -6 -13   17.36    6.51
  -1  -6 -13   19.21    1.03
  -1  -6 -13   18.91    0.96
  -1  -6 -13   18.58    0.92
  -1  -6 -13   19.04    0.86
   1   6  13   21.58    4.49
   1   6  13   19.80    0.89
   1   6  13   20.71    1.11
   1   6  13   18.89    0.93
  -2  -6 -13   36.99    5.21
  -2  -6 -13   27.27    1.18
  -2  -6 -13   25.55    1.26
  -2  -6 -13   24.81    1.08
  -2  -6 -13   25.13    1.23
   2   6  13   24.43    1.11
   2   6  13   30.02    5.36
   2   6  13   23.54    1.03
   2   6  13   24.61    1.33
   2   6  13   25.57    1.15
  -3  -6 -13    2.60    0.51
  -3  -6 -13   -4.21    3.78
   3   6  13    2.45    0.44
   3   6  13    1.17    5.35
   3   6  13    1.79    0.60
   3   6  13    2.60    0.42
   3   6  13    2.21    0.30
  -4  -6 -13    1.28    0.52
   4   6  13    1.54    0.44
  -5  -6 -13    5.35    0.85
   5   6  13    7.16    0.85
   4  -7 -13    0.00    0.43
  -4   7  13   -0.04    0.39
  -4   7  13   -0.27    0.31
   3  -7 -13    2.11    0.44
   3  -7 -13    1.95    0.45
  -3   7  13    1.88    0.42
  -3   7  13    2.06    0.33
  -3   7  13    1.97    0.56
   2  -7 -13   24.44    1.17
   2  -7 -13   22.45    1.12
  -2   7  13   25.40    1.07
  -2   7  13   24.07    1.31
  -2   7  13   23.98    1.14
   1  -7 -13   16.71    4.83
   1  -7 -13   10.18    0.77
   1  -7 -13   10.07    0.73
   1  -7 -13    8.61    0.59
  -1   7  13    9.75    0.90
  -1   7  13    4.50    4.05
   0  -7 -13    0.08    0.28
   0  -7 -13    0.04    0.27
   0  -7 -13    0.46    0.35
   0  -7 -13    3.73    3.77
   0   7  13    0.77    0.37
   0   7  13    0.68    0.44
   0   7  13    0.31    0.24
   0   7  13   -3.90    3.96
  -1  -7 -13    8.69    0.64
  -1  -7 -13    7.13    3.79
  -1  -7 -13    9.26    0.72
  -1  -7 -13   10.68    0.70
   1   7  13   10.56    5.06
   1   7  13   10.19    0.66
  -2  -7 -13   24.11    1.23
  -2  -7 -13   23.30    4.72
  -2  -7 -13   23.94    1.15
   2   7  13   21.91    1.10
   2   7  13   26.60    6.52
   2   7  13   23.97    1.05
  -3  -7 -13    2.67    0.53
  -3  -7 -13    7.48    5.10
   3   7  13    2.26    0.32
   3   7  13    6.15    6.83
   3   7  13    2.16    0.47
  -4  -7 -13    1.24    0.59
   4   7  13    0.62    0.53
   3  -8 -13    1.08    0.50
  -3   8  13    1.30    0.49
  -3   8  13    0.61    0.34
   2  -8 -13    3.46    0.50
   2  -8 -13    1.97    0.51
  -2   8  13    2.43    0.43
   1  -8 -13    4.79    0.61
  -1   8  13    4.02    0.47
   0  -8 -13    0.85    0.45
   0   8  13    0.57    0.34
  -1  -8 -13    3.32    0.57
   1   8  13    3.86    0.49
   1   8  13    5.04    0.55
  -2  -8 -13    1.36    0.56
   2   8  13    2.83    0.47
  -3  -8 -13    1.37    0.63
   3   8  13    0.46    0.46
   3   8  13    1.46    0.38
   2  -9 -13   -0.50    0.53
  -2   9  13   -0.31    0.42
   1  -9 -13    7.37    0.91
  -1   9  13    6.23    0.71
   0  -9 -13   18.79    1.22
   0   9  13   15.23    0.95
  -1  -9 -13    6.05    0.81
   1   9  13    5.39    0.66
   1   9  13    6.29    0.75
  -2  -9 -13   -0.30    0.73
   2   9  13    0.57    0.48
   2   9  13   -0.85    0.60
   2   9 -14    7.53    0.88
   1   9 -14    0.37    0.63
   1   9 -14    0.49    0.47
   0   9 -14    0.31    0.55
   0   9 -14   -0.29    0.40
  -1   9 -14    1.18    0.60
  -1   9 -14    0.33    0.43
  -2   9 -14    7.19    0.67
  -2   9 -14    7.63    1.16
   3   8 -14    3.71    0.64
   3   8 -14    4.52    0.82
  -3  -8  14    5.32    0.62
   2   8 -14    2.95    0.64
   2   8 -14    2.16    0.54
   1   8 -14    3.59    0.61
   1   8 -14    3.66    0.52
  -1  -8  14    3.64    0.37
   0   8 -14    0.92    0.46
   0   8 -14   -0.18    0.46
   0   8 -14    0.50    0.34
  -1   8 -14    3.58    0.52
  -1   8 -14    3.94    0.50
  -1   8 -14    3.19    0.59
  -2   8 -14    2.21    0.56
  -2   8 -14    2.50    0.35
  -2   8 -14    3.30    0.45
  -3   8 -14    4.21    0.66
   4   7 -14    8.78    1.08
   4   7 -14    8.14    1.06
  -4  -7  14    9.46    0.93
   3   7 -14    2.81    0.62
   3   7 -14    3.14    0.55
  -3  -7  14    1.86    0.44
  -3  -7  14    2.90    0.47
   2   7 -14    0.62    0.42
   2   7 -14    0.81    0.40
  -2  -7  14    0.43    0.30
  -2  -7  14    0.48    0.28
   1   7 -14   16.28    0.96
   1   7 -14   14.30    0.97
   1   7 -14   15.21    0.85
  -1  -7  14   14.96    0.64
  -1  -7  14   15.10    0.68
   0   7 -14    0.79    0.37
   0   7 -14    0.48    0.27
   0   7 -14    0.98    0.41
   0   7 -14   -3.10    3.99
   0  -7  14    4.18    3.02
  -1   7 -14   14.68    3.41
  -1   7 -14   14.73    0.90
  -1   7 -14   15.55    0.73
  -1   7 -14   13.97    0.81
   1  -7  14   17.62    2.87
  -2   7 -14    0.49    0.29
  -2   7 -14    0.24    0.38
  -2   7 -14    0.45    0.20
   2  -7  14    1.45    1.46
  -3   7 -14    2.65    0.27
  -3   7 -14    3.00    0.58
  -3   7 -14    2.75    0.32
  -3   7 -14    2.87    0.50
  -4   7 -14    8.97    0.90
  -4   7 -14   10.05    0.94
  -4   7 -14    9.19    0.73
   5   6 -14   13.21    1.25
  -5  -6  14   13.19    1.11
   4   6 -14    5.94    0.76
   4   6 -14    6.06    0.72
  -4  -6  14    8.07    0.73
  -4  -6  14    5.73    0.49
   3   6 -14    0.19    0.34
   3   6 -14    0.21    0.42
  -3  -6  14    0.44    0.33
  -3  -6  14    0.36    0.13
  -3  -6  14    0.27    0.32
   2   6 -14    9.79    0.79
   2   6 -14   11.91    4.59
   2   6 -14    9.46    0.64
   2   6 -14    8.59    0.72
  -2  -6  14   10.24    0.56
  -2  -6  14    7.81    3.95
  -2  -6  14    9.89    0.61
  -2  -6  14    8.73    0.69
   1   6 -14   10.89    0.73
   1   6 -14   10.57    3.85
   1   6 -14   11.70    0.67
   1   6 -14    9.04    0.70
  -1  -6  14   11.36    0.53
  -1  -6  14   10.52    0.71
  -1  -6  14   10.72    3.27
   0   6 -14    9.33    0.63
   0   6 -14   10.22    0.58
   0   6 -14   10.77    0.72
   0   6 -14   10.83    3.21
   0  -6  14   10.93    2.88
  -1   6 -14   11.48    0.72
  -1   6 -14    9.48    0.52
   1  -6  14   13.08    2.18
  -2   6 -14    9.25    0.42
  -2   6 -14    9.89    0.47
  -2   6 -14    9.41    0.52
  -2   6 -14    9.25    0.69
   2  -6  14   11.49    0.98
  -3   6 -14    0.58    0.30
  -3   6 -14    0.22    0.18
  -3   6 -14    0.41    0.12
  -3   6 -14    0.18    0.21
  -4   6 -14    6.64    0.70
  -4   6 -14    6.71    0.71
  -4   6 -14    5.68    0.61
  -5   6 -14   13.71    1.05
  -5   6 -14   15.34    1.02
   5   5 -14    2.76    0.66
   5   5 -14    3.66    0.65
  -5  -5  14    1.96    0.59
  -5  -5  14    1.95    0.46
   4   5 -14    5.96    0.70
   4   5 -14    5.93    0.66
  -4  -5  14    5.20    0.61
  -4  -5  14    6.83    0.50
  -4  -5  14   10.87    5.86
   3   5 -14    5.36    0.60
   3   5 -14    5.66    0.66
   3   5 -14    5.74    0.55
  -3  -5  14    8.71    4.27
  -3  -5  14    5.49    0.36
  -3  -5  14    6.02    0.51
  -3  -5  14    4.59    0.62
  -3  -5  14    6.92    0.52
   2   5 -14   23.98    1.17
   2   5 -14   24.27    4.79
   2   5 -14   24.46    1.13
   2   5 -14   26.52    1.24
  -2  -5  14   17.54    4.03
  -2  -5  14   27.59    1.06
  -2  -5  14   23.72    1.16
  -2  -5  14   26.20    1.08
   1   5 -14   37.49    1.50
   1   5 -14   36.34    1.45
   1   5 -14   36.28    1.54
   1   5 -14   31.62    4.73
  -1  -5  14   31.09    4.63
  -1  -5  14   35.04    1.50
  -1  -5  14   36.65    1.35
  -1  -5  14   35.93    1.33
   0   5 -14   43.04    1.69
   0   5 -14   36.75    1.66
   0   5 -14   43.72    1.58
   0  -5  14   43.32    1.68
   0  -5  14   31.11    3.82
  -1   5 -14   32.18    1.42
  -1   5 -14   34.37    1.28
  -1   5 -14   35.13    1.31
   1  -5  14   28.92    3.04
   1  -5  14   37.43    2.88
  -2   5 -14   24.80    1.15
  -2   5 -14   25.42    1.01
  -2   5 -14   26.01    1.00
  -2   5 -14   26.24    0.96
  -2   5 -14   27.50    1.23
  -3   5 -14    6.56    0.59
  -3   5 -14    5.65    0.30
  -3   5 -14    5.65    0.52
  -3   5 -14    5.88    0.26
  -3   5 -14    6.02    0.47
  -4   5 -14    5.67    0.28
  -4   5 -14    7.54    0.62
  -4   5 -14    6.08    0.26
  -4   5 -14    5.81    0.60
  -5   5 -14    2.20    0.40
  -5   5 -14    3.15    0.60
  -5   5 -14    2.89    0.46
   5   4 -14    1.55    0.48
   5   4 -14    2.16    0.54
   5   4 -14    2.26    0.57
  -5  -4  14    1.18    0.38
  -5  -4  14    1.36    0.45
   4   4 -14    4.76    0.61
   4   4 -14    5.25    0.58
  -4  -4  14    5.20    0.57
  -4  -4  14    6.97    4.76
  -4  -4  14    5.53    0.63
  -4  -4  14    9.68    5.51
  -4  -4  14    5.17    0.46
  -4  -4  14    5.58    0.67
   3   4 -14   16.98    0.97
   3   4 -14   16.35    0.91
   3   4 -14   16.42    0.87
  -3  -4  14   16.71    0.83
  -3  -4  14   16.91    0.73
  -3  -4  14   15.36    0.84
  -3  -4  14   13.60    6.72
  -3  -4  14   16.78    0.91
  -3  -4  14   18.30    4.59
   2   4 -14   17.46    0.89
   2   4 -14   18.59    0.88
   2   4 -14   17.75    0.93
  -2  -4  14   19.71    0.71
  -2  -4  14   16.99    3.90
  -2  -4  14   17.29    0.90
  -2  -4  14   18.78    0.81
  -2  -4  14   18.49    0.82
  -2  -4  14   16.94    3.71
   1   4 -14   18.07    0.82
   1   4 -14   17.48    0.88
   1   4 -14   17.74    0.81
  -1  -4  14   17.72    0.72
  -1  -4  14   17.94    0.73
  -1  -4  14   16.77    2.82
  -1  -4  14   16.47    3.03
  -1  -4  14   18.26    0.86
   0   4 -14  149.69    5.50
   0   4 -14  157.68    5.40
   0   4 -14  164.00    5.42
   0  -4  14  155.78    5.47
   0  -4  14  158.12    7.46
   0  -4  14  158.75    7.44
   0  -4  14  147.57    5.26
  -1   4 -14   15.79    0.67
  -1   4 -14   18.61    0.85
  -1   4 -14   17.63    0.69
  -1   4 -14   17.69    0.71
   1  -4  14   16.85    2.03
   1  -4  14   18.22    2.09
  -2   4 -14   18.75    0.68
  -2   4 -14   19.24    0.81
  -2   4 -14   17.51    0.89
  -2   4 -14   17.66    0.85
  -2   4 -14   18.27    0.69
  -3   4 -14   16.48    0.87
  -3   4 -14   17.82    0.82
  -3   4 -14   16.50    0.84
  -4   4 -14    4.85    0.58
  -4   4 -14    4.91    0.23
  -4   4 -14    5.11    0.24
  -4   4 -14    5.77    0.50
  -4   4 -14    5.02    0.47
  -5   4 -14    1.93    0.36
  -5   4 -14    2.17    0.26
  -5   4 -14    1.74    0.51
  -5   4 -14    1.88    0.36
   6   3 -14    4.72    0.75
   6   3 -14    4.05    0.70
  -6  -3  14    5.54    0.71
  -6  -3  14    3.39    0.66
   5   3 -14   10.19    0.84
   5   3 -14   10.32    0.80
   5   3 -14    9.88    0.75
  -5  -3  14    9.86    0.83
  -5  -3  14   14.59    6.72
  -5  -3  14   11.03    0.78
   4   3 -14    7.56    0.64
   4   3 -14    7.95    0.69
   4   3 -14    7.40    0.72
   4   3 -14    7.91    0.61
  -4  -3  14    8.02    0.55
  -4  -3  14   12.30    4.49
  -4  -3  14    6.92    0.67
  -4  -3  14    5.54    4.85
  -4  -3  14    8.16    0.70
  -4  -3  14    8.46    0.63
   3   3 -14    1.51    0.30
   3   3 -14    1.62    0.33
   3   3 -14    1.02    0.32
   3   3 -14    1.34    0.32
   3   3 -14    1.10    0.28
  -3  -3  14    1.14    0.21
  -3  -3  14   -0.19    2.97
  -3  -3  14    1.32    0.31
  -3  -3  14    0.96    0.26
  -3  -3  14    1.42    0.28
  -3  -3  14    4.87    3.24
   2   3 -14    6.82    0.51
   2   3 -14    5.44    0.39
   2   3 -14    6.45    0.47
   2   3 -14    6.62    0.47
  -2  -3  14    6.07    2.67
  -2  -3  14    5.74    0.40
  -2  -3  14    6.56    0.41
  -2  -3  14    4.40    2.46
  -2  -3  14    6.06    0.32
  -2  -3  14    5.98    0.47
   1   3 -14   19.22    0.84
   1   3 -14   20.14    0.92
   1   3 -14   18.89    0.75
  -1  -3  14   19.47    0.78
  -1  -3  14   20.81    3.00
  -1  -3  14   18.42    0.76
  -1  -3  14   20.09    0.88
   0   3 -14   71.34    2.54
   0   3 -14   72.10    2.46
   0   3 -14   71.21    2.63
   0   3 -14   71.63    2.67
   0   3 -14   70.56    2.54
   0  -3  14   71.66    4.27
   0  -3  14   73.35    2.61
   0  -3  14   72.05    2.44
   0  -3  14   71.18    2.44
   0  -3  14   66.18    4.25
  -1   3 -14   19.19    0.74
  -1   3 -14   18.91    0.91
  -1   3 -14   19.68    0.86
  -1   3 -14   18.96    0.73
   1  -3  14   18.62    0.83
   1  -3  14   19.48    1.81
   1  -3  14   22.98    2.00
  -2   3 -14    6.20    0.41
  -2   3 -14    6.14    0.41
  -2   3 -14    6.24    0.24
  -2   3 -14    6.25    0.48
  -3   3 -14    0.83    0.25
  -3   3 -14    1.20    0.22
  -3   3 -14    1.59    0.30
  -4   3 -14    7.32    0.54
  -4   3 -14    7.32    0.65
  -4   3 -14    7.54    0.34
  -4   3 -14    8.01    0.48
  -4   3 -14    7.38    0.33
  -5   3 -14    9.64    0.52
  -5   3 -14   10.68    0.61
  -5   3 -14    9.90    0.61
  -5   3 -14   11.49    0.96
  -5   3 -14   10.42    0.51
  -6   3 -14    3.92    0.79
   6   2 -14    1.60    0.52
  -6  -2  14    1.91    0.55
  -6  -2  14    1.78    0.55
   5   2 -14   18.40    0.94
   5   2 -14   20.28    1.14
   5   2 -14   19.35    1.04
  -5  -2  14   19.71    1.05
  -5  -2  14   27.10    6.66
  -5  -2  14   19.20    1.02
  -5  -2  14   17.00    6.26
   4   2 -14    0.93    0.31
   4   2 -14    1.00    0.35
   4   2 -14    0.83    0.36
   4   2 -14    0.74    0.35
   4   2 -14    0.43    0.25
  -4  -2  14    3.05    4.71
  -4  -2  14    0.73    0.28
  -4  -2  14    0.22    5.01
  -4  -2  14    1.15    0.27
  -4  -2  14    0.27    0.33
  -4  -2  14    1.10    0.34
   3   2 -14   17.93    0.90
   3   2 -14   19.33    0.95
   3   2 -14   18.12    0.94
   3   2 -14   17.56    0.99
   3   2 -14   19.52    0.91
  -3  -2  14   18.37    0.94
  -3  -2  14   22.42    3.85
  -3  -2  14   20.08    4.19
  -3  -2  14   20.61    0.85
  -3  -2  14   19.61    0.89
  -3  -2  14   19.70    0.90
   2   2 -14    5.67    0.43
   2   2 -14    5.18    0.41
   2   2 -14    5.74    0.40
   2   2 -14    5.64    0.39
   2   2 -14    5.62    0.46
  -2  -2  14    6.18    0.33
  -2  -2  14   13.56    2.96
  -2  -2  14    5.61    0.39
  -2  -2  14    9.50    2.64
  -2  -2  14    6.18    0.37
  -2  -2  14    5.31    0.43
   1   2 -14    7.28    0.41
   1   2 -14    7.08    0.46
   1   2 -14    6.88    0.40
   1   2 -14    6.38    0.36
   1   2 -14    7.88    0.48
  -1  -2  14    7.70    0.39
  -1  -2  14    6.50    0.50
  -1  -2  14    7.53    0.36
  -1  -2  14    8.22    2.05
  -1  -2  14    5.07    2.33
  -1  -2  14    7.19    0.34
   0   2 -14    6.38    0.36
   0   2 -14    6.78    0.36
   0   2 -14    6.63    0.45
   0   2 -14    7.98    0.34
   0   2 -14    6.90    0.43
   0  -2  14    7.01    0.31
   0  -2  14    7.36    0.42
   0  -2  14    5.11    1.55
   0  -2  14    7.01    0.29
   0  -2  14    6.17    1.75
  -1   2 -14    7.56    0.42
  -1   2 -14    7.43    0.35
  -1   2 -14    7.70    0.49
   1  -2  14    7.87    1.23
   1  -2  14    7.75    0.41
   1  -2  14    8.04    1.36
  -2   2 -14    5.21    0.34
  -2   2 -14    5.79    0.43
  -2   2 -14    5.64    0.22
  -2   2 -14    5.38    0.25
  -3   2 -14   18.61    0.95
  -3   2 -14   19.52    0.69
  -3   2 -14   18.60    0.88
  -3   2 -14   19.53    0.79
  -3   2 -14   18.59    0.68
  -4   2 -14    0.93    0.24
  -4   2 -14    0.69    0.23
  -4   2 -14    1.04    0.37
  -4   2 -14    0.56    0.14
  -4   2 -14    0.76    0.14
  -5   2 -14   18.43    0.80
  -5   2 -14   17.65    0.84
  -5   2 -14   17.27    0.77
  -5   2 -14   18.50    0.80
  -5   2 -14   18.35    0.77
  -5   2 -14   17.94    1.17
  -6   2 -14    2.95    0.71
  -6   2 -14    0.38    0.36
   6   1 -14    1.85    0.53
  -6  -1  14    0.78    0.51
  -6  -1  14    1.78    0.57
   5   1 -14   26.35    1.31
   5   1 -14   24.19    1.38
   5   1 -14   25.43    1.22
   5   1 -14   26.00    1.12
  -5  -1  14   26.45    6.23
  -5  -1  14   27.28    1.24
  -5  -1  14   33.63    6.49
  -5  -1  14   27.62    1.30
   4   1 -14   21.34    1.13
   4   1 -14   22.49    1.10
   4   1 -14   19.60    1.21
   4   1 -14   21.89    1.07
   4   1 -14   23.13    0.99
  -4  -1  14   22.75    1.07
  -4  -1  14   21.89    1.04
  -4  -1  14   22.27    1.13
  -4  -1  14   17.18    4.48
  -4  -1  14   26.43    5.06
  -4  -1  14   23.23    1.05
   3   1 -14   46.79    1.92
   3   1 -14   47.97    1.89
   3   1 -14   50.37    1.89
   3   1 -14   48.71    1.91
   3   1 -14   50.92    1.96
  -3  -1  14   45.84    5.09
  -3  -1  14   47.85    1.86
  -3  -1  14   50.07    1.96
  -3  -1  14   49.81    1.87
  -3  -1  14   51.29    5.55
  -3  -1  14   47.39    1.88
   2   1 -14   43.97    1.74
   2   1 -14   44.23    1.69
   2   1 -14   43.37    1.69
   2   1 -14   43.55    1.69
   2   1 -14   44.14    1.71
  -2  -1  14   45.01    4.23
  -2  -1  14   42.69    1.73
  -2  -1  14   45.88    1.64
  -2  -1  14   44.51    1.68
  -2  -1  14   39.78    4.27
  -2  -1  14   45.64    1.65
   1   1 -14   62.58    2.24
   1   1 -14   59.26    2.23
   1   1 -14   65.58    2.30
   1   1 -14   60.73    2.30
   1   1 -14   60.67    2.21
  -1  -1  14   58.51    4.12
  -1  -1  14   62.42    2.28
  -1  -1  14   60.37    2.22
  -1  -1  14   62.31    2.19
  -1  -1  14   62.65    2.19
   0   1 -14    1.73    0.25
   0   1 -14    1.63    0.16
   0   1 -14    1.53    0.18
   0   1 -14    1.65    0.17
   0   1 -14    1.46    1.21
   0   1 -14    1.66    0.21
   0  -1  14    1.73    0.19
   0  -1  14    0.94    1.09
   0  -1  14    1.82    0.13
   0  -1  14    1.98    0.22
  -1   1 -14   58.84    2.09
  -1   1 -14   58.48    3.29
  -1   1 -14   61.98    2.26
  -1   1 -14   60.63    2.17
  -1   1 -14   60.70    2.12
   1  -1  14   60.35    2.15
   1  -1  14   59.86    3.07
  -2   1 -14   43.28    1.50
  -2   1 -14   41.21    1.54
  -2   1 -14   41.39    1.48
  -2   1 -14   41.39    1.65
   2  -1  14   46.43    2.43
  -3   1 -14   48.85    1.69
  -3   1 -14   48.50    1.72
  -3   1 -14   45.29    2.41
  -3   1 -14   50.34    1.71
  -3   1 -14   48.24    1.85
   3  -1  14   44.96    2.67
  -4   1 -14   22.64    0.90
  -4   1 -14   22.97    1.00
  -4   1 -14   21.96    1.18
  -4   1 -14   21.89    0.87
  -4   1 -14   21.55    0.84
  -4   1 -14   29.09    1.96
  -5   1 -14   23.62    1.08
  -5   1 -14   24.83    1.40
  -5   1 -14   28.55    2.39
  -5   1 -14   25.63    0.91
  -5   1 -14   26.73    2.98
  -5   1 -14   25.46    1.08
  -5   1 -14   25.05    1.07
  -6   1 -14    2.52    3.24
  -6   1 -14    1.70    0.68
  -6   1 -14    1.04    0.39
   6   0 -14    0.10    0.43
  -6   0  14    0.23    0.49
  -6   0  14   -0.68    0.38
   5   0 -14   13.25    0.89
   5   0 -14   13.85    0.79
   5   0 -14   13.69    1.23
   5   0 -14   13.01    0.67
  -5   0  14   13.88    0.90
  -5   0  14   12.50    6.48
  -5   0  14   14.30    0.85
  -5   0  14   20.43    6.12
   4   0 -14   16.71    0.93
   4   0 -14   15.91    0.97
   4   0 -14   16.92    0.77
   4   0 -14   15.99    0.90
  -4   0  14   16.04    0.94
  -4   0  14    7.16    3.87
  -4   0  14   16.12    0.85
  -4   0  14   16.05    0.86
  -4   0  14   12.38    4.39
  -4   0  14   16.25    0.81
   3   0 -14   29.21    1.16
   3   0 -14   27.02    1.21
   3   0 -14   28.83    1.17
   3   0 -14   28.24    1.25
   3   0 -14   27.36    1.20
  -3   0  14   22.96    3.76
  -3   0  14   25.34    1.21
  -3   0  14   28.33    1.14
  -3   0  14   26.56    1.18
  -3   0  14   30.08    4.24
  -3   0  14   28.86    1.16
   2   0 -14   15.54    0.75
   2   0 -14   15.37    0.77
   2   0 -14   16.96    0.76
   2   0 -14   17.12    0.75
   2   0 -14   16.45    0.74
   2   0 -14   13.18    2.66
  -2   0  14   16.16    0.70
  -2   0  14   16.11    0.78
  -2   0  14   17.33    2.84
  -2   0  14   15.71    0.73
  -2   0  14   15.46    0.70
   1   0 -14   17.30    0.76
   1   0 -14   17.18    0.79
   1   0 -14   19.05    2.60
   1   0 -14   18.39    0.76
   1   0 -14   17.41    0.81
   1   0 -14   18.67    0.76
  -1   0  14   18.04    0.74
  -1   0  14   17.74    0.82
  -1   0  14   19.03    0.81
  -1   0  14   17.69    0.76
  -1   0  14   18.17    0.72
  -1   0  14   19.31    2.57
   0   0 -14   28.92    1.08
   0   0 -14   27.73    1.07
   0   0 -14   29.52    1.06
   0   0 -14   34.19    2.78
   0   0 -14   26.57    1.10
   0   0 -14   27.93    1.16
   0   0  14   28.99    1.07
   0   0  14   27.44    1.02
   0   0  14   28.89    1.11
   0   0  14   26.77    1.15
  -1   0 -14   16.77    1.91
  -1   0 -14   19.02    0.71
  -1   0 -14   17.74    0.72
  -1   0 -14   18.18    0.82
  -1   0 -14   18.04    0.68
   1   0  14   17.64    0.82
   1   0  14   17.90    0.67
   1   0  14   17.75    0.65
   1   0  14   17.25    0.71
   1   0  14   18.54    1.84
  -2   0 -14   15.66    0.61
  -2   0 -14   15.77    0.75
  -2   0 -14   14.10    1.82
  -2   0 -14   16.08    0.63
   2   0  14   12.92    1.86
   2   0  14   16.53    0.77
  -3   0 -14   26.60    1.00
  -3   0 -14   22.74    2.17
  -3   0 -14   27.35    1.03
  -3   0 -14   27.79    1.14
   3   0  14   26.58    2.78
   3   0  14   27.40    1.15
  -4   0 -14   16.13    0.68
  -4   0 -14   16.27    0.73
  -4   0 -14   15.02    0.77
  -4   0 -14   12.96    1.94
   4   0  14   16.38    2.66
   4   0  14   15.13    0.88
  -5   0 -14   13.69    0.69
  -5   0 -14   13.77    0.73
  -5   0 -14   15.41    1.04
  -5   0 -14   13.72    0.75
  -6   0 -14    0.23    0.36
  -6   0 -14   -0.50    0.57
   6  -1 -14    1.03    0.44
  -6   1  14    1.01    0.52
  -6   1  14    0.90    0.40
   5  -1 -14   26.36    1.21
   5  -1 -14   24.91    1.31
   5  -1 -14   25.92    1.06
  -5   1  14   35.60    7.01
  -5   1  14   29.52    1.36
  -5   1  14   27.12    1.22
   4  -1 -14   21.56    1.01
   4  -1 -14   20.93    1.15
   4  -1 -14   21.32    1.09
   4  -1 -14   22.60    0.96
  -4   1  14   24.33    1.03
  -4   1  14   22.16    1.36
  -4   1  14   21.95    4.71
  -4   1  14   24.68    1.16
  -4   1  14   33.68    4.79
  -4   1  14   21.30    1.07
   3  -1 -14   49.01    1.88
   3  -1 -14   50.83    1.92
   3  -1 -14   50.18    1.88
   3  -1 -14   43.81    4.91
   3  -1 -14   47.46    1.98
  -3   1  14   49.75    1.87
  -3   1  14   51.31    1.92
  -3   1  14   48.03    1.92
  -3   1  14   55.54    4.85
  -3   1  14   49.25    1.98
   2  -1 -14   42.62    4.11
   2  -1 -14   39.00    1.61
   2  -1 -14   41.38    1.64
   2  -1 -14   43.12    1.60
   2  -1 -14   44.46    1.66
   2  -1 -14   42.11    1.60
  -2   1  14   42.24    1.62
  -2   1  14   40.98    1.59
  -2   1  14   38.74    3.73
  -2   1  14   42.30    1.67
  -2   1  14   39.95    1.55
  -2   1  14   43.47    1.62
   1  -1 -14   60.45    2.25
   1  -1 -14   55.26    4.23
   1  -1 -14   62.65    2.30
   1  -1 -14   60.49    2.27
   1  -1 -14   63.23    2.23
   1  -1 -14   61.30    2.24
  -1   1  14   62.33    2.25
  -1   1  14   59.30    2.28
  -1   1  14   67.64    2.32
  -1   1  14   63.48    2.25
  -1   1  14   61.09    2.20
   0  -1 -14    1.62    0.20
   0  -1 -14    1.68    0.24
   0  -1 -14    1.62    0.20
   0  -1 -14    1.85    0.20
   0  -1 -14    1.79    1.34
   0  -1 -14    1.78    0.18
   0   1  14    1.61    1.33
   0   1  14    1.26    0.23
   0   1  14    1.56    0.20
   0   1  14    1.88    0.22
   0   1  14    1.82    0.15
  -1  -1 -14   63.70    2.15
  -1  -1 -14   61.32    2.28
  -1  -1 -14   59.78    3.64
  -1  -1 -14   60.49    2.18
   1   1  14   58.22    2.15
   1   1  14   57.74    3.51
   1   1  14   63.44    2.29
   1   1  14   63.63    2.21
   1   1  14   59.06    2.13
  -2  -1 -14   46.32    1.69
  -2  -1 -14   42.25    3.00
  -2  -1 -14   41.60    1.56
  -2  -1 -14   44.12    1.53
   2   1  14   42.26    1.50
   2   1  14   40.61    1.46
   2   1  14   36.39    3.08
   2   1  14   42.71    1.76
   2   1  14   42.42    1.50
  -3  -1 -14   48.39    1.89
  -3  -1 -14   46.75    1.76
  -3  -1 -14   53.74    3.46
  -3  -1 -14   49.23    1.82
   3   1  14   48.36    3.92
   3   1  14   49.24    1.90
  -4  -1 -14   22.28    1.00
  -4  -1 -14   27.50    3.05
  -4  -1 -14   22.89    1.03
  -4  -1 -14   21.74    0.92
   4   1  14   23.68    3.61
   4   1  14   22.96    1.06
  -5  -1 -14   26.06    1.19
  -5  -1 -14   25.96    1.14
  -5  -1 -14   25.91    1.11
  -5  -1 -14   25.82    1.48
   5   1  14   25.27    1.17
  -6  -1 -14    0.58    0.63
  -6  -1 -14    1.03    0.46
  -6  -1 -14    1.26    0.43
   6  -2 -14    1.79    0.44
  -6   2  14    1.24    0.47
  -6   2  14    0.42    0.51
   5  -2 -14   18.87    0.93
   5  -2 -14   18.39    1.09
   5  -2 -14   18.46    0.80
  -5   2  14   20.09    0.99
  -5   2  14    3.88    5.68
  -5   2  14   20.14    1.06
   4  -2 -14    0.85    0.34
   4  -2 -14    0.72    0.38
   4  -2 -14    0.74    0.24
   4  -2 -14    2.87    3.54
   4  -2 -14    0.66    0.20
  -4   2  14    1.09    0.38
  -4   2  14    1.21    0.36
  -4   2  14    0.76    0.24
  -4   2  14    0.68    0.28
  -4   2  14    0.39    3.31
   3  -2 -14   19.08    0.85
   3  -2 -14   21.02    6.22
   3  -2 -14   18.02    0.97
   3  -2 -14   18.82    0.89
   3  -2 -14   19.91    0.86
  -3   2  14   16.84    3.30
  -3   2  14   18.78    0.90
  -3   2  14   19.30    0.89
  -3   2  14   17.99    0.86
  -3   2  14   18.76    0.95
  -3   2  14   18.94    0.83
   2  -2 -14    6.12    0.40
   2  -2 -14    5.75    0.46
   2  -2 -14    7.04    2.46
   2  -2 -14    6.02    0.42
   2  -2 -14    5.98    0.38
  -2   2  14    5.38    0.41
  -2   2  14    2.08    1.85
  -2   2  14    5.84    0.35
  -2   2  14    5.81    0.39
  -2   2  14    5.74    0.45
  -2   2  14    6.26    0.45
   1  -2 -14    6.46    0.45
   1  -2 -14    5.99    1.86
   1  -2 -14    7.86    0.43
   1  -2 -14    7.61    0.42
   1  -2 -14    8.24    0.47
  -1   2  14    7.69    0.48
  -1   2  14    8.38    0.39
  -1   2  14    2.39    1.56
  -1   2  14    7.09    0.47
  -1   2  14    7.94    0.43
   0  -2 -14    7.08    0.36
   0  -2 -14    7.00    1.84
   0  -2 -14    7.71    0.41
   0  -2 -14    7.05    0.46
   0  -2 -14    6.47    0.40
   0   2  14    7.81    0.35
   0   2  14    7.36    0.41
   0   2  14    5.56    0.50
   0   2  14    6.78    0.40
   0   2  14    5.91    1.68
  -1  -2 -14    7.77    0.48
  -1  -2 -14    7.92    0.42
  -1  -2 -14    6.76    0.36
  -1  -2 -14    7.17    1.78
   1   2  14    7.27    0.51
   1   2  14    7.59    0.36
   1   2  14    7.29    0.39
   1   2  14    7.42    0.37
   1   2  14    7.86    1.86
  -2  -2 -14    5.15    0.35
  -2  -2 -14    5.81    0.45
  -2  -2 -14    4.47    1.59
  -2  -2 -14    5.98    0.38
   2   2  14    5.74    0.45
   2   2  14    6.71    1.94
   2   2  14    5.48    0.23
   2   2  14    5.36    0.33
   2   2  14    5.85    0.31
  -3  -2 -14   20.65    0.87
  -3  -2 -14   19.22    0.80
  -3  -2 -14   22.31    2.88
  -3  -2 -14   19.22    0.92
   3   2  14   21.69    3.13
   3   2  14   18.48    0.94
   3   2  14   18.77    0.76
   3   2  14   18.37    0.76
  -4  -2 -14    0.63    0.20
  -4  -2 -14    4.49    2.11
  -4  -2 -14    0.54    0.27
  -4  -2 -14    0.85    0.27
   4   2  14    0.65    0.14
   4   2  14    0.52    0.32
   4   2  14    1.64    3.02
  -5  -2 -14   20.59    0.93
  -5  -2 -14   17.83    1.03
  -5  -2 -14   19.25    0.97
   5   2  14   19.17    1.06
  -6  -2 -14    0.86    0.53
  -6  -2 -14    1.53    0.75
   6  -3 -14    4.26    0.52
  -6   3  14    3.01    0.70
  -6   3  14    4.56    0.58
   5  -3 -14    9.48    0.68
   5  -3 -14    8.81    0.84
  -5   3  14   10.80    0.80
  -5   3  14   11.77    0.70
   4  -3 -14   12.59    4.65
   4  -3 -14    8.06    0.51
   4  -3 -14    7.99    0.57
   4  -3 -14    6.97    0.79
   4  -3 -14    8.31    0.67
  -4   3  14    7.44    0.54
  -4   3  14    7.93    0.63
  -4   3  14    1.05    3.60
  -4   3  14    7.15    0.58
  -4   3  14    5.97    0.68
  -4   3  14    7.63    0.53
   3  -3 -14    1.43    0.26
   3  -3 -14    1.01    0.23
   3  -3 -14    1.71    0.31
   3  -3 -14    1.22    0.33
   3  -3 -14    1.41    2.81
  -3   3  14    1.36    0.24
  -3   3  14    4.33    3.00
  -3   3  14    1.60    0.31
  -3   3  14    1.57    0.28
  -3   3  14    1.87    0.38
   2  -3 -14    6.50    0.48
   2  -3 -14    6.52    0.43
   2  -3 -14    4.69    2.33
   2  -3 -14    6.42    0.42
   2  -3 -14    5.99    0.45
  -2   3  14    6.44    0.38
  -2   3  14    6.45    0.44
  -2   3  14    6.81    0.49
  -2   3  14    5.25    0.49
  -2   3  14    7.01    0.48
  -2   3  14    5.56    2.18
   1  -3 -14   19.39    0.90
   1  -3 -14   20.07    0.88
   1  -3 -14   18.07    0.81
   1  -3 -14   20.02    0.84
   1  -3 -14   22.12    3.12
  -1   3  14   20.48    0.86
  -1   3  14   22.21    3.06
  -1   3  14   19.18    0.90
  -1   3  14   18.94    0.88
  -1   3  14   19.80    0.79
  -1   3  14   18.14    0.84
   0  -3 -14   73.13    2.64
   0  -3 -14   73.08    2.58
   0  -3 -14   73.49    2.63
   0  -3 -14   73.55    2.70
   0  -3 -14   76.87    4.88
   0   3  14   69.92    2.62
   0   3  14   68.85    2.57
   0   3  14   72.89    2.62
   0   3  14   70.59    2.71
   0   3  14   79.15    4.81
  -1  -3 -14   19.76    0.79
  -1  -3 -14   18.56    0.91
  -1  -3 -14   18.01    0.83
  -1  -3 -14   18.25    2.67
  -1  -3 -14   19.28    0.84
   1   3  14   19.22    0.93
   1   3  14   19.32    0.79
   1   3  14   19.67    2.99
   1   3  14   20.23    0.79
  -2  -3 -14    6.20    0.35
  -2  -3 -14    5.36    0.47
  -2  -3 -14    4.22    1.78
  -2  -3 -14    5.99    0.44
   2   3  14    6.14    0.50
   2   3  14    6.37    0.37
   2   3  14   10.41    2.51
   2   3  14    5.99    0.29
   2   3  14    5.62    0.39
  -3  -3 -14    1.55    0.24
  -3  -3 -14    4.45    2.08
  -3  -3 -14    1.40    0.31
  -3  -3 -14    1.06    0.29
   3   3  14    1.78    0.24
   3   3  14    1.46    0.35
   3   3  14    1.07    0.20
   3   3  14    4.38    2.77
  -4  -3 -14    5.72    2.71
  -4  -3 -14    6.44    0.61
  -4  -3 -14    7.70    0.48
  -4  -3 -14    8.34    0.62
   4   3  14   13.90    4.03
   4   3  14    8.09    0.47
   4   3  14    6.38    0.68
   4   3  14    8.06    0.47
  -5  -3 -14    8.67    0.67
  -5  -3 -14   10.02    0.81
   5   3  14    9.89    0.52
   5   3  14    9.97    0.88
   5   3  14    9.72    0.52
  -6  -3 -14    5.30    1.00
  -6  -3 -14    3.84    0.72
   5  -4 -14    1.77    0.39
   5  -4 -14    1.84    0.52
  -5   4  14    2.04    0.40
  -5   4  14    1.79    0.48
   4  -4 -14    4.76    0.59
   4  -4 -14    4.78    0.46
   4  -4 -14    4.91    0.55
  -4   4  14    5.52    0.46
  -4   4  14    6.27    0.98
  -4   4  14    5.28    0.53
  -4   4  14    6.25    0.61
   3  -4 -14   14.47    0.81
   3  -4 -14   15.94    0.80
   3  -4 -14   15.41    0.93
   3  -4 -14   16.72    0.81
   3  -4 -14   18.86    4.12
  -3   4  14   14.97    0.94
  -3   4  14   15.10    0.87
  -3   4  14   17.05    0.85
  -3   4  14   17.29    0.85
  -3   4  14   15.37    3.60
  -3   4  14   16.61    0.77
   2  -4 -14   18.95    0.86
   2  -4 -14   19.04    0.91
   2  -4 -14   20.36    0.89
   2  -4 -14   14.24    6.17
   2  -4 -14   18.53    0.95
  -2   4  14   18.29    0.94
  -2   4  14   17.46    3.15
  -2   4  14   20.12    0.94
  -2   4  14   18.46    0.89
  -2   4  14   17.51    0.88
  -2   4  14   19.01    0.81
   1  -4 -14   17.68    0.84
   1  -4 -14   17.81    0.81
   1  -4 -14   22.47    3.32
   1  -4 -14   18.37    0.88
   1  -4 -14   17.42    0.77
  -1   4  14   17.47    0.90
  -1   4  14   20.81    3.13
  -1   4  14   16.77    0.81
  -1   4  14   17.82    0.86
  -1   4  14   17.47    0.76
  -1   4  14   16.68    0.82
   0  -4 -14  166.89    8.37
   0  -4 -14  154.13    5.59
   0  -4 -14  162.38    5.66
   0  -4 -14  156.45    5.65
   0  -4 -14  166.09    5.74
   0   4  14  160.84    5.64
   0   4  14  166.46    8.24
   0   4  14  162.85    5.65
   0   4  14  160.85    5.74
  -1  -4 -14   18.16    0.75
  -1  -4 -14   17.76    0.89
  -1  -4 -14   16.40    0.83
  -1  -4 -14   17.88    3.00
  -1  -4 -14   17.44    0.81
   1   4  14   17.54    0.76
   1   4  14   12.02    3.22
   1   4  14   17.47    0.90
   1   4  14   17.70    0.75
   1   4  14   17.13    0.80
  -2  -4 -14   17.07    0.92
  -2  -4 -14   18.83    2.98
  -2  -4 -14   18.12    0.89
  -2  -4 -14   18.23    0.80
   2   4  14   18.92    0.74
   2   4  14   18.83    0.81
   2   4  14   17.14    3.39
   2   4  14   17.73    0.97
   2   4  14   18.76    0.82
  -3  -4 -14   16.40    0.89
  -3  -4 -14   22.91    3.59
  -3  -4 -14   15.20    0.89
   3   4  14   16.13    0.92
   3   4  14   16.15    0.77
   3   4  14   18.90    4.40
   3   4  14   16.67    0.79
  -4  -4 -14    8.78    3.67
  -4  -4 -14    5.93    0.63
  -4  -4 -14    5.30    0.47
   4   4  14    6.64    4.81
   4   4  14    5.59    0.46
   4   4  14    4.96    0.61
   4   4  14    5.29    0.48
  -5  -4 -14    1.91    0.55
   5   4  14    2.08    0.36
   5   4  14    1.47    0.59
   5   4  14    1.88    0.38
   5  -5 -14    2.77    0.47
  -5   5  14    3.35    0.60
  -5   5  14    3.31    0.49
   4  -5 -14    5.47    0.57
   4  -5 -14    7.46    0.74
  -4   5  14    6.57    0.54
  -4   5  14    5.68    0.63
  -4   5  14    6.52    0.61
   3  -5 -14    5.58    0.68
   3  -5 -14    9.07    3.97
   3  -5 -14    5.92    0.54
   3  -5 -14    5.92    0.53
  -3   5  14    7.32    0.57
  -3   5  14    7.86    3.41
  -3   5  14    6.43    0.44
  -3   5  14    5.94    0.57
  -3   5  14    5.99    0.61
  -3   5  14    5.88    0.65
   2  -5 -14   24.92    1.21
   2  -5 -14   29.51    7.09
   2  -5 -14   24.49    1.11
   2  -5 -14   26.66    1.14
   2  -5 -14   27.66    1.21
  -2   5  14   27.08    1.09
  -2   5  14   24.47    1.46
  -2   5  14   27.79    1.23
  -2   5  14   26.51    1.24
  -2   5  14   25.08    1.15
  -2   5  14   27.43    4.03
   1  -5 -14   35.23    1.42
   1  -5 -14   32.76    4.52
   1  -5 -14   36.70    1.47
   1  -5 -14   36.99    1.55
   1  -5 -14   36.82    1.50
  -1   5  14   35.09    1.40
  -1   5  14   36.94    1.56
  -1   5  14   35.43    1.47
  -1   5  14   36.13    4.40
   0  -5 -14   44.33    1.81
   0  -5 -14   42.57    1.73
   0  -5 -14   42.33    1.72
   0  -5 -14   45.48    1.67
   0   5  14   44.50    1.67
   0   5  14   42.65    1.82
   0   5  14   43.58    1.71
   0   5  14   48.29    4.81
  -1  -5 -14   35.60    1.45
  -1  -5 -14   34.63    1.35
  -1  -5 -14   33.65    1.51
  -1  -5 -14   33.99    1.41
   1   5  14   34.13    1.40
   1   5  14   32.58    4.70
   1   5  14   36.12    1.37
   1   5  14   34.12    1.53
  -2  -5 -14   27.56    1.22
  -2  -5 -14   40.10    4.52
  -2  -5 -14   25.10    1.06
   2   5  14   25.47    1.00
   2   5  14   26.68    1.10
   2   5  14   21.84    1.22
   2   5  14   24.99    1.12
   2   5  14   28.18    4.71
  -3  -5 -14    6.31    0.61
  -3  -5 -14    4.57    0.56
  -3  -5 -14    6.30    0.46
  -3  -5 -14    3.63    3.10
   3   5  14    6.10    0.50
   3   5  14   -0.01    4.25
   3   5  14    5.37    0.66
   3   5  14    5.60    0.30
   3   5  14    6.74    0.34
   3   5  14    5.99    0.54
  -4  -5 -14    7.88    0.71
   4   5  14    6.79    0.61
   4   5  14    5.45    0.71
   4   5  14    5.81    0.60
  -5  -5 -14    3.87    0.68
   5   5  14    3.16    0.49
   5  -6 -14   12.03    0.98
  -5   6  14   15.99    1.25
  -5   6  14   13.63    0.84
   4  -6 -14    6.44    0.64
   4  -6 -14    6.64    0.79
  -4   6  14    6.80    0.67
  -4   6  14    6.01    0.75
  -4   6  14    6.56    0.54
   3  -6 -14    0.12    0.35
   3  -6 -14    0.75    0.34
  -3   6  14    0.76    0.42
  -3   6  14    0.09    0.30
  -3   6  14    0.00    0.27
   2  -6 -14    9.59    0.80
   2  -6 -14    9.44    0.73
   2  -6 -14   10.15    0.64
   2  -6 -14   12.15    6.68
   2  -6 -14    9.54    0.61
  -2   6  14    9.81    3.61
  -2   6  14    9.55    0.79
  -2   6  14    9.72    0.55
  -2   6  14   10.09    0.66
  -2   6  14    8.04    0.65
   1  -6 -14   10.43    0.63
   1  -6 -14   11.50    0.71
   1  -6 -14    4.71    3.35
   1  -6 -14   11.30    0.72
   1  -6 -14    9.23    0.81
  -1   6  14   11.12    0.61
  -1   6  14   10.20    0.67
  -1   6  14   11.11    0.81
  -1   6  14   14.01    3.72
   0  -6 -14   11.28    0.65
   0  -6 -14    9.84    0.60
   0  -6 -14    9.44    0.76
   0  -6 -14    9.88    0.65
   0  -6 -14   11.68    3.35
   0   6  14   10.14    0.57
   0   6  14    8.92    3.68
   0   6  14   10.71    0.65
   0   6  14   10.13    0.81
  -1  -6 -14   11.52    0.60
  -1  -6 -14    9.03    3.40
  -1  -6 -14   11.09    0.68
  -1  -6 -14   10.21    0.78
  -1  -6 -14    9.88    0.72
   1   6  14    5.71    3.78
   1   6  14   11.25    0.85
   1   6  14    9.52    0.65
   1   6  14   11.37    0.63
  -2  -6 -14   10.24    0.69
  -2  -6 -14    9.01    0.57
  -2  -6 -14    9.99    0.75
  -2  -6 -14    9.41    0.71
  -2  -6 -14   17.06    3.90
   2   6  14   10.16    0.54
   2   6  14   17.13    4.97
   2   6  14   10.15    0.65
   2   6  14   10.25    0.84
   2   6  14    9.21    0.66
  -3  -6 -14    0.96    0.42
  -3  -6 -14   -0.22    3.83
   3   6  14   -4.67    5.08
   3   6  14   -0.37    0.37
   3   6  14    0.11    0.30
   3   6  14    0.25    0.18
  -4  -6 -14    6.26    0.80
   4   6  14    7.14    0.73
  -5  -6 -14   13.58    1.17
   5   6  14   11.15    0.98
   4  -7 -14    9.85    0.83
  -4   7  14    9.94    0.74
  -4   7  14    9.17    0.84
   3  -7 -14    2.85    0.48
   3  -7 -14    2.56    0.49
  -3   7  14    2.93    0.40
  -3   7  14    2.26    0.44
  -3   7  14    1.81    0.55
   2  -7 -14    0.79    0.38
   2  -7 -14    0.26    0.36
  -2   7  14    1.12    0.48
  -2   7  14    0.83    0.29
   1  -7 -14   14.75    0.82
   1  -7 -14   14.50    0.86
   1  -7 -14   14.16    0.88
   1  -7 -14   23.33    5.01
  -1   7  14   14.98    1.00
  -1   7  14   14.49    4.68
   0  -7 -14    0.24    0.35
   0  -7 -14    0.38    0.32
   0  -7 -14    0.81    0.29
   0  -7 -14   -0.92    3.61
   0   7  14    3.21    4.22
   0   7  14    0.26    0.23
  -1  -7 -14   14.38    0.85
  -1  -7 -14   11.53    4.55
  -1  -7 -14   13.43    0.88
   1   7  14   15.10    0.79
   1   7  14   16.31    5.32
  -2  -7 -14    3.65    4.31
  -2  -7 -14    0.24    0.42
   2   7  14    0.41    0.31
   2   7  14   -8.91    4.91
   2   7  14    0.56    0.26
  -3  -7 -14   -8.21    4.79
   3   7  14    7.77    7.57
  -4  -7 -14    8.38    1.01
   4   7  14   10.29    0.92
   3  -8 -14    3.19    0.60
  -3   8  14    5.42    0.66
  -3   8  14    4.25    0.52
   2  -8 -14    0.93    0.48
  -2   8  14    2.49    0.44
   1  -8 -14    5.16    0.65
  -1   8  14    3.81    0.48
   0  -8 -14    0.97    0.44
   0   8  14    0.32    0.33
  -1  -8 -14    4.21    0.64
   1   8  14    3.24    0.49
   1   8  14    3.67    0.47
  -2  -8 -14    1.63    0.57
   2   8  14    2.07    0.49
  -3  -8 -14    2.91    0.73
   3   8  14    5.32    0.68
   2  -9 -14    7.95    0.94
   1  -9 -14   -0.12    0.57
  -1   9  14    0.17    0.45
   0  -9 -14    0.21    0.55
   0   9  14    0.98    0.45
  -1  -9 -14   -0.40    0.65
   1   9  14    0.68    0.52
   1   9  14    1.04    0.47
   2   9  14    6.32    0.79
   1   9 -15    8.58    0.92
   1   9 -15   11.51    1.60
   0   9 -15    2.04    0.68
   0   9 -15    3.26    0.55
  -1   9 -15    7.52    0.79
  -1   9 -15    9.55    1.11
   3   8 -15    2.08    0.76
   3   8 -15    1.44    0.60
  -3  -8  15    1.93    0.49
   2   8 -15    2.51    0.54
   2   8 -15    3.31    0.63
   1   8 -15    6.71    0.85
   1   8 -15    7.23    0.71
  -1  -8  15    5.28    0.37
   0   8 -15   -0.05    0.33
   0   8 -15    0.54    0.49
   0   8 -15   -1.06    0.43
  -1   8 -15    6.69    0.82
  -1   8 -15    4.64    0.61
  -1   8 -15    5.83    0.66
  -2   8 -15    3.08    0.38
  -2   8 -15    3.67    0.60
  -3   8 -15    3.13    0.67
  -3   8 -15    2.01    0.72
   4   7 -15   15.38    1.29
   4   7 -15   13.96    1.16
  -4  -7  15   14.69    1.03
   3   7 -15    3.07    0.66
   3   7 -15    3.59    0.55
  -3  -7  15    2.62    0.54
  -3  -7  15    4.09    0.53
   2   7 -15    4.50    0.65
   2   7 -15    4.91    0.59
  -2  -7  15    5.41    0.51
  -2  -7  15    4.72    0.48
   1   7 -15    6.78    0.74
   1   7 -15    7.27    0.61
   1   7 -15    6.25    0.67
  -1  -7  15    7.05    0.41
  -1  -7  15    7.00    0.39
   0   7 -15   -2.56    4.76
   0   7 -15    0.26    0.36
   0   7 -15    0.05    0.36
   0   7 -15   -0.03    0.24
  -1   7 -15    8.41    0.75
  -1   7 -15    5.80    0.47
  -1   7 -15    6.28    0.58
   1  -7  15    5.42    2.33
  -2   7 -15    4.44    0.44
  -2   7 -15    5.13    0.67
  -2   7 -15    4.99    0.41
   2  -7  15    5.05    1.13
  -3   7 -15    3.19    0.34
  -3   7 -15    3.68    0.61
  -3   7 -15    4.19    0.58
  -3   7 -15    3.01    0.34
  -4   7 -15   14.07    1.12
  -4   7 -15   17.08    1.11
   4   6 -15    3.63    0.66
   4   6 -15    4.00    0.60
  -4  -6  15    3.54    0.57
  -4  -6  15    2.74    0.33
   3   6 -15    3.61    0.51
   3   6 -15    3.79    0.56
  -3  -6  15    4.91    0.58
  -3  -6  15    4.48    0.51
  -3  -6  15    3.98    0.25
   2   6 -15   -6.78    4.76
   2   6 -15    0.57    0.38
   2   6 -15    0.10    0.32
   2   6 -15   -0.07    0.37
  -2  -6  15    0.25    0.44
  -2  -6  15   -0.13    0.23
  -2  -6  15    0.08    0.24
   1   6 -15    1.19    3.56
   1   6 -15    5.20    0.49
   1   6 -15    4.66    0.58
   1   6 -15    4.75    0.55
  -1  -6  15    5.02    0.34
  -1  -6  15    4.09    0.53
  -1  -6  15    8.20    3.40
   0   6 -15    0.57    0.30
   0   6 -15    0.45    0.28
   0  -6  15    4.42    2.43
  -1   6 -15    5.77    0.40
  -1   6 -15    4.48    0.52
  -1   6 -15    5.09    0.50
   1  -6  15    3.73    2.27
  -2   6 -15    0.25    0.21
  -2   6 -15    0.39    0.16
  -2   6 -15    0.36    0.11
  -2   6 -15    0.61    0.31
  -3   6 -15    4.43    0.55
  -3   6 -15    3.56    0.40
  -3   6 -15    4.04    0.34
  -3   6 -15    4.20    0.27
  -3   6 -15    4.65    0.57
  -4   6 -15    2.80    0.60
  -4   6 -15    3.49    0.51
  -4   6 -15    4.44    0.57
   5   5 -15   11.08    0.97
   5   5 -15   10.31    1.10
   5   5 -15    9.24    0.99
  -5  -5  15   11.30    0.92
  -5  -5  15    8.74    0.77
   4   5 -15    6.20    0.72
   4   5 -15    5.51    0.67
  -4  -5  15    5.30    0.48
  -4  -5  15    2.25    6.31
  -4  -5  15    7.19    0.65
   3   5 -15    0.23    0.36
   3   5 -15    0.32    0.42
   3   5 -15    0.44    0.32
  -3  -5  15    0.69    0.35
  -3  -5  15    0.71    0.32
  -3  -5  15    0.52    0.15
  -3  -5  15   -0.51    4.91
  -3  -5  15   -0.89    4.12
  -3  -5  15    0.77    0.31
   2   5 -15   19.98    1.04
   2   5 -15   19.65    1.04
  -2  -5  15   19.82    0.87
  -2  -5  15   19.53    0.89
  -2  -5  15   29.23    4.62
  -2  -5  15   18.65    1.01
   1   5 -15   22.06    1.16
   1   5 -15   20.99    1.02
   1   5 -15   20.86    0.98
  -1  -5  15   21.56    0.87
  -1  -5  15   22.22    0.86
  -1  -5  15   20.41    3.88
  -1  -5  15   22.80    1.04
   0   5 -15    9.47    0.58
   0   5 -15    9.82    0.64
   0   5 -15    9.92    0.54
   0  -5  15    8.80    2.46
   0  -5  15    9.99    0.65
   0  -5  15   10.53    2.44
  -1   5 -15   22.49    1.05
  -1   5 -15   22.02    0.90
  -1   5 -15   20.87    0.87
   1  -5  15   19.24    2.52
   1  -5  15   20.04    2.44
  -2   5 -15   20.08    0.78
  -2   5 -15   22.20    1.00
  -2   5 -15   20.35    1.06
  -2   5 -15   19.46    0.81
  -2   5 -15   19.11    0.81
  -3   5 -15    0.46    0.23
  -3   5 -15    0.95    0.13
  -3   5 -15    0.87    0.31
  -3   5 -15    0.54    0.10
  -3   5 -15    0.14    0.31
  -4   5 -15    5.48    0.25
  -4   5 -15    6.62    0.62
  -4   5 -15    7.05    0.65
  -4   5 -15    5.19    0.66
  -5   5 -15    9.99    0.77
  -5   5 -15    8.93    0.93
  -5   5 -15   11.07    0.78
   5   4 -15    0.49    0.44
   5   4 -15   -0.32    0.41
   5   4 -15    0.16    0.46
  -5  -4  15    1.08    0.48
  -5  -4  15    0.55    0.37
   4   4 -15    2.45    0.51
   4   4 -15    3.07    0.45
   4   4 -15    2.56    0.56
  -4  -4  15    0.06    4.92
  -4  -4  15    2.63    5.75
  -4  -4  15    3.28    0.49
  -4  -4  15    2.77    0.35
   3   4 -15    1.18    0.39
   3   4 -15    1.14    0.34
   3   4 -15    0.73    0.28
  -3  -4  15    3.20    7.53
  -3  -4  15    0.87    0.30
  -3  -4  15    0.94    0.36
  -3  -4  15    2.69    3.93
  -3  -4  15    0.81    0.18
  -3  -4  15    1.09    0.29
   2   4 -15   16.62    0.91
   2   4 -15   17.97    0.88
   2   4 -15   18.14    0.95
  -2  -4  15   19.14    0.69
  -2  -4  15   18.03    3.80
  -2  -4  15   21.66    4.17
  -2  -4  15   17.39    0.80
  -2  -4  15   17.70    0.80
  -2  -4  15   15.92    0.90
   1   4 -15   13.10    0.70
   1   4 -15   15.29    0.79
   1   4 -15   14.47    0.71
  -1  -4  15   17.38    3.13
  -1  -4  15   17.41    3.08
  -1  -4  15   14.79    0.77
  -1  -4  15   14.52    0.61
  -1  -4  15   12.93    0.60
   0   4 -15   35.71    1.40
   0   4 -15   38.49    1.40
   0   4 -15   34.81    1.49
   0  -4  15   41.69    3.60
   0  -4  15   37.97    3.57
   0  -4  15   34.85    1.46
  -1   4 -15   14.76    0.76
  -1   4 -15   14.36    0.63
  -1   4 -15   15.06    0.56
  -1   4 -15   14.20    0.80
  -1   4 -15   15.00    0.62
  -1   4 -15   14.76    0.60
   1  -4  15   14.64    2.12
   1  -4  15   17.30    2.10
  -2   4 -15   17.51    0.78
  -2   4 -15   17.46    0.66
  -2   4 -15   17.66    0.84
  -2   4 -15   17.08    0.66
  -2   4 -15   17.88    0.91
  -3   4 -15    0.54    0.25
  -3   4 -15    0.96    0.25
  -3   4 -15    0.47    0.29
  -4   4 -15    2.86    0.37
  -4   4 -15    2.99    0.39
  -4   4 -15    3.05    0.46
  -5   4 -15   -0.24    0.46
  -5   4 -15   -0.26    0.29
  -5   4 -15    0.77    0.33
   6   3 -15    4.05    0.74
   6   3 -15    3.85    0.75
  -6  -3  15    3.81    0.67
   5   3 -15    5.56    0.76
   5   3 -15    5.47    0.65
   5   3 -15    6.24    0.74
  -5  -3  15    4.44    0.60
  -5  -3  15    5.01    0.63
  -5  -3  15    5.06    6.23
   4   3 -15    0.74    0.33
   4   3 -15    1.15    0.35
   4   3 -15    1.05    0.47
   4   3 -15    1.21    0.39
  -4  -3  15    0.23    4.82
  -4  -3  15    1.57    0.44
  -4  -3  15    8.58    4.94
  -4  -3  15    0.50    0.39
  -4  -3  15    0.29    0.29
  -4  -3  15    0.79    0.27
   3   3 -15   34.36    1.50
   3   3 -15   32.15    1.77
   3   3 -15   37.36    1.46
   3   3 -15   34.55    1.55
   3   3 -15   34.84    1.52
  -3  -3  15   37.59    5.63
  -3  -3  15   34.17    1.43
  -3  -3  15   34.97    1.36
  -3  -3  15   35.81    1.44
  -3  -3  15   34.05    1.50
  -3  -3  15   39.59    5.80
   2   3 -15   21.07    0.99
   2   3 -15   18.93    0.98
   2   3 -15   21.30    0.96
   2   3 -15   21.12    0.94
   2   3 -15   21.16    0.87
  -2  -3  15   12.34    3.43
  -2  -3  15   18.82    0.95
  -2  -3  15   21.77    3.68
  -2  -3  15   20.93    0.81
  -2  -3  15   21.59    0.89
  -2  -3  15   19.74    0.89
   1   3 -15   25.70    1.13
   1   3 -15   24.63    0.95
   1   3 -15   26.06    1.04
   1   3 -15   24.42    1.11
   1   3 -15   25.43    1.04
  -1  -3  15   24.46    0.95
  -1  -3  15   24.92    0.97
  -1  -3  15   24.64    3.29
  -1  -3  15   23.07    1.06
   0   3 -15   17.98    0.74
   0   3 -15   17.44    0.88
   0   3 -15   16.33    0.81
   0   3 -15   17.94    0.67
   0   3 -15   17.26    0.74
   0  -3  15   18.02    0.82
   0  -3  15   18.99    2.59
   0  -3  15   19.76    2.61
   0  -3  15   17.82    0.63
   0  -3  15   17.52    0.63
  -1   3 -15   25.81    1.03
  -1   3 -15   23.72    0.90
  -1   3 -15   23.42    0.90
  -1   3 -15   21.71    1.05
   1  -3  15   24.59    2.25
   1  -3  15   24.68    2.06
  -2   3 -15   20.46    0.75
  -2   3 -15   20.77    0.97
  -2   3 -15   20.50    0.73
  -2   3 -15   20.16    0.90
  -2   3 -15   20.15    0.89
  -3   3 -15   34.50    1.43
  -3   3 -15   34.74    1.36
  -3   3 -15   33.62    1.45
  -4   3 -15    0.62    0.22
  -4   3 -15    0.69    0.26
  -4   3 -15    0.93    0.37
  -4   3 -15    0.77    0.11
  -4   3 -15    0.83    0.13
  -5   3 -15    4.97    0.50
  -5   3 -15    4.42    0.38
  -5   3 -15    6.30    0.82
  -5   3 -15    4.97    0.45
  -5   3 -15    4.90    0.34
  -6   3 -15    3.68    0.79
   6   2 -15    4.76    0.70
  -6  -2  15    5.25    0.70
  -6  -2  15    4.53    0.71
   5   2 -15    3.17    0.53
   5   2 -15    2.28    0.37
   5   2 -15    2.69    0.65
   5   2 -15    3.08    0.48
  -5  -2  15    2.98    0.45
  -5  -2  15    8.94    5.80
  -5  -2  15    2.22    0.44
   4   2 -15    1.96    0.41
   4   2 -15    1.27    0.32
   4   2 -15    1.80    0.32
   4   2 -15    2.27    0.46
   4   2 -15    1.62    0.41
  -4  -2  15    1.50    0.41
  -4  -2  15    1.43    0.33
  -4  -2  15    1.74    0.35
  -4  -2  15    1.47    0.32
  -4  -2  15   10.70    4.70
  -4  -2  15    2.88    5.31
   3   2 -15    2.75    0.35
   3   2 -15    2.76    0.36
   3   2 -15    3.17    0.42
   3   2 -15    3.09    0.39
   3   2 -15    2.51    0.39
  -3  -2  15    3.57    0.43
  -3  -2  15    3.56    0.43
  -3  -2  15    3.10    2.92
  -3  -2  15   -0.57    3.03
  -3  -2  15    3.79    0.32
  -3  -2  15    2.75    0.34
   2   2 -15   39.50    1.55
   2   2 -15   38.78    1.52
   2   2 -15   41.05    1.61
   2   2 -15   38.45    1.58
   2   2 -15   41.50    1.57
  -2  -2  15   38.09    1.52
  -2  -2  15   33.57    4.50
  -2  -2  15   41.50    4.57
  -2  -2  15   38.93    1.46
  -2  -2  15   40.42    1.50
  -2  -2  15   37.37    1.58
   1   2 -15   15.85    0.79
   1   2 -15   16.46    0.74
   1   2 -15   15.51    0.77
   1   2 -15   16.34    0.68
   1   2 -15   16.08    0.72
  -1  -2  15   15.63    0.64
  -1  -2  15   16.15    0.65
  -1  -2  15   19.67    2.81
  -1  -2  15   16.23    0.77
  -1  -2  15   16.90    0.70
   0   2 -15   41.19    1.45
   0   2 -15   40.73    1.50
   0   2 -15   38.05    1.56
   0   2 -15   42.07    1.62
   0   2 -15   41.50    1.48
   0  -2  15   40.65    1.42
   0  -2  15   38.74    3.25
   0  -2  15   40.86    1.40
   0  -2  15   38.08    3.02
   0  -2  15   38.32    1.53
  -1   2 -15   16.82    0.67
  -1   2 -15   16.30    0.64
  -1   2 -15   17.26    0.75
  -1   2 -15   16.45    0.82
   1  -2  15   16.67    2.10
   1  -2  15   17.51    0.73
   1  -2  15   18.07    1.82
  -2   2 -15   40.47    1.57
  -2   2 -15   39.15    1.47
  -2   2 -15   38.77    1.35
  -2   2 -15   38.59    1.37
   2  -2  15   38.45    1.85
   2  -2  15   37.35    1.74
  -3   2 -15    2.99    0.16
  -3   2 -15    3.04    0.39
  -3   2 -15    3.03    0.17
  -3   2 -15    2.78    0.27
  -4   2 -15    1.45    0.16
  -4   2 -15    1.71    0.19
  -4   2 -15    1.54    0.41
  -4   2 -15    1.50    0.20
  -4   2 -15    1.44    0.28
  -5   2 -15    2.17    0.25
  -5   2 -15    2.36    0.34
  -5   2 -15    2.79    0.30
  -5   2 -15    4.41    0.62
  -5   2 -15    2.51    0.29
  -5   2 -15    2.59    0.34
  -6   2 -15    3.51    0.77
   6   1 -15    7.17    0.79
  -6  -1  15    5.94    0.70
  -6  -1  15    5.35    0.78
   5   1 -15    1.40    0.38
   5   1 -15    2.93    0.34
   5   1 -15    2.90    0.58
   5   1 -15    1.89    0.48
  -5  -1  15   -6.56    5.67
  -5  -1  15    1.63    0.39
  -5  -1  15    2.09    0.45
   4   1 -15   16.41    0.95
   4   1 -15   17.34    0.88
   4   1 -15   15.92    0.97
   4   1 -15   17.13    0.84
   4   1 -15   17.44    1.00
  -4  -1  15   15.75    0.90
  -4  -1  15   15.73    0.99
  -4  -1  15   19.94    0.91
  -4  -1  15   22.55    5.07
  -4  -1  15   17.71    0.87
  -4  -1  15   21.85    4.97
   3   1 -15   71.61    2.70
   3   1 -15   71.57    2.69
   3   1 -15   69.32    2.66
   3   1 -15   67.93    2.63
   3   1 -15   73.64    2.65
  -3  -1  15   69.66    2.64
  -3  -1  15   64.53    2.68
  -3  -1  15   73.25    6.55
  -3  -1  15   75.17    2.62
  -3  -1  15   73.54    2.61
   2   1 -15    5.28    0.42
   2   1 -15    5.15    0.40
   2   1 -15    6.06    0.47
   2   1 -15    5.56    0.41
   2   1 -15    5.66    0.41
  -2  -1  15    6.32    0.48
  -2  -1  15    5.28    0.36
  -2  -1  15    6.27    2.51
  -2  -1  15    5.71    0.42
  -2  -1  15    5.19    0.34
  -2  -1  15    5.92    2.35
   1   1 -15    1.87    0.24
   1   1 -15    1.37    0.25
   1   1 -15    1.43    0.24
   1   1 -15    1.47    0.21
   1   1 -15    1.83    0.21
  -1  -1  15    1.78    0.29
  -1  -1  15    1.48    0.16
  -1  -1  15    0.22    1.54
  -1  -1  15    1.61    0.17
  -1  -1  15    2.43    0.24
   0   1 -15   12.80    0.62
   0   1 -15   14.93    2.15
   0   1 -15   13.17    0.68
   0   1 -15   14.27    0.57
   0   1 -15   13.51    0.58
   0   1 -15   13.30    0.57
   0  -1  15   13.10    0.51
   0  -1  15   13.40    0.62
   0  -1  15   14.16    1.98
   0  -1  15   12.73    0.54
  -1   1 -15    1.64    0.26
  -1   1 -15    1.38    0.14
  -1   1 -15    1.66    0.17
  -1   1 -15    1.84    0.21
  -1   1 -15    2.19    1.12
   1  -1  15    1.91    0.20
   1  -1  15    0.88    0.84
  -2   1 -15    5.66    0.25
  -2   1 -15    5.22    0.31
  -2   1 -15    4.76    0.40
  -2   1 -15    5.40    0.27
  -2   1 -15    5.85    1.15
   2  -1  15    5.92    1.09
  -3   1 -15   75.84    2.61
  -3   1 -15   71.52    2.44
  -3   1 -15   68.08    2.42
  -3   1 -15   66.19    3.21
  -3   1 -15   68.35    2.45
   3  -1  15   67.32    3.44
  -4   1 -15   18.50    0.85
  -4   1 -15   16.82    1.78
  -4   1 -15   17.10    0.70
  -4   1 -15   17.29    0.73
  -4   1 -15   16.48    0.66
  -4   1 -15   17.08    1.05
  -5   1 -15    1.34    0.29
  -5   1 -15   -0.42    1.58
  -5   1 -15    2.32    1.30
  -5   1 -15    2.22    0.31
  -5   1 -15    2.05    0.28
  -5   1 -15    2.29    0.52
  -6   1 -15    5.90    0.66
  -6   1 -15    5.79    0.88
   6   0 -15    9.48    0.80
  -6   0  15   11.98    0.96
  -6   0  15   12.10    0.88
   5   0 -15   19.91    0.93
   5   0 -15   20.18    1.20
   5   0 -15   21.18    1.08
  -5   0  15   20.71    6.58
  -5   0  15   22.65    1.07
  -5   0  15   22.08    1.12
   4   0 -15    0.94    0.24
   4   0 -15    1.06    0.41
   4   0 -15    1.09    0.29
   4   0 -15    1.50    0.35
  -4   0  15    2.86    3.44
  -4   0  15    0.83    0.38
  -4   0  15    0.83    0.35
  -4   0  15    1.02    0.29
  -4   0  15    1.17    0.28
  -4   0  15    1.98    3.83
   3   0 -15   31.24    1.28
   3   0 -15   32.10    1.34
   3   0 -15   29.49    1.30
   3   0 -15   29.96    1.27
   3   0 -15   30.58    1.36
  -3   0  15   29.84    1.29
  -3   0  15   32.71    4.77
  -3   0  15   30.34    1.25
  -3   0  15   34.29    4.40
  -3   0  15   31.96    1.28
  -3   0  15   31.92    1.38
   2   0 -15   11.37    0.65
   2   0 -15   11.79    0.64
   2   0 -15   14.55    2.82
   2   0 -15   11.53    0.60
   2   0 -15   12.26    0.87
   2   0 -15   11.26    0.62
  -2   0  15   11.99    0.57
  -2   0  15   13.93    0.60
  -2   0  15   11.59    0.65
  -2   0  15   12.75    2.54
  -2   0  15   11.62    0.61
   1   0 -15    1.05    0.17
   1   0 -15    0.99    0.17
   1   0 -15    0.99    0.20
   1   0 -15    0.92    0.17
   1   0 -15    2.53    1.58
   1   0 -15    1.32    0.23
  -1   0  15    0.84    0.13
  -1   0  15   -0.37    1.46
  -1   0  15    1.33    0.20
  -1   0  15    1.05    0.16
  -1   0  15    1.16    0.22
  -1   0  15    1.16    0.21
   0   0 -15    0.20    0.09
   0   0 -15    0.17    0.10
   0   0 -15    0.24    1.23
   0   0 -15    0.30    0.13
   0   0  15    0.12    0.12
   0   0  15    0.46    0.17
   0   0  15   -0.91    1.14
  -1   0 -15    0.68    1.11
  -1   0 -15    1.02    0.15
  -1   0 -15    1.00    0.12
  -1   0 -15    1.07    0.15
  -1   0 -15    1.05    0.22
   1   0  15    0.95    0.10
   1   0  15    1.02    0.23
   1   0  15    0.98    0.13
   1   0  15    0.77    0.13
  -2   0 -15   11.76    0.48
  -2   0 -15   11.87    0.64
  -2   0 -15   11.77    1.75
  -2   0 -15   11.64    0.51
  -2   0 -15   11.76    0.49
   2   0  15   12.51    1.73
  -3   0 -15   30.85    1.17
  -3   0 -15   30.97    1.28
  -3   0 -15   30.88    1.13
   3   0  15   30.81    1.29
   3   0  15   27.51    2.91
  -4   0 -15    2.96    1.41
  -4   0 -15    0.98    0.25
  -4   0 -15    0.62    0.18
  -4   0 -15    0.65    0.21
   4   0  15    1.37    0.30
   4   0  15    1.64    2.06
  -5   0 -15   20.66    0.93
  -5   0 -15   21.90    1.00
  -5   0 -15   20.98    1.28
  -5   0 -15   22.25    1.00
  -6   0 -15    8.98    1.13
  -6   0 -15    8.88    1.10
   6  -1 -15    6.19    0.73
  -6   1  15    7.46    0.70
  -6   1  15    7.20    0.89
   5  -1 -15    2.69    0.42
   5  -1 -15    2.65    0.55
   5  -1 -15    1.82    0.27
  -5   1  15    6.05    5.92
  -5   1  15    2.41    0.38
  -5   1  15    2.07    0.43
   4  -1 -15   16.09    1.02
   4  -1 -15   15.53    0.85
   4  -1 -15   16.76    0.80
   4  -1 -15   17.28    0.95
  -4   1  15   18.15    0.86
  -4   1  15   16.66    0.91
  -4   1  15   17.95    1.01
  -4   1  15   17.17    3.94
  -4   1  15   20.12    4.77
  -4   1  15   18.60    0.91
   3  -1 -15   73.40    2.66
   3  -1 -15   80.04    6.25
   3  -1 -15   70.83    2.75
   3  -1 -15   68.46    2.67
   3  -1 -15   75.96    2.66
  -3   1  15   67.27    5.68
  -3   1  15   71.22    2.62
  -3   1  15   74.80    2.68
  -3   1  15   70.55    2.69
  -3   1  15   69.63    2.73
   2  -1 -15    5.81    0.40
   2  -1 -15    5.16    0.41
   2  -1 -15    5.83    0.44
   2  -1 -15    6.14    0.41
   2  -1 -15    6.73    2.32
   2  -1 -15    5.65    0.43
  -2   1  15    6.50    0.36
  -2   1  15    5.77    0.44
  -2   1  15    5.59    0.44
  -2   1  15    5.41    0.43
  -2   1  15    3.83    2.27
  -2   1  15    6.09    0.40
   1  -1 -15    1.97    0.24
   1  -1 -15    1.28    0.22
   1  -1 -15    2.04    0.27
   1  -1 -15    2.15    1.81
   1  -1 -15    1.77    0.23
   1  -1 -15    2.07    0.25
  -1   1  15    1.40    0.18
  -1   1  15    2.25    1.75
  -1   1  15    1.63    0.22
  -1   1  15    2.30    0.27
  -1   1  15    1.68    0.27
  -1   1  15    1.57    0.21
   0  -1 -15   13.29    0.56
   0  -1 -15   11.71    0.65
   0  -1 -15   13.55    0.60
   0  -1 -15   12.82    0.58
   0  -1 -15   11.57    2.08
   0  -1 -15   12.23    0.58
   0   1  15   13.16    0.61
   0   1  15   12.65    0.58
   0   1  15   16.17    2.25
   0   1  15   13.20    0.53
   0   1  15   13.64    0.74
  -1  -1 -15    3.93    1.36
  -1  -1 -15    1.53    0.17
  -1  -1 -15    2.27    0.30
  -1  -1 -15    1.94    0.20
   1   1  15    1.75    0.20
   1   1  15    1.54    0.18
   1   1  15    1.36    0.30
   1   1  15    1.88    0.15
  -2  -1 -15    5.62    0.30
  -2  -1 -15    5.96    0.35
  -2  -1 -15    4.98    1.48
  -2  -1 -15    6.63    0.47
   2   1  15    5.12    0.28
   2   1  15    5.25    0.24
   2   1  15    5.61    0.26
   2   1  15    3.44    1.42
   2   1  15    5.88    0.45
  -3  -1 -15   73.11    2.49
  -3  -1 -15   72.50    2.54
  -3  -1 -15   67.73    2.62
  -3  -1 -15   66.54    4.11
   3   1  15   69.30    2.63
   3   1  15   68.41    4.70
  -4  -1 -15   14.61    2.41
  -4  -1 -15   17.28    0.73
  -4  -1 -15   17.41    0.86
  -4  -1 -15   16.69    0.80
   4   1  15   15.17    0.88
   4   1  15   18.02    3.28
  -5  -1 -15    1.70    0.31
  -5  -1 -15    1.92    0.37
  -5  -1 -15    2.62    0.37
  -5  -1 -15    3.16    0.65
   5   1  15    2.53    0.43
  -6  -1 -15    6.57    0.73
  -6  -1 -15    5.19    0.57
  -6  -1 -15    6.19    0.97
   6  -2 -15    5.53    0.66
  -6   2  15    4.16    0.68
  -6   2  15    4.49    0.61
   5  -2 -15    1.24    0.52
   5  -2 -15    2.31    0.28
   5  -2 -15    2.56    0.41
  -5   2  15    0.37    5.71
  -5   2  15    2.84    0.41
  -5   2  15    2.20    0.44
   4  -2 -15    1.69    0.37
   4  -2 -15    1.61    0.26
   4  -2 -15    1.28    0.43
   4  -2 -15    1.90    0.32
   4  -2 -15    2.66    3.93
  -4   2  15    2.94    3.55
  -4   2  15    1.58    0.28
  -4   2  15    1.29    0.41
  -4   2  15    1.79    0.36
  -4   2  15    1.97    0.41
   3  -2 -15    3.12    0.36
   3  -2 -15    3.06    0.44
   3  -2 -15    3.12    0.40
   3  -2 -15    3.03    0.33
   3  -2 -15    8.24    3.15
  -3   2  15    3.43    0.39
  -3   2  15    3.14    0.41
  -3   2  15    3.30    0.32
  -3   2  15    3.31    2.71
  -3   2  15    2.73    0.36
  -3   2  15    3.23    0.44
   2  -2 -15   39.28    1.49
   2  -2 -15   33.35    4.08
   2  -2 -15   37.95    1.49
   2  -2 -15   40.30    1.54
   2  -2 -15   36.54    1.54
  -2   2  15   40.76    1.51
  -2   2  15   38.70    1.57
  -2   2  15   38.32    4.10
  -2   2  15   32.06    1.79
  -2   2  15   41.01    1.53
  -2   2  15   36.84    1.44
   1  -2 -15   17.83    2.77
   1  -2 -15   15.78    0.73
   1  -2 -15   16.09    0.76
   1  -2 -15   16.20    0.72
   1  -2 -15   17.06    0.80
  -1   2  15   16.98    0.83
  -1   2  15   21.26    2.97
  -1   2  15   16.59    0.75
  -1   2  15   16.69    0.69
  -1   2  15   16.87    0.74
   0  -2 -15   41.71    1.63
   0  -2 -15   45.72    1.58
   0  -2 -15   48.05    3.62
   0  -2 -15   35.74    1.54
   0  -2 -15   40.84    1.54
   0   2  15   39.81    1.49
   0   2  15   35.53    3.16
   0   2  15   41.77    1.56
   0   2  15   38.54    1.62
   0   2  15   42.65    1.55
  -1  -2 -15   17.59    0.82
  -1  -2 -15   17.65    2.56
  -1  -2 -15   15.92    0.74
  -1  -2 -15   16.16    0.72
   1   2  15   17.56    0.68
   1   2  15   16.23    0.69
   1   2  15   16.96    0.83
   1   2  15   16.10    0.70
   1   2  15   20.30    2.57
  -2  -2 -15   38.70    1.48
  -2  -2 -15   37.49    1.56
  -2  -2 -15   39.92    3.39
  -2  -2 -15   39.80    1.43
   2   2  15   39.18    1.43
   2   2  15   39.22    1.59
   2   2  15   37.65    1.41
   2   2  15   39.83    3.70
   2   2  15   37.55    1.34
  -3  -2 -15    3.60    0.39
  -3  -2 -15    3.07    0.28
  -3  -2 -15    3.35    0.35
  -3  -2 -15    3.33    1.72
   3   2  15    3.21    0.26
   3   2  15    6.27    2.50
   3   2  15    3.20    0.41
   3   2  15    3.20    0.25
  -4  -2 -15    1.30    0.31
  -4  -2 -15    1.18    0.25
  -4  -2 -15   -0.53    2.05
  -4  -2 -15    1.71    0.35
   4   2  15    1.50    0.18
   4   2  15    1.75    0.40
   4   2  15    0.07    3.09
   4   2  15    1.49    0.17
  -5  -2 -15    2.94    0.43
  -5  -2 -15    2.00    0.42
  -5  -2 -15    2.14    0.36
   5   2  15    2.05    0.47
  -6  -2 -15    5.42    0.69
  -6  -2 -15    4.98    0.90
   6  -3 -15    3.11    0.54
  -6   3  15    3.54    0.58
   5  -3 -15    4.49    0.55
   5  -3 -15    5.23    0.63
   5  -3 -15    4.42    0.42
  -5   3  15    4.72    0.53
  -5   3  15    5.18    0.63
   4  -3 -15    0.26    0.37
   4  -3 -15    0.48    0.45
   4  -3 -15    0.65    0.25
   4  -3 -15   -0.73    4.18
   4  -3 -15    0.41    0.29
  -4   3  15    0.50    0.25
  -4   3  15    0.26    0.44
  -4   3  15    3.16    4.19
  -4   3  15    0.73    0.32
  -4   3  15    1.85    0.38
   3  -3 -15   46.33    5.52
   3  -3 -15   32.30    1.43
   3  -3 -15   35.00    1.42
   3  -3 -15   36.40    1.58
   3  -3 -15   35.75    1.43
  -3   3  15   34.33    1.47
  -3   3  15   32.49    1.45
  -3   3  15   37.32    1.46
  -3   3  15   35.41    1.55
   2  -3 -15   21.36    0.97
   2  -3 -15   20.72    0.92
   2  -3 -15   20.96    0.93
   2  -3 -15   24.33    3.78
   2  -3 -15   21.53    1.00
  -2   3  15   19.72    0.96
  -2   3  15   21.04    0.88
  -2   3  15   20.21    1.00
  -2   3  15   21.99    0.99
  -2   3  15   22.47    0.96
   1  -3 -15   23.10    1.03
   1  -3 -15   24.63    1.01
   1  -3 -15   24.53    1.06
   1  -3 -15   24.81    1.09
   1  -3 -15   24.75    3.47
  -1   3  15   24.82    1.08
  -1   3  15   26.12    1.05
  -1   3  15   23.12    1.04
  -1   3  15   24.49    0.98
  -1   3  15   25.16    3.44
  -1   3  15   27.46    1.14
   0  -3 -15   17.77    0.88
   0  -3 -15   17.72    0.76
   0  -3 -15   16.87    0.79
   0  -3 -15   18.81    3.01
   0  -3 -15   18.89    0.82
   0   3  15   17.19    0.88
   0   3  15   19.58    0.76
   0   3  15   18.33    0.80
   0   3  15   16.98    2.73
   0   3  15   19.02    0.82
  -1  -3 -15   24.70    1.13
  -1  -3 -15   23.81    0.98
  -1  -3 -15   25.22    1.04
  -1  -3 -15   28.05    1.07
   1   3  15   23.55    1.02
   1   3  15   24.84    1.14
   1   3  15   23.29    3.16
   1   3  15   25.09    0.99
   1   3  15   25.42    1.00
  -2  -3 -15   20.71    0.99
  -2  -3 -15   19.96    0.83
  -2  -3 -15   20.22    2.95
  -2  -3 -15   21.48    0.92
   2   3  15   20.31    0.83
   2   3  15   17.53    1.02
   2   3  15   20.27    0.76
   2   3  15   19.69    0.98
   2   3  15   23.18    3.42
  -3  -3 -15   37.27    1.53
  -3  -3 -15   35.01    1.47
  -3  -3 -15   34.52    3.83
   3   3  15   33.60    5.03
   3   3  15   36.04    1.37
   3   3  15   35.80    1.55
   3   3  15   34.91    1.36
  -4  -3 -15    0.74    0.33
  -4  -3 -15   -0.01    2.72
  -4  -3 -15    0.94    0.24
   4   3  15    1.02    0.40
   4   3  15    1.08    3.91
   4   3  15    0.97    0.22
   4   3  15    0.65    0.21
  -5  -3 -15    4.81    0.62
  -5  -3 -15    5.17    0.62
   5   3  15    4.59    0.63
   5   3  15    4.76    0.35
  -6  -3 -15    4.07    0.74
   5  -4 -15    0.27    0.52
   5  -4 -15    0.27    0.38
  -5   4  15    0.33    0.41
  -5   4  15   -0.09    0.31
   4  -4 -15    2.61    0.39
   4  -4 -15    2.88    0.50
   4  -4 -15    2.42    0.34
  -4   4  15    2.67    0.41
  -4   4  15    2.89    0.39
  -4   4  15    3.41    0.47
   3  -4 -15    0.44    0.32
   3  -4 -15    0.84    0.27
   3  -4 -15    0.77    0.36
   3  -4 -15    0.52    0.27
   3  -4 -15    1.40    3.64
  -3   4  15    1.18    0.34
  -3   4  15    1.24    0.33
  -3   4  15    1.01    0.29
  -3   4  15    5.11    3.09
  -3   4  15    0.88    0.22
  -3   4  15    0.49    0.36
   2  -4 -15   17.89    0.83
   2  -4 -15   16.59    0.90
   2  -4 -15   20.94    3.77
   2  -4 -15   16.79    0.88
   2  -4 -15   18.11    0.85
  -2   4  15   18.77    0.87
  -2   4  15   16.11    0.85
  -2   4  15   18.29    0.78
  -2   4  15   18.18    0.94
  -2   4  15   14.66    3.20
  -2   4  15   18.14    0.92
   1  -4 -15   15.95    0.71
   1  -4 -15   14.31    0.78
   1  -4 -15   14.63    0.72
   1  -4 -15   14.09    0.74
   1  -4 -15   11.70    2.79
  -1   4  15   15.21    0.73
  -1   4  15   13.26    2.69
  -1   4  15   13.12    0.80
  -1   4  15   14.70    0.73
  -1   4  15   14.64    0.66
  -1   4  15   14.86    0.78
   0  -4 -15   37.12    1.53
   0  -4 -15   36.54    4.19
   0  -4 -15   38.84    1.48
   0  -4 -15   40.67    1.64
   0  -4 -15   39.63    1.54
   0   4  15   39.43    1.53
   0   4  15   36.92    4.04
   0   4  15   38.84    1.63
  -1  -4 -15   15.36    0.67
  -1  -4 -15   13.05    3.53
  -1  -4 -15   15.52    0.75
  -1  -4 -15   15.49    0.84
  -1  -4 -15   15.01    0.75
   1   4  15   13.14    2.99
   1   4  15   14.49    0.83
   1   4  15   15.31    0.71
   1   4  15   15.24    0.68
   1   4  15   13.58    0.68
  -2  -4 -15   18.94    0.97
  -2  -4 -15   18.16    2.98
  -2  -4 -15   17.64    0.77
  -2  -4 -15   16.99    0.86
   2   4  15   16.71    0.72
   2   4  15   19.83    3.66
   2   4  15   18.09    0.97
   2   4  15   17.74    0.82
   2   4  15   17.85    0.80
  -3  -4 -15    2.37    2.64
  -3  -4 -15    0.58    0.20
  -3  -4 -15    0.73    0.32
   3   4  15    0.73    0.24
   3   4  15    3.72    3.47
   3   4  15    0.99    0.37
   3   4  15    0.59    0.26
  -4  -4 -15   -2.54    3.21
  -4  -4 -15    2.14    0.48
  -4  -4 -15    3.38    0.47
  -4  -4 -15    2.35    0.36
   4   4  15    3.00    0.35
   4   4  15    2.54    0.36
   4   4  15    2.72    0.53
  -5  -4 -15   -0.27    0.45
   5   4  15   -0.24    0.30
   5   4  15   -0.96    0.58
   5  -5 -15    8.84    0.79
  -5   5  15    9.20    0.85
  -5   5  15   10.18    0.70
   4  -5 -15    5.19    0.58
   4  -5 -15    7.15    0.76
  -4   5  15    5.31    0.49
  -4   5  15    7.13    0.66
  -4   5  15    5.38    0.61
   3  -5 -15    0.84    0.28
   3  -5 -15    0.14    0.40
   3  -5 -15    1.01    0.35
   3  -5 -15    4.58    4.04
   3  -5 -15    1.02    0.31
  -3   5  15    2.81    3.48
  -3   5  15    0.42    0.29
  -3   5  15    0.44    0.37
  -3   5  15    0.58    0.23
  -3   5  15    0.36    0.35
  -3   5  15    0.88    0.42
   2  -5 -15   20.24    1.06
   2  -5 -15   25.43    4.45
   2  -5 -15   18.51    0.91
   2  -5 -15   19.54    1.01
  -2   5  15   19.25    0.96
  -2   5  15   20.52    0.88
  -2   5  15   19.23    1.04
  -2   5  15   21.49    3.97
  -2   5  15   21.50    0.99
  -2   5  15   18.71    1.05
   1  -5 -15   22.05    0.98
   1  -5 -15   22.32    1.02
   1  -5 -15   20.30    0.93
   1  -5 -15   21.26    3.91
   1  -5 -15   20.08    1.03
  -1   5  15   20.45    1.01
  -1   5  15   21.48    3.61
  -1   5  15   19.68    1.05
  -1   5  15   22.74    0.99
  -1   5  15   20.26    0.96
   0  -5 -15   10.65    0.62
   0  -5 -15    9.59    0.53
   0  -5 -15   10.00    0.63
   0  -5 -15   10.68    0.70
   0  -5 -15    3.32    2.60
   0   5  15   12.63    3.18
   0   5  15   10.12    0.53
   0   5  15    9.81    0.59
   0   5  15   10.02    0.74
  -1  -5 -15   21.67    1.00
  -1  -5 -15   22.63    1.13
  -1  -5 -15   20.59    0.91
  -1  -5 -15   20.90    1.09
  -1  -5 -15   22.28    3.65
   1   5  15   21.21    1.12
   1   5  15   22.00    0.93
   1   5  15   19.08    3.87
   1   5  15   21.88    0.99
  -2  -5 -15   21.65    1.09
  -2  -5 -15   19.25    1.00
  -2  -5 -15   18.73    0.96
  -2  -5 -15   24.52    3.89
  -2  -5 -15   18.72    0.86
   2   5  15   19.16    0.88
   2   5  15   19.84    1.08
   2   5  15   19.50    0.80
   2   5  15   19.87    0.94
   2   5  15   18.27    4.36
  -3  -5 -15    0.54    0.36
  -3  -5 -15    0.31    0.38
  -3  -5 -15    0.88    0.25
   3   5  15    0.65    0.42
   3   5  15    0.76    0.15
   3   5  15    0.69    0.12
   3   5  15    0.54    0.31
   3   5  15    0.21    4.47
  -4  -5 -15    5.90    0.75
   4   5  15    5.61    0.60
   4   5  15    5.65    0.60
   4   5  15    5.57    0.79
  -5  -5 -15   10.50    0.98
   5   5  15    9.70    0.79
   4  -6 -15    2.82    0.57
   4  -6 -15    3.48    0.51
  -4   6  15    3.00    0.41
  -4   6  15    3.58    0.56
  -4   6  15    3.82    0.57
   3  -6 -15    3.69    0.53
   3  -6 -15    3.89    0.48
  -3   6  15    4.52    0.57
  -3   6  15    4.15    0.42
  -3   6  15    4.46    0.58
   2  -6 -15    0.70    0.40
   2  -6 -15   -3.33    3.81
   2  -6 -15    0.97    0.32
   2  -6 -15    0.25    0.29
   2  -6 -15   -0.22    0.31
  -2   6  15    0.20    0.28
  -2   6  15    0.45    0.37
  -2   6  15   -1.21    3.43
  -2   6  15    0.12    0.38
  -2   6  15    0.36    0.39
  -2   6  15    0.17    0.22
   1  -6 -15    4.01    0.51
   1  -6 -15   10.75    3.87
   1  -6 -15    4.74    0.60
   1  -6 -15    5.14    0.50
   1  -6 -15    4.23    0.48
  -1   6  15    4.89    0.62
  -1   6  15    4.46    0.55
  -1   6  15    9.35    3.49
  -1   6  15    5.10    0.40
   0  -6 -15    0.50    0.32
   0  -6 -15    0.75    0.29
   0  -6 -15    0.38    0.22
   0  -6 -15    0.77    0.29
   0  -6 -15    6.43    3.44
   0   6  15    0.65    3.48
   0   6  15    0.21    0.20
   0   6  15   -0.04    0.36
  -1  -6 -15    6.08    0.47
  -1  -6 -15    5.33    0.60
  -1  -6 -15    5.29    0.50
  -1  -6 -15    8.62    3.13
  -1  -6 -15    4.73    0.52
   1   6  15    4.83    0.55
   1   6  15    7.77    3.98
   1   6  15    4.15    0.42
   1   6  15    4.88    0.65
  -2  -6 -15    4.46    3.57
  -2  -6 -15    0.47    0.37
  -2  -6 -15   -0.34    0.35
  -2  -6 -15    0.51    0.31
   2   6  15   -0.19    0.44
   2   6  15    0.49    0.19
   2   6  15    0.75    0.30
   2   6  15    2.95    4.74
   2   6  15    0.45    0.35
  -3  -6 -15    3.64    0.55
  -3  -6 -15   -1.86    4.00
   3   6  15    3.13    0.49
   3   6  15    3.64    0.31
   3   6  15    4.09    0.50
   3   6  15    7.14    5.65
  -4  -6 -15    2.53    0.58
   4   6  15    3.16    0.50
   4  -7 -15   16.05    1.01
  -4   7  15   13.24    0.84
  -4   7  15   14.68    1.06
   3  -7 -15    2.92    0.51
   3  -7 -15    3.51    0.55
  -3   7  15    3.73    0.54
  -3   7  15    2.23    0.64
  -3   7  15    2.75    0.39
   2  -7 -15    5.17    0.65
   2  -7 -15    5.37    0.61
  -2   7  15    5.05    0.46
  -2   7  15    2.92    0.62
   1  -7 -15    7.43    0.69
   1  -7 -15    5.43    0.57
  -1   7  15   13.80    5.59
   0  -7 -15   -0.73    4.90
   0  -7 -15   -0.45    0.35
   0  -7 -15   -0.24    0.30
   0   7  15   -0.15    0.24
   0   7  15   -1.04    3.96
  -1  -7 -15    6.41    0.66
  -1  -7 -15    7.08    0.66
  -1  -7 -15    4.10    4.33
   1   7  15    6.70    0.55
   1   7  15    6.94    5.19
  -2  -7 -15    4.28    0.59
  -2  -7 -15    8.21    4.88
   2   7  15    5.22    0.47
   2   7  15    5.75    0.60
   2   7  15   -4.27    5.35
  -3  -7 -15    2.54    0.58
  -3  -7 -15    4.29    5.37
   3   7  15    3.27    0.42
   3   7  15    3.41    0.56
  -4  -7 -15   16.61    1.35
   4   7  15   15.70    1.10
   3  -8 -15    1.71    0.55
  -3   8  15    1.62    0.44
  -3   8  15    1.12    0.52
   2  -8 -15    3.86    0.61
  -2   8  15    3.54    0.46
   1  -8 -15    6.02    0.78
  -1   8  15    5.80    0.61
   0  -8 -15    0.53    0.49
   0   8  15    0.35    0.32
  -1  -8 -15    6.60    0.76
   1   8  15    5.58    0.63
   1   8  15    5.48    0.60
  -2  -8 -15    2.57    0.66
   2   8  15    2.55    0.54
  -3  -8 -15    1.86    0.86
   3   8  15    1.18    0.58
   1  -9 -15    8.51    0.99
  -1   9  15    7.86    0.90
   0  -9 -15    2.27    0.68
   0   9  15    1.94    0.54
  -1  -9 -15    6.51    0.91
   1   9  15    8.70    0.94
   1   9  15    7.71    0.82
   1   9 -16    3.23    0.67
   0   9 -16    0.46    0.49
   0   9 -16    1.67    1.10
  -1   9 -16    2.91    0.53
   3   8 -16   14.79    1.51
   3   8 -16   14.47    1.14
  -3  -8  16   15.35    0.97
   2   8 -16    3.66    0.72
   2   8 -16    3.13    0.56
  -2  -8  16    4.70    0.60
   1   8 -16   -0.15    0.46
   1   8 -16    0.01    0.39
   0   8 -16    1.71    0.53
   0   8 -16    1.45    0.40
   0   8 -16    1.43    0.54
  -1   8 -16    0.29    0.48
  -1   8 -16   -0.29    0.45
  -2   8 -16    2.63    0.63
  -2   8 -16    4.35    0.52
  -3   8 -16   15.44    1.16
  -3   8 -16   15.15    1.25
   4   7 -16   12.50    1.33
  -4  -7  16   14.18    1.07
   3   7 -16    3.79    0.62
   3   7 -16    4.73    0.76
  -3  -7  16    4.55    0.55
   2   7 -16    4.10    0.62
   2   7 -16    4.33    0.54
  -2  -7  16    3.93    0.49
  -2  -7  16    3.98    0.48
   1   7 -16    5.33    0.65
   1   7 -16    4.32    0.49
   1   7 -16    3.70    0.55
  -1  -7  16    4.05    0.30
  -1  -7  16    3.59    0.31
   0   7 -16    0.94    0.41
   0   7 -16    1.25    0.32
   0   7 -16    1.56    0.43
  -1   7 -16    4.39    0.49
  -1   7 -16    4.70    0.61
  -1   7 -16    4.28    0.43
   1  -7  16    0.85    2.30
  -2   7 -16    4.21    0.59
  -2   7 -16    3.71    0.39
  -2   7 -16    3.88    0.43
  -3   7 -16    3.87    0.65
  -3   7 -16    4.77    0.39
  -3   7 -16    4.09    0.59
  -4   7 -16   12.90    1.03
  -4   7 -16   11.36    1.07
   4   6 -16    7.41    0.94
   4   6 -16    7.87    0.91
  -4  -6  16    8.38    0.84
  -4  -6  16    7.16    0.65
   3   6 -16    6.96    0.76
   3   6 -16    8.85    0.77
  -3  -6  16    7.28    0.66
  -3  -6  16    7.81    0.64
  -3  -6  16    6.54    0.33
   2   6 -16   17.60    1.04
   2   6 -16   18.41    1.07
   2   6 -16   18.35    0.97
  -2  -6  16   18.75    0.87
  -2  -6  16   17.82    0.84
   1   6 -16    0.54    0.37
   1   6 -16    0.08    0.31
   1   6 -16    0.25    0.26
  -1  -6  16    0.29    0.15
  -1  -6  16   -0.15    0.33
  -1  -6  16    0.18    3.30
   0   6 -16   10.81    0.67
   0   6 -16    9.19    0.70
   0   6 -16   11.04    0.61
   0  -6  16    9.74    2.97
   0  -6  16    5.67    3.23
  -1   6 -16    0.58    0.20
  -1   6 -16   -0.21    0.32
  -1   6 -16    0.34    0.27
   1  -6  16    2.14    1.78
   1  -6  16    1.33    2.32
  -2   6 -16   18.16    0.99
  -2   6 -16   19.74    0.80
  -2   6 -16   19.22    0.72
  -2   6 -16   18.97    0.84
  -2   6 -16   19.59    1.09
  -3   6 -16    7.27    0.37
  -3   6 -16    7.24    0.50
  -3   6 -16    6.99    0.66
  -3   6 -16    7.65    0.74
  -3   6 -16    7.26    0.42
  -4   6 -16    6.93    0.66
  -4   6 -16    7.85    0.77
  -4   6 -16    7.18    0.82
   5   5 -16    0.02    0.62
   5   5 -16    1.07    0.61
   5   5 -16    1.38    0.58
  -5  -5  16    0.61    0.58
  -5  -5  16    0.42    0.40
   4   5 -16    6.29    0.81
   4   5 -16    5.07    0.68
  -4  -5  16    5.17    0.47
  -4  -5  16   10.06    6.84
  -4  -5  16    6.02    0.70
   3   5 -16    0.43    0.34
   3   5 -16    0.73    0.40
  -3  -5  16    0.70    4.81
  -3  -5  16    0.49    0.31
  -3  -5  16    0.22    0.34
  -3  -5  16    0.68    0.15
   2   5 -16    5.94    0.51
   2   5 -16    5.87    0.66
   2   5 -16    6.18    0.63
  -2  -5  16    5.83    0.44
  -2  -5  16    5.79    0.46
  -2  -5  16    3.96    3.70
  -2  -5  16    5.26    3.75
  -2  -5  16    6.39    0.58
   1   5 -16    6.70    0.51
   1   5 -16    5.43    0.54
   1   5 -16    6.05    0.57
  -1  -5  16    6.46    0.36
  -1  -5  16    4.66    2.92
  -1  -5  16    6.93    0.37
  -1  -5  16    6.75    0.55
  -1  -5  16    2.17    3.01
   0   5 -16    3.42    0.41
   0   5 -16    3.45    0.34
   0   5 -16    3.56    0.47
   0  -5  16    3.52    0.43
   0  -5  16    1.99    2.30
   0  -5  16    2.57    2.15
  -1   5 -16    6.50    0.40
  -1   5 -16    6.66    0.44
  -1   5 -16    6.85    0.57
   1  -5  16    8.69    2.02
   1  -5  16    8.13    1.76
  -2   5 -16    6.22    0.54
  -2   5 -16    6.20    0.58
  -2   5 -16    6.03    0.36
  -2   5 -16    5.58    0.37
  -2   5 -16    5.63    0.32
  -3   5 -16    0.86    0.30
  -3   5 -16    0.70    0.11
  -3   5 -16    1.04    0.37
  -3   5 -16    0.79    0.14
  -3   5 -16    0.65    0.24
  -4   5 -16    6.02    0.61
  -4   5 -16    5.37    0.62
  -4   5 -16    5.18    0.65
  -5   5 -16    0.65    0.53
  -5   5 -16    0.89    0.59
  -5   5 -16    0.65    0.42
   5   4 -16    1.22    0.49
   5   4 -16    1.05    0.49
   5   4 -16    2.13    0.60
  -5  -4  16    1.63    0.41
  -5  -4  16    0.85    0.45
  -4  -4  16   -7.12    5.39
  -4  -4  16    2.85    6.37
   3   4 -16    5.82    0.58
   3   4 -16    4.51    0.51
   3   4 -16    4.91    0.57
  -3  -4  16    4.26    0.58
  -3  -4  16    5.04    0.51
  -3  -4  16   -3.07    3.88
  -3  -4  16    4.46    4.62
  -3  -4  16    4.50    0.34
   2   4 -16    2.69    0.35
   2   4 -16    2.59    0.48
   2   4 -16    2.50    0.38
  -2  -4  16   -1.52    3.01
  -2  -4  16    2.61    0.31
  -2  -4  16   -3.19    2.98
  -2  -4  16    2.34    0.39
   1   4 -16   50.91    2.10
   1   4 -16   56.42    2.10
   1   4 -16   55.64    2.19
  -1  -4  16   58.94    2.00
  -1  -4  16   55.80    5.05
  -1  -4  16   51.66    5.07
  -1  -4  16   56.68    1.99
  -1  -4  16   55.54    2.15
   0   4 -16    1.55    0.34
   0   4 -16    1.42    0.21
   0   4 -16    1.60    0.31
   0   4 -16    1.04    0.22
   0  -4  16    1.20    0.26
   0  -4  16    0.81    1.73
   0  -4  16    1.19    1.85
  -1   4 -16   58.03    2.08
  -1   4 -16   58.21    2.07
  -1   4 -16   60.86    2.01
  -1   4 -16   56.02    2.27
  -1   4 -16   56.08    2.04
  -1   4 -16   54.15    2.19
   1  -4  16   60.64    3.57
   1  -4  16   58.57    3.49
  -2   4 -16    2.01    0.36
  -2   4 -16    2.13    0.31
  -2   4 -16    2.05    0.29
  -2   4 -16    2.27    0.19
  -3   4 -16    4.93    0.47
  -3   4 -16    4.06    0.44
  -3   4 -16    5.02    0.53
  -4   4 -16    0.96    0.32
  -4   4 -16    0.40    0.25
  -4   4 -16    0.85    0.36
  -5   4 -16    1.52    0.36
  -5   4 -16    1.44    0.56
  -5   4 -16    1.81    0.39
   6   3 -16    1.65    0.73
   6   3 -16    1.50    0.73
  -6  -3  16    2.03    0.59
   5   3 -16    2.48    0.45
   5   3 -16    2.50    0.58
   5   3 -16    2.21    0.52
  -5  -3  16    1.95    0.42
  -5  -3  16    1.94    0.49
   4   3 -16   24.84    1.18
   4   3 -16   22.78    1.20
   4   3 -16   24.85    1.21
   4   3 -16   25.15    1.25
  -4  -3  16   18.07    5.81
  -4  -3  16   33.74    6.52
  -4  -3  16   23.29    1.13
  -4  -3  16   23.71    1.08
  -4  -3  16   25.01    1.23
  -4  -3  16   22.89    1.18
   3   3 -16    7.21    0.63
   3   3 -16    7.88    0.62
   3   3 -16    7.38    0.56
   3   3 -16    7.46    0.61
  -3  -3  16    6.98    0.63
  -3  -3  16    7.18    3.78
  -3  -3  16    8.52    3.94
  -3  -3  16    7.34    0.55
  -3  -3  16    8.18    0.56
  -3  -3  16    8.10    0.46
   2   3 -16    1.81    0.34
   2   3 -16    2.10    0.33
   2   3 -16    1.67    0.24
   2   3 -16    1.57    0.32
   2   3 -16    1.73    0.32
  -2  -3  16    4.33    2.90
  -2  -3  16    2.03    2.84
  -2  -3  16    1.64    0.27
  -2  -3  16    1.62    0.23
  -2  -3  16    1.66    0.19
  -2  -3  16    1.12    0.28
   1   3 -16    0.54    0.24
   1   3 -16    0.55    0.21
   1   3 -16    0.85    0.27
   1   3 -16    0.50    0.20
  -1  -3  16   -1.37    2.03
  -1  -3  16   -2.36    1.89
  -1  -3  16    0.85    0.25
   0   3 -16    0.21    0.15
   0   3 -16    0.04    0.22
   0   3 -16    0.17    0.19
   0   3 -16    0.25    0.09
   0   3 -16   -0.08    0.13
   0  -3  16    0.43    0.20
   0  -3  16    0.16    0.07
   0  -3  16    1.43    1.57
   0  -3  16    3.21    1.75
   0  -3  16    0.27    0.06
  -1   3 -16    0.78    0.14
  -1   3 -16    0.69    0.13
  -1   3 -16    1.11    0.27
  -1   3 -16    0.68    0.22
   1  -3  16   -1.68    1.07
   1  -3  16    0.45    1.06
   1  -3  16    0.79    0.20
  -2   3 -16    2.15    0.34
  -2   3 -16    1.37    0.24
  -2   3 -16    1.41    0.16
  -2   3 -16    1.57    0.14
  -3   3 -16    7.58    0.59
  -3   3 -16    7.51    0.31
  -3   3 -16    8.13    0.49
  -3   3 -16    7.71    0.56
  -4   3 -16   23.88    1.09
  -4   3 -16   22.63    0.84
  -4   3 -16   23.12    1.20
  -4   3 -16   24.14    1.00
  -4   3 -16   23.30    0.86
  -5   3 -16    1.77    0.30
  -5   3 -16    2.39    0.25
  -5   3 -16    1.64    0.56
  -5   3 -16    1.92    0.36
  -6   3 -16    1.69    0.76
   6   2 -16    7.74    0.84
  -6  -2  16    9.17    1.01
  -6  -2  16    8.51    0.91
   5   2 -16    0.76    0.58
   5   2 -16    0.41    0.45
   5   2 -16    0.13    0.31
   5   2 -16    0.12    0.38
  -5  -2  16   -3.02    6.49
  -5  -2  16    0.94    0.44
  -5  -2  16    0.38    0.38
   4   2 -16   14.28    0.89
   4   2 -16   11.57    0.85
   4   2 -16   14.06    0.89
   4   2 -16   13.61    0.79
   4   2 -16   13.67    0.83
  -4  -2  16   12.94    0.87
  -4  -2  16   14.81    0.77
  -4  -2  16   15.25    6.28
  -4  -2  16   16.28    5.03
  -4  -2  16   14.52    0.81
  -4  -2  16   12.54    0.81
   3   2 -16    4.16    0.48
   3   2 -16    4.27    0.44
   3   2 -16    5.52    0.51
   3   2 -16    4.55    0.47
   3   2 -16    4.03    0.48
  -3  -2  16    4.95    0.37
  -3  -2  16    4.74    0.40
  -3  -2  16    4.60    0.50
  -3  -2  16    4.72    3.74
  -3  -2  16    3.96    0.47
  -3  -2  16   10.10    3.46
   2   2 -16   24.40    1.03
   2   2 -16   22.52    1.03
   2   2 -16   23.84    1.06
   2   2 -16   22.00    0.97
   2   2 -16   23.31    1.07
  -2  -2  16   23.64    0.92
  -2  -2  16   23.87    1.06
  -2  -2  16   21.84    0.98
  -2  -2  16   21.66    0.93
  -2  -2  16   20.30    3.57
  -2  -2  16   19.61    3.63
   1   2 -16   15.26    0.66
   1   2 -16   14.48    0.70
   1   2 -16   14.16    0.71
   1   2 -16   15.93    0.78
   1   2 -16   15.29    0.78
  -1  -2  16   15.00    2.62
  -1  -2  16   15.40    0.63
  -1  -2  16   16.90    0.77
  -1  -2  16   15.19    0.67
   0   2 -16   55.01    2.06
   0   2 -16   61.13    2.03
   0   2 -16   55.36    2.05
   0   2 -16   59.54    2.20
   0   2 -16   59.51    2.15
   0  -2  16   49.96    3.99
   0  -2  16   57.04    1.98
   0  -2  16   57.41    1.96
   0  -2  16   50.46    2.17
   0  -2  16   60.67    3.79
  -1   2 -16   15.14    0.61
  -1   2 -16   15.37    0.70
  -1   2 -16   15.26    0.59
  -1   2 -16   14.50    0.77
   1  -2  16   11.99    1.78
   1  -2  16   14.03    0.66
   1  -2  16   13.97    1.97
  -2   2 -16   22.06    0.94
  -2   2 -16   23.23    0.84
  -2   2 -16   21.96    1.03
  -2   2 -16   22.58    0.85
   2  -2  16   25.20    1.49
   2  -2  16   22.94    1.66
  -3   2 -16    4.72    0.45
  -3   2 -16    4.23    0.21
  -3   2 -16    4.61    0.33
  -3   2 -16    4.40    0.23
  -4   2 -16   13.53    0.74
  -4   2 -16   13.08    0.57
  -4   2 -16   13.38    0.90
  -4   2 -16   13.51    0.61
  -4   2 -16   13.46    0.54
  -5   2 -16    0.30    0.48
  -5   2 -16   -0.04    0.18
  -5   2 -16    0.50    0.19
  -5   2 -16   -0.01    0.28
  -5   2 -16   -0.20    0.22
  -6   2 -16    6.99    0.97
   6   1 -16    1.20    0.56
  -6  -1  16    0.40    0.49
  -6  -1  16    0.45    0.55
   5   1 -16    1.86    0.45
   5   1 -16    2.72    0.71
   5   1 -16    1.60    0.32
   5   1 -16    0.84    0.43
  -5  -1  16    2.78    0.47
  -5  -1  16    2.45    0.46
  -5  -1  16   -2.13    6.39
   4   1 -16   11.70    0.82
   4   1 -16   11.08    0.76
   4   1 -16    8.80    0.77
   4   1 -16   11.72    0.65
   4   1 -16    9.54    0.66
  -4  -1  16   10.15    0.63
  -4  -1  16    9.82    0.77
  -4  -1  16    7.56    4.45
  -4  -1  16    9.22    0.69
  -4  -1  16    9.72    0.65
   3   1 -16   66.42    2.62
   3   1 -16   65.84    2.63
   3   1 -16   71.01    2.68
   3   1 -16   68.19    2.60
   3   1 -16   74.34    2.62
  -3  -1  16   80.12    6.79
  -3  -1  16   66.73    2.66
  -3  -1  16   69.17    2.56
  -3  -1  16   59.30    6.71
  -3  -1  16   75.25    2.57
  -3  -1  16   67.97    2.61
   2   1 -16    9.89    0.55
   2   1 -16    9.72    0.60
   2   1 -16    9.86    0.58
   2   1 -16    9.87    0.56
   2   1 -16    9.48    0.56
  -2  -1  16    9.99    0.51
  -2  -1  16   15.40    3.10
  -2  -1  16    7.90    2.80
  -2  -1  16   10.39    0.55
  -2  -1  16    8.54    0.59
  -2  -1  16   10.70    0.51
   1   1 -16   19.76    0.93
   1   1 -16   19.06    0.85
   1   1 -16   22.93    0.98
   1   1 -16   22.10    0.90
  -1  -1  16   21.24    0.82
  -1  -1  16   21.18    0.87
  -1  -1  16   21.48    0.94
  -1  -1  16   20.76    0.84
   0   1 -16    2.45    0.21
   0   1 -16    2.12    0.27
   0   1 -16    2.48    1.44
   0   1 -16    1.96    0.20
   0   1 -16    2.03    0.20
   0   1 -16    2.31    0.30
   0  -1  16    2.05    0.26
   0  -1  16    2.17    0.20
   0  -1  16    1.61    1.29
   0  -1  16    1.77    0.14
  -1   1 -16   21.62    0.88
  -1   1 -16   22.75    2.31
  -1   1 -16   20.75    0.97
  -1   1 -16   21.52    0.80
  -1   1 -16   21.24    0.83
   1  -1  16   20.24    0.85
   1  -1  16   23.56    2.06
  -2   1 -16   10.51    1.53
  -2   1 -16   10.11    0.48
  -2   1 -16   10.21    0.43
  -2   1 -16    9.81    0.41
  -2   1 -16    9.86    0.60
   2  -1  16   11.58    1.64
  -3   1 -16   69.86    2.58
  -3   1 -16   68.37    2.41
  -3   1 -16   68.70    2.39
  -3   1 -16   68.63    3.29
  -3   1 -16   69.27    2.43
   3  -1  16   67.50    3.51
  -4   1 -16   10.86    0.47
  -4   1 -16    9.51    0.61
  -4   1 -16    9.78    0.50
  -4   1 -16    9.49    1.30
  -4   1 -16    9.57    0.42
  -5   1 -16    1.56    1.91
  -5   1 -16    2.31    0.27
  -5   1 -16    2.02    0.34
  -5   1 -16    2.07    0.55
  -5   1 -16    0.25    1.34
  -5   1 -16    2.11    0.32
  -6   1 -16    0.42    0.40
  -6   1 -16    0.13    0.61
   6   0 -16   -0.22    0.48
  -6   0  16    0.12    0.51
  -6   0  16    0.22    0.46
   5   0 -16   17.45    0.87
   5   0 -16   18.13    0.97
  -5   0  16   18.81    1.07
  -5   0  16   17.59    0.95
  -5   0  16   25.99    6.41
   4   0 -16   67.75    2.51
   4   0 -16   69.35    2.56
   4   0 -16   66.82    2.69
   4   0 -16   65.96    2.60
  -4   0  16   66.33    6.93
  -4   0  16   61.30    2.93
  -4   0  16   64.18    2.65
  -4   0  16   69.36    2.53
  -4   0  16   68.72    2.59
  -4   0  16   77.69    7.70
   3   0 -16   83.33    3.19
   3   0 -16   85.33    3.17
   3   0 -16   88.07    3.25
   3   0 -16   89.36    3.25
   3   0 -16   86.96    3.17
  -3   0  16   80.55    6.40
  -3   0  16   90.76    3.17
  -3   0  16   93.93    3.15
  -3   0  16   85.73    3.19
  -3   0  16   76.96    7.02
  -3   0  16   82.53    3.24
   2   0 -16    0.04    0.20
   2   0 -16    0.17    0.18
   2   0 -16    0.12    0.16
   2   0 -16    0.13    0.18
   2   0 -16    0.20    0.18
   2   0 -16    1.55    2.21
  -2   0  16    0.14    0.22
  -2   0  16    0.06    0.18
  -2   0  16    0.13    0.13
  -2   0  16    0.27    1.87
  -2   0  16    0.15    0.13
   1   0 -16   19.77    0.82
   1   0 -16   17.95    2.82
   1   0 -16   20.97    0.91
   1   0 -16   20.61    0.88
   1   0 -16   18.22    0.82
   1   0 -16   18.15    0.81
  -1   0  16   18.46    0.79
  -1   0  16   17.44    2.68
  -1   0  16   17.97    0.88
  -1   0  16   20.79    0.84
  -1   0  16   18.73    0.76
   0   0 -16  266.40    8.81
   0   0 -16  252.99    8.73
   0   0 -16  248.95    8.69
   0   0 -16  249.60    8.66
   0   0 -16  250.13    8.69
   0   0 -16  262.64   10.83
   0   0  16  259.89    8.72
   0   0  16  252.93    8.67
   0   0  16  238.53    8.62
   0   0  16  257.49    8.80
  -1   0 -16   20.02    2.80
  -1   0 -16   19.60    0.79
  -1   0 -16   19.76    0.90
  -1   0 -16   19.58    0.74
  -1   0 -16   19.42    0.77
   1   0  16   18.59    0.72
   1   0  16   17.26    2.00
   1   0  16   18.70    0.77
   1   0  16   18.68    0.89
   1   0  16   19.08    0.70
  -2   0 -16    0.03    0.10
  -2   0 -16    0.20    0.09
  -2   0 -16    0.11    0.09
  -2   0 -16   -0.66    1.11
  -2   0 -16    0.31    0.21
   2   0  16    0.14    0.08
   2   0  16    0.02    0.19
   2   0  16    1.30    1.19
  -3   0 -16   90.41    3.18
  -3   0 -16   87.14    3.14
  -3   0 -16   89.16    3.30
   3   0  16   90.37    3.31
   3   0  16   97.25    5.05
  -4   0 -16   68.43    4.06
  -4   0 -16   67.36    2.60
  -4   0 -16   69.57    2.52
  -4   0 -16   70.70    2.53
   4   0  16   70.89    2.63
   4   0  16   68.80    4.97
  -5   0 -16   18.27    1.21
  -5   0 -16   19.48    0.93
  -5   0 -16   17.63    0.85
  -5   0 -16   20.25    0.95
  -6   0 -16    0.56    0.67
  -6   0 -16    0.71    0.46
   6  -1 -16   -0.16    0.43
  -6   1  16    1.72    0.47
  -6   1  16   -0.38    0.49
   5  -1 -16    2.12    0.40
   5  -1 -16    2.25    0.32
  -5   1  16    2.61    0.46
  -5   1  16    1.87    0.38
  -5   1  16    3.81    6.15
   4  -1 -16   10.73    0.67
   4  -1 -16   10.07    0.61
   4  -1 -16    9.92    0.72
   4  -1 -16   10.12    0.84
  -4   1  16   11.71    0.64
  -4   1  16   11.89    0.72
  -4   1  16   12.43    4.12
  -4   1  16   10.42    0.72
  -4   1  16   10.24    4.58
  -4   1  16    9.24    0.79
   3  -1 -16   69.93    6.27
   3  -1 -16   72.38    2.73
   3  -1 -16   69.61    2.63
   3  -1 -16   71.61    2.63
  -3   1  16   67.83    5.87
  -3   1  16   68.26    2.58
  -3   1  16   75.19    2.65
  -3   1  16   69.10    2.66
  -3   1  16   70.81    2.72
   2  -1 -16    9.51    0.59
   2  -1 -16    9.41    0.57
   2  -1 -16   10.66    0.58
   2  -1 -16    9.77    0.54
   2  -1 -16    8.42    2.58
   2  -1 -16   10.13    0.56
  -2   1  16   10.95    0.61
  -2   1  16    9.90    0.58
  -2   1  16    8.75    2.55
  -2   1  16    9.36    0.49
  -2   1  16   10.37    0.62
  -2   1  16    9.90    0.53
   1  -1 -16   22.20    0.99
   1  -1 -16   21.13    0.89
   1  -1 -16   19.87    0.95
   1  -1 -16   20.82    0.93
   1  -1 -16   21.23    3.13
   1  -1 -16   21.17    0.89
  -1   1  16   22.14    0.85
  -1   1  16   21.56    0.98
  -1   1  16   20.92    3.08
  -1   1  16   21.81    0.89
   0  -1 -16    1.73    0.23
   0  -1 -16    1.80    0.19
   0  -1 -16    2.41    0.24
   0  -1 -16    1.97    0.29
   0  -1 -16    1.66    0.21
   0  -1 -16    2.04    1.47
   0   1  16    2.83    1.46
   0   1  16    2.44    0.25
   0   1  16    2.22    0.18
   0   1  16    2.10    0.27
   0   1  16    1.97    0.30
  -1  -1 -16   22.23    0.88
  -1  -1 -16   22.34    1.00
  -1  -1 -16   23.50    3.55
  -1  -1 -16   21.71    0.85
   1   1  16   22.07    0.86
   1   1  16   21.60    0.99
   1   1  16   23.85    2.50
   1   1  16   21.69    0.86
   1   1  16   21.19    0.82
  -2  -1 -16   10.03    0.45
  -2  -1 -16    8.78    1.82
  -2  -1 -16    9.94    0.49
  -2  -1 -16    9.73    0.59
   2   1  16   10.66    2.03
   2   1  16    9.65    0.39
   2   1  16    9.44    0.60
   2   1  16    9.93    0.41
   2   1  16    9.87    0.42
  -3  -1 -16   70.05    2.58
  -3  -1 -16   70.63    2.48
  -3  -1 -16   60.26    4.12
   3   1  16   61.05    4.72
   3   1  16   71.04    2.60
  -4  -1 -16   10.37    0.61
  -4  -1 -16   10.73    2.10
  -4  -1 -16   11.07    0.67
  -4  -1 -16    9.74    0.53
   4   1  16   11.92    3.15
   4   1  16   11.29    0.72
  -5  -1 -16    2.76    0.34
  -5  -1 -16    1.70    0.36
  -5  -1 -16    1.81    0.39
   5   1  16    2.31    0.44
  -6  -1 -16    1.45    0.77
  -6  -1 -16    0.64    0.48
  -6  -1 -16   -0.21    0.60
   6  -2 -16    8.79    0.78
  -6   2  16    6.75    0.97
  -6   2  16    6.83    0.75
   5  -2 -16    0.49    0.37
   5  -2 -16   -0.06    0.44
   5  -2 -16    0.15    0.24
  -5   2  16   -0.01    0.36
  -5   2  16    3.02    6.26
  -5   2  16   -0.14    0.30
   4  -2 -16   12.20    0.92
   4  -2 -16   14.52    0.74
   4  -2 -16   12.85    0.70
   4  -2 -16   13.57    0.82
   4  -2 -16    8.99    4.62
  -4   2  16   14.46    4.26
  -4   2  16   12.34    0.93
  -4   2  16   14.45    0.72
  -4   2  16   12.06    0.82
  -4   2  16   13.89    0.79
   3  -2 -16    4.04    0.41
   3  -2 -16    3.32    0.43
   3  -2 -16    3.33    0.49
   3  -2 -16    6.25    3.51
   3  -2 -16    4.47    0.39
  -3   2  16    4.00    0.45
  -3   2  16    4.47    0.54
  -3   2  16    4.37    0.36
  -3   2  16    3.98    0.44
  -3   2  16    3.57    0.39
  -3   2  16    1.32    2.73
   2  -2 -16   23.82    1.00
   2  -2 -16   17.52    3.38
   2  -2 -16   25.48    1.06
   2  -2 -16   21.43    0.99
   2  -2 -16   23.89    1.06
  -2   2  16   22.61    1.02
  -2   2  16   23.38    0.96
  -2   2  16   18.88    3.45
  -2   2  16   22.80    1.04
  -2   2  16   25.01    1.03
  -2   2  16   23.33    1.08
   1  -2 -16   11.95    2.72
   1  -2 -16   15.66    0.69
   1  -2 -16   14.54    0.69
   1  -2 -16   15.70    0.73
   1  -2 -16   15.02    0.77
  -1   2  16   15.14    0.78
  -1   2  16   14.34    0.69
  -1   2  16   14.82    0.70
  -1   2  16   14.89    0.65
  -1   2  16   15.32    0.74
   0  -2 -16   48.24    2.10
   0  -2 -16   51.84    4.06
   0  -2 -16   61.20    2.08
   0  -2 -16   57.32    2.01
   0  -2 -16   55.05    2.03
   0   2  16   56.17    2.14
   0   2  16   50.59    3.86
   0   2  16   58.80    2.05
   0   2  16   52.88    1.98
   0   2  16   56.60    2.06
  -1  -2 -16   14.81    0.70
  -1  -2 -16   15.46    0.78
  -1  -2 -16   14.67    0.63
  -1  -2 -16   14.25    0.67
  -1  -2 -16   12.51    2.41
   1   2  16   15.15    0.62
   1   2  16   14.44    0.66
   1   2  16   15.83    0.80
   1   2  16   15.24    0.65
   1   2  16   16.33    2.37
  -2  -2 -16   24.03    3.10
  -2  -2 -16   23.78    0.97
  -2  -2 -16   21.76    0.89
  -2  -2 -16   22.47    1.05
   2   2  16   23.55    1.08
   2   2  16   22.76    3.10
   2   2  16   23.22    0.89
   2   2  16   22.43    0.82
   2   2  16   22.45    0.90
  -3  -2 -16    4.57    0.40
  -3  -2 -16    2.50    1.81
  -3  -2 -16    4.79    0.49
   3   2  16    4.27    2.39
   3   2  16    4.06    0.29
   3   2  16    4.38    0.28
   3   2  16    4.26    0.49
  -4  -2 -16   13.54    0.67
  -4  -2 -16   16.41    2.94
  -4  -2 -16   13.53    0.77
  -4  -2 -16   13.41    0.80
   4   2  16   19.19    3.97
   4   2  16   13.34    0.86
  -5  -2 -16    0.34    0.30
  -5  -2 -16   -0.25    0.34
  -5  -2 -16   -0.01    0.34
   5   2  16    0.26    0.46
  -6  -2 -16    6.53    1.09
  -6  -2 -16    8.49    0.94
   6  -3 -16    1.03    0.52
  -6   3  16    2.63    0.84
   5  -3 -16    1.03    0.54
   5  -3 -16    1.87    0.43
   5  -3 -16    1.98    0.32
  -5   3  16    1.80    0.45
  -5   3  16    2.08    0.42
   4  -3 -16   24.21    5.51
   4  -3 -16   21.93    1.17
   4  -3 -16   22.61    1.08
   4  -3 -16   22.58    1.03
  -4   3  16   19.16    5.17
  -4   3  16   24.18    1.05
  -4   3  16   24.09    1.16
  -4   3  16   24.08    1.08
   3  -3 -16    7.35    3.49
   3  -3 -16    8.86    0.57
   3  -3 -16    8.72    0.53
   3  -3 -16    7.39    0.69
   3  -3 -16    7.12    0.56
  -3   3  16    7.70    0.48
  -3   3  16    6.92    0.58
  -3   3  16    7.60    0.59
  -3   3  16    9.27    0.59
  -3   3  16    7.87    0.70
  -3   3  16    5.26    3.43
   2  -3 -16    1.84    0.32
   2  -3 -16    1.87    0.31
   2  -3 -16    1.87    0.27
   2  -3 -16    1.25    0.26
   2  -3 -16    0.96    2.74
  -2   3  16    1.69    0.28
  -2   3  16    1.61    0.23
  -2   3  16    1.27    0.27
  -2   3  16   -0.13    1.93
  -2   3  16    1.66    0.33
  -2   3  16    1.35    0.33
   1  -3 -16    0.43    0.21
   1  -3 -16    4.10    2.22
   1  -3 -16    0.85    0.20
   1  -3 -16    1.01    0.24
   1  -3 -16    0.81    0.21
  -1   3  16    3.57    2.01
  -1   3  16    0.86    0.20
  -1   3  16    0.54    0.14
  -1   3  16    0.13    0.18
  -1   3  16    0.64    0.24
  -1   3  16    0.83    0.26
   0  -3 -16   -0.04    0.14
   0  -3 -16    3.06    2.05
   0  -3 -16    0.31    0.17
   0  -3 -16    0.26    0.21
   0  -3 -16    0.20    0.14
   0   3  16    0.35    0.18
   0   3  16   -0.12    0.21
   0   3  16    0.20    0.14
   0   3  16    0.32    0.18
   0   3  16    1.38    1.69
  -1  -3 -16    0.78    0.16
  -1  -3 -16   -0.12    1.73
  -1  -3 -16    0.74    0.26
  -1  -3 -16    0.98    0.22
  -1  -3 -16    0.73    0.21
   1   3  16    0.90    1.70
   1   3  16    0.71    0.19
   1   3  16    0.92    0.18
   1   3  16    0.66    0.26
   1   3  16    0.71    0.16
  -2  -3 -16    1.88    0.23
  -2  -3 -16    1.22    0.25
  -2  -3 -16    3.63    2.00
  -2  -3 -16    1.49    0.32
   2   3  16   -2.26    2.14
   2   3  16    2.15    0.24
   2   3  16    1.24    0.35
   2   3  16    1.45    0.18
  -3  -3 -16    8.20    2.39
  -3  -3 -16    7.81    0.54
  -3  -3 -16    7.79    0.48
  -3  -3 -16    7.97    0.63
   3   3  16    7.01    0.67
   3   3  16    7.86    0.48
   3   3  16    8.99    3.11
   3   3  16    8.40    0.46
  -4  -3 -16   22.09    1.01
  -4  -3 -16   24.21    1.16
  -4  -3 -16   23.60    1.13
  -4  -3 -16   22.48    3.80
   4   3  16   23.42    1.21
   4   3  16   23.70    0.95
   4   3  16   23.38    0.96
  -5  -3 -16    1.34    0.49
  -5  -3 -16    1.93    0.45
   5   3  16    1.82    0.54
  -6  -3 -16    3.78    0.70
   5  -4 -16    1.75    0.45
  -5   4  16    2.05    0.40
  -5   4  16    1.52    0.48
   4  -4 -16    0.86    0.30
   4  -4 -16    1.02    0.32
   4  -4 -16    0.97    0.43
  -4   4  16    0.53    0.34
  -4   4  16    0.80    0.27
  -4   4  16    0.17    0.34
   3  -4 -16    0.91    3.65
   3  -4 -16    4.50    0.66
   3  -4 -16    4.95    0.48
   3  -4 -16    4.26    0.48
   3  -4 -16    4.96    0.50
  -3   4  16    4.83    0.40
  -3   4  16    4.59    0.51
  -3   4  16    7.63    3.66
  -3   4  16    5.46    0.63
  -3   4  16    4.60    0.50
  -3   4  16    4.68    0.58
   2  -4 -16    2.20    0.33
   2  -4 -16    2.64    0.41
   2  -4 -16    2.24    0.36
   2  -4 -16    2.04    0.31
   2  -4 -16    1.44    2.86
  -2   4  16    1.31    2.70
  -2   4  16    1.82    0.37
  -2   4  16    2.14    0.35
  -2   4  16    2.19    0.37
  -2   4  16    1.75    0.39
  -2   4  16    2.11    0.38
   1  -4 -16   56.53    2.12
   1  -4 -16   54.29    5.29
   1  -4 -16   58.41    2.24
   1  -4 -16   57.14    2.16
   1  -4 -16   53.03    2.17
  -1   4  16   57.76    2.25
  -1   4  16   60.28    2.22
  -1   4  16   54.57    2.08
  -1   4  16   55.82    2.16
  -1   4  16   68.98    5.15
   0  -4 -16    1.46    0.32
   0  -4 -16    1.17    0.26
   0  -4 -16   -1.63    2.44
   0  -4 -16    0.90    0.20
   0  -4 -16    1.38    0.26
   0   4  16   -0.03    2.14
   0   4  16    1.01    0.25
   0   4  16    1.30    0.27
   0   4  16    0.95    0.31
  -1  -4 -16   58.35    2.20
  -1  -4 -16   54.62    2.26
  -1  -4 -16   56.45    2.11
  -1  -4 -16   59.08    2.19
   1   4  16   51.67    5.06
   1   4  16   56.76    2.11
   1   4  16   60.95    2.16
   1   4  16   59.50    2.13
   1   4  16   56.39    2.29
  -2  -4 -16    4.39    2.44
  -2  -4 -16    2.45    0.35
  -2  -4 -16    2.27    0.39
  -2  -4 -16    2.44    0.28
   2   4  16    2.70    0.33
   2   4  16    1.93    0.25
   2   4  16    2.67    2.86
   2   4  16    2.62    0.32
   2   4  16    2.13    0.41
  -3  -4 -16    4.18    0.48
  -3  -4 -16    4.23    0.69
  -3  -4 -16    3.63    0.41
  -3  -4 -16    1.72    2.80
   3   4  16    5.24    0.67
   3   4  16    5.33    0.47
   3   4  16    4.22    3.60
   3   4  16    4.50    0.41
  -4  -4 -16    0.84    0.38
  -4  -4 -16    0.88    0.42
   4   4  16    0.35    0.48
   4   4  16    0.78    0.30
   4   4  16    1.01    0.27
  -5  -4 -16    1.75    0.58
   5   4  16    1.22    0.63
   5   4  16    1.18    0.32
   5  -5 -16    0.16    0.45
  -5   5  16    0.25    0.49
  -5   5  16    0.84    0.38
   4  -5 -16    5.69    0.63
   4  -5 -16    6.35    0.61
  -4   5  16    7.67    0.72
  -4   5  16    5.64    0.51
  -4   5  16    5.12    0.66
   3  -5 -16    1.24    0.37
   3  -5 -16    0.61    0.34
   3  -5 -16    2.20    4.61
   3  -5 -16    0.91    0.31
  -3   5  16    0.81    0.25
  -3   5  16   -1.95    3.59
  -3   5  16    1.06    0.33
  -3   5  16    0.31    0.37
   2  -5 -16    5.34    0.58
   2  -5 -16    6.35    0.51
   2  -5 -16    5.98    0.58
   2  -5 -16    1.25    3.69
   2  -5 -16    5.72    0.50
  -2   5  16    5.91    0.54
  -2   5  16    6.26    0.64
  -2   5  16    6.70    0.52
  -2   5  16    5.53    0.44
  -2   5  16    5.90    0.61
  -2   5  16    7.92    3.27
   1  -5 -16    7.30    0.63
   1  -5 -16    6.01    0.54
   1  -5 -16    6.52    0.47
   1  -5 -16    6.11    3.12
  -1   5  16    5.87    0.51
  -1   5  16    6.48    0.65
  -1   5  16    7.49    0.46
  -1   5  16    5.89    3.13
  -1   5  16    6.26    0.55
   0  -5 -16    3.66    0.42
   0  -5 -16    3.78    0.52
   0  -5 -16    3.67    0.35
   0  -5 -16    2.01    2.89
   0   5  16    3.43    0.41
   0   5  16    3.93    0.34
   0   5  16    7.04    3.45
   0   5  16    3.46    0.49
   0   5  16    3.11    0.43
  -1  -5 -16    6.54    0.59
  -1  -5 -16    7.46    0.58
  -1  -5 -16    6.80    0.44
  -1  -5 -16    5.07    3.13
  -1  -5 -16    6.61    0.54
   1   5  16    6.65    0.45
   1   5  16    6.27    0.53
   1   5  16    6.78    0.65
   1   5  16    9.66    3.07
  -2  -5 -16    6.18    0.61
  -2  -5 -16    5.75    0.52
  -2  -5 -16    2.97    3.22
  -2  -5 -16    5.56    0.43
  -2  -5 -16    5.67    0.53
   2   5  16    6.48    0.50
   2   5  16    8.73    4.12
   2   5  16    5.06    0.70
   2   5  16    6.04    0.42
   2   5  16    6.36    0.48
  -3  -5 -16   -0.66    3.39
  -3  -5 -16    0.23    0.28
  -3  -5 -16    0.50    0.37
  -3  -5 -16    0.15    0.32
   3   5  16    0.81    0.33
   3   5  16    0.69    0.49
   3   5  16    0.54    0.12
   3   5  16    8.98    4.84
  -4  -5 -16    6.66    0.79
  -4  -5 -16    6.49    0.72
   4   5  16    6.15    0.66
   4   5  16    5.15    0.60
  -5  -5 -16    0.30    0.63
   5   5  16    0.65    0.44
   4  -6 -16    5.64    0.70
  -4   6  16    9.52    0.89
  -4   6  16    7.85    0.74
  -4   6  16    6.44    0.57
   3  -6 -16    7.69    0.71
   3  -6 -16    6.77    0.67
   3  -6 -16    5.77    0.69
  -3   6  16    7.90    0.54
  -3   6  16    8.32    0.83
  -3   6  16    6.57    0.62
   2  -6 -16   19.05    4.98
   2  -6 -16   20.02    0.99
   2  -6 -16   18.18    0.99
   2  -6 -16   18.88    1.07
  -2   6  16   19.74    1.15
  -2   6  16   23.10    4.71
  -2   6  16   17.75    1.09
  -2   6  16   18.43    0.87
  -2   6  16   19.22    0.98
   1  -6 -16   -0.01    3.45
   1  -6 -16    0.34    0.32
   1  -6 -16    0.13    0.25
   1  -6 -16   -0.34    0.29
   1  -6 -16   -0.10    0.33
  -1   6  16   -0.23    0.39
  -1   6  16    0.52    0.22
  -1   6  16   -0.38    3.48
  -1   6  16    0.68    0.30
   0  -6 -16   12.97    0.76
   0  -6 -16   10.58    0.83
   0  -6 -16   10.60    0.62
   0  -6 -16   10.98    0.73
   0   6  16   10.91    0.62
   0   6  16   11.84    0.75
   0   6  16   10.81    0.84
   0   6  16    8.70    3.94
  -1  -6 -16    0.02    0.22
  -1  -6 -16    0.50    0.29
  -1  -6 -16   -0.80    3.40
  -1  -6 -16    0.37    0.32
  -1  -6 -16    0.74    0.37
   1   6  16    0.75    0.42
   1   6  16    0.72    0.25
   1   6  16    0.48    0.33
   1   6  16    3.68    3.67
  -2  -6 -16   18.01    4.64
  -2  -6 -16   20.42    1.09
  -2  -6 -16   19.70    1.14
  -2  -6 -16   17.91    1.02
   2   6  16   19.08    0.94
   2   6  16   18.82    0.83
   2   6  16   20.00    5.54
   2   6  16   17.35    0.98
  -3  -6 -16    8.85    0.76
  -3  -6 -16    8.00    0.84
  -3  -6 -16    9.04    4.27
   3   6  16    6.73    5.94
   3   6  16    8.08    0.66
   3   6  16    6.25    0.44
   3   6  16    6.80    0.40
   3   6  16    7.02    0.69
  -4  -6 -16    8.44    0.97
   4   6  16    9.21    0.78
   4  -7 -16   14.04    0.99
  -4   7  16   13.54    0.90
  -4   7  16   14.46    1.06
   3  -7 -16    4.98    0.63
  -3   7  16    4.42    0.51
  -3   7  16    4.91    0.68
   2  -7 -16    3.34    0.56
  -2   7  16    4.05    0.45
   1  -7 -16    3.97    0.61
   1  -7 -16    3.01    0.48
   0  -7 -16    1.18    0.44
   0  -7 -16    1.63    0.42
   0  -7 -16   -0.15    4.51
   0   7  16    1.46    4.61
   0   7  16    1.02    0.30
  -1  -7 -16    4.55    0.60
  -1  -7 -16    1.08    3.91
  -1  -7 -16    3.53    0.55
   1   7  16    4.04    0.47
   1   7  16    5.75    4.99
  -2  -7 -16   -0.29    4.79
  -2  -7 -16    2.64    0.58
   2   7  16    4.21    0.51
   2   7  16    3.82    0.44
   2   7  16    4.06    6.72
  -3  -7 -16    4.76    0.73
   3   7  16    4.07    0.49
   3   7  16    6.30    0.74
   4   7  16   14.30    1.07
   3  -8 -16   15.89    1.08
  -3   8  16   13.36    1.06
  -3   8  16   13.90    0.98
   2  -8 -16    3.24    0.58
  -2   8  16    4.02    0.50
   1  -8 -16   -0.31    0.44
  -1   8  16    0.88    0.38
   0  -8 -16    0.92    0.53
   0   8  16    1.06    0.36
  -1  -8 -16   -0.06    0.46
   1   8  16    0.02    0.36
  -2  -8 -16    4.33    0.69
   2   8  16    3.58    0.55
   3   8  16   15.96    1.08
   1  -9 -16    2.19    0.71
   0  -9 -16   -0.73    0.62
  -1  -9 -16    1.38    0.74
   1   9  16    2.76    0.55
   0   9 -17    0.54    0.50
   2   8 -17   16.21    1.14
   2   8 -17   15.08    1.22
  -2  -8  17   16.61    0.84
   1   8 -17    1.28    0.54
   1   8 -17    1.57    0.46
   0   8 -17    9.29    1.09
   0   8 -17   11.05    1.00
   0   8 -17    8.31    0.73
  -1   8 -17    1.06    0.54
  -1   8 -17    0.88    0.46
  -1   8 -17    1.33    0.50
  -2   8 -17   16.45    1.20
  -2   8 -17   16.39    0.87
   3   7 -17    1.43    0.54
   3   7 -17    1.70    0.62
  -3  -7  17    0.82    0.43
   2   7 -17    0.70    0.52
   2   7 -17    0.05    0.38
  -2  -7  17    0.16    0.28
  -2  -7  17    0.50    0.30
   1   7 -17    4.53    0.63
   1   7 -17    6.52    0.62
   1   7 -17    4.02    0.63
  -1  -7  17    4.86    0.31
  -1  -7  17    5.21    0.32
   0   7 -17    0.34    0.42
   0   7 -17    1.49    0.45
   0   7 -17    1.09    0.38
  -1   7 -17    4.65    0.61
  -1   7 -17    4.37    0.48
  -1   7 -17    5.77    0.62
   1  -7  17    5.52    2.48
  -2   7 -17    0.18    0.41
  -2   7 -17    0.57    0.32
  -2   7 -17    0.25    0.53
  -2   7 -17    0.75    0.25
  -3   7 -17    1.91    0.60
  -3   7 -17    2.58    0.57
   4   6 -17    3.27    0.67
   4   6 -17    2.31    0.64
  -4  -6  17    2.09    0.55
   3   6 -17    2.31    0.57
   3   6 -17    1.86    0.50
  -3  -6  17    1.90    0.17
  -3  -6  17    1.75    0.42
  -3  -6  17    1.99    0.41
   2   6 -17    1.57    0.52
   2   6 -17    2.74    0.49
   2   6 -17    1.65    0.41
  -2  -6  17    1.71    0.30
  -2  -6  17    2.36    0.31
   1   6 -17    2.94    0.48
   1   6 -17    2.27    0.43
  -1  -6  17    2.54    0.25
  -1  -6  17   -0.27    4.13
   0   6 -17    5.36    0.48
   0   6 -17    5.09    0.62
   0   6 -17    6.44    0.57
   0  -6  17    9.94    3.08
  -1   6 -17    2.58    0.35
  -1   6 -17    2.05    0.41
  -1   6 -17    2.55    0.30
   1  -6  17    3.93    1.99
   1  -6  17    1.84    3.99
  -2   6 -17    1.83    0.49
  -2   6 -17    1.87    0.29
  -2   6 -17    2.13    0.24
  -2   6 -17    1.76    0.42
  -2   6 -17    1.81    0.24
  -3   6 -17    2.20    0.49
  -3   6 -17    2.26    0.22
  -3   6 -17    1.96    0.30
  -3   6 -17    2.02    0.24
  -3   6 -17    2.16    0.46
  -4   6 -17    3.38    0.56
  -4   6 -17    2.61    0.45
  -4   6 -17    2.42    0.54
   5   5 -17   -0.13    0.65
   5   5 -17    0.47    0.61
   5   5 -17    0.33    0.70
  -5  -5  17    0.47    0.38
  -5  -5  17    0.48    0.54
   4   5 -17    6.20    0.81
   4   5 -17    8.05    0.92
   4   5 -17    6.92    0.75
  -4  -5  17   14.46    7.51
  -4  -5  17    7.67    0.52
  -4  -5  17    7.95    0.75
   3   5 -17    7.88    0.76
   3   5 -17    8.64    0.71
  -3  -5  17    5.56    5.34
  -3  -5  17    8.28    0.67
  -3  -5  17    9.43    0.45
  -3  -5  17    8.99    0.61
   2   5 -17    0.98    0.35
   2   5 -17    1.11    0.38
   2   5 -17    1.25    0.35
  -2  -5  17   -2.66    3.66
  -2  -5  17    1.21    0.39
  -2  -5  17    1.45    0.28
  -2  -5  17    3.52    3.80
  -2  -5  17    1.29    0.25
   1   5 -17   30.59    1.27
   1   5 -17   27.41    1.28
   1   5 -17   28.96    1.35
  -1  -5  17   24.69    4.16
  -1  -5  17   33.41    4.48
  -1  -5  17   29.05    1.10
  -1  -5  17   29.93    1.33
  -1  -5  17   29.36    1.10
   0   5 -17    0.35    0.20
   0   5 -17   -0.03    0.23
   0  -5  17    0.40    0.28
   0  -5  17    1.67    2.36
   0  -5  17   -3.27    2.21
  -1   5 -17   27.91    1.27
  -1   5 -17   28.81    1.15
  -1   5 -17   27.58    1.51
  -1   5 -17   28.46    1.12
   1  -5  17   31.33    3.23
  -2   5 -17    1.03    0.17
  -2   5 -17    1.36    0.21
  -2   5 -17    1.24    0.19
  -2   5 -17    1.54    0.34
  -3   5 -17    8.08    0.39
  -3   5 -17    9.11    0.58
  -3   5 -17    7.08    0.82
  -3   5 -17    8.43    0.37
  -4   5 -17    7.10    0.66
  -4   5 -17    7.05    0.86
  -4   5 -17    7.77    0.70
  -5   5 -17    0.21    0.43
  -5   5 -17    0.70    0.54
   5   4 -17    3.93    0.70
   5   4 -17    4.16    0.66
   5   4 -17    4.28    0.71
  -5  -4  17    5.23    0.66
  -5  -4  17    4.39    0.53
   4   4 -17    5.11    0.68
   4   4 -17    5.32    0.63
   4   4 -17    6.07    0.71
  -4  -4  17    5.58    0.48
  -4  -4  17    8.73    6.18
  -4  -4  17    6.53    0.61
   3   4 -17    2.43    0.46
   3   4 -17    2.72    0.42
   3   4 -17    1.94    0.43
   3   4 -17    2.13    0.44
  -3  -4  17    2.16    0.34
  -3  -4  17    2.27    0.28
  -3  -4  17    7.83    4.70
  -3  -4  17    1.83    0.42
  -3  -4  17    2.51    0.39
  -3  -4  17    3.91    4.42
   2   4 -17    5.49    0.67
   2   4 -17    6.42    0.60
   2   4 -17    7.08    0.56
   2   4 -17    7.28    0.62
  -2  -4  17    8.65    3.75
  -2  -4  17    6.48    0.44
  -2  -4  17    6.60    0.33
  -2  -4  17    6.79    0.48
  -2  -4  17    4.39    3.53
  -2  -4  17    5.91    0.56
   1   4 -17   48.01    1.61
   1   4 -17   45.79    1.87
   1   4 -17   46.28    1.77
   1   4 -17   46.14    1.90
   1   4 -17   42.80    1.78
  -1  -4  17   48.13    5.04
  -1  -4  17   45.97    1.66
  -1  -4  17   45.15    1.65
  -1  -4  17   43.80    1.82
  -1  -4  17   44.93    4.80
   0   4 -17    0.65    0.26
   0   4 -17    0.66    0.09
   0   4 -17    0.65    0.20
   0   4 -17    0.53    0.30
   0  -4  17    2.85    2.05
   0  -4  17    0.34    1.88
   0  -4  17    0.42    0.24
  -1   4 -17   45.91    1.84
  -1   4 -17   46.87    1.70
  -1   4 -17   45.62    1.70
  -1   4 -17   47.73    1.65
  -1   4 -17   47.41    1.91
  -1   4 -17   43.48    1.67
   1  -4  17   46.33    3.35
   1  -4  17   48.76    3.21
  -2   4 -17    7.50    0.59
  -2   4 -17    6.63    0.44
  -2   4 -17    6.84    0.34
  -2   4 -17    6.61    0.34
  -2   4 -17    5.94    0.51
  -3   4 -17    2.24    0.14
  -3   4 -17    2.47    0.35
  -3   4 -17    2.06    0.38
  -3   4 -17    1.71    0.32
  -4   4 -17    7.04    0.54
  -4   4 -17    5.18    0.65
  -4   4 -17    5.72    0.61
  -5   4 -17    3.73    0.50
  -5   4 -17    4.02    0.67
  -5   4 -17    4.47    0.56
   5   3 -17    4.27    0.68
   5   3 -17    5.99    0.79
   5   3 -17    5.83    0.66
  -5  -3  17    5.31    0.62
  -5  -3  17    6.62    0.67
   4   3 -17    4.20    0.54
   4   3 -17    3.43    0.53
   4   3 -17    2.90    0.48
   4   3 -17    3.65    0.57
  -4  -3  17    3.99    0.47
  -4  -3  17    3.82    0.44
  -4  -3  17   -2.01    5.17
  -4  -3  17    6.14    5.00
   3   3 -17    8.76    0.66
   3   3 -17    9.10    0.69
   3   3 -17    9.38    0.69
   3   3 -17    8.84    0.69
   3   3 -17    8.04    0.66
  -3  -3  17    9.71    0.59
  -3  -3  17   16.32    4.56
  -3  -3  17    9.06    0.72
  -3  -3  17    8.78    0.61
  -3  -3  17   14.61    4.55
  -3  -3  17   10.12    0.51
   2   3 -17    9.99    0.66
   2   3 -17    8.65    0.63
   2   3 -17    9.30    0.58
   2   3 -17   10.38    0.68
   2   3 -17    9.47    0.53
  -2  -3  17    9.49    0.45
  -2  -3  17    9.24    0.63
  -2  -3  17    9.31    0.55
  -2  -3  17    7.53    3.27
  -2  -3  17    9.91    3.22
  -2  -3  17    9.03    0.51
   1   3 -17   38.27    1.61
   1   3 -17   40.19    1.53
   1   3 -17   37.54    1.53
   1   3 -17   37.01    1.43
   1   3 -17   38.86    1.62
  -1  -3  17   36.68    4.09
  -1  -3  17   39.78    1.58
  -1  -3  17   37.68    1.44
  -1  -3  17   38.94    4.32
  -1  -3  17   41.15    1.43
   0   3 -17  128.27    4.40
   0   3 -17  125.40    4.55
   0   3 -17  127.17    4.40
   0   3 -17  127.19    4.50
   0   3 -17  128.40    4.43
   0  -3  17  125.92    6.43
   0  -3  17  126.09    6.69
   0  -3  17  121.83    4.46
   0  -3  17  120.49    4.26
  -1   3 -17   38.50    1.41
  -1   3 -17   38.40    1.54
  -1   3 -17   40.08    1.42
  -1   3 -17   39.10    1.43
  -1   3 -17   37.88    1.61
   1  -3  17   38.63    1.51
   1  -3  17   35.82    2.68
   1  -3  17   39.44    3.07
  -2   3 -17   10.31    0.67
  -2   3 -17   10.08    0.56
  -2   3 -17    9.58    0.43
  -3   3 -17    9.45    0.35
  -3   3 -17    9.71    0.67
  -3   3 -17    9.33    0.37
  -3   3 -17    9.20    0.64
  -3   3 -17    8.98    0.55
  -4   3 -17    3.40    0.50
  -4   3 -17    3.04    0.19
  -4   3 -17    3.65    0.50
  -4   3 -17    2.93    0.22
  -4   3 -17    3.96    0.40
  -5   3 -17    6.28    0.87
  -5   3 -17    6.17    0.41
  -5   3 -17    6.29    0.51
  -5   3 -17    5.61    0.60
   6   2 -17    1.39    0.66
  -6  -2  17    2.62    0.63
   5   2 -17    4.45    0.67
   5   2 -17    4.24    0.75
   5   2 -17    5.58    0.61
   5   2 -17    4.66    0.59
  -5  -2  17   11.03    6.72
  -5  -2  17    4.43    0.54
  -5  -2  17    4.60    0.57
   4   2 -17   14.85    0.90
   4   2 -17   13.26    0.90
   4   2 -17   13.14    0.82
   4   2 -17   14.73    0.83
   4   2 -17   14.22    0.94
  -4  -2  17   14.29    0.77
  -4  -2  17   15.17    7.49
  -4  -2  17   13.23    0.83
  -4  -2  17   14.91    0.80
  -4  -2  17   10.33    4.68
  -4  -2  17   13.92    0.95
   3   2 -17   49.15    1.87
   3   2 -17   44.48    1.83
   3   2 -17   44.25    1.86
  -3  -2  17   45.49    1.80
  -3  -2  17   46.00    5.85
  -3  -2  17   43.60    1.73
  -3  -2  17   44.58    1.88
  -3  -2  17   42.05    6.03
  -3  -2  17   46.83    1.77
   2   2 -17   23.87    1.11
   2   2 -17   24.01    1.04
   2   2 -17   23.29    1.06
   2   2 -17   23.43    1.02
   2   2 -17   22.70    1.09
  -2  -2  17   26.24    0.96
  -2  -2  17   23.46    1.01
  -2  -2  17   26.73    3.98
  -2  -2  17   21.34    1.08
  -2  -2  17   23.32    0.97
  -2  -2  17   21.08    3.88
   1   2 -17   26.86    1.18
   1   2 -17   26.05    1.05
   1   2 -17   27.85    1.11
   1   2 -17   28.40    1.22
   1   2 -17   26.64    1.11
  -1  -2  17   21.25    3.25
  -1  -2  17   25.85    1.02
  -1  -2  17   27.68    1.17
  -1  -2  17   27.33    1.07
   0   2 -17   22.67    0.94
   0   2 -17   23.59    1.08
   0   2 -17   23.01    0.95
   0   2 -17   23.84    0.92
   0   2 -17   23.46    1.03
   0  -2  17   23.98    0.85
   0  -2  17   21.67    2.89
   0  -2  17   23.95    1.01
   0  -2  17   27.17    2.79
   0  -2  17   24.52    0.88
  -1   2 -17   26.95    1.21
  -1   2 -17   27.15    1.13
  -1   2 -17   27.62    1.05
  -1   2 -17   27.18    1.02
   1  -2  17   28.81    1.11
   1  -2  17   24.69    2.67
   1  -2  17   26.97    2.33
  -2   2 -17   25.03    1.11
  -2   2 -17   23.71    0.87
  -2   2 -17   24.86    1.00
  -2   2 -17   23.58    0.90
   2  -2  17   24.15    1.70
   2  -2  17   19.49    2.25
  -3   2 -17   45.56    1.66
  -3   2 -17   44.13    1.57
  -3   2 -17   43.29    1.78
  -4   2 -17   13.79    0.78
  -4   2 -17   14.11    0.59
  -4   2 -17   13.81    0.56
  -4   2 -17   13.69    0.63
  -5   2 -17    4.27    0.52
  -5   2 -17    3.98    0.33
  -5   2 -17    4.15    0.42
  -5   2 -17    5.94    0.87
  -5   2 -17    3.99    0.35
  -6   2 -17    1.75    0.79
   6   1 -17   16.21    1.12
  -6  -1  17   15.41    1.13
  -6  -1  17   17.17    1.12
   5   1 -17    1.68    0.36
   5   1 -17    1.65    0.50
   5   1 -17    2.65    0.49
  -5  -1  17    1.36    0.41
  -5  -1  17   -1.26    6.40
  -5  -1  17    2.32    0.45
   4   1 -17   39.27    1.62
   4   1 -17   36.19    1.66
   4   1 -17   36.00    1.57
   4   1 -17   35.99    1.71
   4   1 -17   37.63    1.68
  -4  -1  17   37.55    1.65
  -4  -1  17   40.37    1.60
  -4  -1  17   36.43    6.15
  -4  -1  17   39.73    1.72
  -4  -1  17   39.48    6.83
  -4  -1  17   41.25    1.64
   3   1 -17   31.38    1.41
   3   1 -17   30.69    1.36
   3   1 -17   32.35    1.44
   3   1 -17   32.52    1.38
   3   1 -17   32.89    1.42
  -3  -1  17   34.36    1.34
  -3  -1  17   38.88    5.13
  -3  -1  17   32.15    1.38
  -3  -1  17   32.68    1.32
  -3  -1  17   42.85    5.62
  -3  -1  17   32.60    1.45
   2   1 -17   56.13    2.11
   2   1 -17   55.95    2.06
   2   1 -17   53.08    2.11
   2   1 -17   49.41    2.04
   2   1 -17   59.47    2.10
  -2  -1  17   66.33    5.63
  -2  -1  17   53.00    4.91
  -2  -1  17   53.75    1.99
  -2  -1  17   54.91    1.99
  -2  -1  17   55.48    2.05
  -2  -1  17   45.84    2.07
   1   1 -17   48.98    1.86
   1   1 -17   50.36    1.77
   1   1 -17   45.03    1.78
   1   1 -17   46.91    1.87
   1   1 -17   47.23    1.79
  -1  -1  17   48.86    1.72
  -1  -1  17   45.08    3.98
  -1  -1  17   47.36    1.76
  -1  -1  17   45.18    1.83
   0   1 -17   15.97    0.69
   0   1 -17   16.49    0.76
   0   1 -17   12.99    2.31
   0   1 -17   16.35    0.82
   0   1 -17   15.52    0.69
   0   1 -17   17.05    0.71
   0  -1  17   17.34    0.63
   0  -1  17   16.81    0.75
   0  -1  17   16.78    0.67
   0  -1  17   16.52    2.29
  -1   1 -17   49.25    1.88
  -1   1 -17   45.35    1.72
  -1   1 -17   46.22    1.69
  -1   1 -17   60.18    3.55
  -1   1 -17   46.33    1.78
   1  -1  17   48.44    1.75
   1  -1  17   42.46    2.90
  -2   1 -17   53.01    1.96
  -2   1 -17   54.17    1.92
  -2   1 -17   55.63    1.89
  -2   1 -17   55.39    3.27
  -2   1 -17   53.76    2.10
   2  -1  17   51.81    3.09
  -3   1 -17   32.20    2.25
  -3   1 -17   32.45    1.17
  -3   1 -17   31.49    1.34
  -3   1 -17   31.60    1.18
   3  -1  17   27.74    2.49
  -4   1 -17   38.90    1.43
  -4   1 -17   38.23    1.44
  -4   1 -17   40.24    2.30
  -4   1 -17   41.59    1.63
  -4   1 -17   39.49    1.48
  -5   1 -17    2.53    0.29
  -5   1 -17    2.56    0.33
  -5   1 -17    2.61    0.59
  -5   1 -17    2.49    0.37
  -6   1 -17   16.25    1.34
   6   0 -17    0.63    0.50
  -6   0  17   -0.31    0.47
  -6   0  17   -0.22    0.52
   5   0 -17    7.72    0.59
   5   0 -17    8.19    0.72
  -5   0  17   -2.34    6.67
  -5   0  17    7.75    0.64
  -5   0  17    7.97    0.70
   4   0 -17    5.63    0.49
   4   0 -17    5.12    0.70
   4   0 -17    5.52    0.55
   4   0 -17    5.01    0.61
  -4   0  17    6.34    0.49
  -4   0  17    5.11    0.62
  -4   0  17    5.20    4.23
  -4   0  17    5.77    0.69
  -4   0  17   11.24    4.49
  -4   0  17    5.95    0.55
   3   0 -17    9.28    0.63
   3   0 -17    8.62    0.56
   3   0 -17    9.62    0.65
   3   0 -17   10.14    0.60
   3   0 -17    9.13    0.65
  -3   0  17    9.14    0.61
  -3   0  17    9.00    0.56
  -3   0  17    9.05    0.53
  -3   0  17    3.92    3.45
  -3   0  17    9.19    0.67
  -3   0  17   10.67    3.21
   2   0 -17    8.14    0.50
   2   0 -17    8.83    0.57
   2   0 -17    8.24    0.52
   2   0 -17    6.92    2.80
   2   0 -17    8.47    0.57
   2   0 -17    7.65    0.53
  -2   0  17    8.92    2.72
  -2   0  17    9.42    0.48
  -2   0  17    8.62    0.55
  -2   0  17    8.37    0.58
  -2   0  17    9.29    0.49
   1   0 -17    1.51    0.22
   1   0 -17    2.84    1.88
   1   0 -17    1.57    0.22
   1   0 -17    2.29    0.31
   1   0 -17    1.40    0.23
   1   0 -17    1.75    0.27
  -1   0  17    1.57    0.23
  -1   0  17    1.36    0.17
  -1   0  17    1.48    0.30
  -1   0  17    2.03    0.25
  -1   0  17    1.57    0.27
   0   0 -17    2.05    2.63
   0   0  17    0.39    1.45
  -1   0 -17    1.62    0.20
  -1   0 -17    1.83    0.28
  -1   0 -17    2.39    1.37
  -1   0 -17    1.92    0.22
  -1   0 -17    1.49    0.18
   1   0  17    1.68    0.13
   1   0  17    1.53    0.16
   1   0  17    1.84    0.21
   1   0  17    1.43    0.28
   1   0  17    2.35    1.25
  -2   0 -17    8.50    0.41
  -2   0 -17    8.38    0.42
  -2   0 -17    8.99    0.39
  -2   0 -17   11.54    1.83
  -2   0 -17    8.76    0.58
   2   0  17    8.60    0.57
   2   0  17    7.83    1.62
  -3   0 -17   10.11    0.62
  -3   0 -17    8.68    1.73
  -3   0 -17    8.77    0.48
   3   0  17    9.21    2.11
   3   0  17   10.49    0.66
  -4   0 -17    4.30    0.50
  -4   0 -17    5.19    0.51
  -4   0 -17    4.64    0.39
  -4   0 -17    3.56    1.71
   4   0  17    2.80    2.36
   4   0  17    5.15    0.57
  -5   0 -17    6.85    0.85
  -5   0 -17    7.77    0.50
  -5   0 -17    6.90    0.60
  -5   0 -17    6.97    0.56
  -6   0 -17    0.75    0.46
  -6   0 -17    1.68    0.81
   6  -1 -17   13.28    0.99
  -6   1  17   13.50    1.09
  -6   1  17   16.10    1.06
   5  -1 -17    2.37    0.35
   5  -1 -17    2.82    0.47
  -5   1  17    8.85    6.76
  -5   1  17    2.66    0.51
  -5   1  17    2.47    0.42
   4  -1 -17   37.27    1.75
   4  -1 -17   41.96    1.56
   4  -1 -17   41.23    1.60
   4  -1 -17   34.16    1.62
  -4   1  17   39.59    1.62
  -4   1  17   44.02    6.45
  -4   1  17   34.60    5.69
  -4   1  17   37.48    1.71
  -4   1  17   38.18    1.56
  -4   1  17   35.72    1.63
   3  -1 -17   40.19    5.14
   3  -1 -17   32.55    1.35
   3  -1 -17   32.34    1.45
   3  -1 -17   32.24    1.39
   3  -1 -17   32.25    1.36
  -3   1  17   31.62    1.30
  -3   1  17   30.01    1.37
  -3   1  17   34.28    4.88
  -3   1  17   36.29    1.38
  -3   1  17   29.87    1.42
   2  -1 -17   58.12    2.12
   2  -1 -17   51.82    2.04
   2  -1 -17   51.91    2.06
   2  -1 -17   51.85    2.10
   2  -1 -17   56.15    2.11
   2  -1 -17   58.65    5.27
  -2   1  17   56.34    2.05
  -2   1  17   52.89    4.77
  -2   1  17   52.41    2.11
  -2   1  17   56.06    2.11
  -2   1  17   54.10    2.07
  -2   1  17   54.69    2.00
   1  -1 -17   44.76    1.75
   1  -1 -17   46.52    1.77
   1  -1 -17   45.36    1.84
   1  -1 -17   44.80    4.25
   1  -1 -17   50.90    1.80
   1  -1 -17   45.32    1.81
  -1   1  17   47.55    1.77
  -1   1  17   51.52    1.88
  -1   1  17   44.17    1.81
  -1   1  17   48.83    1.72
  -1   1  17   46.53    1.78
   0  -1 -17   17.29    2.64
   0  -1 -17   16.82    0.76
   0  -1 -17   17.09    0.74
   0  -1 -17   16.55    0.75
   0  -1 -17   16.92    0.73
   0  -1 -17   18.04    0.86
   0   1  17   17.04    0.75
   0   1  17   17.71    0.69
   0   1  17   16.28    2.42
   0   1  17   18.15    0.86
   0   1  17   18.17    0.79
  -1  -1 -17   43.34    1.70
  -1  -1 -17   45.32    1.67
  -1  -1 -17   42.27    1.62
  -1  -1 -17   46.54    3.52
  -1  -1 -17   45.59    1.80
   1   1  17   51.33    3.55
   1   1  17   46.16    1.64
   1   1  17   44.75    1.65
   1   1  17   44.65    1.80
   1   1  17   45.15    1.61
  -2  -1 -17   53.74    2.11
  -2  -1 -17   57.08    1.94
  -2  -1 -17   54.48    1.98
   2   1  17   54.17    1.89
   2   1  17   54.24    1.90
   2   1  17   53.73    1.90
   2   1  17   53.85    2.13
   2   1  17   49.96    3.90
  -3  -1 -17   31.77    1.37
  -3  -1 -17   31.44    1.26
  -3  -1 -17   29.13    3.17
   3   1  17   31.73    3.73
   3   1  17   32.86    1.40
  -4  -1 -17   38.61    1.56
  -4  -1 -17   40.69    3.84
  -4  -1 -17   39.84    1.64
  -4  -1 -17   39.53    1.48
   4   1  17   38.60    4.97
   4   1  17   38.06    1.65
  -5  -1 -17    2.01    0.33
  -5  -1 -17    2.19    0.41
  -5  -1 -17    2.28    0.39
   5   1  17    1.70    0.46
  -6  -1 -17   13.23    1.42
  -6  -1 -17   14.78    1.03
   6  -2 -17    1.92    0.52
  -6   2  17    2.13    1.03
  -6   2  17    2.79    0.87
   5  -2 -17    4.38    0.48
   5  -2 -17    4.35    0.53
  -5   2  17    4.25    0.50
  -5   2  17    5.57    0.69
  -5   2  17    5.36    6.59
   4  -2 -17   15.06    0.77
   4  -2 -17   13.49    0.74
   4  -2 -17   13.02    5.05
   4  -2 -17   12.13    0.94
   4  -2 -17   14.66    0.86
  -4   2  17   13.74    0.74
  -4   2  17   15.19    0.83
  -4   2  17   14.00    0.95
  -4   2  17   18.42    4.69
  -4   2  17   11.16    0.98
   3  -2 -17   40.06    1.81
   3  -2 -17   46.30    5.81
   3  -2 -17   41.74    1.74
   3  -2 -17   46.24    1.75
   3  -2 -17   45.26    1.83
  -3   2  17   43.42    1.87
  -3   2  17   46.61    5.58
  -3   2  17   43.50    1.74
  -3   2  17   43.06    1.76
  -3   2  17   43.84    1.83
  -3   2  17   42.82    1.79
   2  -2 -17   24.22    1.03
   2  -2 -17   23.08    1.07
   2  -2 -17   23.35    1.08
   2  -2 -17   23.10    3.86
   2  -2 -17   23.38    1.03
  -2   2  17   23.38    1.05
  -2   2  17   23.11    1.10
  -2   2  17   24.41    0.98
  -2   2  17   25.22    1.12
  -2   2  17   28.26    4.05
  -2   2  17   24.27    1.04
   1  -2 -17   28.71    1.21
   1  -2 -17   23.98    3.59
   1  -2 -17   27.92    1.11
   1  -2 -17   26.99    1.12
   1  -2 -17   27.15    1.15
  -1   2  17   26.68    1.17
  -1   2  17   26.20    1.12
  -1   2  17   28.70    1.07
  -1   2  17   26.85    1.14
  -1   2  17   21.97    3.31
  -1   2  17   28.92    1.22
   0  -2 -17   22.48    3.15
   0  -2 -17   23.25    0.94
   0  -2 -17   25.78    1.00
   0  -2 -17   23.31    1.07
   0  -2 -17   23.40    0.96
   0   2  17   20.92    1.01
   0   2  17   16.01    2.55
   0   2  17   23.65    0.99
   0   2  17   24.26    0.91
   0   2  17   22.32    1.06
  -1  -2 -17   27.24    1.07
  -1  -2 -17   28.14    3.25
  -1  -2 -17   25.67    1.21
  -1  -2 -17   30.91    1.17
  -1  -2 -17   28.03    1.12
   1   2  17   26.96    1.08
   1   2  17   28.36    1.10
   1   2  17   29.48    3.14
   1   2  17   26.93    1.22
   1   2  17   27.61    1.06
  -2  -2 -17   24.14    1.00
  -2  -2 -17   22.57    0.93
  -2  -2 -17   23.85    1.11
   2   2  17   23.93    1.11
   2   2  17   24.20    0.92
   2   2  17   23.36    3.22
   2   2  17   23.61    0.86
   2   2  17   22.96    0.93
  -3  -2 -17   45.27    3.92
  -3  -2 -17   43.76    1.81
  -3  -2 -17   44.25    1.72
  -3  -2 -17   44.11    1.64
   3   2  17   43.17    4.75
   3   2  17   44.39    1.59
   3   2  17   44.27    1.82
   3   2  17   43.81    1.59
  -4  -2 -17   13.26    0.67
  -4  -2 -17   14.28    0.84
  -4  -2 -17   14.80    0.79
  -4  -2 -17   13.12    2.79
   4   2  17   12.73    0.88
  -5  -2 -17    5.35    0.62
  -5  -2 -17    4.29    0.54
  -5  -2 -17    4.71    0.54
   5   2  17    4.64    0.65
  -6  -2 -17    1.93    0.63
   5  -3 -17    6.25    0.67
   5  -3 -17    6.63    0.54
  -5   3  17    5.62    0.69
  -5   3  17    5.20    0.56
   4  -3 -17    3.20    0.39
   4  -3 -17    3.40    0.43
   4  -3 -17   -4.76    6.20
   4  -3 -17    3.47    0.54
  -4   3  17    7.28    4.58
  -4   3  17    4.05    0.51
  -4   3  17    3.38    0.41
  -4   3  17    3.71    0.45
   3  -3 -17   10.23    0.63
   3  -3 -17    7.97    3.81
   3  -3 -17    9.96    0.64
   3  -3 -17    7.92    0.72
   3  -3 -17    9.69    0.59
  -3   3  17    9.97    0.57
  -3   3  17    9.79    0.63
  -3   3  17    9.68    0.79
  -3   3  17    3.83    3.37
  -3   3  17    8.80    0.69
  -3   3  17    9.49    0.68
   2  -3 -17    9.31    0.58
   2  -3 -17    8.61    0.64
   2  -3 -17    6.62    3.26
   2  -3 -17   10.36    0.64
   2  -3 -17    9.59    0.57
  -2   3  17    9.58    0.52
  -2   3  17    9.59    0.58
  -2   3  17    8.80    0.58
  -2   3  17    7.36    2.80
  -2   3  17   10.21    0.67
  -2   3  17    8.79    0.64
   1  -3 -17   38.87    1.57
   1  -3 -17   38.11    1.60
   1  -3 -17   38.76    1.51
   1  -3 -17   39.24    1.53
   1  -3 -17   40.85    4.49
  -1   3  17   39.10    1.63
  -1   3  17   34.62    4.13
  -1   3  17   37.52    1.53
  -1   3  17   39.80    1.47
  -1   3  17   39.47    1.58
   0  -3 -17  133.18    4.57
   0  -3 -17  121.24    4.45
   0  -3 -17  119.04    4.41
   0  -3 -17  128.26    4.48
   0  -3 -17  129.95    7.07
   0   3  17  122.36    4.39
   0   3  17  125.93    4.45
   0   3  17  127.00    6.98
   0   3  17  129.43    4.57
   0   3  17  127.43    4.47
  -1  -3 -17   40.02    1.64
  -1  -3 -17   38.84    1.53
  -1  -3 -17   41.00    1.47
  -1  -3 -17   35.91    1.53
   1   3  17   37.70    1.47
   1   3  17   40.18    1.65
   1   3  17   35.13    3.88
   1   3  17   38.54    1.50
   1   3  17   39.05    1.46
  -2  -3 -17    8.89    0.47
  -2  -3 -17   10.17    0.56
  -2  -3 -17   10.56    2.65
  -2  -3 -17   10.07    0.66
   2   3  17    9.59    0.52
   2   3  17    9.16    0.48
   2   3  17    8.89    0.42
   2   3  17    9.16    2.77
   2   3  17    8.68    0.66
  -3  -3 -17    8.73    0.52
  -3  -3 -17    9.62    0.64
  -3  -3 -17   10.83    0.72
  -3  -3 -17   10.85    2.62
   3   3  17    8.05    0.71
   3   3  17    9.64    0.53
   3   3  17   11.61    3.57
   3   3  17    9.72    0.51
  -4  -3 -17    3.66    0.39
  -4  -3 -17    4.22    0.50
   4   3  17    2.74    0.53
   4   3  17    2.66    0.35
   4   3  17    3.16    0.33
  -5  -3 -17    6.62    0.73
  -5  -3 -17    5.80    0.65
   5   3  17    6.99    0.90
   5  -4 -17    3.56    0.53
  -5   4  17    4.26    0.63
  -5   4  17    3.86    0.52
   4  -4 -17    6.72    0.57
   4  -4 -17    6.35    0.60
   4  -4 -17    6.23    0.72
  -4   4  17    5.08    0.65
  -4   4  17    5.82    0.60
  -4   4  17    6.17    0.50
   3  -4 -17    1.49    3.98
   3  -4 -17    2.14    0.36
   3  -4 -17    1.91    0.38
   3  -4 -17    2.13    0.33
   3  -4 -17    2.04    0.45
  -3   4  17    3.11    0.34
  -3   4  17    2.26    0.43
  -3   4  17    2.26    0.38
  -3   4  17    1.48    0.38
  -3   4  17    7.92    3.81
  -3   4  17    2.37    0.49
   2  -4 -17    6.79    0.59
   2  -4 -17    5.93    0.57
   2  -4 -17    7.15    0.52
   2  -4 -17    6.06    3.34
  -2   4  17    6.75    0.43
  -2   4  17    5.94    0.53
  -2   4  17    7.65    0.64
  -2   4  17    7.85    3.19
  -2   4  17    6.30    0.62
  -2   4  17    7.07    0.51
   1  -4 -17   47.12    1.90
   1  -4 -17   46.45    1.77
   1  -4 -17   45.30    5.05
   1  -4 -17   46.39    1.84
   1  -4 -17   45.45    1.80
  -1   4  17   48.14    1.74
  -1   4  17   45.63    1.80
  -1   4  17   43.42    1.84
  -1   4  17   45.35    1.90
  -1   4  17   51.39    4.85
   0  -4 -17    0.68    0.24
   0  -4 -17    0.38    0.28
   0  -4 -17    0.42    0.20
   0  -4 -17    0.76    0.24
   0   4  17    0.53    0.30
   0   4  17   -2.00    1.99
   0   4  17    0.45    0.25
   0   4  17    0.59    0.25
  -1  -4 -17   46.89    1.89
  -1  -4 -17   43.65    1.70
  -1  -4 -17   44.57    1.79
  -1  -4 -17   45.25    1.79
   1   4  17   45.09    1.76
   1   4  17   46.99    1.72
   1   4  17   39.03    4.75
   1   4  17   47.91    1.74
   1   4  17   45.73    1.90
  -2  -4 -17    6.45    0.52
  -2  -4 -17    6.06    0.42
  -2  -4 -17    8.40    2.83
   2   4  17    6.78    0.39
   2   4  17    6.07    0.68
   2   4  17   10.02    3.55
   2   4  17    7.44    0.46
   2   4  17    7.36    0.47
  -3  -4 -17    2.05    0.28
  -3  -4 -17    2.64    0.46
  -3  -4 -17    1.72    2.75
  -3  -4 -17    1.81    0.39
   3   4  17    2.58    0.51
   3   4  17    1.73    0.28
   3   4  17    2.72    4.01
   3   4  17    2.34    0.33
  -4  -4 -17    5.60    0.70
  -4  -4 -17    5.31    0.61
   4   4  17    6.41    0.49
   4   4  17    4.96    0.70
   4   4  17    5.43    0.55
  -5  -4 -17    3.49    0.62
   5  -5 -17   -0.92    0.45
  -5   5  17   -0.06    0.39
  -5   5  17    1.14    0.91
   4  -5 -17    6.99    0.67
   4  -5 -17    7.23    0.70
  -4   5  17    6.97    0.78
  -4   5  17    7.66    0.57
  -4   5  17    7.67    0.74
   3  -5 -17    9.75    0.65
   3  -5 -17    9.31    0.70
   3  -5 -17    8.29    0.67
  -3   5  17    7.46    0.64
  -3   5  17    8.71    0.55
  -3   5  17    9.07    0.78
   2  -5 -17    1.08    0.39
   2  -5 -17    1.06    0.37
   2  -5 -17    1.11    0.30
   2  -5 -17    5.55    4.04
   2  -5 -17    0.89    0.34
  -2   5  17    1.12    0.25
  -2   5  17    1.75    0.45
  -2   5  17   -5.43    3.08
  -2   5  17    1.35    0.32
  -2   5  17    1.61    0.36
  -2   5  17    1.05    0.39
   1  -5 -17   31.28    4.71
   1  -5 -17   28.70    1.27
   1  -5 -17   28.77    1.21
   1  -5 -17   30.30    1.31
  -1   5  17   28.13    1.26
  -1   5  17   29.85    1.18
  -1   5  17   28.15    1.30
  -1   5  17   28.66    1.36
  -1   5  17   23.08    4.43
   0  -5 -17    0.59    0.23
   0  -5 -17    0.45    0.25
   0  -5 -17   -2.21    3.15
   0  -5 -17    0.76    0.26
   0  -5 -17    0.24    0.30
   0   5  17    0.52    0.29
   0   5  17    0.60    0.27
   0   5  17    0.42    0.36
   0   5  17    0.69    3.00
   0   5  17    0.47    0.23
  -1  -5 -17   29.37    1.28
  -1  -5 -17   28.01    1.18
  -1  -5 -17   30.28    1.38
  -1  -5 -17   29.01    1.28
   1   5  17   28.60    1.26
   1   5  17   25.41    4.49
   1   5  17   29.03    1.23
   1   5  17   29.09    1.41
  -2  -5 -17    1.50    0.38
  -2  -5 -17    0.18    3.02
  -2  -5 -17    0.72    0.30
  -2  -5 -17    1.37    0.40
  -2  -5 -17    1.29    0.27
   2   5  17    1.65    0.26
   2   5  17    2.00    0.46
   2   5  17    1.85    0.34
   2   5  17   -1.72    3.54
  -3  -5 -17    9.40    0.73
  -3  -5 -17    5.75    3.61
  -3  -5 -17    8.68    0.81
   3   5  17    8.69    0.61
   3   5  17    6.43    0.80
   3   5  17    8.78    0.66
   3   5  17   13.02    5.25
  -4  -5 -17    8.32    0.84
  -4  -5 -17    7.69    0.85
   4   5  17    6.35    0.65
   4   5  17    6.94    0.65
  -5  -5 -17    0.50    0.67
   4  -6 -17    2.51    0.51
  -4   6  17    3.27    0.58
  -4   6  17    2.99    0.44
   3  -6 -17    1.91    0.45
   3  -6 -17    1.64    0.46
  -3   6  17    1.14    0.51
  -3   6  17    2.28    0.46
  -3   6  17    1.60    0.35
   2  -6 -17    1.56    0.42
   2  -6 -17    2.20    0.41
   2  -6 -17    0.62    0.37
  -2   6  17    2.56    0.54
  -2   6  17    1.89    0.33
  -2   6  17    1.89    0.38
  -2   6  17    0.80    3.83
   1  -6 -17    2.82    0.45
   1  -6 -17    4.09    3.80
   1  -6 -17    2.82    0.50
   1  -6 -17    2.16    0.42
   1  -6 -17    1.80    0.34
  -1   6  17    3.47    0.41
  -1   6  17    2.78    0.48
  -1   6  17    2.78    0.53
  -1   6  17    1.55    4.05
  -1   6  17    3.22    0.68
   0  -6 -17    6.54    0.65
   0  -6 -17    5.66    0.48
   0  -6 -17    5.49    0.57
   0  -6 -17    5.70    0.56
   0  -6 -17    6.51    4.13
   0   6  17    4.76    0.63
   0   6  17    7.55    3.92
   0   6  17    6.14    0.46
   0   6  17    6.64    0.57
   0   6  17    4.80    0.58
  -1  -6 -17    3.10    0.53
  -1  -6 -17    2.58    0.42
  -1  -6 -17    2.39    0.44
  -1  -6 -17   -1.08    3.63
   1   6  17    1.96    0.42
   1   6  17    2.91    4.39
   1   6  17    2.05    0.32
  -2  -6 -17    1.24    0.45
  -2  -6 -17   -3.86    3.98
  -2  -6 -17    1.80    0.46
   2   6  17    2.31    0.36
   2   6  17   -1.20    4.92
   2   6  17    2.01    0.27
   2   6  17    1.74    0.41
   2   6  17    2.38    0.53
  -3  -6 -17    2.57    0.54
  -3  -6 -17    1.49    0.52
  -3  -6 -17    4.31    4.50
   3   6  17    2.26    0.43
   3   6  17    1.93    0.25
   3   6  17    2.56    0.46
   3   6  17    2.35    0.37
  -4  -6 -17    2.94    0.61
   4   6  17    3.20    0.54
   3  -7 -17    1.81    0.50
  -3   7  17    1.32    0.35
  -3   7  17    1.65    0.45
   2  -7 -17    0.59    0.43
  -2   7  17    0.36    0.31
   1  -7 -17    5.39    0.64
   1  -7 -17    5.69    0.76
   0  -7 -17    0.73    0.38
   0  -7 -17   -1.00    4.84
   0  -7 -17    0.27    0.45
   0   7  17   -0.64    5.01
   0   7  17    0.53    0.27
  -1  -7 -17    5.47    0.72
  -1  -7 -17    4.04    0.58
  -1  -7 -17    9.29    4.87
   1   7  17    5.78    0.54
   1   7  17   11.85    6.25
  -2  -7 -17    3.74    4.71
  -2  -7 -17   -0.30    0.47
   2   7  17    0.13    0.26
   2   7  17   -2.74    6.55
   2   7  17   -0.33    0.35
  -3  -7 -17    2.12    0.65
   3   7  17    2.01    0.52
   2  -8 -17   17.26    1.15
   1  -8 -17    1.36    0.56
  -1   8  17    1.41    0.37
   0  -8 -17   10.07    0.88
   0   8  17    9.67    0.70
  -1  -8 -17    2.42    0.62
   1   8  17    1.13    0.42
  -2  -8 -17   16.05    1.18
   2   8  17   15.89    1.00
   0  -9 -17   -0.78    0.65
   2   8 -18   -0.05    0.71
   2   8 -18    0.17    0.56
   1   8 -18    2.23    0.66
   1   8 -18    2.67    0.57
   0   8 -18    2.57    0.49
   0   8 -18    3.07    0.65
  -1   8 -18    2.62    0.58
  -1   8 -18    2.30    0.44
  -1   8 -18    2.82    0.88
  -2   8 -18    0.49    0.59
  -2   8 -18    0.40    0.73
   3   7 -18    0.28    0.54
   3   7 -18    0.39    0.59
  -3  -7  18    1.31    0.42
   2   7 -18    0.75    0.48
   2   7 -18    0.81    0.49
  -2  -7  18    0.02    0.29
  -2  -7  18    0.85    0.29
   1   7 -18   23.47    1.31
   1   7 -18   22.84    1.17
  -1  -7  18   21.72    0.86
  -1  -7  18   24.77    0.94
   0   7 -18    1.04    0.44
   0   7 -18    0.16    0.42
  -1   7 -18   22.45    1.11
  -1   7 -18   22.24    1.02
  -1   7 -18   22.71    1.26
  -2   7 -18    0.13    0.26
  -2   7 -18    0.43    0.48
  -2   7 -18    0.48    0.36
  -2   7 -18    0.15    0.52
  -3   7 -18   -0.40    0.48
  -3   7 -18    0.72    0.58
   4   6 -18   14.41    1.10
   4   6 -18   13.23    1.25
   4   6 -18   13.24    1.14
  -4  -6  18   14.99    1.03
   3   6 -18    4.59    0.60
   3   6 -18    3.76    0.65
  -3  -6  18    3.47    0.50
  -3  -6  18    4.59    0.57
   2   6 -18    9.92    0.77
   2   6 -18   10.49    0.87
  -2  -6  18    9.26    0.60
  -2  -6  18    9.96    0.59
   1   6 -18    4.22    0.59
   1   6 -18    4.15    0.52
   1   6 -18    4.37    0.56
  -1  -6  18    4.37    0.29
   0   6 -18    0.15    0.26
   0   6 -18    0.35    0.33
   0   6 -18    0.09    0.36
   0  -6  18    2.55    2.82
  -1   6 -18    4.51    0.40
  -1   6 -18    4.99    0.58
  -1   6 -18    3.95    0.51
  -1   6 -18    4.61    0.65
   1  -6  18    7.33    2.17
  -2   6 -18    9.65    0.38
  -2   6 -18    9.47    0.58
  -2   6 -18   10.19    0.79
  -2   6 -18   10.10    0.53
  -2   6 -18   10.45    0.89
  -3   6 -18    3.97    0.57
  -3   6 -18    4.94    0.62
  -3   6 -18    3.89    0.43
  -3   6 -18    3.75    0.31
  -4   6 -18   13.50    0.88
  -4   6 -18   13.48    1.08
  -4   6 -18   14.53    0.99
   5   5 -18    1.84    0.71
   5   5 -18    0.76    0.78
  -5  -5  18    1.73    0.68
   4   5 -18    3.31    0.66
   4   5 -18    3.62    0.58
   4   5 -18    2.90    0.60
  -4  -5  18    2.35    0.51
  -4  -5  18    2.40    0.32
   3   5 -18    0.28    0.39
   3   5 -18    0.04    0.46
   3   5 -18    0.30    0.34
  -3  -5  18   -0.01    0.35
  -3  -5  18    3.73    5.82
  -3  -5  18    0.06    0.14
  -3  -5  18    0.14    0.30
   2   5 -18    0.45    0.35
   2   5 -18    0.82    0.30
   2   5 -18    0.84    0.38
  -2  -5  18    0.33    0.22
  -2  -5  18    0.48    0.38
  -2  -5  18   -1.77    4.14
  -2  -5  18    0.62    0.26
  -2  -5  18    4.00    4.11
   1   5 -18   23.50    1.12
   1   5 -18   23.76    1.08
   1   5 -18   22.21    1.17
  -1  -5  18   19.35    4.28
  -1  -5  18   22.03    4.10
  -1  -5  18   23.53    0.91
  -1  -5  18   23.78    0.91
  -1  -5  18   24.65    1.15
   0   5 -18  121.71    4.25
   0   5 -18  117.53    4.39
   0   5 -18  117.26    4.45
   0   5 -18  122.63    4.28
   0  -5  18  123.53    4.35
   0  -5  18  114.88    6.96
   0  -5  18  117.18    7.00
  -1   5 -18   23.18    0.95
  -1   5 -18   23.19    0.98
  -1   5 -18   23.39    1.18
   1  -5  18   19.23    2.83
   1  -5  18   21.43    3.13
  -2   5 -18    0.38    0.16
  -2   5 -18    0.29    0.15
  -2   5 -18    0.41    0.19
  -2   5 -18   -0.27    0.34
  -3   5 -18    0.22    0.15
  -3   5 -18    0.43    0.26
  -3   5 -18    0.21    0.39
  -3   5 -18   -0.11    0.12
  -3   5 -18   -0.01    0.39
  -4   5 -18    3.39    0.50
  -4   5 -18    3.65    0.50
  -4   5 -18    2.60    0.52
  -5   5 -18    1.35    0.60
  -5   5 -18    2.88    0.52
   5   4 -18    2.90    0.63
   5   4 -18    2.23    0.60
   5   4 -18    2.28    0.69
  -5  -4  18    2.03    0.43
  -5  -4  18    1.88    0.55
   4   4 -18   -0.05    0.43
   4   4 -18    1.25    0.43
   4   4 -18    0.83    0.42
  -4  -4  18    0.72    0.35
  -4  -4  18    0.67    5.91
  -4  -4  18    0.41    0.25
   3   4 -18   32.15    1.48
   3   4 -18   30.14    1.39
   3   4 -18   28.48    1.44
   3   4 -18   29.93    1.48
  -3  -4  18   19.29    5.26
  -3  -4  18   31.30    1.20
  -3  -4  18   30.36    1.30
  -3  -4  18   40.13    6.27
  -3  -4  18   31.58    1.34
  -3  -4  18   32.59    1.59
   2   4 -18    5.44    0.55
   2   4 -18    4.60    0.36
   2   4 -18    5.56    0.53
   2   4 -18    5.11    0.59
  -2  -4  18    4.46    0.53
  -2  -4  18    2.20    3.64
  -2  -4  18    4.48    0.39
  -2  -4  18    9.50    3.74
  -2  -4  18    3.76    0.44
   1   4 -18   35.61    1.85
   1   4 -18   40.28    1.70
   1   4 -18   39.74    1.62
   1   4 -18   40.40    1.59
   1   4 -18   41.34    1.44
  -1  -4  18   46.04    5.00
  -1  -4  18   40.44    1.66
  -1  -4  18   40.44    1.47
  -1  -4  18   38.45    4.99
  -1  -4  18   40.62    1.48
   0   4 -18   37.12    1.55
   0   4 -18   35.03    1.58
   0   4 -18   37.20    1.43
   0   4 -18   36.40    1.28
   0   4 -18   37.67    1.45
   0  -4  18   32.96    3.93
   0  -4  18   36.34    3.88
   0  -4  18   35.04    1.48
  -1   4 -18   41.18    1.64
  -1   4 -18   36.52    1.45
  -1   4 -18   40.44    1.69
  -1   4 -18   39.49    1.48
  -1   4 -18   38.58    1.47
   1  -4  18   38.36    3.02
   1  -4  18   43.18    3.35
  -2   4 -18    4.33    0.55
  -2   4 -18    4.68    0.29
  -2   4 -18    4.81    0.30
  -2   4 -18    4.61    0.47
  -2   4 -18    4.70    0.39
  -3   4 -18   30.98    1.09
  -3   4 -18   31.38    1.34
  -3   4 -18   30.26    1.08
  -3   4 -18   31.36    1.32
  -3   4 -18   28.75    1.40
  -4   4 -18    0.61    0.37
  -4   4 -18    0.36    0.39
  -4   4 -18    0.17    0.29
  -5   4 -18    2.63    0.43
  -5   4 -18    2.45    0.61
  -5   4 -18    2.40    0.48
   5   3 -18    2.19    0.51
   5   3 -18    3.08    0.55
   5   3 -18    3.04    0.65
  -5  -3  18    3.15    0.49
  -5  -3  18    3.29    0.58
   4   3 -18    5.14    0.66
   4   3 -18    5.87    0.66
   4   3 -18    5.23    0.66
   4   3 -18    4.98    0.70
  -4  -3  18    6.84    0.65
  -4  -3  18   10.09    5.56
  -4  -3  18    6.32    0.50
  -4  -3  18    8.73    5.74
   3   3 -18    7.30    0.61
   3   3 -18    6.08    0.56
   3   3 -18    6.01    0.63
   3   3 -18    6.63    0.61
   3   3 -18    6.93    0.68
  -3  -3  18    6.49    0.59
  -3  -3  18   11.21    5.16
  -3  -3  18    6.09    0.53
  -3  -3  18    7.14    0.64
  -3  -3  18    7.03    0.43
  -3  -3  18    5.10    4.29
   2   3 -18    3.52    0.36
   2   3 -18    3.44    0.43
   2   3 -18    3.10    0.45
   2   3 -18    3.30    0.45
   2   3 -18    3.09    0.38
  -2  -3  18    3.31    0.44
  -2  -3  18    0.97    3.23
  -2  -3  18    2.96    0.38
  -2  -3  18    3.45    0.33
  -2  -3  18    0.17    3.32
  -2  -3  18    3.06    0.25
   1   3 -18   28.81    1.20
   1   3 -18   28.51    1.30
   1   3 -18   26.63    1.19
   1   3 -18   27.77    1.11
   1   3 -18   29.65    1.29
  -1  -3  18   27.67    1.24
  -1  -3  18   29.34    1.12
  -1  -3  18   26.58    3.98
  -1  -3  18   30.91    1.09
  -1  -3  18   35.69    4.29
   0   3 -18  160.49    5.76
   0   3 -18  166.70    5.99
   0   3 -18  167.13    5.85
   0   3 -18  172.24    5.84
   0   3 -18  169.62    5.95
   0  -3  18  170.81    8.31
   0  -3  18  160.15    5.69
   0  -3  18  171.62    7.96
   0  -3  18  176.54    5.91
  -1   3 -18   28.64    1.07
  -1   3 -18   28.74    1.27
  -1   3 -18   28.73    1.20
  -1   3 -18   28.45    1.08
  -1   3 -18   26.75    1.05
   1  -3  18   24.84    2.87
   1  -3  18   25.30    2.54
   1  -3  18   27.40    1.15
  -2   3 -18    2.93    0.43
  -2   3 -18    3.20    0.37
  -2   3 -18    3.31    0.22
  -2   3 -18    3.62    0.24
  -3   3 -18    6.66    0.57
  -3   3 -18    6.33    0.46
  -3   3 -18    6.50    0.29
  -3   3 -18    5.86    0.26
  -3   3 -18    5.28    0.54
  -4   3 -18    5.49    0.29
  -4   3 -18    4.01    0.93
  -4   3 -18    5.06    0.45
  -4   3 -18    5.59    0.57
  -5   3 -18    3.95    0.70
  -5   3 -18    3.02    0.48
  -5   3 -18    3.45    0.37
   5   2 -18    7.64    0.80
   5   2 -18    7.77    0.71
   5   2 -18    8.23    0.81
  -5  -2  18    6.59    0.74
  -5  -2  18    6.32    0.69
   4   2 -18    6.14    0.70
   4   2 -18    6.01    0.59
   4   2 -18    5.64    0.60
   4   2 -18    5.09    0.71
  -4  -2  18    7.15    0.73
  -4  -2  18   12.00    5.48
  -4  -2  18    5.71    0.54
  -4  -2  18    6.58    0.54
   3   2 -18   16.16    0.95
   3   2 -18   16.83    0.92
   3   2 -18   18.02    0.88
   3   2 -18   17.11    0.94
   3   2 -18   15.32    0.88
  -3  -2  18   18.96    4.38
  -3  -2  18   17.78    0.85
  -3  -2  18   21.97    4.89
  -3  -2  18   17.18    0.87
  -3  -2  18   17.40    0.78
  -3  -2  18   15.95    0.93
   2   2 -18   18.86    0.87
   2   2 -18   20.53    1.00
   2   2 -18   20.71    0.99
   2   2 -18   17.42    0.88
   2   2 -18   19.10    0.93
  -2  -2  18   17.32    0.93
  -2  -2  18   19.51    0.83
  -2  -2  18   17.93    3.59
  -2  -2  18   19.46    0.87
  -2  -2  18   21.40    3.92
  -2  -2  18   18.31    0.79
   1   2 -18   43.05    1.70
   1   2 -18   41.28    1.65
   1   2 -18   43.70    1.77
   1   2 -18   45.01    1.71
   1   2 -18   45.65    1.82
  -1  -2  18   44.61    1.66
  -1  -2  18   48.50    4.45
  -1  -2  18   46.08    1.62
  -1  -2  18   44.76    1.76
   0   2 -18    1.32    0.29
   0   2 -18    1.00    0.20
   0   2 -18    1.19    0.17
   0   2 -18    1.54    0.20
   0   2 -18    1.16    0.25
   0  -2  18    1.15    0.18
   0  -2  18    1.10    1.59
   0  -2  18   -2.15    1.77
   0  -2  18    1.14    0.11
   0  -2  18    1.24    0.25
  -1   2 -18   44.08    1.62
  -1   2 -18   44.46    1.60
  -1   2 -18   41.73    1.62
  -1   2 -18   43.81    1.79
  -1   2 -18   44.95    1.72
   1  -2  18   47.27    1.71
   1  -2  18   42.75    3.50
  -2   2 -18   18.00    0.72
  -2   2 -18   18.97    0.69
  -2   2 -18   17.59    0.91
  -2   2 -18   18.73    0.82
   2  -2  18   16.85    1.69
  -3   2 -18   16.69    0.89
  -3   2 -18   15.65    0.62
  -3   2 -18   17.17    0.74
  -3   2 -18   16.62    0.64
  -4   2 -18    5.25    0.34
  -4   2 -18    5.50    0.68
  -4   2 -18    6.13    0.55
  -4   2 -18    5.37    0.38
  -4   2 -18    5.72    0.30
  -5   2 -18    8.18    0.95
  -5   2 -18    6.28    0.63
  -5   2 -18    6.62    0.40
  -5   2 -18    7.01    0.50
   6   1 -18    1.35    0.56
  -6  -1  18   -1.09    0.53
   5   1 -18    3.30    0.43
   5   1 -18    4.17    0.59
   5   1 -18    2.89    0.56
  -5  -1  18    3.45    0.51
  -5  -1  18    2.71    0.46
  -5  -1  18    2.45    7.25
   4   1 -18    2.32    0.45
   4   1 -18    1.50    0.44
   4   1 -18    3.04    0.40
   4   1 -18    2.81    0.52
   4   1 -18    2.02    0.39
  -4  -1  18    2.11    0.34
  -4  -1  18    0.36    4.37
  -4  -1  18    4.48    4.85
  -4  -1  18    2.67    0.52
  -4  -1  18    2.65    0.44
  -4  -1  18    2.42    0.54
   3   1 -18    2.98    0.51
   3   1 -18    2.66    0.40
   3   1 -18    3.32    0.44
   3   1 -18    3.36    0.46
   3   1 -18    3.72    0.45
  -3  -1  18    2.94    0.34
  -3  -1  18    3.23    0.36
  -3  -1  18    2.79    0.39
  -3  -1  18    1.03    3.61
  -3  -1  18    2.71    0.43
  -3  -1  18   -0.46    2.93
   2   1 -18    0.66    0.23
   2   1 -18    0.50    0.23
   2   1 -18   -0.02    0.21
   2   1 -18    0.67    0.27
   2   1 -18    0.80    0.26
  -2  -1  18    0.90    2.59
  -2  -1  18    0.81    0.17
  -2  -1  18    0.34    0.18
  -2  -1  18    0.66    0.23
  -2  -1  18    0.54    0.27
  -2  -1  18   -2.08    2.42
   1   1 -18   31.47    1.29
   1   1 -18   33.50    1.40
   1   1 -18   33.32    1.31
   1   1 -18   32.62    1.28
   1   1 -18   32.55    1.36
  -1  -1  18   32.10    1.22
  -1  -1  18   33.23    1.35
  -1  -1  18   28.36    3.49
  -1  -1  18   33.13    1.28
   0   1 -18    8.56    0.58
   0   1 -18    8.27    0.50
   0   1 -18    8.97    0.46
   0   1 -18    7.77    0.43
   0   1 -18   12.17    2.33
   0   1 -18    8.87    0.45
   0  -1  18    8.54    0.36
   0  -1  18    8.58    0.41
   0  -1  18   11.11    2.07
  -1   1 -18   32.34    1.21
  -1   1 -18   31.10    1.26
  -1   1 -18   31.05    1.23
  -1   1 -18   32.96    1.18
  -1   1 -18   31.52    1.36
  -1   1 -18   29.88    2.93
   1  -1  18   32.79    2.65
   1  -1  18   32.80    1.24
  -2   1 -18    0.63    0.15
  -2   1 -18    0.81    0.12
  -2   1 -18    0.60    0.27
  -2   1 -18    0.66    0.12
  -2   1 -18    2.12    1.30
   2  -1  18    1.38    1.15
  -3   1 -18    2.85    0.39
  -3   1 -18    3.16    0.25
  -3   1 -18    2.57    0.25
  -3   1 -18    1.52    1.21
  -3   1 -18    3.06    0.21
   3  -1  18    3.77    1.42
  -4   1 -18    3.13    1.06
  -4   1 -18    2.28    0.38
  -4   1 -18    2.05    0.26
  -4   1 -18    2.30    0.25
  -5   1 -18    2.76    0.30
  -5   1 -18    3.70    0.69
  -5   1 -18    3.03    0.43
  -5   1 -18    3.18    0.37
  -6   1 -18    1.25    0.77
   6   0 -18    4.89    0.69
  -6   0  18    5.42    0.72
   5   0 -18    8.36    0.75
   5   0 -18    9.02    0.63
  -5   0  18    8.08    0.76
  -5   0  18    6.68    0.68
  -5   0  18    5.53    6.98
  -4   0  18  -10.14    4.50
  -4   0  18   -2.32    3.94
   3   0 -18    0.34    0.25
   3   0 -18    0.11    0.28
   3   0 -18    0.08    0.30
  -3   0  18    4.02    3.40
  -3   0  18   -1.29    3.11
  -3   0  18    0.46    0.32
  -3   0  18    0.15    0.19
  -3   0  18    0.73    0.29
  -3   0  18    0.00    0.21
   2   0 -18    0.01    0.17
   2   0 -18    0.04    0.21
   2   0 -18   -1.88    2.31
   2   0 -18    0.37    0.20
   2   0 -18    0.40    0.23
   2   0 -18    0.47    0.25
  -2   0  18    0.23    0.15
  -2   0  18    0.38    0.24
  -2   0  18    0.19    0.15
  -2   0  18    0.63    2.42
  -2   0  18   -0.12    0.23
   1   0 -18   13.93    0.75
   1   0 -18   11.08    3.38
   1   0 -18   12.69    0.69
   1   0 -18   13.11    0.65
   1   0 -18   14.85    0.82
  -1   0  18   12.54    0.72
  -1   0  18   13.39    2.56
  -1   0  18   14.06    0.71
  -1   0  18   13.73    0.59
   0   0 -18    0.87    0.18
   0   0 -18   -1.35    1.49
   0   0 -18    0.57    0.23
   0   0 -18    0.77    0.20
   0   0 -18    0.70    0.16
   0   0  18    0.62    0.19
   0   0  18    1.34    1.66
   0   0  18    0.72    0.17
   0   0  18    0.66    0.11
   0   0  18    1.15    0.26
  -1   0 -18   14.05    0.65
  -1   0 -18   13.86    0.63
  -1   0 -18   13.49    0.74
  -1   0 -18   14.56    2.30
  -1   0 -18   13.79    0.58
  -1   0 -18   13.73    0.61
   1   0  18   13.55    2.04
   1   0  18   13.42    0.74
   1   0  18   13.72    0.52
   1   0  18   13.26    0.54
   1   0  18   13.00    0.61
  -2   0 -18    0.62    0.24
  -2   0 -18    0.39    0.13
  -2   0 -18    0.17    0.11
  -2   0 -18    0.20    0.11
  -2   0 -18    0.16    1.37
   2   0  18    2.68    1.47
   2   0  18    0.38    0.11
   2   0  18    0.22    0.24
  -3   0 -18    0.15    0.13
  -3   0 -18    0.25    0.24
  -3   0 -18   -2.01    1.43
  -3   0 -18    0.25    0.16
   3   0  18    1.98    1.83
   3   0  18    0.32    0.30
  -4   0 -18    0.58    1.85
  -4   0 -18    2.47    0.29
  -4   0 -18    1.80    0.23
  -4   0 -18    1.60    0.35
   4   0  18    2.09    0.41
   4   0  18   -1.64    2.41
  -5   0 -18    7.82    0.66
  -5   0 -18    7.33    0.96
  -5   0 -18    7.88    0.60
  -5   0 -18    8.21    0.53
  -6   0 -18    5.72    0.73
  -6   0 -18    5.25    0.96
   6  -1 -18    0.42    0.53
  -6   1  18    0.37    0.59
   5  -1 -18    2.31    0.44
   5  -1 -18    3.42    0.39
  -5   1  18    3.64    0.53
  -5   1  18    2.43    0.43
  -5   1  18   -2.91    6.43
   4  -1 -18    2.18    0.33
   4  -1 -18    2.47    0.53
   4  -1 -18    3.99    0.50
   4  -1 -18    2.57    0.47
  -4   1  18    2.11    0.65
  -4   1  18    1.92    0.33
  -4   1  18    8.31    4.73
  -4   1  18    2.46    0.40
  -4   1  18   -0.65    4.31
  -4   1  18    1.97    0.52
   3  -1 -18    3.06    0.42
   3  -1 -18    2.95    0.51
   3  -1 -18    3.46    0.47
   3  -1 -18    3.11    3.20
   3  -1 -18    2.68    0.35
  -3   1  18    8.15    3.43
  -3   1  18    2.62    0.40
  -3   1  18    3.01    0.45
  -3   1  18    3.15    0.38
   2  -1 -18    0.84    0.25
   2  -1 -18    0.81    0.27
   2  -1 -18    0.40    0.23
   2  -1 -18    0.95    0.28
   2  -1 -18    1.11    2.54
   2  -1 -18    1.06    0.25
  -2   1  18    0.26    0.23
  -2   1  18    2.41    2.33
  -2   1  18    0.61    0.27
  -2   1  18    0.69    0.18
  -2   1  18    1.12    0.29
   1  -1 -18   32.63    1.39
   1  -1 -18   32.99    1.33
   1  -1 -18   37.93    4.17
   1  -1 -18   33.15    1.36
   1  -1 -18   34.47    1.32
   1  -1 -18   33.04    1.31
  -1   1  18   32.27    1.25
  -1   1  18   32.34    1.32
  -1   1  18   35.02    1.42
  -1   1  18   33.01    1.31
  -1   1  18   31.93    1.36
   0  -1 -18    8.66    0.47
   0  -1 -18    8.20    0.55
   0  -1 -18    8.60    0.45
   0  -1 -18    8.50    0.48
   0  -1 -18    8.13    2.17
   0  -1 -18    8.15    0.47
   0   1  18    8.31    0.40
   0   1  18    8.60    0.46
   0   1  18    8.11    0.49
   0   1  18    8.69    0.60
   0   1  18    5.67    1.91
  -1  -1 -18   31.17    1.28
  -1  -1 -18   30.37    1.25
  -1  -1 -18   34.75    1.40
  -1  -1 -18   31.37    1.25
  -1  -1 -18   32.62    3.35
   1   1  18   35.60    1.42
   1   1  18   33.05    1.22
   1   1  18   31.76    1.18
   1   1  18   32.50    1.24
   1   1  18   28.50    3.06
  -2  -1 -18    0.76    0.19
  -2  -1 -18    0.82    0.28
  -2  -1 -18    0.54    0.22
  -2  -1 -18   -0.34    1.56
   2   1  18    0.56    0.12
   2   1  18    0.50    0.11
   2   1  18    1.07    0.14
   2   1  18    0.77    0.29
   2   1  18    0.49    1.67
  -3  -1 -18    1.52    1.73
  -3  -1 -18    2.65    0.32
  -3  -1 -18    3.21    0.42
  -3  -1 -18    2.85    0.26
   3   1  18    2.59    0.43
   3   1  18    5.38    2.19
  -4  -1 -18    1.87    0.27
  -4  -1 -18    2.26    0.32
  -4  -1 -18    2.60    0.39
  -4  -1 -18    3.75    2.16
   4   1  18    2.09    0.42
  -5  -1 -18    2.68    0.37
  -5  -1 -18    3.00    0.45
  -5  -1 -18    3.52    0.45
   5   1  18    1.76    0.50
  -6  -1 -18    0.99    0.55
   5  -2 -18    6.06    0.62
   5  -2 -18    6.76    0.57
  -5   2  18   14.29    7.52
  -5   2  18    6.94    0.61
  -5   2  18    7.12    0.76
   4  -2 -18    5.57    0.52
   4  -2 -18    6.34    0.74
   4  -2 -18    7.04    0.59
   4  -2 -18   -0.85    4.94
  -4   2  18    6.51    0.62
  -4   2  18    5.23    0.49
  -4   2  18    6.02    4.35
   3  -2 -18   15.66    0.88
   3  -2 -18   18.94    1.03
   3  -2 -18   17.71    0.87
   3  -2 -18   17.88    4.19
   3  -2 -18   18.97    0.90
  -3   2  18   16.06    0.96
  -3   2  18   20.96    4.25
  -3   2  18   15.53    0.79
  -3   2  18   17.22    0.88
  -3   2  18   16.23    0.92
  -3   2  18   17.49    0.90
   2  -2 -18   18.84    3.61
   2  -2 -18   16.89    0.85
   2  -2 -18   18.10    0.86
   2  -2 -18   19.11    0.94
   2  -2 -18   17.59    0.90
  -2   2  18   17.48    0.88
  -2   2  18   19.19    0.81
  -2   2  18   18.54    0.93
  -2   2  18   18.01    0.93
  -2   2  18   19.01    0.86
  -2   2  18   14.99    3.30
   1  -2 -18   44.20    1.74
   1  -2 -18   43.68    1.72
   1  -2 -18   46.40    1.84
   1  -2 -18   47.13    1.78
   1  -2 -18   40.94    4.58
  -1   2  18   47.32    1.77
  -1   2  18   47.03    1.69
  -1   2  18   44.35    1.79
  -1   2  18   44.96    1.84
   0  -2 -18    1.07    0.27
   0  -2 -18    1.22    0.23
   0  -2 -18    1.34    0.20
   0  -2 -18    1.27    0.23
   0  -2 -18    0.00    1.80
   0   2  18   -1.74    1.61
   0   2  18    0.96    0.22
   0   2  18    1.03    0.23
   0   2  18    1.25    0.30
   0   2  18    1.09    0.16
  -1  -2 -18   45.55    1.70
  -1  -2 -18   45.93    1.65
  -1  -2 -18   39.55    3.82
  -1  -2 -18   46.91    1.84
  -1  -2 -18   43.85    1.72
   1   2  18   45.06    1.67
   1   2  18   43.37    1.81
   1   2  18   44.20    1.67
   1   2  18   45.27    4.05
   1   2  18   44.60    1.63
  -2  -2 -18   18.18    0.95
  -2  -2 -18   18.19    0.77
  -2  -2 -18   19.45    0.85
   2   2  18   21.12    3.05
   2   2  18   17.98    0.70
   2   2  18   18.68    0.78
   2   2  18   18.62    0.75
   2   2  18   18.62    0.96
  -3  -2 -18   17.07    0.73
  -3  -2 -18   17.25    0.92
  -3  -2 -18   14.60    0.79
  -3  -2 -18   16.37    2.83
   3   2  18   16.78    0.66
   3   2  18   16.55    3.45
   3   2  18   14.61    0.90
   3   2  18   17.85    0.71
  -4  -2 -18    5.66    0.46
  -4  -2 -18    5.52    0.60
  -4  -2 -18    6.77    0.55
   4   2  18    6.93    0.74
  -5  -2 -18    5.37    0.56
  -5  -2 -18    7.20    0.69
   5   2  18    5.80    0.70
   5  -3 -18    2.39    0.49
   5  -3 -18    3.16    0.40
  -5   3  18    3.14    0.44
  -5   3  18    3.98    0.59
   4  -3 -18    5.45    0.53
   4  -3 -18    5.78    0.54
   4  -3 -18    4.71    0.56
  -4   3  18    4.68    0.60
  -4   3  18    5.65    0.49
  -4   3  18    6.01    0.62
   3  -3 -18    7.28    0.57
   3  -3 -18    5.61    0.68
   3  -3 -18    3.85    4.11
   3  -3 -18    7.06    0.62
   3  -3 -18    7.48    0.56
  -3   3  18    6.62    0.60
  -3   3  18    1.51    3.66
  -3   3  18    6.58    0.45
  -3   3  18    7.07    0.72
  -3   3  18    6.02    0.52
  -3   3  18    6.02    0.61
   2  -3 -18    3.63    0.41
   2  -3 -18   -1.55    3.08
   2  -3 -18    3.07    0.43
   2  -3 -18    3.35    0.43
   2  -3 -18    3.84    0.37
  -2   3  18    3.31    0.40
  -2   3  18    3.16    0.43
  -2   3  18    3.53    0.47
  -2   3  18    2.82    0.30
  -2   3  18    2.61    0.38
  -2   3  18   -0.32    2.45
   1  -3 -18   31.38    1.31
   1  -3 -18   27.53    4.03
   1  -3 -18   29.33    1.26
   1  -3 -18   29.32    1.20
   1  -3 -18   29.42    1.21
  -1   3  18   29.20    1.24
  -1   3  18   27.54    1.26
  -1   3  18   28.93    1.31
  -1   3  18   28.80    1.15
   0  -3 -18  152.51    8.53
   0  -3 -18  167.26    5.96
   0  -3 -18  165.65    6.06
   0  -3 -18  171.92    5.92
   0  -3 -18  172.09    5.99
   0   3  18  170.77    5.89
   0   3  18  171.94    8.68
   0   3  18  182.07    6.10
   0   3  18  174.38    5.96
  -1  -3 -18   22.41    3.59
  -1  -3 -18   25.91    1.24
  -1  -3 -18   28.58    1.18
  -1  -3 -18   29.17    1.18
  -1  -3 -18   26.62    1.09
   1   3  18   28.83    1.13
   1   3  18   25.66    1.25
   1   3  18   26.78    1.11
   1   3  18   29.53    1.09
   1   3  18   24.61    3.58
  -2  -3 -18    3.72    0.46
  -2  -3 -18   -0.29    2.12
  -2  -3 -18    3.73    0.41
  -2  -3 -18    3.39    0.32
   2   3  18    3.79    0.36
   2   3  18    3.03    0.25
   2   3  18    2.89    0.44
   2   3  18    0.44    2.50
   2   3  18    3.17    0.29
  -3  -3 -18    5.32    0.39
  -3  -3 -18    4.08    2.53
  -3  -3 -18    5.13    0.81
  -3  -3 -18    5.96    0.50
   3   3  18    6.73    0.41
   3   3  18    6.44    0.45
   3   3  18    6.47    3.43
   3   3  18    5.77    0.68
  -4  -3 -18    5.71    0.60
  -4  -3 -18    5.20    0.62
   4   3  18    5.60    0.41
   4   3  18    5.12    0.38
   4   3  18    4.31    0.63
  -5  -3 -18    2.66    0.53
  -5  -3 -18    3.08    0.58
   5   3  18    3.58    0.68
   5  -4 -18    2.40    0.52
  -5   4  18    2.27    0.44
  -5   4  18    3.08    0.58
   4  -4 -18    0.36    0.37
   4  -4 -18    0.49    0.33
  -4   4  18    0.72    0.41
  -4   4  18    0.76    0.32
  -4   4  18    0.11    0.35
   3  -4 -18   32.86    1.37
   3  -4 -18   22.63    5.20
   3  -4 -18   32.22    1.34
   3  -4 -18   29.69    1.38
  -3   4  18   29.39    1.39
  -3   4  18   28.88    1.26
  -3   4  18   29.42    1.55
  -3   4  18   34.96    5.13
  -3   4  18   29.45    1.35
   2  -4 -18    4.51    0.48
   2  -4 -18    4.16    0.47
   2  -4 -18    4.19    0.54
   2  -4 -18    7.91    3.78
   2  -4 -18    5.29    0.54
  -2   4  18    3.75    3.18
  -2   4  18    4.60    0.47
  -2   4  18    4.15    0.53
  -2   4  18    4.25    0.54
  -2   4  18    4.60    0.50
  -2   4  18    4.03    0.36
   1  -4 -18   39.41    1.59
   1  -4 -18   44.07    5.31
   1  -4 -18   41.95    1.73
   1  -4 -18   42.88    1.70
  -1   4  18   39.89    1.73
  -1   4  18   40.50    1.69
  -1   4  18   42.13    1.57
  -1   4  18   38.75    1.64
   0  -4 -18   35.40    1.57
   0  -4 -18   37.58    1.49
   0  -4 -18   38.06    4.68
   0  -4 -18   36.82    1.43
   0  -4 -18   36.86    1.51
   0   4  18   36.39    1.60
   0   4  18   39.02    4.57
   0   4  18   37.29    1.50
   0   4  18   34.62    1.47
  -1  -4 -18   38.41    1.81
  -1  -4 -18   37.01    1.48
  -1  -4 -18   38.59    1.57
  -1  -4 -18   38.72    1.57
  -1  -4 -18   39.05    4.82
   1   4  18   41.03    1.55
   1   4  18   37.59    1.50
   1   4  18   40.89    1.49
   1   4  18   36.19    1.67
   1   4  18   37.25    5.02
  -2  -4 -18    4.89    0.37
  -2  -4 -18    3.91    0.52
  -2  -4 -18   -0.12    2.61
  -2  -4 -18    4.77    0.47
  -2  -4 -18    4.72    0.55
   2   4  18    4.14    0.33
   2   4  18    5.55    0.41
   2   4  18    4.77    0.46
   2   4  18    6.43    3.52
   2   4  18    3.82    0.53
  -3  -4 -18   30.74    1.39
  -3  -4 -18   30.24    1.45
  -3  -4 -18   29.02    1.25
  -3  -4 -18   33.99    5.03
   3   4  18   31.06    1.27
   3   4  18   30.32    5.32
   3   4  18   30.53    1.48
   3   4  18   31.04    1.26
  -4  -4 -18    0.56    0.42
  -4  -4 -18    0.67    0.43
   4   4  18    0.63    0.32
   4   4  18    0.36    0.27
   4   4  18    0.10    0.52
  -5  -4 -18    2.42    0.64
  -5  -4 -18    2.79    0.62
   5  -5 -18    2.16    0.58
   4  -5 -18    2.12    0.46
   4  -5 -18    3.29    0.52
  -4   5  18    3.16    0.41
  -4   5  18    3.47    0.53
  -4   5  18    3.01    0.57
   3  -5 -18   -0.11    0.36
   3  -5 -18    0.13    0.35
  -3   5  18   -0.25    0.40
  -3   5  18   -0.16    0.28
  -3   5  18    0.04    0.23
   2  -5 -18    0.13    0.33
   2  -5 -18   -2.73    4.02
   2  -5 -18    0.33    0.38
   2  -5 -18   -0.12    0.26
   2  -5 -18    0.22    0.29
  -2   5  18    0.59    0.29
  -2   5  18    3.37    3.52
  -2   5  18   -0.09    0.38
  -2   5  18    0.60    0.39
  -2   5  18    0.88    0.35
  -2   5  18    0.35    0.20
   1  -5 -18   23.25    1.02
   1  -5 -18   23.42    4.51
   1  -5 -18   23.34    1.11
   1  -5 -18   22.37    1.15
   1  -5 -18   24.21    1.10
  -1   5  18   22.35    0.97
  -1   5  18   19.82    1.17
  -1   5  18   22.48    1.12
  -1   5  18   22.77    1.07
  -1   5  18   19.13    4.18
   0  -5 -18  118.49    4.33
   0  -5 -18  116.74    4.33
   0  -5 -18  113.60    4.24
   0  -5 -18  120.49    4.43
   0  -5 -18  117.89    8.17
   0   5  18  115.69    4.29
   0   5  18  119.33    4.31
   0   5  18  123.70    8.08
   0   5  18  123.12    4.46
   0   5  18  128.89    4.26
  -1  -5 -18   23.46    1.11
  -1  -5 -18   23.53    1.22
  -1  -5 -18   13.22    3.99
  -1  -5 -18   23.35    1.02
  -1  -5 -18   22.74    1.10
   1   5  18   20.40    1.19
   1   5  18   23.97    1.05
   1   5  18   23.94    1.10
   1   5  18   25.73    1.03
   1   5  18   19.47    4.32
  -2  -5 -18   -1.88    3.05
  -2  -5 -18    0.68    0.25
  -2  -5 -18    0.42    0.29
  -2  -5 -18    1.09    0.38
  -2  -5 -18    0.06    0.28
   2   5  18    0.32    3.85
   2   5  18    0.35    0.21
   2   5  18    0.33    0.31
   2   5  18    0.05    0.24
   2   5  18    0.98    0.45
  -3  -5 -18   -5.09    3.40
  -3  -5 -18    0.03    0.39
  -3  -5 -18    0.68    0.45
   3   5  18    0.16    0.29
   3   5  18    0.77    0.34
  -4  -5 -18    3.05    0.59
  -4  -5 -18    3.70    0.65
   4   5  18    3.61    0.49
   4   5  18    3.01    0.45
  -5  -5 -18    3.65    0.74
   4  -6 -18   14.83    0.98
  -4   6  18   12.86    0.96
  -4   6  18   13.08    0.86
   3  -6 -18    3.42    0.53
   3  -6 -18    3.32    0.52
  -3   6  18    3.71    0.45
  -3   6  18    3.47    0.53
  -3   6  18    3.56    0.63
   2  -6 -18    9.97    0.76
   2  -6 -18   10.20    0.84
  -2   6  18    9.66    0.59
  -2   6  18    8.96    0.90
   1  -6 -18    8.84    7.77
   1  -6 -18    4.27    0.53
   1  -6 -18    5.10    0.62
  -1   6  18    4.47    0.43
  -1   6  18    4.87    0.60
  -1   6  18    4.67    3.87
  -1   6  18    4.39    0.61
   0  -6 -18    1.21    0.39
   0  -6 -18    0.90    3.96
   0  -6 -18    0.97    0.35
   0  -6 -18    0.43    0.33
   0   6  18    0.81    0.35
   0   6  18    0.61    0.42
   0   6  18   -0.27    0.65
   0   6  18    3.05    4.32
   0   6  18    0.88    0.28
  -1  -6 -18    4.45    0.56
  -1  -6 -18    5.73    0.67
  -1  -6 -18    1.07    4.31
   1   6  18    4.91    0.55
   1   6  18    4.56    0.45
   1   6  18    3.57    0.47
   1   6  18    6.70    4.39
  -2  -6 -18    9.99    0.82
  -2  -6 -18    8.90    0.82
  -2  -6 -18   12.24    4.65
   2   6  18   -0.91    5.18
   2   6  18   10.19    0.65
   2   6  18    8.91    0.53
   2   6  18   10.90    0.76
  -3  -6 -18    3.22    0.64
  -3  -6 -18    3.37    0.62
   3   6  18    4.00    0.33
   3   6  18    4.82    0.55
  -4  -6 -18   14.29    1.09
   4   6  18   14.61    0.99
   3  -7 -18    0.99    0.50
  -3   7  18    0.71    0.42
  -3   7  18    0.41    0.34
   2  -7 -18    1.23    0.54
   2  -7 -18    0.97    0.46
  -2   7  18    0.46    0.29
   1  -7 -18   22.75    1.20
   1  -7 -18   21.89    1.24
  -1   7  18   20.70    1.02
   0  -7 -18    8.17    5.82
   0  -7 -18    0.61    0.43
   0  -7 -18    0.84    0.49
   0   7  18    0.88    0.35
   0   7  18    0.20    0.45
   0   7  18   -0.14    5.23
  -1  -7 -18   22.67    1.21
  -1  -7 -18   18.81    5.78
  -1  -7 -18   21.70    1.31
   1   7  18   21.45    6.75
   1   7  18   22.10    1.08
  -2  -7 -18    0.23    0.53
  -2  -7 -18   -4.42    5.01
  -2  -7 -18    0.67    0.45
   2   7  18    0.67    0.29
   2   7  18    1.13    0.58
   2   7  18   -0.43    0.37
   2   7  18    0.92    6.80
  -3  -7 -18    1.69    0.59
   3   7  18    0.90    0.49
   2  -8 -18    0.40    0.59
   1  -8 -18    1.74    0.60
  -1   8  18    3.11    0.48
   0  -8 -18    3.41    0.61
   0   8  18    1.99    0.45
  -1  -8 -18    2.55    0.67
   1   8  18    3.59    0.53
  -2  -8 -18    0.95    0.65
   2   8  18    0.84    0.47
   2   8 -19    6.56    0.79
   1   8 -19    0.66    0.64
   1   8 -19    0.97    0.51
   0   8 -19    0.75    0.44
   0   8 -19    0.28    0.57
  -1   8 -19    1.12    0.56
  -1   8 -19    0.34    0.41
  -2   8 -19    5.99    0.81
  -2   8 -19    6.21    0.92
   3   7 -19    5.70    0.90
   3   7 -19    6.45    0.78
  -3  -7  19    5.78    0.67
   2   7 -19    1.43    0.57
   2   7 -19    1.79    0.48
   1   7 -19   14.76    1.07
   1   7 -19   13.51    0.91
  -1  -7  19   13.97    0.63
   0   7 -19    7.97    0.67
   0   7 -19    7.91    0.77
   0   7 -19    8.09    0.80
  -1   7 -19   15.14    1.03
  -1   7 -19   13.32    0.76
  -1   7 -19   13.13    1.06
  -1   7 -19   12.44    0.85
  -2   7 -19    1.03    0.51
  -2   7 -19    0.48    0.57
  -2   7 -19    0.80    0.29
  -3   7 -19    6.01    0.83
  -3   7 -19    6.15    0.76
   4   6 -19   10.55    1.01
   4   6 -19    9.80    1.13
   4   6 -19   11.16    1.22
  -4  -6  19   10.27    0.90
   3   6 -19    6.38    0.82
   3   6 -19    8.28    0.88
  -3  -6  19    7.60    0.66
  -3  -6  19    7.16    0.69
   2   6 -19   -0.32    0.33
   2   6 -19   -0.16    0.41
  -2  -6  19    0.19    0.27
  -2  -6  19    0.30    0.23
   1   6 -19   13.97    0.81
   1   6 -19   12.38    0.94
   1   6 -19   12.10    0.85
  -1  -6  19   13.08    0.54
   0   6 -19    0.31    0.36
   0   6 -19    0.43    0.27
   0   6 -19    0.18    0.40
   0  -6  19    0.20    3.35
  -1   6 -19   12.64    0.75
  -1   6 -19   13.60    0.90
  -1   6 -19   13.23    1.00
  -1   6 -19   12.53    0.66
   1  -6  19   11.00    2.45
  -2   6 -19   -0.16    0.35
  -2   6 -19   -0.02    0.45
  -2   6 -19    0.19    0.21
  -2   6 -19    0.48    0.27
  -3   6 -19    7.05    0.77
  -3   6 -19    6.70    0.51
  -3   6 -19    6.97    0.46
  -3   6 -19    8.38    0.85
  -4   6 -19    9.15    0.97
  -4   6 -19    8.09    0.87
   4   5 -19    2.23    0.62
   4   5 -19    2.05    0.66
   4   5 -19    3.47    0.62
  -4  -5  19    2.39    0.48
  -4  -5  19    2.71    0.34
   3   5 -19   20.91    1.25
   3   5 -19   21.04    1.13
   3   5 -19   20.15    1.23
  -3  -5  19   21.42    0.85
  -3  -5  19   22.83    1.08
  -3  -5  19   21.04    1.02
   2   5 -19   13.80    0.91
   2   5 -19   12.88    0.92
   2   5 -19   15.51    0.97
   2   5 -19   14.45    0.86
  -2  -5  19    7.31    4.66
  -2  -5  19   13.57    0.67
  -2  -5  19   12.68    0.70
   1   5 -19    6.75    0.56
   1   5 -19    6.35    0.67
   1   5 -19    7.64    0.69
   1   5 -19    7.73    0.66
  -1  -5  19    7.60    3.64
  -1  -5  19    7.31    0.36
  -1  -5  19    7.17    0.39
  -1  -5  19    0.37    3.29
  -1  -5  19    6.87    0.63
   0   5 -19    0.28    0.34
   0   5 -19    0.21    0.22
   0   5 -19    0.00    0.31
   0   5 -19    0.22    0.28
   0  -5  19   -0.20    0.28
   0  -5  19    3.19    2.57
   0  -5  19   -2.25    2.45
  -1   5 -19    6.67    0.62
  -1   5 -19    6.00    0.69
  -1   5 -19    6.85    0.45
   1  -5  19    8.43    2.20
   1  -5  19    5.66    2.07
  -2   5 -19   13.77    0.83
  -2   5 -19   13.04    0.60
  -2   5 -19   13.59    0.64
  -2   5 -19   12.91    0.62
  -2   5 -19   13.77    0.89
  -3   5 -19   19.11    1.05
  -3   5 -19   21.89    1.19
  -3   5 -19   20.37    0.98
  -3   5 -19   20.99    0.81
  -3   5 -19   20.32    0.78
  -4   5 -19    1.62    0.44
  -4   5 -19    3.01    0.57
  -4   5 -19    2.69    0.49
   5   4 -19    5.14    0.75
   5   4 -19    3.20    0.73
   5   4 -19    5.24    0.71
  -5  -4  19    5.11    0.71
  -5  -4  19    4.26    0.53
   4   4 -19    2.49    0.51
   4   4 -19    2.35    0.55
   4   4 -19    2.53    0.55
  -4  -4  19    0.74    6.34
  -4  -4  19    2.26    0.33
  -4  -4  19    2.70    0.47
   3   4 -19   16.91    1.03
   3   4 -19   16.68    1.02
   3   4 -19   15.35    0.91
  -3  -4  19   16.19    0.89
  -3  -4  19   15.58    0.71
  -3  -4  19   16.16    0.84
  -3  -4  19   15.26    5.25
   2   4 -19    6.51    0.59
   2   4 -19    5.93    0.53
   2   4 -19    6.18    0.63
   2   4 -19    5.21    0.60
   2   4 -19    5.82    0.41
  -2  -4  19    6.37    0.50
  -2  -4  19    1.60    3.61
  -2  -4  19    6.37    0.61
  -2  -4  19    5.89    3.91
  -2  -4  19    6.45    0.43
   1   4 -19   22.96    1.26
   1   4 -19   23.78    1.06
   1   4 -19   24.48    1.10
   1   4 -19   23.22    0.90
   1   4 -19   24.12    1.20
  -1  -4  19   25.04    0.94
  -1  -4  19   23.75    0.92
  -1  -4  19   26.18    4.20
  -1  -4  19   24.81    4.00
  -1  -4  19   22.61    1.11
   0   4 -19   32.83    1.31
   0   4 -19   32.46    1.14
   0   4 -19   30.38    1.39
   0   4 -19   32.23    1.28
   0  -4  19   30.44    3.91
   0  -4  19   31.99    1.36
   0  -4  19   27.00    4.02
  -1   4 -19   23.92    0.98
  -1   4 -19   24.20    0.90
  -1   4 -19   23.43    0.95
  -1   4 -19   24.36    0.97
  -1   4 -19   22.52    1.11
   1  -4  19   29.26    2.87
   1  -4  19   24.50    3.07
  -2   4 -19    6.14    0.35
  -2   4 -19    5.05    0.84
  -2   4 -19    6.35    0.46
  -2   4 -19    6.44    0.36
  -2   4 -19    7.25    0.55
  -3   4 -19   15.39    0.59
  -3   4 -19   14.65    0.58
  -3   4 -19   15.26    0.83
  -3   4 -19   14.59    0.81
  -4   4 -19    2.66    0.41
  -4   4 -19    2.17    0.63
  -5   4 -19    4.76    0.72
  -5   4 -19    5.61    0.73
   5   3 -19    6.06    0.82
   5   3 -19    7.30    0.88
   5   3 -19    7.08    0.86
  -5  -3  19    6.76    0.74
  -5  -3  19    6.68    0.69
   4   3 -19    6.43    0.72
   4   3 -19    6.53    0.66
   4   3 -19    6.03    0.75
   4   3 -19    5.13    0.70
  -4  -3  19    4.45    5.84
  -4  -3  19    7.66    0.55
  -4  -3  19    6.84    0.60
   3   3 -19   10.02    0.72
   3   3 -19   11.67    0.86
   3   3 -19   11.38    0.80
   3   3 -19   12.36    0.74
   3   3 -19   11.07    0.85
  -3  -3  19   11.55    0.65
  -3  -3  19   11.20    0.81
  -3  -3  19   13.34    0.61
  -3  -3  19    8.51    8.74
  -3  -3  19   11.89    0.72
  -3  -3  19    7.30    4.78
   2   3 -19   39.93    1.62
   2   3 -19   39.69    1.71
   2   3 -19   36.61    1.54
   2   3 -19   40.80    1.72
   2   3 -19   38.39    1.63
  -2  -3  19   39.72    1.47
  -2  -3  19   43.83    5.89
  -2  -3  19   38.57    1.68
  -2  -3  19   39.86    1.56
  -2  -3  19   40.64    5.95
  -2  -3  19   42.34    1.53
   1   3 -19   64.06    2.40
   1   3 -19   60.96    2.31
   1   3 -19   63.54    2.52
   1   3 -19   65.03    2.50
   1   3 -19   65.35    2.42
  -1  -3  19   72.47    5.75
  -1  -3  19   64.85    2.46
  -1  -3  19   64.07    2.31
  -1  -3  19   55.35    5.47
  -1  -3  19   66.48    2.28
   0   3 -19    0.44    0.20
   0   3 -19    0.28    0.27
   0   3 -19    0.29    0.24
   0   3 -19    0.15    0.11
   0   3 -19    0.09    0.17
   0  -3  19    1.00    1.89
   0  -3  19    0.38    0.22
   0  -3  19    2.51    2.12
  -1   3 -19   66.64    2.48
  -1   3 -19   68.29    2.34
  -1   3 -19   69.33    2.33
  -1   3 -19   65.36    2.35
  -1   3 -19   63.12    2.54
   1  -3  19   57.08    4.11
   1  -3  19   66.43    2.43
   1  -3  19   58.95    3.83
  -2   3 -19   39.45    1.42
  -2   3 -19   37.39    1.66
  -2   3 -19   40.27    1.58
  -2   3 -19   40.69    1.44
  -3   3 -19   12.00    0.79
  -3   3 -19   10.66    0.62
  -3   3 -19   11.32    0.47
  -3   3 -19   11.40    0.73
  -4   3 -19    6.35    0.72
  -4   3 -19    6.82    0.34
  -4   3 -19    6.38    0.50
  -4   3 -19    6.50    0.64
  -5   3 -19    5.19    0.69
  -5   3 -19    5.76    0.77
   5   2 -19    3.10    0.62
   5   2 -19    2.27    0.84
   5   2 -19    3.54    0.63
  -5  -2  19    2.69    0.52
  -5  -2  19    3.29    0.51
   4   2 -19    5.12    0.63
   4   2 -19    4.91    0.62
   4   2 -19    4.67    0.60
   4   2 -19    4.69    0.64
  -4  -2  19    5.38    0.60
  -4  -2  19    4.89    0.57
  -4  -2  19    5.75    5.40
   3   2 -19   40.07    1.70
   3   2 -19   38.56    1.72
   3   2 -19   42.09    1.70
   3   2 -19   38.48    1.73
   3   2 -19   39.36    1.76
  -3  -2  19   39.28    1.67
  -3  -2  19   39.07    5.79
  -3  -2  19   41.90    1.77
  -3  -2  19   45.51    6.37
  -3  -2  19   45.79    1.61
  -3  -2  19   39.55    1.64
   2   2 -19   65.24    2.51
   2   2 -19   65.99    2.58
   2   2 -19   66.23    2.47
   2   2 -19   66.43    2.51
   2   2 -19   66.09    2.58
  -2  -2  19   65.26    6.19
  -2  -2  19   67.62    2.47
  -2  -2  19   68.95    2.41
  -2  -2  19   69.70    2.42
  -2  -2  19   61.59    2.55
  -2  -2  19   64.89    6.36
   1   2 -19   51.02    1.86
   1   2 -19   48.71    1.99
   1   2 -19   51.10    1.92
   1   2 -19   50.54    1.91
   1   2 -19   49.91    2.02
  -1  -2  19   50.36    1.81
  -1  -2  19   51.22    1.85
  -1  -2  19   44.63    4.73
  -1  -2  19   49.16    1.96
   0   2 -19    0.24    0.16
   0   2 -19    0.02    0.12
   0   2 -19    0.06    0.25
   0   2 -19   -0.02    0.19
   0  -2  19    0.19    0.20
   0  -2  19   -1.47    1.60
   0  -2  19    0.08    0.07
   0  -2  19    0.41    1.91
  -1   2 -19   50.44    2.00
  -1   2 -19   50.01    1.79
  -1   2 -19   50.16    1.91
  -1   2 -19   50.88    1.82
  -1   2 -19   50.03    1.82
   1  -2  19   47.54    1.87
   1  -2  19   48.20    3.82
  -2   2 -19   66.67    2.43
  -2   2 -19   66.34    2.30
  -2   2 -19   70.29    2.57
  -2   2 -19   66.21    2.33
   2  -2  19   63.96    3.28
   2  -2  19   57.18    4.35
  -3   2 -19   39.74    1.67
  -3   2 -19   39.92    1.40
  -3   2 -19   38.81    1.42
  -3   2 -19   39.18    1.51
  -4   2 -19    4.50    0.33
  -4   2 -19    4.71    0.36
  -4   2 -19    5.72    0.71
  -4   2 -19    4.65    0.58
  -5   2 -19    3.31    0.35
  -5   2 -19    3.99    0.71
  -5   2 -19    3.16    0.47
   5   1 -19   10.73    0.92
   5   1 -19   10.04    0.78
   5   1 -19   12.32    0.92
  -5  -1  19   12.02    0.79
  -5  -1  19   10.08    0.83
   4   1 -19   15.18    0.86
   4   1 -19   13.44    0.83
   4   1 -19   14.28    0.96
   4   1 -19   12.43    0.97
  -4  -1  19   14.64    0.81
  -4  -1  19   16.78    5.95
  -4  -1  19   14.98    0.81
  -4  -1  19   13.44    5.20
   3   1 -19   13.64    0.82
   3   1 -19   12.39    0.74
   3   1 -19   14.15    0.80
   3   1 -19   13.32    0.80
   3   1 -19   13.38    0.81
  -3  -1  19   11.37    0.76
  -3  -1  19   17.94    4.72
  -3  -1  19   12.72    0.83
  -3  -1  19   16.51    4.30
  -3  -1  19   13.80    0.77
  -3  -1  19   14.37    0.70
   2   1 -19   17.48    0.86
   2   1 -19   17.44    0.91
   2   1 -19   19.10    0.87
   2   1 -19   17.43    0.87
   2   1 -19   16.44    0.90
  -2  -1  19   18.55    3.72
  -2  -1  19   18.55    0.92
  -2  -1  19   17.65    0.79
  -2  -1  19   18.83    0.80
  -2  -1  19   18.02    0.87
  -2  -1  19   21.04    4.00
   1   1 -19    5.19    0.41
   1   1 -19    4.98    0.38
   1   1 -19    5.48    0.39
   1   1 -19    5.22    0.48
   1   1 -19    5.04    0.44
  -1  -1  19    5.46    0.31
  -1  -1  19    5.09    0.44
  -1  -1  19    8.00    2.45
  -1  -1  19    5.67    0.39
   0   1 -19    0.04    0.21
   0   1 -19    0.16    0.15
   0   1 -19    0.40    0.20
   0   1 -19   -0.01    0.13
   0   1 -19   -0.09    0.16
   0   1 -19   -0.59    1.73
   0  -1  19   -0.01    0.07
   0  -1  19    0.10    0.17
   0  -1  19    0.24    0.12
   0  -1  19   -0.70    1.68
  -1   1 -19    5.88    0.37
  -1   1 -19    5.12    1.74
  -1   1 -19    5.66    0.32
  -1   1 -19    5.27    0.39
  -1   1 -19    5.72    0.35
  -1   1 -19    5.61    0.49
   1  -1  19    6.29    1.49
   1  -1  19    5.50    0.38
  -2   1 -19   17.62    0.70
  -2   1 -19   17.91    0.77
  -2   1 -19   17.88    0.93
  -2   1 -19   19.69    2.48
  -2   1 -19   17.77    0.72
   2  -1  19   15.59    2.22
  -3   1 -19   13.69    0.58
  -3   1 -19   12.79    0.54
  -3   1 -19   12.82    0.58
  -3   1 -19   13.36    0.79
  -3   1 -19   12.48    1.77
   3  -1  19   15.08    1.97
  -4   1 -19    9.22    1.31
  -4   1 -19   14.11    0.81
  -4   1 -19   13.66    0.64
  -5   1 -19    9.84    0.64
  -5   1 -19   10.02    0.55
  -5   1 -19   11.60    1.07
  -5   1 -19    9.31    0.73
   6   0 -19    0.61    0.58
   5   0 -19    9.07    0.70
   5   0 -19    6.61    0.70
  -5   0  19    9.21    0.74
  -5   0  19   18.37    7.27
  -5   0  19    9.23    0.75
   4   0 -19    1.03    0.31
   4   0 -19    0.32    0.45
   4   0 -19    0.32    0.32
  -4   0  19   -0.05    0.26
  -4   0  19   -2.04    5.31
  -4   0  19    2.80    4.51
  -4   0  19   -0.05    0.26
   3   0 -19   10.24    0.68
   3   0 -19   10.07    0.68
   3   0 -19    9.31    0.62
   3   0 -19   10.50    0.67
   3   0 -19    7.88    0.70
  -3   0  19    6.34    3.39
  -3   0  19    9.52    0.72
  -3   0  19   10.14    0.59
  -3   0  19    9.78    0.58
  -3   0  19   13.92    4.03
  -3   0  19    9.76    0.70
   2   0 -19   94.95    3.40
   2   0 -19   91.54    3.42
   2   0 -19   93.23    3.38
   2   0 -19   89.43    6.69
   2   0 -19   90.77    3.43
   2   0 -19   92.90    3.37
  -2   0  19   95.69    3.30
  -2   0  19   93.92    3.33
  -2   0  19   82.51    6.32
  -2   0  19   94.63    3.45
  -2   0  19   92.27    3.37
   1   0 -19   19.52    0.98
   1   0 -19   19.35    0.93
   1   0 -19   19.48    0.88
   1   0 -19   25.05    3.60
   1   0 -19   19.87    0.89
   1   0 -19   19.68    0.88
  -1   0  19   21.03    0.96
  -1   0  19   21.35    0.89
  -1   0  19   21.24    3.21
  -1   0  19   19.83    0.81
  -1   0  19   20.29    0.98
   0   0 -19    0.05    0.16
   0   0 -19    0.16    0.13
   0   0 -19    0.21    0.14
   0   0 -19   -0.07    1.79
   0   0 -19    0.20    0.15
   0   0 -19    0.31    0.23
   0   0  19   -0.25    1.69
   0   0  19   -0.02    0.08
   0   0  19    0.03    0.22
   0   0  19    0.33    0.21
   0   0  19    0.19    0.15
  -1   0 -19   20.77    2.94
  -1   0 -19   20.08    0.87
  -1   0 -19   20.63    1.01
  -1   0 -19   23.78    0.91
  -1   0 -19   20.94    0.82
  -1   0 -19   20.35    0.85
   1   0  19   18.94    0.80
   1   0  19   20.43    0.76
   1   0  19   20.76    0.86
   1   0  19   20.90    2.63
   1   0  19   19.74    0.99
  -2   0 -19   84.79    5.02
  -2   0 -19   95.36    3.20
  -2   0 -19   94.54    3.24
  -2   0 -19   92.26    3.22
  -2   0 -19   90.08    3.40
   2   0  19   83.54    4.94
   2   0  19   95.99    3.20
   2   0  19   90.91    3.40
  -3   0 -19    9.63    0.68
  -3   0 -19    9.36    0.45
  -3   0 -19   10.57    2.04
  -3   0 -19    9.62    0.51
   3   0  19    8.83    0.70
   3   0  19   11.59    2.52
  -4   0 -19   -0.17    0.17
  -4   0 -19   -0.80    1.90
  -4   0 -19   -0.10    0.30
  -4   0 -19    0.31    0.21
   4   0  19    0.26    0.38
  -5   0 -19    8.12    1.04
  -5   0 -19    8.71    0.71
  -5   0 -19    7.65    0.52
  -5   0 -19    7.24    0.62
   5  -1 -19   10.76    0.84
   5  -1 -19    9.52    0.70
  -5   1  19   10.64    0.81
  -5   1  19   10.73    0.73
  -5   1  19   -0.24    6.56
   4  -1 -19   14.80    0.79
   4  -1 -19   14.00    1.32
   4  -1 -19   12.62    0.77
   4  -1 -19   12.36    0.95
  -4   1  19   12.87    0.79
  -4   1  19   13.43    0.74
  -4   1  19    9.64    5.04
  -4   1  19   16.80    5.49
   3  -1 -19   14.30    4.41
   3  -1 -19   12.61    0.82
   3  -1 -19   12.50    0.80
   3  -1 -19   12.42    0.75
   3  -1 -19   13.88    0.73
  -3   1  19   11.05    3.68
  -3   1  19   13.25    0.79
  -3   1  19   12.37    0.84
  -3   1  19   14.16    0.82
  -3   1  19   13.96    0.70
   2  -1 -19   17.36    0.86
   2  -1 -19   17.00    0.89
   2  -1 -19   17.44    0.89
   2  -1 -19   18.29    0.84
   2  -1 -19   17.02    6.16
  -2   1  19   17.33    0.77
  -2   1  19   16.84    0.90
  -2   1  19   21.49    3.75
  -2   1  19   17.92    0.83
  -2   1  19   16.68    0.92
  -2   1  19   16.35    0.87
   1  -1 -19    5.49    0.39
   1  -1 -19    4.72    0.38
   1  -1 -19    5.02    0.41
   1  -1 -19    7.82    2.48
   1  -1 -19    5.70    0.51
   1  -1 -19    5.53    0.43
  -1   1  19    4.71    0.42
  -1   1  19    4.52    0.43
  -1   1  19    5.34    0.52
  -1   1  19    2.89    2.13
  -1   1  19    5.60    0.34
   0  -1 -19    0.00    0.12
   0  -1 -19   -0.07    0.20
   0  -1 -19    0.13    0.16
   0  -1 -19    0.09    0.14
   0  -1 -19   -0.05    0.13
   0  -1 -19   -0.32    1.88
   0   1  19    0.01    0.19
   0   1  19    0.12    0.10
   0   1  19   -0.35    1.52
   0   1  19   -0.06    0.17
   0   1  19   -0.08    0.23
  -1  -1 -19    5.69    2.02
  -1  -1 -19    4.57    0.38
  -1  -1 -19    5.13    0.33
  -1  -1 -19    4.88    0.35
  -1  -1 -19    5.86    0.50
   1   1  19    5.32    0.28
   1   1  19    4.52    0.49
   1   1  19    5.04    1.98
   1   1  19    5.03    0.35
   1   1  19    5.56    0.34
  -2  -1 -19   19.61    2.87
  -2  -1 -19   18.06    0.78
  -2  -1 -19   18.06    0.94
  -2  -1 -19   18.23    0.73
   2   1  19   17.82    0.66
   2   1  19   17.43    0.76
   2   1  19   15.91    0.92
   2   1  19   15.55    2.59
   2   1  19   17.78    0.68
  -3  -1 -19   10.82    2.42
  -3  -1 -19   13.48    0.66
  -3  -1 -19   12.79    0.58
  -3  -1 -19   12.69    0.78
   3   1  19    9.89    2.66
   3   1  19   12.61    0.80
  -4  -1 -19   13.34    0.73
  -4  -1 -19   13.88    0.83
   4   1  19   13.02    0.90
  -5  -1 -19    9.38    0.62
  -5  -1 -19   10.52    0.78
   5   1  19   11.41    0.92
   5  -2 -19    2.82    0.40
   5  -2 -19    2.96    0.49
  -5   2  19    3.02    0.49
  -5   2  19    3.48    0.55
   4  -2 -19    4.81    0.55
   4  -2 -19    1.82    5.45
   4  -2 -19    6.23    0.60
  -4   2  19   10.48    5.05
  -4   2  19    4.91    0.47
  -4   2  19    5.77    0.60
   3  -2 -19   38.46    1.60
   3  -2 -19   38.34    1.72
   3  -2 -19   38.97    1.64
   3  -2 -19   50.87    6.69
   3  -2 -19   39.36    1.65
  -3   2  19   40.76    1.66
  -3   2  19   45.83    5.79
  -3   2  19   39.03    1.62
  -3   2  19   39.54    1.73
  -3   2  19   39.94    1.57
  -3   2  19   39.22    1.66
   2  -2 -19   61.27    2.45
   2  -2 -19   65.21    2.52
   2  -2 -19   68.51    2.53
   2  -2 -19   69.25    6.27
   2  -2 -19   64.66    2.45
  -2   2  19   69.15    2.55
  -2   2  19   62.34    2.52
  -2   2  19   65.44    2.48
  -2   2  19   65.08    2.46
  -2   2  19   66.93    2.39
   1  -2 -19   40.32    5.74
   1  -2 -19   47.79    1.91
   1  -2 -19   47.78    1.87
   1  -2 -19   50.16    1.99
   1  -2 -19   51.32    1.90
  -1   2  19   51.77    1.83
  -1   2  19   51.35    1.91
  -1   2  19   46.48    4.68
  -1   2  19   49.81    1.95
  -1   2  19   48.39    1.99
   0  -2 -19   -0.02    0.17
   0  -2 -19    0.28    2.10
   0  -2 -19    0.09    0.17
   0  -2 -19   -0.05    0.22
   0  -2 -19    0.19    0.18
   0   2  19    0.24    0.12
   0   2  19    0.14    0.22
   0   2  19   -1.46    1.75
   0   2  19    0.21    0.20
   0   2  19   -0.15    0.24
  -1  -2 -19   49.89    1.90
  -1  -2 -19   44.75    4.13
  -1  -2 -19   48.23    2.02
  -1  -2 -19   51.68    1.94
  -1  -2 -19   50.89    1.86
   1   2  19   51.94    1.88
   1   2  19   48.17    2.03
   1   2  19   54.43    4.49
   1   2  19   51.76    1.88
   1   2  19   52.11    1.83
  -2  -2 -19   65.53    2.45
  -2  -2 -19   65.62    2.57
  -2  -2 -19   64.84    2.39
   2   2  19   66.61    2.38
   2   2  19   65.40    2.58
   2   2  19   75.00    5.23
   2   2  19   65.39    2.32
   2   2  19   68.77    2.37
  -3  -2 -19   38.77    1.58
  -3  -2 -19   52.62    4.35
  -3  -2 -19   41.57    1.50
  -3  -2 -19   38.44    1.68
   3   2  19   34.07    5.00
   3   2  19   39.51    1.42
   3   2  19   36.98    1.69
  -4  -2 -19    4.57    0.92
  -4  -2 -19    4.04    0.52
   4   2  19    5.89    0.77
  -5  -2 -19    3.68    0.54
  -5  -2 -19    3.87    0.55
  -5  -2 -19    2.92    0.42
   5   2  19    3.31    0.62
   5  -3 -19    5.12    0.63
   5  -3 -19    6.16    0.61
  -5   3  19    6.22    0.69
  -5   3  19    7.55    0.80
   4  -3 -19    5.88    0.60
   4  -3 -19    5.41    0.57
  -4   3  19    5.40    0.68
  -4   3  19    6.02    0.64
  -4   3  19    6.33    0.52
   3  -3 -19   10.81    0.82
   3  -3 -19   10.27    0.72
   3  -3 -19   11.61    4.49
   3  -3 -19   11.14    0.69
   3  -3 -19   10.15    0.75
  -3   3  19    6.24    4.28
  -3   3  19   10.90    0.69
  -3   3  19   12.45    0.62
  -3   3  19   11.34    0.80
  -3   3  19   10.32    0.78
  -3   3  19   10.72    0.81
   2  -3 -19   45.35    5.70
   2  -3 -19   38.95    1.60
   2  -3 -19   38.73    1.62
   2  -3 -19   42.06    1.69
   2  -3 -19   38.51    1.65
  -2   3  19   38.18    1.55
  -2   3  19   40.20    1.64
  -2   3  19   41.93    1.72
  -2   3  19   38.63    1.69
  -2   3  19   39.91    1.65
   1  -3 -19   62.94    2.37
   1  -3 -19   64.73    2.44
   1  -3 -19   63.64    2.49
   1  -3 -19   66.51    2.40
  -1   3  19   61.56    2.41
  -1   3  19   63.84    2.32
  -1   3  19   55.27    5.24
  -1   3  19   63.70    2.50
  -1   3  19   67.39    2.47
   0  -3 -19    0.42    0.21
   0  -3 -19   -0.07    0.17
   0  -3 -19    0.38    0.22
   0  -3 -19   -1.00    2.25
   0   3  19    2.83    2.33
   0   3  19    0.42    0.22
   0   3  19    0.42    0.24
   0   3  19    0.17    0.29
   0   3  19    0.30    0.16
  -1  -3 -19   67.65    2.56
  -1  -3 -19   67.26    2.45
  -1  -3 -19   65.29    2.37
  -1  -3 -19   65.13    2.46
   1   3  19   67.25    2.37
   1   3  19   65.95    2.39
   1   3  19   50.09    4.96
   1   3  19   64.82    2.56
   1   3  19   65.86    2.41
  -2  -3 -19   38.45    1.79
  -2  -3 -19   38.99    1.49
  -2  -3 -19   38.54    1.58
   2   3  19   38.87    1.72
   2   3  19   39.98    1.48
   2   3  19   34.22    4.87
   2   3  19   39.79    1.51
  -3  -3 -19   10.49    0.56
  -3  -3 -19   10.09    3.00
  -3  -3 -19   10.08    0.78
  -3  -3 -19   10.71    1.03
   3   3  19   11.01    0.56
   3   3  19    9.18    3.74
   3   3  19   11.62    0.89
   3   3  19   11.06    0.58
  -4  -3 -19    7.36    0.54
  -4  -3 -19    6.56    0.65
  -4  -3 -19    5.38    0.67
   4   3  19    7.01    0.86
   4   3  19    5.99    0.41
   4   3  19    6.30    0.39
  -5  -3 -19    5.95    0.71
  -5  -3 -19    5.66    0.69
   5   3  19    6.74    0.83
   5  -4 -19    3.83    0.59
  -5   4  19    3.89    0.56
  -5   4  19    2.56    0.61
   4  -4 -19    2.23    0.44
   4  -4 -19    2.41    0.47
  -4   4  19    2.10    0.49
  -4   4  19    1.79    0.36
  -4   4  19    2.39    0.46
   3  -4 -19   25.89    5.36
   3  -4 -19   15.98    0.87
   3  -4 -19   13.25    0.86
   3  -4 -19   14.42    0.92
  -3   4  19   15.59    0.87
  -3   4  19   16.09    0.77
  -3   4  19   14.49    0.95
  -3   4  19   14.39    4.64
   2  -4 -19    6.38    0.54
   2  -4 -19    5.78    0.63
   2  -4 -19    6.28    0.51
   2  -4 -19    5.40    0.60
   2  -4 -19    4.97    3.94
  -2   4  19    5.71    0.50
  -2   4  19    6.38    0.43
  -2   4  19    4.93    3.94
  -2   4  19    5.62    0.57
  -2   4  19    6.38    0.62
  -2   4  19    7.54    0.70
   1  -4 -19   20.69    4.97
   1  -4 -19   23.82    1.02
   1  -4 -19   23.33    1.10
   1  -4 -19   22.49    1.15
   1  -4 -19   23.10    1.04
  -1   4  19   22.84    1.11
  -1   4  19   22.12    1.18
  -1   4  19   26.71    4.17
  -1   4  19   21.35    1.04
  -1   4  19   23.41    1.09
   0  -4 -19   43.24    5.11
   0  -4 -19   32.74    1.41
   0  -4 -19   33.73    1.34
   0   4  19   29.93    1.36
   0   4  19   33.85    1.51
   0   4  19   34.61    4.80
   0   4  19   34.22    1.40
  -1  -4 -19   27.39    4.24
  -1  -4 -19   22.21    0.99
  -1  -4 -19   23.40    1.08
  -1  -4 -19   23.63    1.17
   1   4  19   23.33    1.05
   1   4  19   25.90    4.20
   1   4  19   24.14    1.00
   1   4  19   23.56    1.02
   1   4  19   22.91    1.19
  -2  -4 -19    6.72    0.47
  -2  -4 -19    6.33    0.57
  -2  -4 -19    6.30    0.58
  -2  -4 -19    6.36    3.07
  -2  -4 -19    6.77    0.62
   2   4  19    6.34    0.45
   2   4  19    6.66    0.40
   2   4  19    5.18    3.48
   2   4  19    6.66    0.52
   2   4  19    5.85    0.66
  -3  -4 -19   14.76    0.86
  -3  -4 -19   14.20    0.73
  -3  -4 -19    7.63    3.66
  -3  -4 -19   15.14    0.94
   3   4  19   13.10    1.03
   3   4  19   15.34    0.74
   3   4  19   15.22    0.79
   3   4  19   15.32    6.56
  -4  -4 -19    2.45    0.51
  -4  -4 -19    2.43    0.53
   4   4  19    2.58    0.37
   4   4  19    2.41    0.34
  -5  -4 -19    4.63    0.71
  -5  -4 -19    4.81    0.76
   4  -5 -19    1.89    0.47
   4  -5 -19    3.01    0.50
  -4   5  19    2.57    0.58
  -4   5  19    3.18    0.55
  -4   5  19    1.86    0.43
   3  -5 -19   19.95    1.04
   3  -5 -19   20.64    1.11
  -3   5  19   20.03    0.96
  -3   5  19   21.61    1.11
  -3   5  19   19.10    1.17
   2  -5 -19   24.37    5.39
   2  -5 -19   13.21    0.85
   2  -5 -19   12.42    0.82
   2  -5 -19   13.06    0.77
  -2   5  19   12.32    5.11
  -2   5  19   14.39    0.80
  -2   5  19   11.81    0.95
  -2   5  19   13.50    0.93
  -2   5  19   12.86    0.68
   1  -5 -19    6.46    0.53
   1  -5 -19    7.72    0.63
   1  -5 -19    7.48    0.66
   1  -5 -19   11.08    3.86
   1  -5 -19    7.29    0.57
  -1   5  19    7.86    0.72
  -1   5  19    6.19    3.42
  -1   5  19    7.78    0.62
  -1   5  19    6.66    0.49
  -1   5  19    7.17    0.68
   0  -5 -19    0.34    0.29
   0  -5 -19    0.43    0.24
   0  -5 -19    1.14    3.54
   0  -5 -19    0.11    0.27
   0  -5 -19    0.23    0.33
   0   5  19   -0.19    0.31
   0   5  19    0.31    0.20
   0   5  19    0.32    0.38
   0   5  19    0.46    0.32
   0   5  19   -2.93    2.92
  -1  -5 -19    7.43    0.49
  -1  -5 -19    8.59    0.74
  -1  -5 -19    6.38    0.60
  -1  -5 -19    4.09    3.92
  -1  -5 -19    6.98    0.58
   1   5  19    7.31    0.48
   1   5  19    6.81    3.89
   1   5  19    6.86    0.60
   1   5  19    6.18    0.55
   1   5  19    5.67    0.76
  -2  -5 -19   14.08    0.93
  -2  -5 -19   13.23    0.83
  -2  -5 -19   10.75    3.81
   2   5  19   13.47    0.81
   2   5  19   13.16    0.68
   2   5  19   14.11    0.75
   2   5  19   14.79    4.99
  -3  -5 -19   20.49    1.15
  -3  -5 -19   20.12    1.23
   3   5  19   21.23    1.04
   3   5  19   20.10    0.98
  -4  -5 -19    3.35    0.57
  -4  -5 -19    2.90    0.66
   4   5  19    2.35    0.53
   4   5  19    1.97    0.43
   4  -6 -19   10.13    0.91
  -4   6  19   10.01    0.96
  -4   6  19    9.53    0.80
   3  -6 -19    6.48    0.81
   3  -6 -19    7.72    0.71
  -3   6  19    6.98    0.60
  -3   6  19    6.49    0.67
  -3   6  19    7.56    0.97
   2  -6 -19    0.19    0.40
   2  -6 -19   -0.03    0.44
  -2   6  19    1.02    0.68
  -2   6  19    0.38    0.25
   1  -6 -19   12.09    0.93
   1  -6 -19   11.66    0.83
   1  -6 -19   13.13    4.60
  -1   6  19   11.91    0.92
  -1   6  19    8.87    4.39
  -1   6  19   13.27    0.72
   0  -6 -19    3.32    4.48
   0   6  19    4.59    4.19
  -1  -6 -19   11.26    0.80
  -1  -6 -19   11.62    4.61
  -1  -6 -19   13.69    0.93
   1   6  19   13.07    0.76
   1   6  19   12.79    5.19
   1   6  19   13.03    0.80
  -2  -6 -19    0.61    0.45
  -2  -6 -19   -0.30    0.40
  -2  -6 -19  -10.18    4.46
   2   6  19  -13.70    5.44
   2   6  19    0.24    0.32
   2   6  19   -0.11    0.21
  -3  -6 -19    7.05    0.85
  -3  -6 -19    6.78    0.79
   3   6  19    7.04    0.68
  -4  -6 -19   11.11    1.04
   4   6  19   10.07    0.88
   3  -7 -19    5.69    0.71
  -3   7  19    5.54    0.81
  -3   7  19    6.01    0.68
   2  -7 -19    0.80    0.49
   2  -7 -19    1.13    0.55
  -2   7  19    1.07    0.37
   1  -7 -19   11.78    1.01
   1  -7 -19   14.28    0.99
  -1   7  19   14.84    0.83
   0  -7 -19    8.50    0.93
   0  -7 -19    9.61    0.84
   0   7  19    8.61    0.68
   0   7  19    8.58    0.85
  -1  -7 -19    8.41    5.04
  -1  -7 -19   13.62    1.04
  -1  -7 -19   13.86    0.94
   1   7  19   13.39    0.81
   1   7  19   12.00    1.35
   1   7  19   18.54    7.17
  -2  -7 -19    1.74    0.60
  -2  -7 -19  -12.81    5.93
  -2  -7 -19    0.37    0.48
   2   7  19    0.36    0.29
   2   7  19    1.17    0.45
  -3  -7 -19    4.56    0.77
   3   7  19    5.62    0.66
   2  -8 -19    5.82    0.79
   1  -8 -19   -0.13    0.58
  -1   8  19    0.19    0.39
   0  -8 -19    0.31    0.52
   0   8  19    0.36    0.43
  -1  -8 -19   -0.12    0.59
   1   8  19   -0.20    0.43
   2   8  19    5.56    0.68
   1   8 -20    0.96    0.69
   1   8 -20   -0.81    0.50
   0   8 -20   17.28    1.08
   0   8 -20   16.21    1.21
  -1   8 -20   -1.63    0.69
  -1   8 -20    0.34    0.42
   3   7 -20    1.25    0.64
  -3  -7  20    0.50    0.43
   2   7 -20    4.52    0.63
   2   7 -20    3.17    0.66
  -2  -7  20    4.68    0.46
   1   7 -20    1.85    0.56
   1   7 -20    1.60    0.45
   0   7 -20    4.13    0.64
   0   7 -20    4.34    0.61
   0   7 -20    4.13    0.51
  -1   7 -20    2.50    0.49
  -1   7 -20    1.69    0.58
  -1   7 -20    1.44    0.55
  -1   7 -20    1.49    0.35
  -2   7 -20    4.65    0.49
  -2   7 -20    4.16    0.74
  -2   7 -20    5.83    0.74
  -3   7 -20    0.90    0.69
  -3   7 -20    1.03    0.61
   4   6 -20   23.53    1.57
  -4  -6  20   22.81    1.26
   3   6 -20    8.15    0.96
   3   6 -20    8.95    0.89
   3   6 -20    8.60    0.93
  -3  -6  20   10.29    0.71
  -3  -6  20    8.98    0.74
   2   6 -20    8.67    0.90
   2   6 -20    7.26    0.75
   2   6 -20    6.98    0.84
  -2  -6  20    6.15    0.48
  -2  -6  20    6.54    0.52
   1   6 -20    0.74    0.48
   1   6 -20    1.01    0.49
   1   6 -20    1.35    0.36
   1   6 -20    0.56    0.44
  -1  -6  20    1.16    0.15
   0   6 -20    6.74    0.77
   0   6 -20    6.34    0.56
   0   6 -20    6.36    0.66
   0   6 -20    6.56    0.70
  -1   6 -20    0.96    0.28
  -1   6 -20    0.91    0.44
  -1   6 -20    0.41    0.35
  -1   6 -20    0.40    0.45
   1  -6  20    3.17    2.26
  -2   6 -20    6.00    0.76
  -2   6 -20    6.66    0.75
  -2   6 -20    7.42    0.81
  -2   6 -20    6.28    0.47
  -3   6 -20   10.48    0.85
  -3   6 -20    8.69    0.87
  -3   6 -20    9.81    0.96
  -4   6 -20   21.24    1.40
  -4   6 -20   23.90    1.31
   4   5 -20    8.55    0.99
   4   5 -20    7.91    0.88
   4   5 -20   10.14    1.08
  -4  -5  20    9.86    0.64
  -4  -5  20    9.18    0.83
   3   5 -20    1.75    0.53
   3   5 -20    2.18    0.49
   3   5 -20    2.57    0.56
  -3  -5  20    2.08    0.44
  -3  -5  20    1.68    0.25
  -3  -5  20    1.64    0.36
   2   5 -20   18.46    1.03
   2   5 -20   18.61    1.12
   2   5 -20   19.77    1.12
   2   5 -20   20.67    1.21
  -2  -5  20   18.74    0.89
  -2  -5  20   19.05    0.86
   1   5 -20   12.24    0.89
   1   5 -20   13.38    0.96
   1   5 -20   13.01    1.03
   1   5 -20   11.86    0.83
  -1  -5  20   13.61    0.55
  -1  -5  20   13.40    0.57
  -1  -5  20   12.83    0.85
  -1  -5  20    8.31    3.74
   0   5 -20   -0.03    0.34
   0   5 -20    0.64    0.29
   0   5 -20    0.67    0.33
   0   5 -20   -0.14    0.22
   0  -5  20    0.17    0.33
   0  -5  20   -1.03    3.20
   0  -5  20    1.07    2.88
  -1   5 -20   13.84    0.93
  -1   5 -20   12.88    0.66
  -1   5 -20   13.81    0.71
  -1   5 -20   13.93    0.84
   1  -5  20    8.97    2.37
   1  -5  20   14.96    2.43
  -2   5 -20   20.20    0.82
  -2   5 -20   20.44    1.12
  -2   5 -20   19.30    0.86
  -2   5 -20   20.55    1.06
  -2   5 -20   18.80    0.84
  -3   5 -20    1.74    0.44
  -3   5 -20    2.00    0.26
  -3   5 -20    1.74    0.51
  -3   5 -20    2.53    0.28
  -3   5 -20    1.50    0.34
  -4   5 -20    8.03    0.78
  -4   5 -20    8.67    0.80
  -4   5 -20    9.90    0.91
   5   4 -20    1.73    0.63
   5   4 -20    0.51    0.76
  -5  -4  20    1.97    0.57
  -5  -4  20    1.76    0.44
   4   4 -20    1.44    0.57
   4   4 -20    1.43    0.46
   4   4 -20    2.08    0.59
  -4  -4  20    1.55    0.45
  -4  -4  20   -4.26    7.29
   3   4 -20   14.98    1.00
   3   4 -20   15.48    0.93
   3   4 -20   15.11    1.01
  -3  -4  20   17.24    0.84
  -3  -4  20   15.88    0.89
  -3  -4  20   15.60    0.71
  -3  -4  20   23.11    6.29
  -2  -4  20   -2.37    4.12
  -2  -4  20   -6.74    3.67
  -2  -4  20    1.51    0.41
   1   4 -20    4.03    0.51
   1   4 -20    4.94    0.54
   1   4 -20    4.09    0.46
   1   4 -20    4.83    0.30
   1   4 -20    5.31    0.59
  -1  -4  20    4.22    0.51
  -1  -4  20    2.20    3.07
  -1  -4  20    4.96    0.29
  -1  -4  20    6.05    3.19
  -1  -4  20    4.80    0.33
   0   4 -20    1.36    0.28
   0   4 -20    1.25    0.37
   0   4 -20    1.92    0.38
   0   4 -20    1.93    0.31
   0   4 -20    1.75    0.18
   0  -4  20    1.88    0.38
   0  -4  20    1.94    2.31
   0  -4  20   -1.25    2.49
  -1   4 -20    5.32    0.40
  -1   4 -20    4.90    0.49
  -1   4 -20    5.10    0.37
  -1   4 -20    5.25    0.29
  -1   4 -20    5.48    0.61
   1  -4  20    4.26    0.51
   1  -4  20    6.48    1.90
  -2   4 -20    2.17    0.36
  -2   4 -20    1.77    0.22
  -2   4 -20    1.82    0.29
  -2   4 -20    2.89    0.46
  -2   4 -20    1.53    0.21
  -3   4 -20   15.55    0.85
  -3   4 -20   15.76    0.86
  -3   4 -20   15.38    0.64
  -3   4 -20   15.75    0.95
  -3   4 -20   14.73    0.61
  -4   4 -20    2.25    0.39
  -4   4 -20    1.17    0.47
  -4   4 -20    1.28    0.54
  -5   4 -20    2.46    0.59
  -5   4 -20    1.94    0.64
   5   3 -20    5.35    0.80
   5   3 -20    7.94    0.93
   5   3 -20    4.69    0.69
  -5  -3  20    6.08    0.68
  -5  -3  20    5.16    0.63
   4   3 -20    2.83    0.56
   4   3 -20    3.40    0.62
   4   3 -20    3.74    0.56
   4   3 -20    3.16    0.56
  -4  -3  20    3.50    0.45
  -4  -3  20    3.15    0.45
  -4  -3  20    3.00    6.61
   3   3 -20    4.04    0.64
   3   3 -20    3.33    0.52
   3   3 -20    2.62    0.42
   3   3 -20    3.66    0.51
   3   3 -20    3.14    0.45
  -3  -3  20    3.48    0.46
  -3  -3  20    3.21    0.33
  -3  -3  20    0.50    4.70
  -3  -3  20    4.49    8.64
  -3  -3  20    3.90    0.40
   2   3 -20   59.37    2.41
   2   3 -20   63.48    2.37
   2   3 -20   60.76    2.25
   2   3 -20   55.68    2.42
  -2  -3  20   60.46    6.49
  -2  -3  20   61.06    6.70
  -2  -3  20   58.62    2.17
  -2  -3  20   60.29    2.26
  -2  -3  20   60.70    2.21
  -2  -3  20   62.04    2.39
   1   3 -20    9.37    0.57
   1   3 -20    9.15    0.49
   1   3 -20    9.37    0.62
   1   3 -20    9.45    0.65
   1   3 -20    9.27    0.79
  -1  -3  20    9.78    0.44
  -1  -3  20   10.25    3.18
  -1  -3  20    9.47    0.50
  -1  -3  20    6.51    3.12
  -1  -3  20    9.25    0.65
   0   3 -20    5.76    0.44
   0   3 -20    5.96    0.43
   0   3 -20    5.44    0.55
   0   3 -20    6.30    0.52
   0   3 -20    6.19    0.34
   0  -3  20    4.96    0.49
   0  -3  20    5.20    2.30
   0  -3  20    5.14    2.27
  -1   3 -20    9.17    0.49
  -1   3 -20    9.55    0.70
  -1   3 -20   10.21    0.51
  -1   3 -20    9.50    0.62
  -1   3 -20    9.81    0.47
   1  -3  20    9.30    2.23
   1  -3  20    9.63    0.58
   1  -3  20   10.10    1.96
  -2   3 -20   58.20    2.25
  -2   3 -20   58.77    2.37
  -2   3 -20   58.92    2.12
  -2   3 -20   58.19    2.10
   2  -3  20   58.85    2.34
   2  -3  20   64.18    2.42
  -3   3 -20    3.41    0.21
  -3   3 -20    3.19    0.24
  -3   3 -20    3.21    0.39
  -3   3 -20    3.17    0.47
  -3   3 -20    2.72    0.42
  -4   3 -20    3.82    0.64
  -4   3 -20    3.38    0.44
  -4   3 -20    3.75    0.28
  -4   3 -20    3.81    0.57
  -4   3 -20    3.46    0.22
  -5   3 -20    5.45    0.80
  -5   3 -20    5.94    0.75
   5   2 -20    1.86    0.49
   5   2 -20    1.30    0.60
   5   2 -20    2.07    0.57
  -5  -2  20    1.50    0.46
  -5  -2  20    1.95    0.47
   4   2 -20    7.71    0.79
   4   2 -20    7.36    0.66
   4   2 -20    7.77    0.80
   4   2 -20    6.50    0.69
  -4  -2  20    6.76    0.66
  -4  -2  20    7.17    0.60
  -4  -2  20    9.12    5.85
   3   2 -20    5.89    0.64
   3   2 -20    7.49    0.68
   3   2 -20    6.41    0.61
   3   2 -20    7.01    0.58
   3   2 -20    7.02    0.68
  -3  -2  20    7.68    0.67
  -3  -2  20    7.98    0.48
  -3  -2  20    4.99    4.41
  -3  -2  20    7.24    0.63
  -3  -2  20   10.84    4.59
  -3  -2  20    6.51    0.52
   2   2 -20   43.94    1.75
   2   2 -20   39.51    1.65
   2   2 -20   39.64    1.64
  -2  -2  20   37.95    1.52
  -2  -2  20   38.24    5.73
  -2  -2  20   39.70    1.59
  -2  -2  20   38.29    5.25
  -2  -2  20   40.14    1.69
  -2  -2  20   41.62    1.54
   1   2 -20    0.09    0.27
   1   2 -20    0.62    0.22
   1   2 -20    0.51    0.18
   1   2 -20    0.62    0.25
   1   2 -20    0.67    0.28
  -1  -2  20   -0.90    2.42
  -1  -2  20    0.54    0.28
  -1  -2  20    0.89    0.21
  -1  -2  20    0.54    0.14
   0   2 -20   44.49    1.86
   0   2 -20   46.58    1.71
   0   2 -20   44.69    1.71
   0   2 -20   45.22    1.67
   0   2 -20   46.94    1.81
   0  -2  20   36.56    4.18
   0  -2  20   43.35    3.90
   0  -2  20   46.33    1.58
   0  -2  20   44.12    1.76
  -1   2 -20    0.77    0.16
  -1   2 -20    0.85    0.29
  -1   2 -20    0.49    0.16
  -1   2 -20    0.36    0.15
  -1   2 -20    0.53    0.22
   1  -2  20    0.57    0.20
   1  -2  20   -1.41    1.85
   1  -2  20    0.83    1.44
  -2   2 -20   40.33    1.46
  -2   2 -20   40.37    1.44
  -2   2 -20   38.34    1.69
  -2   2 -20   40.26    1.56
   2  -2  20   36.42    3.02
   2  -2  20   41.28    2.65
  -3   2 -20    7.94    0.65
  -3   2 -20    6.59    0.33
  -3   2 -20    7.10    0.45
  -3   2 -20    6.64    0.35
  -4   2 -20    7.41    0.42
  -4   2 -20    6.93    0.44
  -4   2 -20    7.33    0.68
  -4   2 -20    8.59    0.80
  -4   2 -20    6.86    0.36
  -5   2 -20    2.83    0.48
  -5   2 -20    2.08    0.65
   5   1 -20    4.22    0.55
   5   1 -20    4.34    0.63
  -5  -1  20    5.10    0.59
  -5  -1  20    4.80    0.65
   4   1 -20    9.16    0.71
   4   1 -20    8.24    0.86
   4   1 -20    8.53    0.74
   4   1 -20    8.30    0.66
  -4  -1  20    8.07    0.63
  -4  -1  20   15.53    6.21
  -4  -1  20    3.95    5.10
  -4  -1  20    8.28    0.60
   3   1 -20   26.34    1.23
   3   1 -20   23.07    1.20
   3   1 -20   26.18    1.24
   3   1 -20   26.05    1.27
   3   1 -20   25.99    1.20
  -3  -1  20   26.46    1.22
  -3  -1  20   21.26    4.79
  -3  -1  20   25.21    1.11
  -3  -1  20   22.20    5.00
  -3  -1  20   27.11    1.12
  -3  -1  20   24.28    1.25
   2   1 -20   17.55    0.92
   2   1 -20   18.35    0.88
   2   1 -20   17.87    0.97
   2   1 -20   17.90    0.94
   2   1 -20   18.25    0.89
  -2  -1  20   19.37    0.81
  -2  -1  20   18.51    0.89
  -2  -1  20   19.63    0.82
  -2  -1  20   16.99    0.94
  -2  -1  20   18.81    3.84
  -2  -1  20   16.25    4.19
   1   1 -20   13.40    0.76
   1   1 -20   10.38    0.87
   1   1 -20   14.82    0.69
   1   1 -20   12.88    0.79
   1   1 -20   13.63    0.68
  -1  -1  20   14.06    0.58
  -1  -1  20   15.32    3.09
  -1  -1  20   12.84    0.72
   0   1 -20    1.64    0.23
   0   1 -20   -0.49    1.84
   0   1 -20    1.24    0.20
   0   1 -20    1.05    0.32
   0   1 -20    1.34    0.27
   0   1 -20    1.24    0.21
   0  -1  20    0.71    1.83
   0  -1  20    1.38    0.27
   0  -1  20    1.69    0.15
   0  -1  20    1.26    0.18
  -1   1 -20   12.80    0.80
  -1   1 -20   13.18    0.60
  -1   1 -20   13.61    0.63
  -1   1 -20   14.14    0.69
  -1   1 -20   15.75    0.66
  -1   1 -20   10.44    2.28
   1  -1  20   16.20    2.21
   1  -1  20   13.58    0.66
  -2   1 -20   19.42    0.99
  -2   1 -20   16.46    2.35
  -2   1 -20   18.50    0.73
  -2   1 -20   18.42    0.81
  -2   1 -20   19.01    0.77
   2  -1  20   19.48    2.48
   2  -1  20   17.95    0.78
  -3   1 -20   25.37    1.22
  -3   1 -20   25.44    0.96
  -3   1 -20   25.04    0.99
  -3   1 -20   26.12    1.00
  -3   1 -20   25.81    2.57
   3  -1  20   22.99    2.79
  -4   1 -20    7.97    0.66
  -4   1 -20    7.26    0.48
  -4   1 -20    8.97    1.16
  -5   1 -20    4.32    0.76
  -5   1 -20    4.04    0.52
  -5   1 -20    4.88    0.56
   5   0 -20    1.69    0.45
   5   0 -20    0.76    0.40
  -5   0  20    1.37    0.46
  -5   0  20    3.65   10.19
  -5   0  20    1.99    0.51
   4   0 -20    2.37    0.44
   4   0 -20    1.18    0.50
   4   0 -20    2.56    0.38
  -4   0  20    2.14    0.38
  -4   0  20   -0.48    4.86
  -4   0  20   -0.74    5.64
   3   0 -20   45.27    1.81
   3   0 -20   46.98    1.86
   3   0 -20   42.73    1.87
   3   0 -20   42.75    1.84
   3   0 -20   45.68    1.90
  -3   0  20   45.55    1.78
  -3   0  20   46.09    1.93
  -3   0  20   45.30    1.75
  -3   0  20   41.80    1.83
  -3   0  20   49.15    6.29
  -3   0  20   54.85    6.87
   2   0 -20    4.86    0.42
   2   0 -20    5.56    0.50
   2   0 -20    4.69    0.49
   2   0 -20    4.43    3.12
   2   0 -20    4.81    0.48
   2   0 -20    5.20    0.53
  -2   0  20    4.77    0.36
  -2   0  20    4.59    0.51
  -2   0  20    4.90    0.50
  -2   0  20    8.24    3.09
  -2   0  20    4.75    0.39
   1   0 -20    4.13    0.37
   1   0 -20    4.04    2.65
   1   0 -20    4.39    0.39
   1   0 -20    4.92    0.50
   1   0 -20    3.96    0.41
   1   0 -20    4.42    0.40
  -1   0  20    4.86    0.45
  -1   0  20    4.61    0.52
  -1   0  20    1.87    2.21
  -1   0  20    5.03    0.41
  -1   0  20    4.56    0.30
   0   0 -20    2.00    0.34
   0   0 -20    2.20    0.27
   0   0 -20    1.99    0.25
   0   0 -20    2.61    0.29
   0   0 -20    1.84    0.27
   0   0 -20    1.41    2.01
   0   0  20    2.00    0.28
   0   0  20    2.09    0.19
   0   0  20    2.36    0.35
   0   0  20    2.21    1.92
   0   0  20    2.27    0.28
  -1   0 -20    5.07    0.49
  -1   0 -20    4.93    0.37
  -1   0 -20    4.76    0.34
  -1   0 -20    5.91    1.90
  -1   0 -20    3.97    0.30
  -1   0 -20    4.47    0.35
   1   0  20    6.20    1.85
   1   0  20    4.86    0.49
   1   0  20    4.49    0.23
   1   0  20    4.75    0.35
  -2   0 -20    4.81    0.32
  -2   0 -20    5.39    0.34
  -2   0 -20    4.57    0.34
  -2   0 -20    8.11    1.90
  -2   0 -20    4.40    0.49
   2   0  20    4.67    1.76
   2   0  20    4.38    0.30
   2   0  20    5.50    0.53
  -3   0 -20   44.92    1.62
  -3   0 -20   34.31    3.56
  -3   0 -20   42.14    1.60
  -3   0 -20   45.07    1.81
   3   0  20   42.71    1.80
   3   0  20   38.98    3.95
  -4   0 -20    2.14    0.40
  -4   0 -20    2.31    0.31
   4   0  20    2.38    0.49
  -5   0 -20    1.56    0.61
  -5   0 -20    0.83    0.42
  -5   0 -20    1.41    0.37
  -5   0 -20    1.45    0.29
   5  -1 -20    4.63    0.61
   5  -1 -20    4.06    0.56
  -5   1  20    3.98    0.51
  -5   1  20   -0.28    7.55
  -5   1  20    5.27    0.74
   4  -1 -20    9.05    0.65
   4  -1 -20    8.98    0.67
  -4   1  20    7.97    0.58
  -4   1  20    7.51    0.67
  -4   1  20    4.68    4.97
  -4   1  20   15.81    5.86
   3  -1 -20   21.31    4.96
   3  -1 -20   26.23    1.21
   3  -1 -20   25.74    1.17
   3  -1 -20   26.53    1.22
   3  -1 -20   25.23    1.28
  -3   1  20   25.60    1.17
  -3   1  20   27.27    1.32
  -3   1  20   25.87    1.10
  -3   1  20   25.72    4.69
  -3   1  20   25.37    1.21
   2  -1 -20   18.25    3.89
   2  -1 -20   18.53    0.87
   2  -1 -20   18.02    0.93
   2  -1 -20   18.13    0.91
   2  -1 -20   19.13    0.97
  -2   1  20   19.57    0.96
  -2   1  20   15.65    0.93
  -2   1  20   18.35    0.81
  -2   1  20   19.25    0.87
  -2   1  20   17.53    0.89
  -2   1  20   23.73    3.99
   1  -1 -20   15.69    0.81
   1  -1 -20   13.53    0.69
   1  -1 -20   13.69    0.74
   1  -1 -20   17.70    3.21
   1  -1 -20   14.51    0.73
   1  -1 -20   12.08    0.69
  -1   1  20   14.49    0.63
  -1   1  20   13.22    0.72
  -1   1  20   14.87    0.78
  -1   1  20    8.23    2.63
  -1   1  20   14.40    0.80
   0  -1 -20    1.12    0.22
   0  -1 -20    1.22    0.24
   0  -1 -20    0.12    2.10
   0  -1 -20    1.20    0.31
   0  -1 -20    1.31    0.22
   0  -1 -20    1.01    0.23
   0   1  20    1.68    0.35
   0   1  20    1.38    0.17
   0   1  20    1.12    0.28
   0   1  20    1.37    0.31
   0   1  20    2.72    2.02
  -1  -1 -20   12.74    0.68
  -1  -1 -20   13.52    0.64
  -1  -1 -20   14.67    0.62
  -1  -1 -20   13.28    0.79
  -1  -1 -20   12.59    2.61
   1   1  20   13.91    0.65
   1   1  20   13.16    2.49
   1   1  20   13.54    0.57
   1   1  20   14.17    0.84
   1   1  20   15.14    0.63
  -2  -1 -20   18.79    0.76
  -2  -1 -20   16.51    2.71
  -2  -1 -20   18.46    0.81
  -2  -1 -20   17.74    0.97
   2   1  20   18.70    0.70
   2   1  20   17.22    0.99
   2   1  20   15.88    2.68
   2   1  20   18.17    0.68
   2   1  20   18.89    0.73
  -3  -1 -20   27.15    1.12
  -3  -1 -20   27.30    1.27
  -3  -1 -20   25.24    1.04
  -3  -1 -20   32.06    3.73
   3   1  20   27.06    4.01
   3   1  20   26.24    1.30
  -4  -1 -20    8.36    0.57
  -4  -1 -20    7.64    0.48
   4   1  20    9.54    0.82
  -5  -1 -20    3.99    0.57
  -5  -1 -20    4.06    0.54
  -5  -1 -20    3.91    0.43
   5   1  20    4.55    0.63
   5  -2 -20    1.28    0.39
   5  -2 -20    2.07    0.52
  -5   2  20    1.58    0.44
  -5   2  20    1.48    0.49
   4  -2 -20    6.67    0.64
   4  -2 -20    7.33    0.62
  -4   2  20    7.41    0.56
  -4   2  20    8.42    0.65
  -4   2  20    6.31    5.48
   3  -2 -20    6.95    0.60
   3  -2 -20    6.58    0.53
   3  -2 -20    6.76    0.73
   3  -2 -20    7.71    0.63
  -3   2  20    7.45    0.75
  -3   2  20    6.91    0.51
  -3   2  20    6.13    0.62
  -3   2  20    6.32    0.54
  -3   2  20    3.98    4.15
  -3   2  20    7.27    0.64
   2  -2 -20   34.68    1.67
   2  -2 -20   45.38    5.62
   2  -2 -20   38.91    1.67
   2  -2 -20   42.60    1.63
   2  -2 -20   39.69    1.66
  -2   2  20   40.43    1.68
  -2   2  20   40.53    1.54
  -2   2  20   40.90    1.61
  -2   2  20   38.71    1.63
  -2   2  20   38.59    1.67
   1  -2 -20    0.91    0.25
   1  -2 -20    0.59    0.28
   1  -2 -20    0.68    2.68
   1  -2 -20    0.08    0.19
   1  -2 -20    0.28    0.24
  -1   2  20    0.88    0.27
  -1   2  20    0.54    0.29
  -1   2  20   -1.47    2.34
  -1   2  20    0.56    0.29
  -1   2  20    0.53    0.18
   0  -2 -20   52.06    4.69
   0  -2 -20   44.06    1.75
   0  -2 -20   44.75    1.70
   0  -2 -20   44.41    1.74
   0  -2 -20   41.87    1.84
   0   2  20   44.15    4.21
   0   2  20   45.12    1.86
   0   2  20   47.13    1.77
   0   2  20   46.50    1.66
  -1  -2 -20    0.65    0.29
  -1  -2 -20    0.98    2.10
  -1  -2 -20    0.47    0.21
  -1  -2 -20    0.52    0.18
  -1  -2 -20    0.70    0.23
   1   2  20    0.60    0.15
   1   2  20    0.53    0.19
   1   2  20    0.55    0.25
   1   2  20   -0.21    1.91
   1   2  20    0.74    0.30
  -2  -2 -20   36.69    1.50
  -2  -2 -20   43.32    1.60
  -2  -2 -20   45.38    4.30
  -2  -2 -20   43.33    1.73
   2   2  20   39.87    1.72
   2   2  20   39.46    1.48
   2   2  20   37.84    1.56
   2   2  20   41.38    4.56
   2   2  20   40.13    1.51
  -3  -2 -20    7.26    0.53
  -3  -2 -20    6.10    0.43
  -3  -2 -20    0.98    2.60
   3   2  20    7.77    0.74
   3   2  20    4.27    3.32
   3   2  20    6.43    0.33
  -4  -2 -20    7.29    0.71
  -4  -2 -20    6.81    0.52
   4   2  20    8.28    0.88
  -5  -2 -20    1.72    0.49
  -5  -2 -20    1.54    0.48
   5   2  20    1.44    0.61
   5  -3 -20    5.78    0.66
   5  -3 -20    5.91    0.80
  -5   3  20    6.51    0.83
  -5   3  20    5.72    0.66
   4  -3 -20    3.51    0.47
   4  -3 -20    3.34    0.48
  -4   3  20    3.76    0.45
  -4   3  20    2.62    0.51
  -4   3  20    2.87    0.49
   3  -3 -20    3.27    0.44
   3  -3 -20    2.26    0.42
   3  -3 -20    3.29    0.44
   3  -3 -20    5.24    4.62
   3  -3 -20    2.51    0.63
  -3   3  20    3.87    0.47
  -3   3  20    3.45    0.51
  -3   3  20    3.16    0.53
  -3   3  20    3.75    4.11
  -3   3  20    3.93    0.39
   2  -3 -20   64.32    8.97
   2  -3 -20   64.39    2.41
   2  -3 -20   59.58    2.31
   2  -3 -20   60.26    2.32
   2  -3 -20   63.41    2.40
  -2   3  20   58.72    2.35
  -2   3  20   62.62    6.33
  -2   3  20   61.85    2.34
  -2   3  20   58.24    2.24
  -2   3  20   61.01    2.42
  -2   3  20   56.95    2.39
   1  -3 -20    9.10    0.61
   1  -3 -20    9.84    0.57
   1  -3 -20    9.17    0.66
   1  -3 -20    8.20    3.35
  -1   3  20    7.77    3.01
  -1   3  20    7.92    0.58
  -1   3  20    9.74    0.70
  -1   3  20    9.62    0.52
  -1   3  20    9.29    0.63
   0  -3 -20    5.16    0.53
   0  -3 -20    5.51    0.43
   0  -3 -20    5.36    0.43
   0  -3 -20    5.31    0.46
   0  -3 -20    9.13    2.85
   0   3  20    4.97    0.44
   0   3  20    5.82    0.58
   0   3  20    5.14    0.48
   0   3  20    3.88    2.47
  -1  -3 -20    9.06    1.01
  -1  -3 -20    8.66    0.60
  -1  -3 -20    9.12    0.57
  -1  -3 -20    8.56    0.50
  -1  -3 -20    9.43    3.04
   1   3  20   10.23    0.51
   1   3  20    6.23    2.89
   1   3  20   10.31    0.58
   1   3  20    9.80    0.56
   1   3  20   10.69    0.77
  -2  -3 -20   62.32    2.29
  -2  -3 -20   60.00    2.19
  -2  -3 -20   58.52    2.39
   2   3  20   58.83    2.43
   2   3  20   53.55    5.50
   2   3  20   59.66    2.21
   2   3  20   60.53    2.18
  -3  -3 -20    3.04    0.49
  -3  -3 -20    3.52    0.44
  -3  -3 -20    2.96    0.38
  -3  -3 -20    2.74    2.92
   3   3  20    3.55    0.40
   3   3  20    3.41    0.34
   3   3  20    3.03    0.56
  -4  -3 -20    2.96    0.38
  -4  -3 -20    3.19    0.53
  -4  -3 -20    4.12    0.51
   4   3  20    3.47    0.30
   4   3  20    3.63    0.62
   4   3  20    4.29    0.49
  -5  -3 -20    5.71    0.72
  -5  -3 -20    5.60    0.71
   5  -4 -20    1.77    0.54
   4  -4 -20    0.77    0.42
   4  -4 -20    1.73    0.46
  -4   4  20    1.02    0.50
  -4   4  20    1.74    0.43
  -4   4  20    2.26    0.39
   3  -4 -20   15.38    0.87
   3  -4 -20   15.05    5.72
  -3   4  20   15.65    1.01
  -3   4  20   15.60    0.78
  -3   4  20   15.62    0.91
   2  -4 -20    1.73    0.43
   2  -4 -20    1.74    0.36
   2  -4 -20    1.67    0.34
   2  -4 -20    2.23    0.50
  -2   4  20    2.57    0.49
  -2   4  20    1.68    0.34
  -2   4  20    1.48    0.37
  -2   4  20    2.29    0.32
  -2   4  20    1.96    3.72
  -2   4  20    1.60    0.43
   1  -4 -20    5.25    0.51
   1  -4 -20    3.89    0.53
   1  -4 -20    5.55    0.55
   1  -4 -20    7.13    3.75
   1  -4 -20    5.87    0.47
  -1   4  20    4.01    0.53
  -1   4  20    5.51    0.40
  -1   4  20    5.56    3.08
  -1   4  20    5.42    0.67
  -1   4  20    6.00    0.53
   0  -4 -20    2.10    0.35
   0  -4 -20    3.57    2.97
   0  -4 -20    1.59    0.28
   0  -4 -20    1.15    0.30
   0  -4 -20    1.46    0.39
   0   4  20    1.76    0.35
   0   4  20    1.77    0.26
   0   4  20    5.80    3.10
   0   4  20    1.93    0.37
   0   4  20    1.52    0.43
  -1  -4 -20    4.89    0.61
  -1  -4 -20    5.29    0.51
  -1  -4 -20    5.38    0.49
  -1  -4 -20    4.35    3.29
  -1  -4 -20    4.94    0.43
   1   4  20    4.10    0.45
   1   4  20    4.91    0.50
   1   4  20   -0.90    3.15
   1   4  20    5.51    0.68
   1   4  20    5.11    0.41
  -2  -4 -20    1.69    0.33
  -2  -4 -20    2.24    0.31
  -2  -4 -20    8.09    3.40
  -2  -4 -20    1.95    0.41
  -2  -4 -20    2.02    0.39
   2   4  20    1.62    0.50
   2   4  20    2.11    0.29
   2   4  20    1.71    0.33
   2   4  20    4.86    3.73
   2   4  20    2.06    0.26
  -3  -4 -20   14.40    0.89
  -3  -4 -20   16.51    0.87
  -3  -4 -20   14.28    1.00
   3   4  20   15.33    0.81
   3   4  20   16.03    0.78
  -4  -4 -20    2.05    0.52
  -4  -4 -20    2.36    0.49
   4   4  20    1.48    0.32
  -5  -4 -20    1.78    0.64
  -5  -4 -20    1.00    0.61
   4  -5 -20    9.54    0.87
   4  -5 -20    7.53    0.82
  -4   5  20   10.49    1.14
  -4   5  20    9.70    0.74
  -4   5  20   10.32    0.85
   3  -5 -20    1.61    0.45
   3  -5 -20    1.78    0.46
  -3   5  20    2.28    0.43
  -3   5  20    1.66    0.32
  -3   5  20    1.80    0.54
   2  -5 -20   20.18    1.03
   2  -5 -20   18.35    1.08
   2  -5 -20   25.87    7.07
  -2   5  20   20.26    0.93
  -2   5  20   25.73    1.71
  -2   5  20   22.78    5.04
  -2   5  20   18.35    1.19
  -2   5  20   21.15    1.06
   1  -5 -20   10.88    0.71
   1  -5 -20   12.67    0.85
   1  -5 -20   14.35    4.58
   1  -5 -20   13.23    0.81
   1  -5 -20   14.73    0.95
  -1   5  20   13.76    0.99
  -1   5  20   10.15    4.01
  -1   5  20   10.90    0.82
  -1   5  20   13.13    0.67
  -1   5  20   12.08    0.86
   0  -5 -20    0.48    0.27
   0  -5 -20    0.14    0.32
   0  -5 -20   -0.02    0.33
   0  -5 -20    0.49    0.32
   0  -5 -20    1.84    3.50
   0   5  20    0.07    0.33
   0   5  20    0.63    0.31
   0   5  20    0.13    0.41
   0   5  20   -0.04    0.22
   0   5  20    4.55    3.86
  -1  -5 -20   12.52    4.38
  -1  -5 -20   13.60    0.72
  -1  -5 -20   13.05    0.80
  -1  -5 -20   14.13    0.92
  -1  -5 -20   13.89    0.92
   1   5  20   14.09    1.36
   1   5  20   12.92    0.76
   1   5  20   16.82    4.45
   1   5  20   12.61    0.70
   1   5  20   13.02    0.77
  -2  -5 -20   18.69    1.03
  -2  -5 -20   19.52    1.14
   2   5  20   18.69    5.06
   2   5  20   19.85    0.88
   2   5  20   19.04    1.00
   2   5  20   20.09    0.94
  -3  -5 -20    1.04    0.46
  -3  -5 -20    1.98    0.57
   3   5  20    1.61    0.36
   3   5  20    1.71    0.42
  -4  -5 -20    9.09    1.02
  -4  -5 -20    9.60    0.89
   4   5  20    8.62    0.73
   4  -6 -20   19.34    1.20
   3  -6 -20    9.42    0.85
   3  -6 -20   10.22    0.92
  -3   6  20    7.43    0.61
  -3   6  20    8.00    0.79
   2  -6 -20    5.36    0.71
   2  -6 -20    6.54    0.81
  -2   6  20    6.88    0.56
   1  -6 -20    0.94    0.48
   1  -6 -20   -4.48    4.61
   1  -6 -20    0.83    0.35
  -1   6  20    1.04    0.29
  -1   6  20    2.59    4.80
  -1   6  20    1.31    0.44
   0  -6 -20    5.85    0.72
   0  -6 -20    7.22    4.96
   0  -6 -20    6.68    0.69
   0   6  20    5.93    0.69
   0   6  20    7.50    4.76
   0   6  20    6.18    0.50
  -1  -6 -20   -2.27    4.50
  -1  -6 -20    0.79    0.44
  -1  -6 -20    0.97    0.38
   1   6  20    0.80    0.33
   1   6  20   -4.55    4.49
  -2  -6 -20    8.28    0.84
  -2  -6 -20    5.94    0.69
  -2  -6 -20    8.74    4.95
   2   6  20   -2.12    8.55
   2   6  20    7.28    0.64
   2   6  20    6.13    0.47
  -3  -6 -20    8.18    0.91
  -3  -6 -20    8.69    0.94
   3   6  20    9.28    0.75
  -4  -6 -20   19.74    1.39
   4   6  20   23.46    1.20
   3  -7 -20   -0.19    0.58
  -3   7  20    2.02    0.58
   2  -7 -20    3.59    0.68
   2  -7 -20    3.86    0.63
  -2   7  20    4.38    0.53
   1  -7 -20    1.53    0.56
   1  -7 -20    1.17    0.45
  -1   7  20    1.47    0.34
   0  -7 -20    3.74    0.69
   0  -7 -20    4.50    0.59
   0   7  20    4.61    0.54
   0   7  20    2.94    0.58
  -1  -7 -20    1.34    0.48
  -1  -7 -20   -6.46    5.89
  -1  -7 -20    1.27    0.55
   1   7  20    3.94    6.80
   1   7  20    1.38    0.38
   1   7  20    0.45    0.47
  -2  -7 -20    4.64    0.79
  -2  -7 -20    3.42    0.63
   2   7  20    4.01    0.50
   2   7  20    4.23    0.58
   3   7  20    1.99    0.54
   1  -8 -20   -0.71    0.63
  -1   8  20   -0.47    0.49
   0  -8 -20   17.28    1.21
   0   8  20   16.45    1.00
  -1  -8 -20    0.26    0.70
   1   8  20    0.14    0.47
   1   8 -21    1.46    0.57
   0   8 -21    1.18    0.66
   0   8 -21    0.40    0.48
  -1   8 -21    1.84    0.74
  -1   8 -21    0.77    0.45
  -1   8 -21    1.54    0.85
   2   7 -21    4.81    0.80
   2   7 -21    6.00    0.90
   2   7 -21    6.74    0.76
  -2  -7  21    6.67    0.72
   1   7 -21   18.03    1.23
   1   7 -21   18.70    1.08
   1   7 -21   19.11    1.32
   0   7 -21   32.49    1.48
   0   7 -21   25.40    1.49
   0   7 -21   29.73    1.69
   0   7 -21   30.32    1.35
  -1   7 -21   18.81    0.98
  -1   7 -21   17.62    1.16
  -1   7 -21   20.26    1.36
  -1   7 -21   19.79    1.07
  -2   7 -21    7.60    0.97
  -2   7 -21    6.58    0.89
   3   6 -21    8.38    0.84
   3   6 -21    7.75    1.04
   3   6 -21    7.97    1.02
  -3  -6  21    7.96    0.69
  -3  -6  21    8.43    0.80
   2   6 -21   20.53    1.37
   2   6 -21   21.35    1.26
   2   6 -21   20.51    1.15
  -2  -6  21   20.89    0.92
  -2  -6  21   20.10    0.93
   1   6 -21    5.38    0.66
   1   6 -21    5.92    0.63
   1   6 -21    5.53    0.70
   1   6 -21    5.99    0.79
  -1  -6  21    4.73    0.26
   0   6 -21   20.95    1.11
   0   6 -21   20.42    1.02
   0   6 -21   20.64    1.26
   0   6 -21   23.77    1.22
  -1   6 -21    5.40    0.49
  -1   6 -21    5.59    0.75
  -1   6 -21    4.48    0.67
  -1   6 -21    6.06    0.60
   1  -6  21    8.78    2.65
  -2   6 -21   21.00    0.90
  -2   6 -21   20.70    1.24
  -2   6 -21   20.03    1.18
  -2   6 -21   18.75    0.94
  -3   6 -21    9.36    1.03
  -3   6 -21    8.96    0.87
   4   5 -21    1.36    0.66
   4   5 -21    0.41    0.66
   4   5 -21    0.64    0.54
  -4  -5  21    0.38    0.47
   3   5 -21    0.79    0.49
   3   5 -21    1.09    0.43
   3   5 -21    0.02    0.53
  -3  -5  21   -0.11    0.40
  -3  -5  21    0.80    0.34
   2   5 -21    6.92    0.69
   2   5 -21    7.82    0.80
   2   5 -21    7.59    0.78
  -2  -5  21    7.69    0.49
  -2  -5  21    5.94    0.54
   1   5 -21   30.49    1.51
   1   5 -21   31.10    1.53
   1   5 -21   31.17    1.38
   1   5 -21   30.98    1.43
  -1  -5  21   31.66    1.14
  -1  -5  21   31.32    1.16
   0   5 -21    0.59    0.26
   0   5 -21    0.18    0.41
   0   5 -21    0.27    0.33
   0   5 -21    0.07    0.33
   0  -5  21    2.95    3.09
   0  -5  21   -0.39    0.32
  -1   5 -21   32.23    1.54
  -1   5 -21   30.51    1.26
  -1   5 -21   31.34    1.31
  -1   5 -21   31.43    1.46
   1  -5  21   33.82    3.85
  -2   5 -21    7.75    0.66
  -2   5 -21    8.33    0.78
  -2   5 -21    6.34    0.38
  -2   5 -21    6.68    0.44
  -2   5 -21    7.40    0.45
  -2   5 -21    6.19    0.48
  -3   5 -21    0.30    0.31
  -3   5 -21    0.08    0.45
  -3   5 -21   -0.28    0.38
  -3   5 -21    0.13    0.16
  -4   5 -21    1.06    0.58
  -4   5 -21    1.42    0.44
   4   4 -21    6.91    0.87
   4   4 -21    5.20    0.76
   4   4 -21    7.32    0.84
  -4  -4  21    6.27    0.54
  -4  -4  21    7.33    0.73
   3   4 -21    1.12    0.38
   3   4 -21    0.02    0.40
   3   4 -21    0.31    0.44
  -3  -4  21    0.45    0.20
  -3  -4  21    1.07    0.31
  -3  -4  21   -5.30    5.73
  -3  -4  21    0.49    0.38
   2   4 -21    3.85    0.53
   2   4 -21    3.96    0.49
   2   4 -21    3.98    0.39
   2   4 -21    4.41    0.57
   2   4 -21    4.25    0.60
  -2  -4  21    3.93    0.36
  -2  -4  21   10.11    4.30
  -2  -4  21    4.17    0.45
   1   4 -21    4.46    0.56
   1   4 -21    5.89    0.65
   1   4 -21    4.96    0.58
   1   4 -21    4.35    0.49
  -1  -4  21    1.56    3.20
  -1  -4  21    4.83    0.34
  -1  -4  21    4.66    0.54
  -1  -4  21   -1.00    3.06
  -1  -4  21    5.00    0.29
   0   4 -21   25.76    1.12
   0   4 -21   25.93    1.14
   0   4 -21   26.54    1.02
   0   4 -21   26.55    1.31
   0   4 -21   26.05    1.28
   0  -4  21   27.67    3.71
   0  -4  21   26.84    1.22
   0  -4  21   22.03    3.67
  -1   4 -21    4.75    0.55
  -1   4 -21    4.85    0.59
  -1   4 -21    4.97    0.39
  -1   4 -21    4.59    0.29
   1  -4  21    2.13    2.22
   1  -4  21    4.49    0.51
   1  -4  21    1.72    1.88
  -2   4 -21    3.66    0.32
  -2   4 -21    3.63    0.42
  -2   4 -21    4.47    0.52
  -2   4 -21    3.64    0.52
  -2   4 -21    4.19    0.34
  -3   4 -21    1.21    0.34
  -3   4 -21    1.31    0.34
  -3   4 -21    0.48    0.15
  -3   4 -21    0.80    0.43
  -3   4 -21    0.93    0.17
  -4   4 -21    6.07    0.71
  -4   4 -21    7.47    0.64
  -4   4 -21    5.53    0.78
   5   3 -21   21.63    1.33
   5   3 -21   22.05    1.51
   5   3 -21   20.99    1.29
  -5  -3  21   21.36    1.15
  -5  -3  21   21.09    1.27
   4   3 -21    2.68    0.52
   4   3 -21    3.07    0.57
   4   3 -21    4.24    0.61
   4   3 -21    2.45    0.59
  -4  -3  21   -7.74    6.58
  -4  -3  21    3.62    0.47
  -4  -3  21    3.19    0.49
   3   3 -21   19.56    1.07
   3   3 -21   17.67    1.07
   3   3 -21   17.69    0.99
   3   3 -21   17.90    0.97
  -3  -3  21   19.63    0.91
  -3  -3  21   18.36    0.83
  -3  -3  21   18.02    0.98
  -3  -3  21   20.76    5.87
   2   3 -21    3.97    0.50
   2   3 -21    4.30    0.43
   2   3 -21    4.11    0.55
   2   3 -21    4.97    0.53
   2   3 -21    4.94    0.61
  -2  -3  21    6.76    4.09
  -2  -3  21    4.78    4.00
  -2  -3  21    4.55    0.48
  -2  -3  21    4.02    0.36
  -2  -3  21    3.70    0.50
   1   3 -21   17.46    0.82
   1   3 -21   14.74    0.93
   1   3 -21   14.37    0.79
   1   3 -21   15.09    0.71
  -1  -3  21   15.65    0.69
  -1  -3  21   16.06    0.64
  -1  -3  21   16.35    3.72
  -1  -3  21   14.63    0.84
  -1  -3  21   18.53    3.56
   0   3 -21  106.95    3.76
   0   3 -21  108.44    3.88
   0   3 -21  100.87    3.67
   0   3 -21  106.35    3.76
   0   3 -21  104.37    3.97
   0  -3  21  106.36    6.91
   0  -3  21  101.59    6.19
   0  -3  21  106.34    3.83
  -1   3 -21   15.56    0.83
  -1   3 -21   15.11    0.67
  -1   3 -21   16.04    1.05
  -1   3 -21   16.29    0.71
  -1   3 -21   15.65    0.71
   1  -3  21   13.86    2.29
   1  -3  21   15.67    0.80
   1  -3  21   14.62    2.63
  -2   3 -21    4.14    0.31
  -2   3 -21    3.97    0.29
  -2   3 -21    4.12    0.60
  -2   3 -21    4.45    0.45
   2  -3  21    4.60    0.93
   2  -3  21    3.71    1.01
  -3   3 -21   17.69    0.70
  -3   3 -21   16.19    1.01
  -3   3 -21   17.34    0.97
  -3   3 -21   17.78    0.86
  -3   3 -21   17.83    0.68
  -4   3 -21    2.78    0.54
  -4   3 -21    2.92    0.50
  -4   3 -21    2.75    0.27
  -4   3 -21    3.10    0.36
  -5   3 -21   20.17    1.19
  -5   3 -21   21.97    1.43
   5   2 -21    0.41    0.49
   5   2 -21   -0.14    0.54
   5   2 -21   -0.30    0.46
  -5  -2  21    0.83    0.46
  -5  -2  21    0.56    0.42
   4   2 -21    4.91    0.64
   4   2 -21    5.33    0.62
   4   2 -21    5.25    0.72
   4   2 -21    5.51    0.68
  -4  -2  21    4.51    0.53
  -4  -2  21    5.34    0.59
  -4  -2  21    6.64    5.87
   3   2 -21    2.86    0.49
   3   2 -21    3.76    0.55
   3   2 -21    4.87    0.58
   3   2 -21    5.12    0.64
   3   2 -21    3.81    0.48
  -3  -2  21   -5.23    4.67
  -3  -2  21    4.11    0.52
  -3  -2  21    3.57    0.57
  -3  -2  21    3.21    0.38
  -3  -2  21    5.55    4.68
  -3  -2  21    4.49    0.40
   2   2 -21   75.44    2.90
   2   2 -21   78.32    2.97
   2   2 -21   77.05    2.85
   2   2 -21   66.88    3.13
  -2  -2  21   68.43    7.12
  -2  -2  21   78.96    2.84
  -2  -2  21   80.44    7.13
  -2  -2  21   80.00    2.78
  -2  -2  21   78.84    2.95
  -2  -2  21   79.07    2.78
   1   2 -21    1.88    0.32
   1   2 -21    2.34    0.38
   1   2 -21    1.87    0.30
   1   2 -21    2.12    0.41
   1   2 -21    1.62    0.25
  -1  -2  21    2.31    0.28
  -1  -2  21    1.72    0.21
  -1  -2  21   -1.51    2.50
  -1  -2  21    3.02    3.42
  -1  -2  21    2.14    0.36
   0   2 -21   20.57    1.03
   0   2 -21   23.29    0.91
   0   2 -21   21.84    0.94
   0   2 -21   21.24    0.93
   0   2 -21   22.56    1.11
   0  -2  21   20.16    3.01
   0  -2  21   23.23    3.39
   0  -2  21   21.93    0.79
   0  -2  21   20.15    0.97
  -1   2 -21    2.00    0.25
  -1   2 -21    2.64    0.28
  -1   2 -21    2.00    0.28
  -1   2 -21    2.22    0.39
  -1   2 -21    2.45    0.34
   1  -2  21    2.10    2.02
   1  -2  21    1.97    0.29
   1  -2  21    3.69    1.71
  -2   2 -21   79.08    2.73
  -2   2 -21   76.18    2.82
  -2   2 -21   77.70    2.97
  -2   2 -21   78.32    2.71
   2  -2  21   78.36    3.96
   2  -2  21   70.64    4.33
  -3   2 -21    3.54    0.28
  -3   2 -21    4.20    0.57
  -3   2 -21    4.00    0.38
  -3   2 -21    4.19    0.26
  -4   2 -21    4.15    0.29
  -4   2 -21    4.94    0.39
  -4   2 -21    5.18    0.37
  -4   2 -21    4.67    0.62
  -5   2 -21    0.91    0.62
  -5   2 -21    0.74    0.51
   5   1 -21   10.85    0.94
   5   1 -21   10.05    1.02
  -5  -1  21   10.87    0.85
  -5  -1  21   10.97    0.86
   4   1 -21   17.20    1.05
   4   1 -21   19.41    1.19
   4   1 -21   19.00    1.14
  -4  -1  21   12.79    6.12
  -4  -1  21    7.09    6.41
  -4  -1  21   19.96    0.99
  -4  -1  21   20.66    0.98
   3   1 -21    3.44    0.48
   3   1 -21    3.65    0.47
   3   1 -21    2.97    0.45
   3   1 -21    2.89    0.47
   3   1 -21    2.47    0.48
  -3  -1  21    2.21    3.94
  -3  -1  21    6.02    4.11
  -3  -1  21    3.44    0.45
  -3  -1  21    3.19    0.39
  -3  -1  21    3.76    0.54
  -3  -1  21    3.48    0.38
   2   1 -21   33.74    1.52
   2   1 -21   34.97    1.47
   2   1 -21   34.00    1.45
  -2  -1  21   33.95    1.37
  -2  -1  21   42.51    5.22
  -2  -1  21   34.89    1.36
  -2  -1  21   35.40    1.44
  -2  -1  21   34.65    1.52
  -2  -1  21   33.30    5.04
   1   1 -21   14.03    0.80
   1   1 -21   13.46    0.82
   1   1 -21   12.69    0.72
   1   1 -21   14.97    0.71
   1   1 -21   13.54    0.70
  -1  -1  21   14.02    0.77
  -1  -1  21   15.31    0.62
  -1  -1  21   13.99    0.69
  -1  -1  21   13.99    3.13
   0   1 -21    0.12    0.27
   0   1 -21    0.62    0.19
   0   1 -21    0.64    2.09
   0   1 -21    0.85    0.22
   0   1 -21    0.57    0.19
   0   1 -21    0.80    0.24
   0  -1  21   -3.23    2.06
   0  -1  21    0.60    0.16
   0  -1  21    0.73    0.25
  -1   1 -21   14.05    0.65
  -1   1 -21   14.15    2.67
  -1   1 -21   14.18    0.71
  -1   1 -21   14.19    0.67
  -1   1 -21   13.14    0.81
   1  -1  21   13.99    2.30
  -2   1 -21   34.48    1.54
  -2   1 -21   35.09    3.35
  -2   1 -21   33.94    1.29
  -2   1 -21   34.28    1.32
  -2   1 -21   34.89    1.36
   2  -1  21   37.61    3.18
   2  -1  21   35.45    1.33
  -3   1 -21    2.64    0.25
  -3   1 -21    3.96    1.61
  -3   1 -21    2.61    0.42
  -3   1 -21    2.81    0.29
  -3   1 -21    3.01    0.28
   3  -1  21    2.67    1.74
  -4   1 -21   19.88    1.62
  -4   1 -21   19.35    0.86
  -5   1 -21   11.52    1.14
  -5   1 -21    9.72    0.66
  -5   1 -21    8.24    0.94
   5   0 -21    2.85    0.49
   5   0 -21    2.85    0.58
  -5   0  21    2.68    0.51
  -5   0  21    2.94    0.53
   4   0 -21   15.85    0.95
   4   0 -21   16.49    0.93
  -4   0  21    4.83    6.58
  -4   0  21   17.71    0.93
  -4   0  21   16.19    0.89
  -4   0  21   21.72    5.56
   3   0 -21    4.09    0.52
   3   0 -21    3.96    0.53
   3   0 -21    4.07    0.46
   3   0 -21    4.63    0.57
   3   0 -21    5.05    0.60
  -3   0  21    4.34    0.57
  -3   0  21    4.65    0.53
  -3   0  21    4.58    4.52
  -3   0  21    4.80    0.52
  -3   0  21    3.91    0.43
  -3   0  21   -1.02    3.62
   2   0 -21   31.40    1.34
   2   0 -21   28.11    1.26
   2   0 -21   27.00    4.77
   2   0 -21   29.73    1.27
   2   0 -21   28.89    1.33
  -2   0  21   29.30    4.45
  -2   0  21   29.79    1.17
  -2   0  21   26.41    1.31
  -2   0  21   28.12    1.26
  -2   0  21   28.09    1.20
   1   0 -21   67.78    2.59
   1   0 -21   66.02    2.47
   1   0 -21   66.13    2.53
   1   0 -21   67.76    2.48
   1   0 -21   65.83    2.47
   1   0 -21   60.03    5.75
  -1   0  21   66.69    2.54
  -1   0  21   61.11    2.56
  -1   0  21   68.15    2.46
  -1   0  21   68.31    2.38
  -1   0  21   72.62    5.48
   0   0 -21    0.44    0.21
   0   0 -21    0.41    0.18
   0   0 -21    0.13    0.18
   0   0 -21    0.03    0.23
   0   0 -21    0.84    2.24
   0   0 -21    0.68    0.19
   0   0  21    0.27    0.26
   0   0  21    0.40    0.18
   0   0  21    0.58    1.93
   0   0  21    0.40    0.11
   0   0  21    0.15    0.21
  -1   0 -21   63.19    4.79
  -1   0 -21   68.24    2.45
  -1   0 -21   64.59    2.42
  -1   0 -21   62.79    2.57
  -1   0 -21   67.97    2.39
  -1   0 -21   68.11    2.46
   1   0  21   66.76    2.43
   1   0  21   68.25    2.60
   1   0  21   66.90    2.31
   1   0  21   67.47    4.48
  -2   0 -21   29.76    3.44
  -2   0 -21   28.90    1.11
  -2   0 -21   30.13    1.14
  -2   0 -21   29.36    1.35
  -2   0 -21   30.28    1.16
   2   0  21   28.61    1.34
   2   0  21   25.64    3.28
   2   0  21   28.44    1.11
  -3   0 -21    3.89    0.31
  -3   0 -21    3.98    0.36
  -3   0 -21    4.56    0.58
  -3   0 -21    4.77    1.99
   3   0  21    6.09    2.40
   3   0  21    4.13    0.54
  -4   0 -21   16.39    0.73
  -4   0 -21   16.11    0.80
   4   0  21   16.95    1.07
  -5   0 -21    2.80    0.72
  -5   0 -21    2.73    0.51
  -5   0 -21    2.95    0.43
   5  -1 -21   10.25    0.89
   5  -1 -21   11.87    0.81
  -5   1  21   10.50    0.89
  -5   1  21    8.36    0.74
   4  -1 -21   21.15    1.06
   4  -1 -21   19.26    1.04
  -4   1  21   18.74    0.95
  -4   1  21   22.48    6.51
  -4   1  21   19.37    1.03
  -4   1  21   20.35    5.79
   3  -1 -21    3.08    0.45
   3  -1 -21    2.99    0.39
   3  -1 -21    0.01    4.19
   3  -1 -21    2.84    0.47
   3  -1 -21    3.40    0.44
  -3   1  21    3.27    0.37
  -3   1  21    3.87    0.46
  -3   1  21    2.27    0.43
  -3   1  21    3.30    4.11
  -3   1  21    2.69    0.50
   2  -1 -21   34.50    1.49
   2  -1 -21   34.52    1.44
   2  -1 -21   33.31    1.47
   2  -1 -21   30.21    4.77
   2  -1 -21   32.51    1.43
  -2   1  21   35.21    1.40
  -2   1  21   33.63    1.51
  -2   1  21   33.31    1.49
  -2   1  21   33.95    1.34
  -2   1  21   37.56    5.42
  -2   1  21   33.97    1.43
   1  -1 -21   13.46    0.72
   1  -1 -21   14.34    0.77
   1  -1 -21   14.87    0.74
   1  -1 -21   14.59    0.84
   1  -1 -21   14.26    0.73
   1  -1 -21   17.15    3.53
  -1   1  21   14.33    0.65
  -1   1  21   13.93    0.80
  -1   1  21   13.83    0.74
  -1   1  21   15.07    0.84
   0  -1 -21    0.30    0.19
   0  -1 -21    0.43    0.21
   0  -1 -21    2.48    2.31
   0  -1 -21    0.18    0.19
   0  -1 -21    0.63    0.29
   0  -1 -21    0.37    0.18
   0   1  21   -1.42    1.82
   0   1  21    0.41    0.23
   0   1  21    0.52    0.24
   0   1  21    0.58    0.13
   0   1  21    0.32    0.29
  -1  -1 -21   12.87    0.68
  -1  -1 -21   13.16    0.83
  -1  -1 -21   15.57    2.82
  -1  -1 -21   14.33    0.63
  -1  -1 -21   13.75    0.66
   1   1  21   16.17    2.81
   1   1  21   13.05    0.62
   1   1  21   13.34    0.65
   1   1  21   12.64    0.81
   1   1  21   13.80    0.57
  -2  -1 -21   34.66    1.54
  -2  -1 -21   33.84    1.31
  -2  -1 -21   38.97    3.89
  -2  -1 -21   33.93    1.36
   2   1  21   34.85    1.27
   2   1  21   33.46    1.53
   2   1  21   32.49    4.03
   2   1  21   34.72    1.22
   2   1  21   35.00    1.23
  -3  -1 -21    6.25    2.37
  -3  -1 -21    2.55    0.30
  -3  -1 -21    2.68    0.33
   3   1  21    0.39    2.67
   3   1  21    3.05    0.49
  -4  -1 -21   19.60    0.85
  -4  -1 -21   19.88    0.95
  -4  -1 -21   19.20    1.08
   4   1  21   18.50    1.14
  -5  -1 -21   10.94    0.88
  -5  -1 -21    9.16    0.75
   5   1  21    9.73    1.01
   5  -2 -21   -0.52    0.37
   5  -2 -21    1.19    0.51
  -5   2  21    0.47    0.45
  -5   2  21   -0.25    0.37
   4  -2 -21    4.98    0.61
   4  -2 -21    5.15    0.63
  -4   2  21    5.89    0.58
  -4   2  21    5.33    0.59
   3  -2 -21    5.59    4.50
   3  -2 -21    4.10    0.52
   3  -2 -21    3.96    0.57
   3  -2 -21    3.54    0.47
   3  -2 -21    4.55    0.58
  -3   2  21    4.71    0.51
  -3   2  21    4.98    0.59
  -3   2  21    3.30    0.55
  -3   2  21    3.42    0.51
  -3   2  21    7.46    4.21
  -3   2  21    5.06    0.43
   2  -2 -21   79.64    2.96
   2  -2 -21   76.76    2.87
   2  -2 -21   75.13    2.92
   2  -2 -21   76.84    7.11
   2  -2 -21   80.05    2.87
  -2   2  21   72.15    2.95
  -2   2  21   74.73    2.88
  -2   2  21   79.07    2.79
  -2   2  21   79.21    2.97
  -2   2  21   74.89    2.94
   1  -2 -21    2.05    0.29
   1  -2 -21   -0.78    2.79
   1  -2 -21    1.93    0.32
   1  -2 -21    2.05    0.38
   1  -2 -21    2.21    0.34
  -1   2  21    3.77    2.87
  -1   2  21    1.88    0.34
  -1   2  21    2.33    0.38
  -1   2  21    2.18    0.26
  -1   2  21    1.85    0.41
   0  -2 -21   21.01    0.95
   0  -2 -21   19.73    0.92
   0  -2 -21   16.75    3.42
   0  -2 -21   21.44    0.91
   0  -2 -21   20.21    1.05
   0   2  21   20.75    0.85
   0   2  21   22.73    0.98
   0   2  21   16.71    3.21
   0   2  21   19.45    1.09
   0   2  21   21.81    0.95
  -1  -2 -21    2.24    0.33
  -1  -2 -21    2.24    0.39
  -1  -2 -21    1.97    0.25
  -1  -2 -21    2.64    2.46
  -1  -2 -21    2.86    0.36
   1   2  21    1.63    2.35
   1   2  21    1.55    0.42
   1   2  21    2.21    0.23
   1   2  21    2.71    0.35
   1   2  21    2.87    0.49
  -2  -2 -21   78.86    2.77
  -2  -2 -21   77.84    2.84
  -2  -2 -21   73.62    3.37
  -2  -2 -21   66.44    5.49
   2   2  21   78.44    2.73
   2   2  21   79.43    5.81
   2   2  21   78.82    2.80
   2   2  21   80.52    2.76
   2   2  21   75.73    3.00
  -3  -2 -21    3.92    2.99
  -3  -2 -21    3.59    0.36
  -3  -2 -21    3.83    0.47
  -3  -2 -21    4.06    0.52
   3   2  21    3.86    0.25
   3   2  21    6.27    0.76
   3   2  21    4.01    0.23
  -4  -2 -21    5.16    0.68
  -4  -2 -21    5.21    0.57
  -4  -2 -21    5.17    0.46
   4   2  21    4.24    0.67
  -5  -2 -21    0.23    0.49
  -5  -2 -21   -0.80    0.46
   5   2  21   -0.09    0.73
   5  -3 -21   20.29    1.20
  -5   3  21   20.98    1.18
  -5   3  21   20.44    1.30
   4  -3 -21    2.86    0.46
   4  -3 -21    2.20    0.45
  -4   3  21    1.95    0.50
  -4   3  21    3.47    0.53
  -4   3  21    2.58    0.40
   3  -3 -21   17.68    1.17
   3  -3 -21   26.67    5.77
   3  -3 -21   18.49    0.96
  -3   3  21   20.15    1.02
  -3   3  21   17.96    1.06
  -3   3  21   18.61    0.88
  -3   3  21   14.73    4.62
   2  -3 -21    4.02    0.44
   2  -3 -21    4.83    0.56
   2  -3 -21    2.72    3.71
   2  -3 -21    3.76    0.56
   2  -3 -21    4.58    0.54
  -2   3  21    4.26    0.45
  -2   3  21    4.12    0.52
  -2   3  21    3.47    0.52
  -2   3  21    4.21    0.37
  -2   3  21    4.75    0.63
  -2   3  21    7.52    3.79
   1  -3 -21   14.00    0.77
   1  -3 -21   15.21    0.86
   1  -3 -21   14.25    3.90
   1  -3 -21   16.54    0.80
  -1   3  21   15.07    0.81
  -1   3  21   16.59    0.75
  -1   3  21   16.41    0.89
  -1   3  21   14.54    0.91
  -1   3  21   15.97    3.48
   0  -3 -21  107.77    3.83
   0  -3 -21  106.96    4.11
   0  -3 -21   97.72    7.04
   0  -3 -21   96.74    3.74
   0   3  21  105.40    3.93
   0   3  21  112.38    7.22
   0   3  21  107.88    3.82
   0   3  21  106.90    3.80
  -1  -3 -21   16.07    0.74
  -1  -3 -21   16.06    0.84
  -1  -3 -21   14.93    0.91
  -1  -3 -21   15.39    0.83
  -1  -3 -21   16.22    3.40
   1   3  21   16.36    0.99
   1   3  21   16.34    0.79
   1   3  21   15.89    0.72
   1   3  21   19.45    3.77
   1   3  21   16.08    0.77
  -2  -3 -21   -0.34    2.94
  -2  -3 -21    4.51    0.56
  -2  -3 -21    3.73    0.46
  -2  -3 -21    3.94    0.40
   2   3  21    3.91    0.30
   2   3  21    4.30    0.42
   2   3  21    5.30    0.70
   2   3  21    4.91    0.36
   2   3  21    6.45    3.20
  -3  -3 -21   19.09    1.06
  -3  -3 -21   18.27    0.85
  -3  -3 -21   17.97    0.96
   3   3  21   17.26    1.16
   3   3  21   18.68    0.83
   3   3  21   18.25    0.80
  -4  -3 -21    3.53    0.56
  -4  -3 -21    3.26    0.51
   4   3  21    2.45    0.27
  -5  -3 -21   22.47    1.36
  -5  -3 -21   23.40    1.34
   4  -4 -21    5.03    0.64
   4  -4 -21    5.03    0.61
  -4   4  21    6.07    0.69
  -4   4  21    5.61    0.56
  -4   4  21    5.87    0.72
  -3   4  21    0.99    0.32
  -3   4  21    0.68    0.48
  -3   4  21    9.82    6.58
   2  -4 -21    4.85    0.60
   2  -4 -21    4.30    0.53
   2  -4 -21    4.14    0.52
   2  -4 -21    7.46    4.83
  -2   4  21    3.64    3.72
  -2   4  21    4.44    0.51
  -2   4  21    4.39    0.57
  -2   4  21    3.26    0.56
  -2   4  21    4.50    0.60
  -2   4  21    3.99    0.43
   1  -4 -21    4.56    0.56
   1  -4 -21    1.09    3.90
   1  -4 -21    5.14    0.47
   1  -4 -21    4.40    0.46
   1  -4 -21    4.65    0.54
  -1   4  21    4.37    0.59
  -1   4  21    4.99    0.53
  -1   4  21    4.43    0.61
  -1   4  21    5.01    0.39
  -1   4  21    4.18    3.45
   0  -4 -21   28.06    1.20
   0  -4 -21   14.45    4.19
   0  -4 -21   25.82    1.26
   0  -4 -21   23.72    1.08
   0  -4 -21   24.27    1.16
   0   4  21   25.96    1.18
   0   4  21   26.98    1.10
   0   4  21   23.82    1.13
   0   4  21   28.58    4.60
   0   4  21   25.58    1.29
  -1  -4 -21    4.61    0.54
  -1  -4 -21    4.25    0.58
  -1  -4 -21    7.33    3.41
  -1  -4 -21    4.59    0.44
  -1  -4 -21    4.35    0.48
   1   4  21    5.16    0.63
   1   4  21    4.29    0.39
   1   4  21    3.99    3.75
   1   4  21    5.26    0.52
  -2  -4 -21    3.66    0.56
  -2  -4 -21    3.76    0.44
  -2  -4 -21    1.92    3.41
  -2  -4 -21    4.17    0.50
   2   4  21    7.82    4.29
   2   4  21    4.28    0.41
   2   4  21    5.36    0.70
   2   4  21    4.60    0.37
   2   4  21    4.32    0.46
  -3  -4 -21   -0.19    0.42
  -3  -4 -21    0.91    0.38
   3   4  21    0.44    0.27
   3   4  21    0.70    0.33
  -4  -4 -21    5.80    0.74
  -4  -4 -21    7.42    0.84
   4   4  21    6.26    0.53
   4  -5 -21    1.41    0.52
   4  -5 -21    0.82    0.50
  -4   5  21    0.52    0.49
  -4   5  21    0.81    0.42
   3  -5 -21   -0.20    0.42
   3  -5 -21    0.25    0.38
  -3   5  21    0.68    0.31
  -3   5  21   -0.14    0.36
  -3   5  21    0.71    0.54
   2  -5 -21    7.52    0.68
   2  -5 -21    7.96    0.73
   2  -5 -21    8.38    5.69
  -2   5  21    8.39    4.39
  -2   5  21    7.41    0.87
  -2   5  21    6.88    0.51
   1  -5 -21   30.90    1.41
   1  -5 -21   37.11    6.03
   1  -5 -21   32.47    1.54
  -1   5  21   30.25    1.47
  -1   5  21   31.72    1.31
  -1   5  21   32.40    1.60
  -1   5  21   33.81    5.50
   0  -5 -21    0.36    0.31
   0  -5 -21    0.32    0.38
   0  -5 -21    2.34    3.67
   0   5  21    1.21    3.94
   0   5  21    0.39    0.24
   0   5  21   -0.01    0.34
   0   5  21    0.08    0.33
  -1  -5 -21   30.78    1.42
  -1  -5 -21   28.63    5.51
  -1  -5 -21   30.23    1.51
   1   5  21   30.05    1.33
   1   5  21   30.57    1.29
   1   5  21   31.53    1.35
   1   5  21   34.81    5.57
  -2  -5 -21    1.03    4.25
  -2  -5 -21    8.56    0.73
  -2  -5 -21    8.10    0.78
   2   5  21    7.21    0.52
   2   5  21    7.25    0.57
   2   5  21    7.31    0.68
   2   5  21   13.81    5.75
  -3  -5 -21    0.04    0.45
  -3  -5 -21    0.69    0.54
   3   5  21    1.13    0.41
   3   5  21   -0.20    0.32
  -4  -5 -21    0.67    0.60
  -4  -5 -21    0.63    0.52
   4   5  21    0.51    0.47
   3  -6 -21    8.60    0.85
   3  -6 -21    6.59    0.89
  -3   6  21    7.84    0.63
  -3   6  21    8.36    0.78
   2  -6 -21   20.91    1.27
   2  -6 -21   21.31    1.15
  -2   6  21   21.65    1.04
   1  -6 -21    5.72    0.73
   1  -6 -21    4.30    0.55
   1  -6 -21   12.28    5.70
  -1   6  21    7.44    0.93
  -1   6  21    0.60    5.04
   0  -6 -21   24.34    5.41
   0  -6 -21   21.97    1.18
   0  -6 -21   20.48    1.23
   0   6  21   20.32    6.06
   0   6  21   22.22    1.19
   0   6  21   22.12    1.04
  -1  -6 -21    6.91    0.74
  -1  -6 -21    4.39    0.70
  -1  -6 -21    2.22    4.96
   1   6  21    5.38    0.53
   1   6  21    5.03    0.66
   1   6  21    1.66    5.41
  -2  -6 -21   23.04    1.32
  -2  -6 -21   19.77    1.23
   2   6  21   21.60    1.09
  -3  -6 -21    9.11    0.97
  -3  -6 -21    7.67    0.96
   3   6  21    7.44    0.73
   2  -7 -21    6.53    0.79
   2  -7 -21    7.18    0.96
  -2   7  21    5.32    0.60
   1  -7 -21   17.02    1.22
   1  -7 -21   19.53    1.14
  -1   7  21   18.53    0.99
   0  -7 -21   29.78    1.49
   0  -7 -21   29.04    1.63
   0   7  21   30.33    1.37
  -1  -7 -21   20.22    1.35
  -1  -7 -21   18.07    1.16
  -1  -7 -21   15.05    8.37
   1   7  21   18.71    1.22
   1   7  21   18.77    8.60
   1   7  21   20.01    1.08
  -2  -7 -21    6.70    0.86
  -2  -7 -21    3.86    0.73
   2   7  21    6.32    0.75
   1  -8 -21   -0.14    0.72
   0  -8 -21   -0.12    0.65
   0   8  21    1.13    0.53
   1   8  21    0.46    0.62
   2   7 -22    2.58    0.63
   2   7 -22    1.58    0.80
   2   7 -22    2.30    0.76
   1   7 -22    9.01    0.99
   1   7 -22    8.85    1.07
   1   7 -22    7.39    0.83
   0   7 -22    2.00    0.46
   0   7 -22    1.34    0.60
   0   7 -22    2.94    0.71
   0   7 -22    1.87    0.57
  -1   7 -22    9.02    0.97
  -1   7 -22    8.61    1.08
  -2   7 -22    1.09    0.68
  -2   7 -22    2.76    0.69
   3   6 -22    2.15    0.55
   3   6 -22    1.66    0.70
   3   6 -22    1.48    0.66
  -3  -6  22    1.31    0.38
   2   6 -22   12.58    1.15
   2   6 -22   11.32    0.87
   2   6 -22   10.57    1.05
  -2  -6  22   11.77    0.63
   1   6 -22    8.37    0.72
   1   6 -22    8.27    0.95
   1   6 -22    6.63    0.78
   0   6 -22   21.62    1.28
   0   6 -22   20.71    1.19
   0   6 -22   19.07    1.12
  -1   6 -22    7.62    0.60
  -1   6 -22    9.05    0.73
  -1   6 -22    8.72    0.79
  -1   6 -22    6.81    0.86
   1  -6  22   10.54    4.79
  -2   6 -22   13.05    1.03
  -2   6 -22   10.16    0.63
  -2   6 -22   11.03    0.90
  -3   6 -22    0.43    0.64
  -3   6 -22    1.58    0.53
   4   5 -22    3.39    0.79
   4   5 -22    2.19    0.90
   4   5 -22    4.60    0.88
  -4  -5  22    4.14    0.57
   3   5 -22    8.46    0.93
   3   5 -22    8.99    0.81
   3   5 -22    8.97    0.91
  -3  -5  22    6.67    0.77
  -3  -5  22    9.27    0.68
   2   5 -22    5.70    0.67
   2   5 -22    4.33    0.64
   2   5 -22    3.90    0.63
  -2  -5  22    4.19    0.48
  -2  -5  22    4.29    0.40
   1   5 -22    0.50    0.43
   1   5 -22    1.04    0.44
   1   5 -22    0.42    0.32
   1   5 -22    0.55    0.42
  -1  -5  22    0.37    0.15
  -1  -5  22    0.32    0.12
   0   5 -22    1.13    0.39
   0   5 -22    1.65    0.44
   0   5 -22    1.77    0.48
   0   5 -22    1.24    0.30
   0  -5  22    0.87    0.43
  -1   5 -22    0.23    0.23
  -1   5 -22    0.08    0.30
  -1   5 -22    0.13    0.43
  -1   5 -22    0.19    0.34
   1  -5  22   -2.47    2.34
  -2   5 -22    3.84    0.38
  -2   5 -22    4.48    0.64
  -2   5 -22    3.87    0.30
  -2   5 -22    3.84    0.39
  -2   5 -22    3.88    0.45
  -2   5 -22    4.52    0.62
  -3   5 -22    9.61    0.79
  -3   5 -22    9.85    0.93
  -3   5 -22    7.76    0.67
  -4   5 -22    3.86    0.58
  -4   5 -22    3.08    0.68
   4   4 -22    7.26    0.89
   4   4 -22    7.74    0.82
   4   4 -22    5.55    0.81
  -4  -4  22    6.31    0.55
  -4  -4  22    5.34    0.63
   3   4 -22   18.26    1.19
   3   4 -22   21.20    1.13
   3   4 -22   21.14    1.05
   3   4 -22   20.10    1.24
  -3  -4  22   20.30    1.08
  -3  -4  22   22.02    1.00
  -3  -4  22   19.63    0.87
   2   4 -22    2.53    0.43
   2   4 -22    2.88    0.56
   2   4 -22    2.84    0.39
   2   4 -22    2.92    0.53
   2   4 -22    2.88    0.53
  -2  -4  22    3.65    0.37
  -2  -4  22    2.67    0.38
   1   4 -22    6.47    0.74
   1   4 -22    6.56    0.64
   1   4 -22    6.92    0.44
   1   4 -22    7.45    0.84
   1   4 -22    5.90    0.67
  -1  -4  22    5.86    0.61
  -1  -4  22    7.12    0.35
  -1  -4  22   10.91    4.05
  -1  -4  22    6.56    0.40
  -1  -4  22    8.69    3.79
   0   4 -22   52.83    2.10
   0   4 -22   55.83    2.09
   0   4 -22   57.26    2.24
   0   4 -22   55.38    2.30
   0  -4  22   49.72    5.53
   0  -4  22   55.60    5.44
   0  -4  22   53.84    2.17
  -1   4 -22    6.85    0.49
  -1   4 -22    6.79    0.37
  -1   4 -22    6.08    0.45
  -1   4 -22    8.12    0.72
   1  -4  22    6.54    0.58
   1  -4  22    5.73    2.51
   1  -4  22    7.20    2.37
  -2   4 -22    3.26    0.42
  -2   4 -22    3.17    0.52
  -2   4 -22    3.28    0.43
  -2   4 -22    2.98    0.32
  -2   4 -22    2.67    0.34
  -2   4 -22    2.93    0.31
  -3   4 -22   19.90    1.06
  -3   4 -22   20.29    0.81
  -3   4 -22   21.08    1.05
  -3   4 -22   20.79    0.82
  -3   4 -22   21.80    1.22
  -4   4 -22    5.11    0.66
  -4   4 -22    6.41    0.84
  -4   4 -22    4.90    0.62
   5   3 -22    0.73    0.59
  -5  -3  22    0.62    0.44
  -5  -3  22    0.38    0.52
   4   3 -22   -0.28    0.45
   4   3 -22   -0.03    0.47
   4   3 -22    0.93    0.51
   4   3 -22    0.17    0.52
  -4  -3  22    3.12    7.37
  -4  -3  22   -1.10    0.48
  -4  -3  22    0.44    0.35
   3   3 -22    2.86    0.46
   3   3 -22    3.37    0.54
   3   3 -22    3.74    0.52
   3   3 -22    3.81    0.58
  -3  -3  22    3.21    0.40
  -3  -3  22   -3.84    5.31
  -3  -3  22    3.30    0.46
  -3  -3  22    3.24    0.37
   2   3 -22   10.48    0.81
   2   3 -22    9.74    0.69
   2   3 -22    9.45    0.73
   2   3 -22   11.35    0.64
   2   3 -22   11.91    0.86
  -2  -3  22   10.48    4.41
  -2  -3  22    8.86    4.49
  -2  -3  22    9.72    0.64
  -2  -3  22    9.78    0.55
  -2  -3  22    8.99    0.78
   1   3 -22   15.08    0.80
   1   3 -22   15.20    0.73
   1   3 -22   16.19    0.94
   1   3 -22   16.54    0.99
   1   3 -22   14.99    0.85
  -1  -3  22   11.22    3.77
  -1  -3  22   16.67    0.72
  -1  -3  22   11.76    3.47
  -1  -3  22   17.38    0.91
  -1  -3  22   15.94    0.66
   0   3 -22   42.32    1.74
   0   3 -22   40.31    1.80
   0   3 -22   39.27    1.61
   0   3 -22   41.91    1.62
   0   3 -22   42.92    1.55
   0  -3  22   40.56    1.69
   0  -3  22   45.65    4.43
   0  -3  22   37.90    4.94
  -1   3 -22   15.52    0.92
  -1   3 -22   15.14    0.72
  -1   3 -22   15.04    0.84
  -1   3 -22   15.15    0.71
  -1   3 -22   16.12    0.68
   1  -3  22   14.26    2.27
   1  -3  22   12.15    2.81
   1  -3  22   14.73    0.79
  -2   3 -22    9.91    0.50
  -2   3 -22   11.46    0.78
  -2   3 -22    9.70    0.64
  -2   3 -22    9.44    0.48
   2  -3  22   10.19    1.29
   2  -3  22    7.07    1.40
  -3   3 -22    3.65    0.57
  -3   3 -22    3.22    0.26
  -3   3 -22    3.65    0.28
  -3   3 -22    3.01    0.38
  -3   3 -22    2.69    0.45
  -4   3 -22    0.37    0.47
  -4   3 -22    0.46    0.17
  -4   3 -22    0.72    0.44
  -4   3 -22    0.22    0.29
  -5   3 -22    0.68    0.51
  -5   3 -22    0.30    0.67
   5   2 -22    4.91    0.80
   5   2 -22    5.80    0.75
   5   2 -22    6.27    0.76
  -5  -2  22    6.25    0.70
  -5  -2  22    6.19    0.73
   4   2 -22    4.14    0.55
   4   2 -22    3.40    0.52
   4   2 -22    2.55    0.60
   4   2 -22    4.58    0.69
  -4  -2  22    3.64    0.47
  -4  -2  22    3.87    0.50
  -4  -2  22   10.18    6.73
   3   2 -22   33.14    1.59
   3   2 -22   33.95    1.51
   3   2 -22   31.38    1.54
   3   2 -22   32.82    1.51
  -3  -2  22   49.89    8.23
  -3  -2  22   35.04    1.39
  -3  -2  22   40.61    6.41
  -3  -2  22   31.66    1.47
  -3  -2  22   34.64    1.38
   2   2 -22    4.11    0.46
   2   2 -22    4.79    0.55
   2   2 -22    4.80    0.53
   2   2 -22    5.68    0.53
   2   2 -22    4.67    0.57
  -2  -2  22    5.32    0.62
  -2  -2  22    4.20    4.00
  -2  -2  22    4.11    0.37
  -2  -2  22    5.26    0.49
  -2  -2  22    4.41    0.37
  -2  -2  22    3.94    3.54
   1   2 -22   70.32    2.61
   1   2 -22   66.58    2.50
   1   2 -22   66.29    2.47
   1   2 -22   66.60    2.50
   1   2 -22   69.09    2.67
  -1  -2  22   66.38    2.36
  -1  -2  22   62.84    2.55
  -1  -2  22   63.19    5.53
   0   2 -22    5.63    0.39
   0   2 -22    4.88    0.41
   0   2 -22    6.20    0.53
   0   2 -22    5.88    0.44
   0   2 -22    4.18    0.81
   0  -2  22    3.84    2.27
   0  -2  22    3.15    2.81
   0  -2  22    5.77    0.50
  -1   2 -22   69.94    2.45
  -1   2 -22   66.95    2.54
  -1   2 -22   63.81    2.48
  -1   2 -22   68.13    2.43
  -1   2 -22   63.47    3.10
   1  -2  22   67.42    2.50
   1  -2  22   71.21    5.11
   1  -2  22   70.44    4.35
  -2   2 -22    4.14    0.56
  -2   2 -22    4.88    0.34
  -2   2 -22    4.31    0.42
  -2   2 -22    5.00    0.32
   2  -2  22    5.05    1.58
   2  -2  22    1.89    1.93
  -3   2 -22   33.65    1.25
  -3   2 -22   32.45    1.22
  -3   2 -22   34.58    1.55
  -3   2 -22   32.18    1.32
  -4   2 -22    3.30    0.52
  -4   2 -22    3.72    0.36
  -4   2 -22    3.97    0.29
  -4   2 -22    3.48    0.37
  -4   2 -22    4.34    0.64
  -5   2 -22    6.41    0.83
  -5   2 -22    8.16    1.11
   5   1 -22    8.47    0.92
   5   1 -22   10.02    0.89
  -5  -1  22    9.08    0.84
  -5  -1  22    7.87    0.77
   4   1 -22    5.20    0.62
   4   1 -22    3.72    0.65
   4   1 -22    5.18    0.68
   4   1 -22    5.03    0.66
  -4  -1  22    5.16    0.54
  -4  -1  22    3.71    5.68
  -4  -1  22    5.14    0.54
   3   1 -22    8.77    0.71
   3   1 -22    7.57    0.70
   3   1 -22    8.94    0.64
   3   1 -22    7.89    0.73
  -3  -1  22    7.99    0.56
  -3  -1  22    8.22    0.56
  -3  -1  22    5.02    4.65
  -3  -1  22    7.53    0.70
  -3  -1  22    7.06    4.78
   2   1 -22   13.08    0.79
   2   1 -22   11.75    0.70
   2   1 -22   12.24    0.73
   2   1 -22   12.57    0.75
  -2  -1  22   12.56    0.63
  -2  -1  22   12.78    0.65
  -2  -1  22   12.16    0.79
  -2  -1  22   13.28    3.75
  -2  -1  22   11.25    3.99
  -2  -1  22   11.30    0.68
   1   1 -22   43.61    1.73
   1   1 -22   41.99    1.70
   1   1 -22   44.40    1.87
   1   1 -22   42.44    1.72
   1   1 -22   47.00    1.82
  -1  -1  22   44.80    1.61
  -1  -1  22   43.78    1.69
  -1  -1  22   43.77    1.78
  -1  -1  22   39.98    4.89
   0   1 -22   40.84    1.59
   0   1 -22   42.06    1.59
   0   1 -22   40.74    1.60
   0   1 -22   43.01    1.77
   0   1 -22   40.52    1.66
   0   1 -22   45.93    4.73
   0  -1  22   40.89    1.52
   0  -1  22   40.47    1.65
   0  -1  22   42.25    1.48
   0  -1  22   35.22    4.16
  -1   1 -22   42.55    1.61
  -1   1 -22   40.29    1.79
  -1   1 -22   44.43    1.68
  -1   1 -22   44.32    1.60
  -1   1 -22   39.56    4.11
  -1   1 -22   39.69    1.62
   1  -1  22   41.51    3.61
   1  -1  22   45.24    1.65
  -2   1 -22    9.68    2.32
  -2   1 -22   12.45    0.58
  -2   1 -22   12.56    0.62
   2  -1  22   11.63    0.59
   2  -1  22   13.50    2.19
  -3   1 -22    7.79    0.45
  -3   1 -22    7.04    0.71
  -3   1 -22    8.94    1.98
  -3   1 -22    8.44    0.44
   3  -1  22    4.57    2.06
  -4   1 -22    4.45    0.44
  -4   1 -22    4.80    0.36
  -4   1 -22    5.26    0.67
  -5   1 -22    9.77    0.82
  -5   1 -22   10.06    1.15
  -5   1 -22    8.78    0.86
   5   0 -22    5.41    0.69
   5   0 -22    5.09    0.73
  -5   0  22    5.04    0.66
  -5   0  22    4.93    0.62
   4   0 -22    6.34    0.63
   4   0 -22    5.41    0.70
  -4   0  22    6.01    0.61
  -4   0  22    6.47    0.60
  -4   0  22   -0.68    7.23
  -4   0  22    8.32    6.29
   3   0 -22    2.15    0.57
   3   0 -22    3.60    0.58
   3   0 -22    3.04    0.50
   3   0 -22    2.79    0.49
   3   0 -22    3.06    0.45
  -3   0  22    2.46    0.43
  -3   0  22    2.92    0.38
  -3   0  22   14.93    5.31
  -3   0  22    3.44    4.23
  -3   0  22    3.36    0.42
  -3   0  22    3.04    0.52
   2   0 -22    0.19    0.29
   2   0 -22   -1.47    3.18
   2   0 -22    0.26    0.31
   2   0 -22    0.33    0.24
   2   0 -22   -0.06    0.25
   2   0 -22    0.15    0.31
  -2   0  22    0.13    0.18
  -2   0  22   -0.18    0.35
  -2   0  22    0.10    0.19
  -2   0  22   -0.01    0.29
  -2   0  22   -1.29    3.18
   1   0 -22   17.23    3.49
   1   0 -22   13.53    0.83
   1   0 -22   12.44    0.68
   1   0 -22   14.40    0.72
   1   0 -22   13.56    0.69
   1   0 -22   13.23    0.76
  -1   0  22   13.32    0.79
  -1   0  22   12.78    0.60
  -1   0  22    8.76    3.17
  -1   0  22   12.77    0.82
  -1   0  22   13.13    0.70
   0   0 -22    0.52    0.23
   0   0 -22    0.84    0.22
   0   0 -22    0.55    0.21
   0   0 -22    0.65    0.29
   0   0 -22    3.66    2.44
   0   0 -22    0.80    0.22
   0   0  22    0.71    0.33
   0   0  22    0.61    0.13
   0   0  22    0.64    0.20
   0   0  22    0.91    0.27
   0   0  22    1.45    2.14
  -1   0 -22    9.15    2.73
  -1   0 -22   11.65    0.64
  -1   0 -22   13.87    0.80
  -1   0 -22   12.82    0.67
  -1   0 -22   13.23    0.63
  -1   0 -22   12.21    0.60
   1   0  22   12.48    0.50
   1   0  22   12.94    0.64
   1   0  22   11.98    0.79
   1   0  22   12.82    2.51
  -2   0 -22   -0.38    2.00
  -2   0 -22    0.39    0.18
  -2   0 -22    0.50    0.17
  -2   0 -22    0.03    0.50
  -2   0 -22    0.51    0.16
   2   0  22    0.11    0.15
   2   0  22    0.61    1.98
   2   0  22    0.53    0.36
  -3   0 -22    2.93    0.30
  -3   0 -22    6.26    2.22
  -3   0 -22    3.23    0.34
  -3   0 -22    2.17    0.42
   3   0  22    2.70    0.50
  -4   0 -22    6.38    0.43
  -4   0 -22    6.70    0.69
  -4   0 -22    6.56    0.51
  -5   0 -22    4.26    0.60
  -5   0 -22    5.41    0.64
   5  -1 -22   10.31    0.84
   5  -1 -22    9.94    0.85
  -5   1  22    8.24    0.76
  -5   1  22   10.06    0.86
   4  -1 -22    4.20    0.63
   4  -1 -22    5.42    0.65
  -4   1  22    5.95    0.59
  -4   1  22    3.40    5.45
  -4   1  22    5.83    0.63
  -4   1  22    6.48    6.44
   3  -1 -22    7.53    0.69
   3  -1 -22    7.89    0.60
   3  -1 -22    2.51    4.52
   3  -1 -22    8.38    0.78
  -3   1  22    7.48    0.57
  -3   1  22    6.82    0.72
  -3   1  22    7.23    0.85
  -3   1  22    8.60    0.54
  -3   1  22   16.95    5.03
   2  -1 -22   10.95    0.70
   2  -1 -22   11.73    0.79
   2  -1 -22   16.76    4.02
   2  -1 -22   10.95    0.69
   2  -1 -22   11.70    0.76
  -2   1  22    5.23    3.45
  -2   1  22   11.84    0.79
  -2   1  22   13.20    0.83
  -2   1  22   11.76    0.67
  -2   1  22   12.04    0.76
   1  -1 -22   41.77    1.74
   1  -1 -22   40.08    1.69
   1  -1 -22   45.11    1.72
   1  -1 -22   43.57    1.77
   1  -1 -22   45.71    5.32
   1  -1 -22   45.62    1.85
  -1   1  22   46.10    1.81
  -1   1  22   44.81    1.73
  -1   1  22   45.04    1.63
  -1   1  22   39.65    1.81
   0  -1 -22   42.47    1.77
   0  -1 -22   40.77    1.59
   0  -1 -22   34.67    4.64
   0  -1 -22   41.10    1.63
   0  -1 -22   41.95    1.64
   0  -1 -22   40.41    1.61
   0   1  22   42.92    1.52
   0   1  22   42.79    1.66
   0   1  22   42.05    1.60
   0   1  22   30.90    3.98
   0   1  22   40.02    1.76
  -1  -1 -22   46.06    4.55
  -1  -1 -22   40.66    1.70
  -1  -1 -22   43.22    1.68
  -1  -1 -22   42.04    1.94
  -1  -1 -22   43.96    1.64
   1   1  22   44.07    1.66
   1   1  22   44.92    1.63
   1   1  22   44.85    1.58
   1   1  22   43.25    4.35
   1   1  22   43.54    1.87
  -2  -1 -22   11.37    0.61
  -2  -1 -22   10.59    0.56
  -2  -1 -22   12.52    0.90
  -2  -1 -22    9.30    2.62
   2   1  22   11.45    0.45
   2   1  22   11.84    0.84
   2   1  22   12.17    0.53
   2   1  22   11.23    2.92
  -3  -1 -22    8.32    0.55
  -3  -1 -22    8.93    0.73
  -3  -1 -22    8.01    0.46
  -3  -1 -22    4.39    2.58
   3   1  22    6.45    0.77
  -4  -1 -22    5.25    0.55
  -4  -1 -22    6.99    0.72
  -4  -1 -22    5.73    0.46
   4   1  22    5.56    0.68
  -5  -1 -22    8.82    0.89
  -5  -1 -22    9.21    0.78
   5  -2 -22    6.94    0.75
   5  -2 -22    7.04    0.82
  -5   2  22    6.56    0.71
  -5   2  22    5.62    0.78
   4  -2 -22    3.75    0.51
  -4   2  22    3.46    0.45
  -4   2  22    3.25    0.49
   3  -2 -22   29.81    1.55
   3  -2 -22   32.67    1.41
   3  -2 -22   30.15    6.08
  -3   2  22   33.29    1.34
  -3   2  22   34.50    1.45
  -3   2  22   26.48    5.58
  -3   2  22   31.33    1.51
   2  -2 -22    3.78    0.81
   2  -2 -22    5.27    0.51
   2  -2 -22    4.94    0.46
   2  -2 -22    5.64    3.61
   2  -2 -22    4.89    0.54
  -2   2  22    4.71    0.62
  -2   2  22    3.69    0.49
  -2   2  22    4.81    0.41
  -2   2  22    6.43    3.83
  -2   2  22    4.19    0.55
  -2   2  22    5.01    0.46
   1  -2 -22   68.29    2.49
   1  -2 -22   60.32    2.50
   1  -2 -22   57.43    3.02
   1  -2 -22   67.30    6.50
   1  -2 -22   62.08    2.52
  -1   2  22   75.75    6.09
  -1   2  22   74.83    2.43
  -1   2  22   70.23    2.58
  -1   2  22   65.69    2.62
  -1   2  22   66.81    2.51
   0  -2 -22   10.69    3.27
   0  -2 -22    5.95    0.45
   0  -2 -22    4.92    0.46
   0  -2 -22    5.10    0.41
   0   2  22    6.36    2.68
   0   2  22    6.24    0.38
   0   2  22    5.44    0.61
   0   2  22    6.25    0.49
   0   2  22    6.10    0.52
  -1  -2 -22   74.46    5.84
  -1  -2 -22   67.96    2.49
  -1  -2 -22   66.96    2.57
  -1  -2 -22   67.05    2.54
  -1  -2 -22   64.56    2.68
   1   2  22   67.38    5.50
   1   2  22   69.74    2.45
   1   2  22   71.92    2.51
   1   2  22   68.87    2.73
   1   2  22   69.75    2.52
  -2  -2 -22    4.17    0.38
  -2  -2 -22    4.48    0.45
  -2  -2 -22    5.05    0.61
  -2  -2 -22    3.86    2.78
  -2  -2 -22    3.90    0.45
   2   2  22    4.08    0.60
   2   2  22    3.18    2.83
   2   2  22    4.36    0.30
   2   2  22    4.51    0.31
   2   2  22    4.47    0.39
  -3  -2 -22   32.93    1.31
  -3  -2 -22   32.88    1.43
  -3  -2 -22   34.10    1.57
  -4  -2 -22    3.35    0.38
  -4  -2 -22    3.01    0.44
  -4  -2 -22    3.44    0.57
   4   2  22    2.85    0.64
  -5  -2 -22    4.61    0.67
   5  -3 -22    0.07    0.56
   4  -3 -22    0.44    0.40
   4  -3 -22   -0.28    0.41
  -4   3  22    0.08    0.32
  -4   3  22   -0.01    0.40
   3  -3 -22    3.71    0.53
   3  -3 -22    3.45    4.98
   3  -3 -22    3.82    0.49
  -3   3  22    3.99    4.99
  -3   3  22    3.08    0.45
  -3   3  22    3.45    0.55
  -3   3  22    3.22    0.39
   2  -3 -22   11.17    4.48
   2  -3 -22    8.68    0.67
   2  -3 -22   10.27    0.76
   2  -3 -22   10.51    0.78
   2  -3 -22   10.34    0.69
  -2   3  22   10.84    0.68
  -2   3  22   10.40    0.73
  -2   3  22    9.57    0.84
  -2   3  22   10.53    0.80
  -2   3  22   11.63    3.98
  -2   3  22   10.12    0.59
   1  -3 -22   14.80    0.78
   1  -3 -22    9.72    3.90
   1  -3 -22   13.83    0.92
   1  -3 -22   16.37    0.81
   1  -3 -22   15.81    0.87
  -1   3  22   15.80    0.72
  -1   3  22   15.18    0.94
  -1   3  22   14.48    0.88
  -1   3  22   11.20    3.60
  -1   3  22   16.02    0.84
   0  -3 -22   44.02    1.70
   0  -3 -22   41.09    1.61
   0  -3 -22   36.25    5.29
   0  -3 -22   37.38    1.77
   0  -3 -22   42.04    1.66
   0   3  22   41.13    1.80
   0   3  22   33.81    5.11
   0   3  22   43.03    1.68
   0   3  22   40.12    1.64
  -1  -3 -22   21.32    3.82
  -1  -3 -22   15.91    0.85
  -1  -3 -22   15.38    0.74
  -1  -3 -22   16.39    0.82
  -1  -3 -22   16.05    0.95
   1   3  22   15.97    0.73
   1   3  22   16.49    0.80
   1   3  22   11.25    3.53
   1   3  22   15.97    0.81
   1   3  22   16.18    1.03
  -2  -3 -22    9.65    0.63
  -2  -3 -22    9.61    3.69
  -2  -3 -22   10.42    0.76
  -2  -3 -22    9.73    0.68
  -2  -3 -22    9.90    0.58
   2   3  22   12.29    3.70
   2   3  22   10.04    0.48
   2   3  22    9.58    0.89
   2   3  22    9.74    0.52
   2   3  22    9.40    0.61
  -3  -3 -22    3.20    0.55
  -3  -3 -22    3.31    0.43
  -3  -3 -22    2.66    0.44
   3   3  22    3.82    0.43
   3   3  22    3.23    0.36
  -4  -3 -22    0.36    0.40
  -4  -3 -22    0.72    0.51
  -5  -3 -22    0.23    0.59
  -5  -3 -22    0.56    0.62
   4  -4 -22    4.66    0.59
   4  -4 -22    5.59    0.64
  -4   4  22    6.18    0.78
  -4   4  22    6.40    0.59
  -4   4  22    5.62    0.70
   3  -4 -22   21.98    1.17
   3  -4 -22   20.19    1.07
  -3   4  22   20.61    0.98
  -3   4  22   20.01    1.09
  -3   4  22   21.10    1.26
   2  -4 -22    6.24    4.86
   2  -4 -22    3.05    0.45
   2  -4 -22    3.30    0.51
  -2   4  22    2.56    0.51
  -2   4  22    2.26    0.51
  -2   4  22   -5.33    3.90
  -2   4  22    3.29    0.37
  -2   4  22    2.92    0.42
   1  -4 -22    5.76    0.54
   1  -4 -22   15.58    4.31
   1  -4 -22    5.13    0.51
   1  -4 -22    7.43    0.68
   1  -4 -22    7.26    0.67
  -1   4  22    6.61    0.67
  -1   4  22    7.27    0.79
  -1   4  22    4.54    3.91
  -1   4  22    6.51    0.61
  -1   4  22    6.28    0.45
   0  -4 -22   54.13    2.26
   0  -4 -22   56.77    6.30
   0  -4 -22   54.45    2.18
   0  -4 -22   50.06    2.08
   0  -4 -22   55.65    2.15
   0   4  22   62.58    6.50
   0   4  22   56.91    2.15
   0   4  22   52.68    2.30
   0   4  22   55.20    2.06
   0   4  22   55.30    2.15
  -1  -4 -22    7.01    0.49
  -1  -4 -22    6.36    0.55
  -1  -4 -22    5.85    0.61
  -1  -4 -22    7.93    3.58
  -1  -4 -22    6.65    0.67
   1   4  22    7.05    0.60
   1   4  22    5.98    0.52
   1   4  22    2.19    3.80
   1   4  22    7.39    0.76
   1   4  22    6.83    0.55
  -2  -4 -22    2.90    0.43
  -2  -4 -22   -4.33    3.90
  -2  -4 -22    3.08    0.55
  -2  -4 -22    1.95    0.37
   2   4  22    2.43    0.40
   2   4  22    3.10    0.35
   2   4  22   11.49    4.62
   2   4  22    3.72    0.42
  -3  -4 -22   20.92    1.24
  -3  -4 -22   21.84    1.15
   3   4  22   20.22    0.99
   3   4  22   20.59    0.95
  -4  -4 -22    4.82    0.70
  -4  -4 -22    6.23    0.76
   4  -5 -22    3.66    0.63
   4  -5 -22    4.15    0.65
  -4   5  22    2.79    0.97
  -4   5  22    3.41    0.59
   3  -5 -22    7.99    0.82
   3  -5 -22    9.04    0.89
  -3   5  22    9.05    0.75
  -3   5  22    9.59    0.69
   2  -5 -22    4.94    0.65
   2  -5 -22   -6.22    5.93
   2  -5 -22    4.79    0.58
  -2   5  22   10.12    5.36
  -2   5  22    3.51    0.43
   1  -5 -22    0.58    0.37
   1  -5 -22    0.03    0.43
   1  -5 -22   -0.03    4.27
  -1   5  22    0.73    0.45
  -1   5  22    0.27    0.24
  -1   5  22    2.79    4.26
   0  -5 -22   -0.48    4.40
   0  -5 -22    1.11    0.47
   0  -5 -22    1.54    0.37
   0   5  22    1.61    0.42
   0   5  22    1.75    0.33
   0   5  22    2.07    0.43
   0   5  22    7.14    4.59
  -1  -5 -22    0.27    0.41
  -1  -5 -22    0.10    0.33
  -1  -5 -22    5.55    4.50
   1   5  22    1.24    4.53
   1   5  22    0.39    0.27
   1   5  22    0.04    0.33
  -2  -5 -22    4.74    0.59
  -2  -5 -22    9.24    7.82
  -2  -5 -22    4.43    0.65
   2   5  22    4.58    0.50
   2   5  22    4.22    0.45
   2   5  22    4.30    0.51
  -3  -5 -22    8.25    0.88
  -3  -5 -22   11.11    1.01
   3   5  22    8.13    0.69
   3   5  22    8.62    0.77
  -4  -5 -22    2.40    0.72
  -4  -5 -22    3.38    0.65
   3  -6 -22    0.50    0.59
   3  -6 -22    2.23    0.58
  -3   6  22    1.12    0.53
  -3   6  22    0.54    0.38
   2  -6 -22   12.60    0.95
   2  -6 -22   10.55    1.05
  -2   6  22   11.96    0.72
   1  -6 -22    7.84    0.79
   1  -6 -22    8.39    0.92
   0  -6 -22   26.37    6.09
   0  -6 -22   18.28    1.23
   0  -6 -22   19.21    1.07
   0   6  22   19.13    0.94
   0   6  22   14.78    6.24
   0   6  22   18.50    1.13
  -1  -6 -22    5.67    5.41
  -1  -6 -22    7.21    0.90
  -1  -6 -22    7.55    0.73
   1   6  22    1.85    5.94
   1   6  22    8.00    0.65
   1   6  22    7.45    0.73
  -2  -6 -22   11.41    0.98
  -2  -6 -22   12.30    1.08
   2   6  22   12.13    0.80
  -3  -6 -22    0.80    0.62
  -3  -6 -22    0.68    0.61
   3   6  22    1.00    0.44
   2  -7 -22    2.68    0.61
   2  -7 -22    2.90    0.72
  -2   7  22    2.05    0.52
   1  -7 -22    8.77    0.97
   1  -7 -22    7.85    0.97
  -1   7  22    8.49    0.67
   0  -7 -22    1.63    0.52
   0  -7 -22    3.48    0.73
   0   7  22    2.45    0.46
  -1  -7 -22    7.96    0.97
  -1  -7 -22    7.49    0.93
   1   7  22    9.15    0.78
  -2  -7 -22    1.46    0.72
  -2  -7 -22    3.01    0.75
   2   7  22    2.07    0.50
   2   7 -23    0.90    0.62
   1   7 -23    5.15    0.86
   1   7 -23    4.64    0.90
   1   7 -23    7.85    0.86
   0   7 -23    2.87    0.67
   0   7 -23    3.71    0.55
   0   7 -23    2.88    0.78
  -1   7 -23    6.38    0.82
  -1   7 -23    7.15    0.94
  -1   7 -23    6.13    0.61
  -2   7 -23    1.02    0.65
  -2   7 -23    3.06    0.78
   3   6 -23    4.01    0.83
   3   6 -23    3.87    0.68
  -3  -6  23    3.94    0.50
   2   6 -23   -1.10    0.53
   2   6 -23    0.04    0.58
   2   6 -23    0.01    0.49
  -2  -6  23    0.33    0.25
   1   6 -23    9.99    0.94
   1   6 -23    9.66    0.80
   1   6 -23   11.62    1.01
   0   6 -23    2.14    0.42
   0   6 -23    2.12    0.54
   0   6 -23    2.81    0.54
   0   6 -23    2.05    0.62
  -1   6 -23   11.59    0.95
  -1   6 -23   10.88    0.72
  -1   6 -23   10.12    1.05
  -1   6 -23   11.19    0.83
  -2   6 -23    0.45    0.29
  -2   6 -23   -0.80    0.55
  -2   6 -23    0.96    0.51
  -3   6 -23    4.04    0.67
  -3   6 -23    3.94    0.84
   4   5 -23   -0.71    0.70
  -4  -5  23    0.85    0.47
   3   5 -23    4.28    0.63
   3   5 -23    4.89    0.76
   3   5 -23    4.76    0.76
  -3  -5  23    3.66    0.46
  -3  -5  23    3.53    0.54
   2   5 -23    4.02    0.54
   2   5 -23    4.67    0.69
   2   5 -23    2.62    0.61
  -2  -5  23    3.97    0.50
  -2  -5  23    4.52    0.42
   1   5 -23    7.51    0.74
   1   5 -23    7.21    0.79
   1   5 -23    7.17    0.76
   1   5 -23    5.86    0.62
  -1  -5  23    6.55    0.32
  -1  -5  23    6.83    0.38
   0   5 -23    8.58    0.79
   0   5 -23    7.15    0.67
   0   5 -23    7.99    0.81
   0   5 -23    6.21    0.58
  -1   5 -23    7.54    0.80
  -1   5 -23    6.52    0.74
  -1   5 -23    7.65    0.53
  -1   5 -23    6.01    0.61
   1  -5  23    6.53    2.75
  -2   5 -23    3.57    0.32
  -2   5 -23    4.09    0.67
  -2   5 -23    4.93    0.66
  -2   5 -23    3.74    0.38
  -2   5 -23    3.41    0.40
  -3   5 -23    5.71    0.58
  -3   5 -23    3.95    0.57
  -3   5 -23    3.82    0.67
  -4   5 -23    0.07    0.49
  -4   5 -23    0.33    0.65
   4   4 -23    4.25    0.81
   4   4 -23    4.99    0.72
   4   4 -23    6.78    0.84
  -4  -4  23    6.46    0.73
  -4  -4  23    4.44    0.51
   3   4 -23    3.83    0.65
   3   4 -23    3.26    0.64
   3   4 -23    3.23    0.44
   3   4 -23    3.43    0.56
  -3  -4  23    2.93    0.49
  -3  -4  23    3.04    0.36
  -3  -4  23    3.00    0.41
   2   4 -23    6.59    0.82
   2   4 -23    6.78    0.68
   2   4 -23    6.42    0.51
   2   4 -23    7.54    0.78
  -2  -4  23    6.73    0.45
  -2  -4  23    7.18    0.57
   1   4 -23   11.06    0.71
   1   4 -23   12.22    0.86
   1   4 -23   10.56    0.54
   1   4 -23   10.36    0.73
   1   4 -23   10.08    0.85
  -1  -4  23   12.22    0.93
  -1  -4  23   11.00    0.48
  -1  -4  23   10.57    0.53
   0   4 -23    0.06    0.25
   0   4 -23    0.42    0.15
   0   4 -23    0.21    0.34
   0   4 -23    1.09    0.41
   0   4 -23    0.63    0.31
   0  -4  23    0.16    0.33
   0  -4  23    1.47    3.15
  -1   4 -23   10.88    0.59
  -1   4 -23   11.00    0.90
  -1   4 -23   11.07    0.51
  -1   4 -23   10.46    0.63
  -1   4 -23   10.82    0.77
   1  -4  23    5.68    2.55
   1  -4  23   10.85    0.75
  -2   4 -23    6.38    0.46
  -2   4 -23    6.83    0.48
  -2   4 -23    7.17    0.79
  -2   4 -23    6.04    0.44
  -2   4 -23    6.67    0.54
  -3   4 -23    2.91    0.62
  -3   4 -23    2.82    0.46
  -3   4 -23    3.32    0.30
  -3   4 -23    2.83    0.46
  -4   4 -23    5.20    0.69
  -4   4 -23    5.97    0.75
  -4   4 -23    4.90    0.65
   4   3 -23    8.45    0.93
   4   3 -23   11.35    0.87
   4   3 -23    8.88    0.95
   4   3 -23    8.03    0.94
  -4  -3  23    9.01    0.77
  -4  -3  23    8.61    0.65
   3   3 -23    4.22    0.61
   3   3 -23    5.26    0.71
   3   3 -23    4.41    0.62
   3   3 -23    4.62    0.59
  -3  -3  23    3.53    6.13
  -3  -3  23    4.05    0.40
  -3  -3  23    4.30    0.55
  -3  -3  23    3.94    0.48
   2   3 -23    1.82    0.36
   2   3 -23    1.68    0.43
   2   3 -23    1.24    0.46
   2   3 -23    1.68    0.46
  -2  -3  23    1.37    0.25
  -2  -3  23    1.64    0.35
  -2  -3  23    7.21    4.45
   1   3 -23   12.21    0.80
   1   3 -23   11.69    0.62
   1   3 -23   11.23    0.86
   1   3 -23   11.93    0.74
   1   3 -23   11.42    0.76
  -1  -3  23   15.44    3.92
  -1  -3  23   10.78    0.80
  -1  -3  23   12.44    0.53
  -1  -3  23   12.38    0.60
  -1  -3  23    7.26    3.84
   0   3 -23    0.91    0.27
   0   3 -23    0.94    0.59
   0   3 -23    0.84    0.19
   0   3 -23    0.56    0.36
   0   3 -23    0.61    0.28
   0  -3  23    0.47    0.29
   0  -3  23    3.71    2.67
   0  -3  23   -1.44    2.94
  -1   3 -23   12.24    0.60
  -1   3 -23   11.97    0.63
  -1   3 -23   13.58    0.90
  -1   3 -23   12.17    0.64
  -1   3 -23   12.52    0.76
   1  -3  23   11.56    0.72
   1  -3  23   14.25    2.86
  -2   3 -23    2.38    0.48
  -2   3 -23    2.02    0.36
  -2   3 -23    1.75    0.26
  -2   3 -23    1.50    0.24
  -2   3 -23    1.40    0.24
   2  -3  23    1.18    1.19
   2  -3  23    0.53    1.41
  -3   3 -23    4.02    0.58
  -3   3 -23    4.22    0.32
  -3   3 -23    3.81    0.47
  -3   3 -23    4.02    0.31
  -3   3 -23    3.90    0.53
  -4   3 -23    8.81    0.92
  -4   3 -23    8.48    0.91
  -4   3 -23    9.16    0.63
   5   2 -23    5.17    0.75
  -5  -2  23    4.24    0.59
  -5  -2  23    5.34    0.67
   4   2 -23    0.90    0.49
   4   2 -23    0.79    0.57
   4   2 -23    1.03    0.52
   4   2 -23    0.96    0.44
  -4  -2  23   -4.12    6.58
  -4  -2  23    1.09    0.33
  -4  -2  23    0.72    0.38
   3   2 -23    6.78    0.69
   3   2 -23    6.47    0.68
   3   2 -23    6.91    0.71
   3   2 -23    7.03    0.62
  -3  -2  23   -0.02    4.73
  -3  -2  23    6.23    0.69
  -3  -2  23    6.22    0.50
  -3  -2  23    7.51    0.55
   2   2 -23    5.71    0.57
   2   2 -23    5.80    0.64
   2   2 -23    6.41    0.56
   2   2 -23    5.59    0.67
   2   2 -23    7.04    0.61
  -2  -2  23    7.00    0.55
  -2  -2  23    4.76    4.05
  -2  -2  23    5.29    0.63
  -2  -2  23    6.01    0.44
  -2  -2  23    6.65    4.55
   1   2 -23   29.46    1.25
   1   2 -23   29.53    1.31
   1   2 -23   29.30    1.50
   1   2 -23   30.77    1.43
   1   2 -23   31.65    1.30
  -1  -2  23   30.48    1.38
  -1  -2  23   30.55    1.14
  -1  -2  23   29.87    1.38
  -1  -2  23   35.31    4.76
  -1  -2  23   27.38    4.64
   0   2 -23   13.03    0.85
   0   2 -23   14.04    0.71
   0   2 -23   13.03    0.70
   0   2 -23   14.22    0.80
   0  -2  23   13.19    0.76
   0  -2  23   13.94    3.23
   0  -2  23   13.81    3.52
  -1   2 -23   31.90    1.46
  -1   2 -23   31.58    1.33
  -1   2 -23   29.44    1.21
  -1   2 -23   30.41    1.22
  -1   2 -23   30.31    1.22
   1  -2  23   27.59    3.43
   1  -2  23   28.22    3.74
   1  -2  23   30.33    1.28
  -2   2 -23    6.70    0.49
  -2   2 -23    5.87    0.67
  -2   2 -23    5.96    0.40
  -2   2 -23    6.32    0.53
   2  -2  23    2.81    2.11
   2  -2  23    6.20    1.79
  -3   2 -23    6.78    0.38
  -3   2 -23    6.72    0.71
  -3   2 -23    6.17    0.40
  -3   2 -23    6.43    0.48
  -4   2 -23    0.76    0.52
  -4   2 -23    0.91    0.25
  -4   2 -23    0.66    0.45
  -4   2 -23    0.99    0.23
  -5   2 -23    4.77    0.70
  -5   2 -23    4.79    0.87
   5   1 -23    2.46    0.56
   5   1 -23    2.51    0.70
  -5  -1  23    2.12    0.52
  -5  -1  23    2.16    0.54
   4   1 -23    7.07    0.97
   4   1 -23    7.73    0.78
   4   1 -23    8.75    0.87
   4   1 -23    8.54    0.73
  -4  -1  23    7.80    0.63
  -4  -1  23   14.52    7.16
  -4  -1  23    7.45    0.65
   3   1 -23   22.14    1.17
   3   1 -23   23.43    1.16
   3   1 -23   21.47    1.19
   3   1 -23   21.37    1.19
  -3  -1  23   23.40    1.01
  -3  -1  23   22.56    1.16
  -3  -1  23   22.30    1.15
  -3  -1  23   16.54    6.10
  -3  -1  23   23.17    5.38
   2   1 -23   58.89    2.22
   2   1 -23   55.02    2.28
   2   1 -23   58.30    2.29
   2   1 -23   55.46    2.22
   2   1 -23   54.02    2.20
  -2  -1  23   74.92    7.32
  -2  -1  23   56.97    2.09
  -2  -1  23   45.47    6.33
  -2  -1  23   55.85    2.12
  -2  -1  23   58.01    2.18
  -2  -1  23   53.90    2.26
   1   1 -23   24.60    1.09
   1   1 -23   24.60    1.11
   1   1 -23   23.52    1.10
   1   1 -23   23.70    1.22
   1   1 -23   26.32    1.21
  -1  -1  23   25.27    1.08
  -1  -1  23   25.44    1.19
  -1  -1  23   25.97    0.99
  -1  -1  23   25.24    4.04
   0   1 -23    7.59    0.66
   0   1 -23    7.24    0.49
   0   1 -23    7.23    0.57
   0   1 -23    7.08    0.50
   0   1 -23    6.10    2.75
   0   1 -23    7.35    0.48
   0  -1  23    7.02    0.34
   0  -1  23    7.29    0.41
   0  -1  23    6.87    0.55
   0  -1  23   11.44    2.87
  -1   1 -23   24.89    1.09
  -1   1 -23   22.08    3.32
  -1   1 -23   25.64    1.05
  -1   1 -23   25.97    1.23
  -1   1 -23   25.34    1.03
  -1   1 -23   24.24    1.01
   1  -1  23   23.04    1.05
   1  -1  23   19.86    2.81
  -2   1 -23   57.43    2.08
  -2   1 -23   57.74    2.05
  -2   1 -23   57.24    2.12
  -2   1 -23   48.17    4.42
  -2   1 -23   58.68    2.33
   2  -1  23   56.19    2.09
   2  -1  23   55.23    4.16
  -3   1 -23   24.28    1.23
  -3   1 -23   22.98    0.94
  -3   1 -23   22.54    3.19
  -3   1 -23   23.49    0.96
  -3   1 -23   22.41    0.92
  -4   1 -23    8.28    0.46
  -4   1 -23    8.17    0.79
  -4   1 -23    8.51    0.55
  -5   1 -23    2.78    0.81
  -5   1 -23    2.90    0.60
   5   0 -23    4.54    0.66
   5   0 -23    5.37    0.65
  -5   0  23    4.73    0.62
  -5   0  23    5.80    0.69
   4   0 -23    0.53    0.37
   4   0 -23    1.24    0.44
  -4   0  23   -1.52    6.61
  -4   0  23    0.78    0.33
  -4   0  23    0.79    0.37
   3   0 -23   -0.43    0.40
   3   0 -23    0.83    0.36
   3   0 -23    0.13    0.35
   3   0 -23   -0.21    0.34
  -3   0  23    0.33    0.37
  -3   0  23    0.66    0.28
  -3   0  23    9.76    5.49
  -3   0  23    3.67    5.05
  -3   0  23    0.33    0.28
   2   0 -23    2.32    0.41
   2   0 -23    0.77    3.84
   2   0 -23    2.56    0.39
   2   0 -23    2.28    0.38
   2   0 -23    2.39    0.46
   2   0 -23    2.41    0.42
  -2   0  23    2.69    0.36
  -2   0  23    2.50    0.30
  -2   0  23    2.49    3.72
  -2   0  23    3.17    0.41
  -2   0  23    2.65    0.47
   1   0 -23  118.72    4.19
   1   0 -23  116.44    4.18
   1   0 -23  116.77    4.18
   1   0 -23  111.52    7.75
   1   0 -23  119.21    4.26
   1   0 -23  101.51    4.43
  -1   0  23  126.38    7.81
  -1   0  23  120.33    4.08
  -1   0  23  118.53    4.16
  -1   0  23  117.17    4.24
   0   0 -23    0.35    0.23
   0   0 -23    0.97    0.37
   0   0 -23    0.69    0.21
   0   0 -23    0.20    0.19
   0   0 -23    0.03    2.44
   0   0 -23    1.09    0.27
   0   0  23    0.52    0.13
   0   0  23    0.50    0.26
   0   0  23   -4.12    2.12
   0   0  23    0.60    0.22
   0   0  23    0.65    0.34
  -1   0 -23  116.51    4.34
  -1   0 -23  121.59    4.12
  -1   0 -23  118.00    4.14
  -1   0 -23  107.16    6.80
  -1   0 -23  116.73    4.17
  -1   0 -23  125.39    4.18
   1   0  23  107.38    4.21
   1   0  23  117.37    4.00
   1   0  23  113.60    6.46
   1   0  23  120.24    4.35
  -2   0 -23    2.28    0.25
  -2   0 -23    2.20    0.28
  -2   0 -23    1.43    2.33
  -2   0 -23    2.35    0.29
  -2   0 -23    2.20    0.45
   2   0  23    2.64    0.29
   2   0  23    3.19    0.54
   2   0  23    0.32    2.18
  -3   0 -23   -0.17    0.21
  -3   0 -23    0.30    0.18
  -3   0 -23   -0.36    0.34
   3   0  23   -0.01    0.43
  -4   0 -23    0.26    0.22
  -4   0 -23    0.18    0.40
  -4   0 -23    0.46    0.28
  -5   0 -23    4.63    0.68
   5  -1 -23    2.38    0.62
   5  -1 -23    2.79    0.55
  -5   1  23    2.67    0.55
  -5   1  23    3.28    0.60
   4  -1 -23    9.34    0.73
   4  -1 -23    8.83    0.81
  -4   1  23    8.46    0.68
  -4   1  23    9.16    0.76
   3  -1 -23   24.09    1.28
   3  -1 -23   18.58    5.73
   3  -1 -23   22.53    1.11
   3  -1 -23   22.55    1.19
  -3   1  23   22.80    1.09
  -3   1  23   26.65    5.80
  -3   1  23   23.66    1.04
   2  -1 -23   59.35    6.92
   2  -1 -23   58.42    2.19
   2  -1 -23   56.29    2.24
   2  -1 -23   50.24    2.17
   2  -1 -23   56.67    2.29
  -2   1  23   64.67    6.96
  -2   1  23   55.61    2.19
  -2   1  23   56.13    2.24
  -2   1  23   54.89    2.27
  -2   1  23   56.16    2.08
  -2   1  23   55.15    2.26
   1  -1 -23   25.53    1.13
   1  -1 -23   24.04    1.09
   1  -1 -23   26.88    1.28
   1  -1 -23   21.78    4.26
   1  -1 -23   24.09    1.14
  -1   1  23   23.78    1.18
  -1   1  23   25.82    1.13
  -1   1  23   24.78    1.00
  -1   1  23   24.10    1.25
   0  -1 -23    7.82    0.62
   0  -1 -23    6.75    0.47
   0  -1 -23   12.83    3.35
   0  -1 -23    7.26    0.52
   0  -1 -23    6.91    0.53
   0   1  23    7.49    0.56
   0   1  23    8.01    0.41
   0   1  23    7.18    0.53
   0   1  23    8.43    2.93
   0   1  23    7.54    0.70
  -1  -1 -23   25.82    1.07
  -1  -1 -23   24.42    1.10
  -1  -1 -23   19.98    3.71
  -1  -1 -23   24.23    1.22
  -1  -1 -23   24.28    1.03
   1   1  23   24.49    1.25
   1   1  23   25.96    3.72
   1   1  23   25.04    1.01
   1   1  23   24.87    0.95
   1   1  23   24.75    1.05
  -2  -1 -23   55.34    2.09
  -2  -1 -23   56.51    2.04
  -2  -1 -23   50.35    4.91
  -2  -1 -23   56.73    2.28
  -2  -1 -23   57.94    2.16
   2   1  23   54.09    2.29
   2   1  23   52.59    1.99
   2   1  23   59.17    5.24
  -3  -1 -23   23.89    1.03
  -3  -1 -23   23.02    1.22
  -3  -1 -23   21.81    0.95
   3   1  23   22.77    1.28
  -4  -1 -23    7.29    0.87
  -4  -1 -23    7.64    0.52
  -4  -1 -23    8.89    0.83
   4   1  23    8.82    0.93
  -5  -1 -23    3.02    0.56
  -5  -1 -23    3.30    0.63
   5  -2 -23    4.31    0.70
  -5   2  23    3.61    0.67
   4  -2 -23    0.53    0.42
   4  -2 -23    1.03    0.40
  -4   2  23    0.78    0.34
  -4   2  23    1.29    0.42
   3  -2 -23    6.40    0.62
   3  -2 -23    5.49    0.68
   3  -2 -23   12.29    5.22
  -3   2  23    6.83    0.64
  -3   2  23    6.74    0.78
  -3   2  23    0.93    4.62
  -3   2  23    7.00    0.51
   2  -2 -23    6.59    0.61
   2  -2 -23    5.82    0.62
   2  -2 -23    0.82    3.97
   2  -2 -23    5.43    0.55
   2  -2 -23    5.52    0.56
  -2   2  23    7.62    0.55
  -2   2  23    7.35    4.25
  -2   2  23    5.78    0.60
  -2   2  23    6.36    0.44
  -2   2  23    6.29    0.71
  -2   2  23    5.06    0.65
   1  -2 -23   32.12    1.37
   1  -2 -23   33.20    1.46
   1  -2 -23   44.11    5.87
   1  -2 -23   31.74    1.31
   1  -2 -23   28.22    1.29
  -1   2  23   28.55    1.45
  -1   2  23   29.90    1.34
  -1   2  23   21.08    4.16
  -1   2  23   31.26    1.40
  -1   2  23   31.66    1.22
   0  -2 -23   15.61    3.73
   0  -2 -23   13.74    0.86
   0  -2 -23   13.56    0.75
   0  -2 -23   13.73    0.72
   0   2  23   13.96    0.92
   0   2  23   17.54    3.58
   0   2  23   14.22    0.79
   0   2  23   14.11    0.75
  -1  -2 -23   31.55    1.34
  -1  -2 -23   27.22    4.14
  -1  -2 -23   31.39    1.24
  -1  -2 -23   29.24    1.43
  -1  -2 -23   32.08    1.30
   1   2  23   29.38    1.46
   1   2  23   31.08    1.19
   1   2  23   31.84    4.32
   1   2  23   31.89    1.26
   1   2  23   30.28    1.26
  -2  -2 -23    5.14    0.66
  -2  -2 -23    5.54    0.52
  -2  -2 -23    6.52    0.44
  -2  -2 -23    9.84    3.10
  -2  -2 -23    5.77    0.49
   2   2  23    6.25    0.36
   2   2  23    5.98    3.10
   2   2  23    6.08    0.43
   2   2  23    6.14    0.37
   2   2  23    6.16    0.72
  -3  -2 -23    6.54    0.75
  -3  -2 -23    5.71    0.47
  -3  -2 -23    6.92    0.69
   3   2  23    7.24    0.84
  -4  -2 -23    1.26    0.39
  -4  -2 -23    1.11    0.51
  -4  -2 -23    1.04    0.31
  -5  -2 -23    4.45    0.69
  -5  -2 -23    4.98    0.67
   4  -3 -23    9.47    0.85
   4  -3 -23    9.55    0.84
  -4   3  23    8.17    0.65
  -4   3  23   10.72    0.87
   3  -3 -23    5.88    0.68
   3  -3 -23    3.30    0.46
   3  -3 -23    2.67    5.96
  -3   3  23    4.76    0.64
  -3   3  23    5.49    0.47
  -3   3  23    2.17    5.50
  -3   3  23    3.93    0.58
   2  -3 -23    1.29    0.33
   2  -3 -23   -2.66    4.35
   2  -3 -23    1.42    0.44
  -2   3  23    1.34    0.45
  -2   3  23    1.50    0.45
  -2   3  23    1.76    0.36
  -2   3  23    4.31    3.92
  -2   3  23    1.42    0.28
  -2   3  23    0.69    0.41
   1  -3 -23   11.05    0.78
   1  -3 -23   10.94    0.68
   1  -3 -23   11.78    4.31
   1  -3 -23   10.52    0.68
   1  -3 -23   12.11    0.86
  -1   3  23    9.06    3.66
  -1   3  23   13.45    0.62
  -1   3  23   11.10    0.73
  -1   3  23   11.33    0.91
  -1   3  23   12.26    0.81
   0  -3 -23    0.54    0.32
   0  -3 -23    1.00    0.25
   0  -3 -23    0.73    3.18
   0  -3 -23    0.64    0.29
   0  -3 -23    1.15    0.31
   0   3  23    6.49    3.40
   0   3  23    0.57    0.40
   0   3  23    1.22    0.34
   0   3  23    1.30    0.34
  -1  -3 -23   14.44    3.72
  -1  -3 -23   10.64    0.62
  -1  -3 -23   11.97    0.87
  -1  -3 -23   11.88    0.69
  -1  -3 -23   11.53    0.76
   1   3  23   12.08    0.69
   1   3  23   11.71    0.92
   1   3  23   14.20    3.88
   1   3  23   12.97    0.61
  -2  -3 -23    1.45    0.36
  -2  -3 -23    0.27    3.49
  -2  -3 -23    1.34    0.26
  -2  -3 -23    1.57    0.45
   2   3  23    1.37    0.23
   2   3  23    1.38    0.21
   2   3  23    1.75    0.32
   2   3  23    1.40    0.76
  -3  -3 -23    3.50    0.45
  -3  -3 -23    3.52    0.58
  -3  -3 -23    4.02    0.49
   3   3  23    3.58    0.43
   3   3  23    4.10    0.38
  -4  -3 -23    9.84    0.95
  -4  -3 -23    8.96    0.83
   4  -4 -23    4.70    0.65
   4  -4 -23    5.06    0.64
  -4   4  23    6.10    0.76
  -4   4  23    5.66    0.68
  -4   4  23    5.35    1.10
   3  -4 -23    3.00    0.55
   3  -4 -23    3.11    0.50
  -3   4  23    2.82    0.47
  -3   4  23    2.94    0.39
  -3   4  23    3.46    0.64
   2  -4 -23    2.48    5.07
   2  -4 -23    6.81    0.65
   2  -4 -23    7.22    0.72
  -2   4  23    6.09    0.83
  -2   4  23    7.38    0.51
  -2   4  23    2.45    4.61
   1  -4 -23   11.28    0.90
   1  -4 -23   12.17    4.58
   1  -4 -23   10.77    0.71
  -1   4  23   16.37    4.78
  -1   4  23   10.73    0.63
  -1   4  23   10.04    0.80
  -1   4  23   12.10    0.86
  -1   4  23   11.53    0.96
   0  -4 -23    0.33    0.35
   0  -4 -23   -5.45    3.53
   0  -4 -23   -0.01    0.47
   0  -4 -23   -0.37    0.26
   0   4  23    0.15    0.36
   0   4  23    0.08    0.20
   0   4  23    4.04    3.76
   0   4  23   -0.38    0.33
  -1  -4 -23   21.23    4.51
  -1  -4 -23   13.35    0.98
  -1  -4 -23   11.99    0.86
  -1  -4 -23   10.58    0.71
   1   4  23   10.68    0.71
   1   4  23   10.62    4.54
   1   4  23   10.21    0.73
   1   4  23   10.93    0.64
  -2  -4 -23    7.01    0.75
  -2  -4 -23   16.08    7.24
  -2  -4 -23    7.15    0.68
   2   4  23    6.27    0.45
   2   4  23    6.46    0.50
   2   4  23    7.84    0.64
  -3  -4 -23    3.30    0.61
  -3  -4 -23    2.27    0.51
   3   4  23    2.76    0.37
   3   4  23    4.37    0.56
  -4  -4 -23    5.82    0.83
  -4  -4 -23    7.35    0.87
   4  -5 -23    0.19    0.60
   4  -5 -23    0.77    0.60
   3  -5 -23    4.22    0.66
   3  -5 -23    4.08    0.63
  -3   5  23    4.26    0.50
  -3   5  23    4.10    0.57
   2  -5 -23    4.57    0.66
   2  -5 -23    3.96    0.53
  -2   5  23    3.41    0.42
   1  -5 -23    6.15    0.74
   1  -5 -23    3.41    5.23
   1  -5 -23    6.57    0.64
  -1   5  23    9.33    5.24
  -1   5  23    7.65    0.56
  -1   5  23    7.33    0.83
   0  -5 -23    7.17    0.76
   0  -5 -23    6.75    0.63
   0  -5 -23   17.70    5.02
   0   5  23    7.30    0.57
   0   5  23    7.97    5.01
   0   5  23    6.70    0.74
  -1  -5 -23    0.18    4.61
  -1  -5 -23    7.05    0.66
  -1  -5 -23    6.64    0.75
   1   5  23    6.79    0.66
   1   5  23    3.84    5.06
   1   5  23    6.23    0.55
   1   5  23    6.10    0.69
  -2  -5 -23    4.21    0.68
  -2  -5 -23    3.93    0.54
   2   5  23    3.90    0.59
   2   5  23    4.28    0.53
   2   5  23    4.57    0.55
  -3  -5 -23    6.53    0.86
  -3  -5 -23    5.11    0.69
   3   5  23    3.37    0.54
   3   5  23    4.40    0.52
  -4  -5 -23    2.09    0.74
  -4  -5 -23    0.84    0.66
   3  -6 -23    4.84    0.67
   3  -6 -23    4.24    0.76
   2  -6 -23    0.50    0.46
   2  -6 -23   -0.23    0.54
  -2   6  23   -0.42    0.31
   1  -6 -23   11.77    0.98
   1  -6 -23   10.79    0.85
   0  -6 -23    1.77    0.57
   0  -6 -23    1.65    5.45
   0  -6 -23    1.04    0.49
   0   6  23    1.69    0.39
   0   6  23    9.46    6.27
   0   6  23    1.55    0.51
  -1  -6 -23    9.00    0.95
  -1  -6 -23   10.60    0.85
  -1  -6 -23    7.71    5.80
   1   6  23   10.49    0.83
   1   6  23   10.63    0.75
  -2  -6 -23    0.44    0.49
  -2  -6 -23    1.20    0.60
   2   6  23    0.32    0.39
  -3  -6 -23    2.85    0.70
  -3  -6 -23    4.74    0.84
   3   6  23    3.39    0.55
   2  -7 -23    2.06    0.76
   2  -7 -23    1.27    0.71
   1  -7 -23    4.73    0.73
   1  -7 -23    6.29    0.90
  -1   7  23    5.77    0.71
   0  -7 -23    2.67    0.66
   0  -7 -23    3.81    0.73
   0   7  23    2.82    0.49
  -1  -7 -23    5.98    0.80
  -1  -7 -23    4.26    0.84
   1   7  23    6.22    0.74
   2   7  23    0.54    0.51
   1   7 -24    2.17    0.60
   1   7 -24    1.50    1.01
   0   7 -24    2.73    0.69
   0   7 -24    2.61    0.55
   0   7 -24    3.13    0.79
  -1   7 -24    0.32    0.77
  -1   7 -24    1.89    0.69
  -1   7 -24    2.09    0.47
   3   6 -24    5.02    0.94
   2   6 -24    6.28    0.87
   2   6 -24    5.61    0.87
   2   6 -24    5.93    0.71
   1   6 -24    2.84    0.69
   1   6 -24    2.96    0.68
   1   6 -24    3.41    0.53
   0   6 -24    5.75    0.65
   0   6 -24    7.26    0.99
   0   6 -24    7.44    0.90
   0   6 -24    6.98    0.83
  -1   6 -24    2.68    0.53
  -1   6 -24    3.34    0.43
  -1   6 -24    3.42    0.72
  -1   6 -24    4.02    0.67
  -2   6 -24    6.09    0.87
  -2   6 -24    6.03    0.75
   3   5 -24   30.68    1.77
   3   5 -24   32.10    1.62
   3   5 -24   31.95    1.79
  -3  -5  24   33.41    1.38
   2   5 -24    1.56    0.59
   2   5 -24    3.32    0.52
   2   5 -24    2.99    0.68
  -2  -5  24    3.02    0.38
  -2  -5  24    2.18    0.36
   1   5 -24    3.50    0.64
   1   5 -24    2.28    0.44
   1   5 -24    3.24    0.63
   1   5 -24    2.80    0.56
  -1  -5  24    1.81    0.17
   0   5 -24    5.13    0.67
   0   5 -24    5.64    0.70
   0   5 -24    6.40    0.82
  -1   5 -24    2.82    0.44
  -1   5 -24    2.58    0.60
  -1   5 -24    2.06    0.34
  -1   5 -24    2.34    0.52
   1  -5  24    2.17    2.89
  -2   5 -24    1.98    0.49
  -2   5 -24    2.60    0.31
  -2   5 -24    3.53    0.67
  -2   5 -24    3.25    0.41
  -3   5 -24   31.96    1.54
   4   4 -24    5.21    0.91
   4   4 -24    6.40    0.88
   4   4 -24    4.71    0.94
  -4  -4  24    6.15    0.74
   3   4 -24    1.92    0.53
   3   4 -24    1.63    0.61
   3   4 -24    2.04    0.63
  -3  -4  24    2.54    0.50
  -3  -4  24    1.79    0.37
   2   4 -24    5.57    0.74
   2   4 -24    4.64    0.50
   2   4 -24    6.86    0.85
   2   4 -24    6.70    0.69
  -2  -4  24    6.52    0.57
  -2  -4  24    6.19    0.45
   1   4 -24   11.15    0.56
   1   4 -24   10.13    0.87
   1   4 -24   10.13    0.88
   1   4 -24   12.08    0.75
   1   4 -24   12.33    0.85
  -1  -4  24   11.34    0.54
  -1  -4  24   11.14    0.49
   0   4 -24   -0.37    0.41
   0   4 -24   -0.83    0.31
   0   4 -24    0.33    0.26
   0   4 -24    0.04    0.33
   0   4 -24    0.14    0.16
   0  -4  24    0.36    0.36
  -1   4 -24   11.73    0.96
  -1   4 -24   11.39    0.63
  -1   4 -24   11.61    0.81
  -1   4 -24   11.00    0.67
  -1   4 -24   10.98    0.54
   1  -4  24   12.23    3.07
   1  -4  24   11.33    0.79
  -2   4 -24    6.51    0.45
  -2   4 -24    5.62    0.73
  -2   4 -24    5.83    0.63
  -2   4 -24    5.69    0.65
  -2   4 -24    6.11    0.82
  -2   4 -24    6.10    0.55
  -3   4 -24    2.16    0.25
  -3   4 -24    2.33    0.60
  -3   4 -24    1.55    0.44
  -3   4 -24    2.17    0.81
  -4   4 -24    7.86    1.05
  -4   4 -24    5.28    0.74
  -4   4 -24    5.23    0.69
   4   3 -24   17.93    1.26
   4   3 -24   17.73    1.21
   4   3 -24   18.43    1.27
  -4  -3  24   19.99    1.07
  -4  -3  24   19.23    0.97
   3   3 -24   11.73    0.85
   3   3 -24   11.24    0.83
   3   3 -24   10.98    0.97
   3   3 -24   12.76    1.01
  -3  -3  24   11.04    0.64
  -3  -3  24   12.90    0.73
  -3  -3  24   11.51    0.83
   2   3 -24   25.11    1.14
   2   3 -24   22.94    1.17
   2   3 -24   24.72    1.34
   2   3 -24   25.43    1.33
  -2  -3  24   25.12    1.13
  -2  -3  24   24.97    1.03
   1   3 -24    0.47    0.33
   1   3 -24    0.05    0.22
   1   3 -24   -0.06    0.25
   1   3 -24   -0.38    0.31
   1   3 -24   -0.63    0.35
  -1  -3  24   -0.20    0.34
  -1  -3  24    0.73    5.94
  -1  -3  24    0.02    0.13
  -1  -3  24    0.12    0.21
   0   3 -24    9.30    0.65
   0   3 -24   10.39    0.61
   0   3 -24    9.96    0.80
   0   3 -24    9.78    0.53
   0   3 -24    9.60    0.74
   0  -3  24    8.94    0.69
   0  -3  24    6.05    3.44
  -1   3 -24    0.16    0.39
  -1   3 -24   -0.26    0.20
  -1   3 -24   -0.05    0.30
  -1   3 -24   -0.04    0.20
  -1   3 -24    0.13    0.24
   1  -3  24   -0.06    0.29
  -2   3 -24   23.14    1.12
  -2   3 -24   23.16    1.30
  -2   3 -24   25.49    1.03
  -2   3 -24   24.62    0.99
   2  -3  24   16.73    2.59
  -3   3 -24   10.83    0.71
  -3   3 -24   11.12    0.54
  -3   3 -24   12.12    0.96
  -3   3 -24   11.66    0.85
  -3   3 -24   10.96    0.54
  -4   3 -24   24.26    1.37
  -4   3 -24   21.00    1.31
  -4   3 -24   19.95    1.30
   4   2 -24    8.70    0.85
   4   2 -24    6.52    0.87
   4   2 -24    5.86    0.77
   4   2 -24    4.48    0.75
  -4  -2  24    6.11    0.61
  -4  -2  24    6.17    0.62
   3   2 -24    0.67    0.41
   3   2 -24    1.84    0.50
   3   2 -24    1.12    0.47
   3   2 -24    0.98    0.43
  -3  -2  24    1.55    0.41
  -3  -2  24    1.39    0.31
  -3  -2  24   -0.63    5.45
  -3  -2  24    1.91    0.31
   2   2 -24   10.38    0.86
   2   2 -24   11.99    0.86
   2   2 -24   10.61    0.77
   2   2 -24   11.08    0.71
   2   2 -24   11.69    0.74
  -2  -2  24   11.77    0.71
  -2  -2  24   14.78    4.84
  -2  -2  24   12.09    0.93
  -2  -2  24   11.23    0.59
   1   2 -24    6.27    0.64
   1   2 -24    6.06    0.58
   1   2 -24    5.14    0.61
   1   2 -24    5.86    0.49
  -1  -2  24    6.29    0.36
  -1  -2  24   10.17    3.60
  -1  -2  24    6.75    3.40
  -1  -2  24    4.78    0.58
  -1  -2  24    6.02    0.46
   0   2 -24    8.61    0.59
   0   2 -24    9.15    0.57
   0   2 -24    9.05    0.67
   0   2 -24    8.65    0.76
   0   2 -24    9.35    0.54
   0  -2  24    4.67    3.33
   0  -2  24    8.99    0.42
   0  -2  24    9.82    0.66
   0  -2  24   10.39    3.14
  -1   2 -24    5.20    0.44
  -1   2 -24    6.09    0.43
  -1   2 -24    5.75    0.43
  -1   2 -24    5.53    0.63
  -1   2 -24    6.26    0.53
   1  -2  24    6.81    3.00
   1  -2  24    5.63    2.36
   1  -2  24    5.43    0.50
  -2   2 -24   11.81    0.56
  -2   2 -24   10.71    0.63
  -2   2 -24   11.07    0.66
  -2   2 -24   11.04    0.57
  -2   2 -24   10.54    0.83
   2  -2  24   10.14    2.65
  -3   2 -24    1.25    0.24
  -3   2 -24    1.01    0.47
  -3   2 -24    1.04    0.28
  -4   2 -24    5.64    0.77
  -4   2 -24    6.33    0.83
  -4   2 -24    6.15    0.47
   5   1 -24    3.52    0.68
  -5  -1  24    3.40    0.62
   4   1 -24    2.28    0.56
   4   1 -24    0.65    0.49
   4   1 -24    1.11    0.45
  -4  -1  24    1.04    0.38
  -4  -1  24    1.37    6.50
  -4  -1  24    1.71    0.39
   3   1 -24    3.93    0.50
   3   1 -24    4.54    0.61
   3   1 -24    3.98    0.58
   3   1 -24    3.55    0.58
  -3  -1  24    4.41    0.46
  -3  -1  24    3.92    0.53
  -3  -1  24    4.54    0.49
  -3  -1  24   17.67    5.67
   2   1 -24   39.80    1.62
   2   1 -24   38.69    1.74
   2   1 -24   38.59    1.64
   2   1 -24   35.76    1.68
   2   1 -24   39.30    1.63
  -2  -1  24   40.13    1.50
  -2  -1  24   36.61    6.10
  -2  -1  24   38.18    1.58
  -2  -1  24   36.21    1.68
  -2  -1  24   42.93    5.83
   1   1 -24   24.98    1.07
   1   1 -24   22.13    1.08
   1   1 -24   23.46    1.21
  -1  -1  24   21.52    1.13
  -1  -1  24   23.41    0.92
  -1  -1  24   22.89    1.01
  -1  -1  24   24.65    4.22
   0   1 -24    4.10    0.56
   0   1 -24    5.10    0.46
   0   1 -24    5.30    0.53
   0   1 -24    5.21    0.43
   0   1 -24    4.00    2.91
   0   1 -24    5.32    0.42
   0  -1  24    4.99    0.36
   0  -1  24    6.70    2.67
   0  -1  24    4.73    0.50
  -1   1 -24   22.05    1.17
  -1   1 -24   23.03    1.00
  -1   1 -24   22.79    1.04
  -1   1 -24   30.79    4.20
  -1   1 -24   21.18    0.96
  -1   1 -24   23.09    0.98
   1  -1  24   26.03    3.59
   1  -1  24   22.82    1.01
  -2   1 -24   40.61    4.32
  -2   1 -24   42.19    1.56
  -2   1 -24   40.54    1.59
  -2   1 -24   41.57    1.53
  -2   1 -24   41.98    1.82
  -2   1 -24   38.09    1.61
   2  -1  24   48.91    5.24
   2  -1  24   37.78    1.69
  -3   1 -24    3.85    0.38
  -3   1 -24    3.42    0.53
  -3   1 -24    4.06    0.35
  -3   1 -24    4.84    0.35
  -4   1 -24    1.41    0.30
  -4   1 -24    2.02    0.33
  -4   1 -24    1.67    0.53
  -5   1 -24    2.76    0.64
  -5   1 -24    2.96    0.82
   5   0 -24   -0.23    0.52
   5   0 -24    0.52    0.62
  -5   0  24   -0.05    0.48
   4   0 -24    4.83    0.62
   4   0 -24    4.93    0.62
  -4   0  24    3.42    0.47
  -4   0  24    3.36    0.49
  -4   0  24    1.45    7.70
   3   0 -24    9.83    0.87
   3   0 -24   10.01    0.82
   3   0 -24   11.84    0.85
   3   0 -24   10.79    0.76
  -3   0  24    9.15    0.66
  -3   0  24   13.16    5.12
  -3   0  24    9.33    0.64
   2   0 -24   21.51    1.09
   2   0 -24   18.63    4.70
   2   0 -24   22.89    1.16
   2   0 -24   21.60    1.11
   2   0 -24   22.27    1.07
   2   0 -24   20.87    1.07
  -2   0  24   21.07    1.14
  -2   0  24   21.64    0.95
  -2   0  24   21.46    1.00
  -2   0  24   21.24    1.06
  -2   0  24   17.31    4.38
   1   0 -24   18.65    1.05
   1   0 -24   15.79    4.09
   1   0 -24   19.02    0.96
   1   0 -24   17.74    0.91
   1   0 -24   16.00    0.88
   1   0 -24   17.39    0.90
  -1   0  24   17.65    0.88
  -1   0  24   17.51    0.96
  -1   0  24   18.97    0.77
  -1   0  24   14.88    3.91
   0   0 -24   62.78    2.50
   0   0 -24   56.64    2.29
   0   0 -24   60.63    5.52
   0   0 -24   64.02    2.35
   0   0 -24   63.05    2.34
   0   0 -24   61.38    2.38
   0   0  24   61.53    2.50
   0   0  24   65.35    2.39
   0   0  24   62.76    5.30
   0   0  24   62.24    2.28
  -1   0 -24   19.32    1.03
  -1   0 -24   20.36    3.58
  -1   0 -24   18.19    0.86
  -1   0 -24   17.83    0.83
  -1   0 -24   16.90    0.85
  -1   0 -24   17.35    0.80
   1   0  24   18.14    0.85
   1   0  24   18.98    3.18
   1   0  24   17.87    0.67
   1   0  24   17.55    1.07
   1   0  24   18.77    0.81
  -2   0 -24   20.40    1.14
  -2   0 -24   21.54    1.02
  -2   0 -24   21.49    0.91
  -2   0 -24   21.07    3.41
  -2   0 -24   21.35    0.91
  -2   0 -24   23.89    0.95
   2   0  24   20.71    0.90
   2   0  24   19.88    4.10
   2   0  24   22.23    1.24
  -3   0 -24   11.24    0.87
  -3   0 -24   10.75    0.62
  -3   0 -24   10.29    0.54
   3   0  24    9.93    0.91
  -4   0 -24    4.33    0.41
  -4   0 -24    4.19    0.58
  -4   0 -24    4.03    0.44
  -5   0 -24   -0.23    0.52
  -5   0 -24    0.47    0.56
   5  -1 -24    5.70    0.90
   5  -1 -24    3.98    0.82
  -5   1  24    4.44    0.69
   4  -1 -24    0.66    0.42
   4  -1 -24    1.88    0.50
  -4   1  24    1.98    0.46
  -4   1  24    1.63    0.41
   3  -1 -24    3.98    0.59
   3  -1 -24    4.12    0.73
   3  -1 -24    0.22    4.77
   3  -1 -24    3.54    0.46
  -3   1  24    4.13    0.44
  -3   1  24    3.20    5.04
  -3   1  24    5.06    0.56
   2  -1 -24   38.65    1.73
   2  -1 -24   39.52    6.01
   2  -1 -24   38.65    1.68
   2  -1 -24   39.16    1.71
   2  -1 -24   41.24    1.66
  -2   1  24   40.64    1.63
  -2   1  24   39.66    1.54
  -2   1  24   39.54    1.77
  -2   1  24   38.58    1.68
  -2   1  24   37.88    1.75
  -2   1  24   39.05    5.91
   1  -1 -24   20.32    1.05
   1  -1 -24   23.57    1.22
   1  -1 -24   23.70    1.06
   1  -1 -24   22.82    1.10
   1  -1 -24   23.86    4.68
  -1   1  24   23.91    1.24
  -1   1  24   23.58    0.96
  -1   1  24   22.79    1.15
  -1   1  24   23.87    1.09
   0  -1 -24    4.53    0.46
   0  -1 -24    7.03    3.37
   0  -1 -24    6.34    0.60
   0  -1 -24    4.10    0.41
   0  -1 -24    5.40    0.50
   0   1  24    4.66    0.45
   0   1  24   13.07    3.22
   0   1  24    5.58    0.53
   0   1  24    5.23    0.63
  -1  -1 -24   19.78    3.84
  -1  -1 -24   24.71    1.23
  -1  -1 -24   24.08    0.99
  -1  -1 -24   21.95    1.04
  -1  -1 -24   22.49    1.02
   1   1  24   22.35    1.03
   1   1  24   27.88    3.74
   1   1  24   23.57    1.23
   1   1  24   22.36    0.95
   1   1  24   22.77    0.89
  -2  -1 -24   40.36    1.63
  -2  -1 -24   40.55    1.77
  -2  -1 -24   38.66    1.51
  -2  -1 -24   39.87    1.57
  -2  -1 -24   44.67    5.06
   2   1  24   38.03    1.46
   2   1  24   38.28    1.78
  -3  -1 -24    4.63    0.62
  -3  -1 -24    4.76    0.49
  -3  -1 -24    3.94    0.42
   3   1  24    4.60    0.61
  -4  -1 -24    1.86    0.31
  -4  -1 -24    1.05    0.38
  -4  -1 -24    0.89    0.47
  -5  -1 -24    3.32    0.66
  -5  -1 -24    4.67    0.63
   4  -2 -24    6.65    0.69
   4  -2 -24    4.84    0.63
  -4   2  24    6.10    0.59
  -4   2  24    6.25    0.75
   3  -2 -24    1.13    5.51
   3  -2 -24    0.58    0.41
   3  -2 -24    1.39    0.39
  -3   2  24   -1.36    5.28
  -3   2  24    1.61    0.39
  -3   2  24    1.35    0.33
  -3   2  24    1.71    0.51
   2  -2 -24   11.83    0.87
   2  -2 -24   10.88    0.83
   2  -2 -24   11.56    0.72
  -2   2  24   10.50    0.76
  -2   2  24   10.36    0.90
  -2   2  24   10.79    0.90
  -2   2  24   15.41    4.92
  -2   2  24   11.32    0.61
  -2   2  24   11.73    0.71
   1  -2 -24    6.10    0.49
   1  -2 -24    5.86    0.59
   1  -2 -24    5.58    0.69
   1  -2 -24    4.99    0.51
   1  -2 -24   -1.38    3.89
  -1   2  24    6.67    0.70
  -1   2  24    6.42    0.63
  -1   2  24    5.71    3.46
  -1   2  24    6.56    0.60
   0  -2 -24    8.26    3.62
   0  -2 -24    9.77    0.65
   0  -2 -24    8.72    0.76
   0  -2 -24    9.45    0.57
   0  -2 -24    9.67    0.62
   0   2  24    8.60    0.83
   0   2  24    8.28    0.61
   0   2  24    9.96    0.67
   0   2  24    7.06    3.27
  -1  -2 -24    5.39    0.63
  -1  -2 -24    7.27    3.37
  -1  -2 -24    4.78    0.50
  -1  -2 -24    5.81    0.57
  -1  -2 -24    5.80    0.44
   1   2  24    7.31    0.51
   1   2  24    5.64    0.71
   1   2  24    5.68    0.38
   1   2  24    6.63    3.20
  -2  -2 -24   11.98    0.75
  -2  -2 -24   15.31    3.62
  -2  -2 -24   10.37    0.86
  -2  -2 -24   10.43    0.73
  -2  -2 -24   11.05    0.62
   2   2  24   10.99    0.53
   2   2  24   11.25    0.53
   2   2  24   10.40    0.89
   2   2  24   11.26    0.58
  -3  -2 -24    1.59    0.30
  -3  -2 -24    1.08    0.35
  -3  -2 -24    0.90    0.46
  -4  -2 -24    6.13    0.74
  -4  -2 -24    5.25    0.68
   4  -3 -24   17.28    1.17
   4  -3 -24   18.88    1.09
  -4   3  24   18.94    1.16
  -4   3  24   19.69    1.00
   3  -3 -24   10.63    0.83
   3  -3 -24   16.30    7.04
   3  -3 -24   12.31    0.93
  -3   3  24   10.52    0.96
  -3   3  24    9.54    5.54
  -3   3  24   11.65    0.72
  -3   3  24   10.87    0.82
   2  -3 -24   23.83    1.13
   2  -3 -24   21.56    1.27
   2  -3 -24   29.50    5.84
  -2   3  24   22.18    1.31
  -2   3  24   25.48    1.39
  -2   3  24   21.06    5.57
  -2   3  24   25.36    1.08
   1  -3 -24    9.80    4.73
   1  -3 -24   -0.01    0.26
   1  -3 -24    0.65    0.41
  -1   3  24   -0.36    0.44
  -1   3  24   -3.98    3.45
  -1   3  24   -0.11    0.21
  -1   3  24    2.00    0.40
  -1   3  24    0.10    0.39
   0  -3 -24    9.10    0.66
   0  -3 -24    9.71    0.66
   0  -3 -24    9.74    0.77
   0  -3 -24    8.84    0.60
   0  -3 -24    6.94    3.95
   0   3  24   10.21    0.65
   0   3  24    9.70    0.72
   0   3  24    9.17    0.60
   0   3  24    9.34    0.83
   0   3  24   12.36    3.82
  -1  -3 -24   -0.06    0.25
  -1  -3 -24    0.70    0.28
  -1  -3 -24    0.34    0.40
  -1  -3 -24    2.23    3.44
  -1  -3 -24   -0.17    0.30
   1   3  24   -0.30    0.29
   1   3  24   -0.03    0.27
   1   3  24   -0.11    0.18
   1   3  24    0.43    3.33
  -2  -3 -24   24.48    1.28
  -2  -3 -24   23.70    1.05
  -2  -3 -24   22.95    1.13
   2   3  24   23.80    1.06
   2   3  24   24.09    0.95
   2   3  24   24.31    1.00
  -3  -3 -24   10.49    0.80
  -3  -3 -24   10.61    0.95
   3   3  24   10.55    0.56
   3   3  24   10.51    0.65
  -4  -3 -24   20.11    1.17
  -4  -3 -24   18.71    1.26
   4  -4 -24    5.40    0.72
   4  -4 -24    5.81    0.72
  -4   4  24    6.76    0.77
  -4   4  24    5.61    0.82
   3  -4 -24    2.27    0.54
   3  -4 -24    1.36    0.43
  -3   4  24    2.76    0.42
  -3   4  24    2.19    0.47
   2  -4 -24    0.47    5.69
   2  -4 -24    7.34    0.83
   2  -4 -24    6.03    0.67
  -2   4  24    5.25    0.52
  -2   4  24    9.95    5.07
   1  -4 -24    9.68    0.90
   1  -4 -24   11.82    0.73
   1  -4 -24    8.94    5.32
  -1   4  24   11.22    0.65
  -1   4  24   11.07    0.88
  -1   4  24    3.41    4.54
   0  -4 -24   -0.15    0.42
   0  -4 -24    2.77    4.31
   0  -4 -24   -0.27    0.29
   0   4  24    0.33    0.37
   0   4  24    0.11    0.21
   0   4  24   -0.30    0.37
   0   4  24    1.12    3.74
  -1  -4 -24   13.14    0.94
  -1  -4 -24   11.80    0.80
  -1  -4 -24   10.33    4.31
   1   4  24   11.37    0.73
   1   4  24   11.64    4.80
   1   4  24   10.41    0.76
   1   4  24   10.71    0.65
  -2  -4 -24    5.91    0.75
  -2  -4 -24    6.02    0.63
   2   4  24    6.00    0.48
   2   4  24    5.68    0.61
   2   4  24    5.98    0.44
  -3  -4 -24    2.01    0.53
  -3  -4 -24    2.02    0.61
   3   4  24    1.69    0.35
  -4  -4 -24    6.79    0.88
  -4  -4 -24    7.78    0.96
   3  -5 -24   31.19    1.57
   3  -5 -24   31.99    1.67
  -3   5  24   32.87    1.56
  -3   5  24   30.95    1.40
   2  -5 -24    2.14    0.49
   2  -5 -24    2.77    0.57
  -2   5  24    2.70    0.39
   1  -5 -24   11.49    6.01
   1  -5 -24    3.05    0.60
   1  -5 -24    2.28    0.44
  -1   5  24    2.36    0.63
  -1   5  24   -4.92    5.18
  -1   5  24    2.43    0.40
   0  -5 -24    5.28    0.67
   0  -5 -24    5.50    0.73
   0  -5 -24    6.47    5.25
   0   5  24    5.32    0.50
   0   5  24    5.34    0.73
   0   5  24    3.99    5.17
  -1  -5 -24    2.16    0.46
  -1  -5 -24    1.83    0.53
  -1  -5 -24    3.94    5.22
   1   5  24    2.32    0.58
   1   5  24    1.99    0.44
   1   5  24    2.13    0.38
  -2  -5 -24    2.01    0.59
  -2  -5 -24    2.94    0.55
   2   5  24    3.27    0.43
   2   5  24    1.41    0.50
  -3  -5 -24   32.01    1.73
  -3  -5 -24   31.02    1.56
   3   5  24   30.88    1.38
   2  -6 -24    6.23    0.72
   2  -6 -24    4.46    0.74
  -2   6  24    6.99    0.61
   1  -6 -24    4.72    0.75
   1  -6 -24    3.10    0.59
   0  -6 -24    7.00    0.89
   0  -6 -24    6.19    0.74
   0  -6 -24   11.56    6.27
   0   6  24    5.51    0.71
   0   6  24    7.47    0.67
   0   6  24    5.29    6.61
  -1  -6 -24    2.93    0.63
  -1  -6 -24    2.92    0.71
   1   6  24    3.65    0.51
  -2  -6 -24    6.06    0.86
  -2  -6 -24    8.07    0.94
   2   6  24    7.24    0.74
   1  -7 -24    0.49    0.76
   1  -7 -24    1.46    0.77
  -1   7  24    1.81    0.56
   0  -7 -24    2.07    0.82
   0  -7 -24    3.16    0.69
   0   7  24    2.69    0.55
   1   7  24    2.50    0.55
   0   7 -25   14.26    1.28
   0   7 -25   15.84    1.06
   2   6 -25    4.18    0.69
   2   6 -25    4.75    0.89
   2   6 -25    5.36    0.87
   1   6 -25   14.15    1.20
   1   6 -25   14.73    1.23
   1   6 -25   15.15    1.03
   0   6 -25    1.55    0.70
   0   6 -25    0.63    0.57
   0   6 -25    0.96    0.59
   0   6 -25    1.32    0.43
  -1   6 -25   12.92    1.21
  -1   6 -25   11.55    0.95
  -1   6 -25   14.67    1.09
  -2   6 -25    3.92    0.74
  -2   6 -25    4.60    0.85
   3   5 -25    5.95    0.88
   3   5 -25    5.56    0.86
   3   5 -25    5.11    0.72
  -3  -5  25    4.90    0.58
   2   5 -25   31.17    1.70
   2   5 -25   32.45    1.56
   2   5 -25   29.53    1.72
  -2  -5  25   33.29    1.27
   1   5 -25    3.42    0.68
   1   5 -25    3.37    0.51
   1   5 -25    2.84    0.63
   0   5 -25    9.82    0.91
   0   5 -25    9.21    0.94
   0   5 -25    8.62    0.84
   0   5 -25    9.27    0.69
  -1   5 -25    3.28    0.58
  -1   5 -25    3.59    0.43
  -1   5 -25    2.93    0.66
  -1   5 -25    3.39    0.50
  -2   5 -25   33.01    1.35
  -2   5 -25   34.10    1.62
  -2   5 -25   33.61    1.80
  -3   5 -25    4.92    0.67
  -3   5 -25    6.01    0.83
   4   4 -25    3.85    0.85
  -4  -4  25    6.38    0.74
   3   4 -25   14.30    1.03
   3   4 -25   10.90    1.13
   3   4 -25   13.43    1.10
  -3  -4  25   14.79    0.80
   2   4 -25    1.37    0.46
   2   4 -25    2.66    0.64
   2   4 -25    2.84    0.60
   2   4 -25    2.10    0.34
  -2  -4  25    2.06    0.29
  -2  -4  25    1.70    0.38
   1   4 -25    7.67    0.85
   1   4 -25    8.08    0.49
   1   4 -25    8.82    0.79
   1   4 -25    8.30    0.67
   1   4 -25    5.87    0.78
  -1  -4  25    7.31    0.37
  -1  -4  25    8.26    0.42
   0   4 -25    0.33    0.18
   0   4 -25    0.74    0.39
   0   4 -25   -0.20    0.35
   0   4 -25    0.56    0.43
   0   4 -25    0.15    0.28
  -1   4 -25    7.58    0.45
  -1   4 -25    7.96    0.72
  -1   4 -25    7.66    0.61
  -1   4 -25    7.46    0.55
  -1   4 -25    7.12    0.88
   1  -4  25    9.92    3.33
   1  -4  25    7.94    0.73
  -2   4 -25    1.69    0.27
  -2   4 -25    2.91    0.47
  -2   4 -25    2.42    0.29
  -2   4 -25    2.04    0.33
  -2   4 -25    0.87    0.55
  -2   4 -25    1.69    0.35
  -3   4 -25   14.92    1.15
  -3   4 -25   12.41    0.91
  -3   4 -25   15.35    0.93
  -4   4 -25    3.90    0.74
   4   3 -25    9.31    1.16
   4   3 -25    9.65    0.97
   4   3 -25    9.92    1.10
  -4  -3  25   10.45    0.81
  -4  -3  25    9.91    0.72
   3   3 -25    1.01    0.55
   3   3 -25    0.19    0.42
   3   3 -25   -0.08    0.43
   3   3 -25    1.50    0.56
  -3  -3  25    0.82    0.32
  -3  -3  25    0.55    0.25
  -3  -3  25    0.68    0.56
   2   3 -25    3.10    0.59
   2   3 -25    2.85    0.48
   2   3 -25    2.64    0.41
   2   3 -25    2.93    0.55
  -2  -3  25    3.08    0.37
  -2  -3  25    3.16    0.42
   1   3 -25    0.17    0.39
   1   3 -25    1.34    0.38
   1   3 -25    0.25    0.42
   1   3 -25    0.38    0.31
   1   3 -25    0.76    0.26
  -1  -3  25    0.89    0.48
  -1  -3  25    0.61    0.24
  -1  -3  25    0.63    0.15
   0   3 -25   -0.11    0.20
   0   3 -25    0.10    0.24
   0   3 -25    0.91    0.42
   0   3 -25    0.20    0.34
   0   3 -25   -0.20    0.30
   0  -3  25    0.12    0.35
  -1   3 -25   -0.11    0.41
  -1   3 -25    0.56    0.24
  -1   3 -25    0.30    0.21
  -1   3 -25    0.58    0.27
   1  -3  25    0.15    0.32
   1  -3  25   -5.89    3.04
  -2   3 -25    4.29    0.61
  -2   3 -25    3.28    0.37
  -2   3 -25    2.87    0.41
  -2   3 -25    2.91    0.32
  -2   3 -25    3.00    0.45
   2  -3  25    5.14    1.90
  -3   3 -25    0.34    0.49
  -3   3 -25    0.12    0.20
  -3   3 -25    0.82    0.34
  -3   3 -25    0.31    0.52
  -4   3 -25   10.40    1.05
  -4   3 -25   10.74    1.06
   4   2 -25    1.05    0.58
   4   2 -25    0.79    0.51
   4   2 -25    0.57    0.70
   4   2 -25    1.10    0.58
  -4  -2  25    1.01    0.43
  -4  -2  25    1.11    0.38
   3   2 -25    2.26    0.55
   3   2 -25    2.79    0.58
   3   2 -25    2.94    0.50
   3   2 -25    2.93    0.54
  -3  -2  25    2.59    0.38
  -3  -2  25    3.32    0.45
   2   2 -25    1.95    0.39
   2   2 -25    2.03    0.48
   2   2 -25    2.47    0.54
   2   2 -25    1.63    0.38
  -2  -2  25    1.66    0.26
  -2  -2  25    1.41    0.39
  -2  -2  25    1.67    4.74
   1   2 -25   11.72    0.77
   1   2 -25   10.12    0.74
   1   2 -25   10.06    0.64
   1   2 -25    9.91    0.69
   1   2 -25   10.42    0.86
  -1  -2  25   10.41    0.61
  -1  -2  25   10.72    0.75
  -1  -2  25   10.33    0.50
  -1  -2  25    9.18    3.86
   0   2 -25    5.43    0.50
   0   2 -25    3.77    0.56
   0   2 -25    4.99    0.68
   0   2 -25    3.92    0.41
   0   2 -25    4.31    0.45
   0  -2  25    4.19    0.52
   0  -2  25    0.44    3.57
   0  -2  25    3.95    0.21
   0  -2  25    2.45    3.56
   0  -2  25    4.17    0.23
  -1   2 -25    9.46    0.58
  -1   2 -25   10.90    0.59
  -1   2 -25   10.33    0.57
  -1   2 -25   10.08    0.81
  -1   2 -25    9.21    0.67
   1  -2  25    9.20    0.64
   1  -2  25    9.57    3.36
  -2   2 -25    1.49    0.26
  -2   2 -25    1.16    0.44
  -2   2 -25    1.74    0.32
  -2   2 -25    1.90    0.27
  -2   2 -25    1.77    0.31
   2  -2  25    0.62    2.59
  -3   2 -25    3.35    0.59
  -3   2 -25    2.63    0.29
  -3   2 -25    3.29    0.43
  -3   2 -25    2.82    0.35
  -4   2 -25    0.51    0.58
  -4   2 -25    0.71    0.55
   4   1 -25    3.39    0.66
   4   1 -25    2.76    0.60
   4   1 -25    3.09    0.54
  -4  -1  25    3.15    0.49
  -4  -1  25    1.61    0.42
  -4  -1  25    1.74    8.33
   3   1 -25   14.89    1.03
   3   1 -25   12.63    0.99
   3   1 -25   14.68    0.89
   3   1 -25   15.60    1.04
  -3  -1  25   14.19    0.76
  -3  -1  25    6.65    5.79
  -3  -1  25   13.67    0.79
   2   1 -25    1.84    0.39
   2   1 -25    1.96    0.45
   2   1 -25    1.98    0.40
   2   1 -25    1.84    0.44
  -2  -1  25    2.40    0.35
  -2  -1  25    1.34    0.38
  -2  -1  25    2.41    0.54
  -2  -1  25   -1.72    4.20
   1   1 -25    1.59    0.38
   1   1 -25    1.67    0.32
   1   1 -25    1.64    0.43
   1   1 -25    1.16    0.34
   1   1 -25    1.11    0.31
  -1  -1  25    0.84    0.35
  -1  -1  25    1.34    0.20
  -1  -1  25    1.58    0.32
  -1  -1  25    4.54    3.58
   0   1 -25    6.73    0.50
   0   1 -25    7.43    0.61
   0   1 -25    4.94    3.11
   0   1 -25    7.12    0.54
   0   1 -25    6.48    0.52
   0   1 -25    6.24    0.66
   0  -1  25    6.75    0.42
   0  -1  25    1.72    2.92
   0  -1  25    6.59    0.59
  -1   1 -25    1.39    0.25
  -1   1 -25    1.55    0.31
  -1   1 -25    1.45    0.42
  -1   1 -25    1.26    0.28
  -1   1 -25    1.38    0.28
  -1   1 -25    3.37    2.75
   1  -1  25    1.05    0.29
   1  -1  25    4.48    2.57
  -2   1 -25    2.52    0.30
  -2   1 -25    2.70    0.37
  -2   1 -25    2.57    0.49
  -2   1 -25    1.93    0.34
  -2   1 -25    2.99    0.33
   2  -1  25    2.00    0.30
  -3   1 -25   13.66    0.65
  -3   1 -25   12.72    0.67
  -3   1 -25   13.71    0.63
  -3   1 -25   13.37    0.99
  -4   1 -25    3.12    0.39
  -4   1 -25    2.97    0.60
   4   0 -25    6.92    0.72
   4   0 -25    7.42    0.87
  -4   0  25    6.72    0.72
  -4   0  25    6.61    0.61
   3   0 -25    3.53    0.59
   3   0 -25    3.73    0.58
   3   0 -25    2.70    0.56
   3   0 -25    4.13    0.52
  -3   0  25    4.68    0.53
  -3   0  25    1.66    5.62
  -3   0  25    4.53    0.49
   2   0 -25   21.87    1.18
   2   0 -25   21.51    1.12
   2   0 -25   22.52    1.16
   2   0 -25   19.32    5.33
   2   0 -25   22.53    1.06
  -2   0  25   20.21    1.19
  -2   0  25   20.76    1.09
  -2   0  25   20.65    5.21
  -2   0  25   22.40    0.95
   1   0 -25    5.84    3.67
   1   0 -25    7.99    0.61
   1   0 -25    8.42    0.60
   1   0 -25    8.05    0.75
   1   0 -25    9.50    0.58
   1   0 -25    8.26    0.76
  -1   0  25    8.33    0.71
  -1   0  25    8.58    0.46
  -1   0  25   10.57    3.98
  -1   0  25    7.05    0.58
   0   0 -25    0.79    0.26
   0   0 -25    0.08    3.14
   0   0  25    1.20    0.44
   0   0  25   -4.44    2.47
  -1   0 -25    7.44    0.57
  -1   0 -25    8.55    0.54
  -1   0 -25    9.23    0.73
  -1   0 -25    8.73    0.55
  -1   0 -25    8.78    0.56
  -1   0 -25   11.17    3.18
   1   0  25    8.39    0.38
   1   0  25    8.56    0.36
   1   0  25    8.99    0.85
   1   0  25    8.94    3.05
   1   0  25    8.43    0.56
  -2   0 -25   20.86    1.01
  -2   0 -25   22.42    0.92
  -2   0 -25   21.85    1.20
  -2   0 -25   19.76    0.91
  -2   0 -25   21.92    0.95
   2   0  25   20.02    1.24
   2   0  25   21.07    0.90
  -3   0 -25    3.82    0.45
  -3   0 -25    3.71    0.39
  -3   0 -25    2.87    0.53
  -4   0 -25    6.34    0.87
  -4   0 -25    6.71    0.61
  -4   0 -25    7.00    0.50
   4  -1 -25    3.05    0.61
   4  -1 -25    1.81    0.55
  -4   1  25    2.42    0.49
  -4   1  25    2.23    0.44
   3  -1 -25   17.06    1.04
   3  -1 -25    5.89    6.15
   3  -1 -25   15.13    0.89
  -3   1  25   13.82    0.88
  -3   1  25   18.81    6.29
  -3   1  25   15.20    0.79
   2  -1 -25    2.53    0.42
   2  -1 -25    2.91    4.41
   2  -1 -25    1.84    0.46
   2  -1 -25    1.98    0.47
  -2   1  25    2.21    0.50
  -2   1  25    1.97    0.41
  -2   1  25    2.15    0.31
  -2   1  25   -1.72    4.54
  -2   1  25    1.78    0.53
   1  -1 -25    1.36    0.35
   1  -1 -25    1.36    0.40
   1  -1 -25    1.34    0.29
   1  -1 -25    6.24    3.68
   1  -1 -25    2.09    0.38
  -1   1  25    1.57    0.47
  -1   1  25    1.51    0.42
  -1   1  25    4.64    3.56
  -1   1  25    2.14    0.37
  -1   1  25    1.39    0.23
   0  -1 -25    7.11    0.55
   0  -1 -25    8.09    0.73
   0  -1 -25    7.24    0.51
   0  -1 -25    6.56    0.57
   0  -1 -25    6.02    3.61
   0   1  25    7.36    0.74
   0   1  25    7.08    0.59
   0   1  25   13.78    3.46
   0   1  25    6.55    0.53
  -1  -1 -25    1.90    0.43
  -1  -1 -25    1.35    0.31
  -1  -1 -25    1.90    0.31
  -1  -1 -25    1.52    0.29
  -1  -1 -25    3.61    3.04
   1   1  25    0.88    0.45
   1   1  25    0.70    2.73
   1   1  25    1.68    0.27
   1   1  25    1.64    0.31
   1   1  25    1.92    0.23
  -2  -1 -25    2.13    0.38
  -2  -1 -25    2.48    0.34
  -2  -1 -25    2.44    0.53
  -2  -1 -25    2.12    0.30
   2   1  25    1.20    0.60
   2   1  25    2.58    0.32
  -3  -1 -25   16.70    1.07
  -3  -1 -25   13.33    0.71
  -4  -1 -25    3.15    0.36
  -4  -1 -25    2.72    0.58
  -4  -1 -25    2.12    0.43
   4  -2 -25    1.46    0.53
   4  -2 -25    0.38    0.52
  -4   2  25    2.18    0.52
  -4   2  25    0.81    0.41
   3  -2 -25    2.43    0.55
   3  -2 -25    1.28    6.33
   3  -2 -25    2.54    0.45
  -3   2  25    2.62    0.40
  -3   2  25    3.12    0.63
  -3   2  25    2.93    0.48
  -3   2  25   -0.07    5.89
   2  -2 -25    1.05    0.34
   2  -2 -25   11.92    5.20
   2  -2 -25    1.52    0.49
  -2   2  25    1.35    0.47
  -2   2  25    1.41    0.30
  -2   2  25    1.00    0.54
  -2   2  25   -6.30    4.30
  -2   2  25    2.37    0.52
   1  -2 -25   10.41    0.66
   1  -2 -25   10.45    0.82
   1  -2 -25   10.34    0.72
   1  -2 -25    7.02    4.46
   1  -2 -25   10.19    0.67
  -1   2  25    8.16    3.91
  -1   2  25   10.47    0.91
  -1   2  25    9.75    0.78
  -1   2  25    9.91    0.73
  -1   2  25   10.07    0.55
   0  -2 -25    8.15    3.72
   0  -2 -25    3.94    0.44
   0  -2 -25    3.94    0.53
   0  -2 -25    3.58    0.55
   0  -2 -25    4.62    0.50
   0   2  25    4.53    0.57
   0   2  25    5.27    0.52
   0   2  25    3.93    0.59
   0   2  25   13.07    3.59
  -1  -2 -25    9.86    0.58
  -1  -2 -25    8.06    3.71
  -1  -2 -25   10.32    0.85
  -1  -2 -25    8.98    0.70
  -1  -2 -25   10.06    0.65
   1   2  25   10.23    0.64
   1   2  25   10.08    0.63
   1   2  25   10.06    0.51
   1   2  25   12.63    1.43
   1   2  25    9.44    3.56
  -2  -2 -25    1.42    0.28
  -2  -2 -25    1.14    0.33
  -2  -2 -25    1.58    0.49
   2   2  25    1.85    0.24
   2   2  25    1.68    0.27
   2   2  25    1.53    0.21
  -3  -2 -25    2.34    0.35
  -3  -2 -25    2.26    0.54
  -3  -2 -25    3.14    0.44
  -4  -2 -25    0.78    0.52
  -4  -2 -25    0.99    0.46
   4  -3 -25    9.20    0.99
   4  -3 -25   10.77    0.96
  -4   3  25   10.56    0.83
  -4   3  25   10.29    0.97
   3  -3 -25    1.02    0.51
   3  -3 -25    0.17    0.39
  -3   3  25    0.88    0.38
  -3   3  25   -0.01    0.28
   2  -3 -25    2.65    0.44
   2  -3 -25    3.46    0.61
   2  -3 -25    9.24    5.73
  -2   3  25    3.10    0.37
  -2   3  25    6.66    4.87
   1  -3 -25    0.73    0.34
   1  -3 -25   -0.68    4.69
   1  -3 -25    0.35    0.43
  -1   3  25    0.74    0.42
  -1   3  25    0.49    0.25
  -1   3  25    3.66    3.86
  -1   3  25    0.73    0.42
   0  -3 -25   -0.06    0.37
   0  -3 -25   -4.16    3.65
   0  -3 -25    0.02    0.30
   0   3  25   -0.02    0.36
   0   3  25   -0.07    0.35
   0   3  25    3.69    3.90
   0   3  25    0.00    0.22
  -1  -3 -25    0.35    0.43
  -1  -3 -25    0.90    0.32
  -1  -3 -25    0.66    0.30
  -1  -3 -25    4.72    4.05
   1   3  25    0.45    0.33
   1   3  25    0.57    0.23
   1   3  25    1.35    4.52
   1   3  25    0.57    0.35
  -2  -3 -25    2.92    0.41
  -2  -3 -25    3.40    0.56
   2   3  25    3.15    0.42
   2   3  25    3.20    0.33
   2   3  25    2.74    0.31
  -3  -3 -25    0.73    0.42
  -3  -3 -25   -0.11    0.47
   3   3  25    0.57    0.21
  -4  -3 -25   10.60    0.95
  -4  -3 -25    9.41    1.05
   4  -4 -25    4.70    0.77
   4  -4 -25    7.12    0.95
   3  -4 -25   13.97    0.92
   3  -4 -25   14.70    1.09
  -3   4  25   12.95    0.97
  -3   4  25   13.62    0.80
   2  -4 -25    1.11    0.45
   2  -4 -25   -6.05    5.90
   2  -4 -25    2.52    0.57
  -2   4  25    5.85    5.34
  -2   4  25    1.72    0.36
   1  -4 -25    8.15    0.82
   1  -4 -25    2.51    5.37
   1  -4 -25    8.49    0.67
  -1   4  25    7.65    0.85
  -1   4  25    5.04    5.10
  -1   4  25    8.19    0.59
   0  -4 -25    0.57    0.45
   0  -4 -25   -0.17    0.29
   0  -4 -25    1.46    4.58
   0   4  25    1.93    4.19
   0   4  25    0.53    0.24
   0   4  25    0.67    0.41
   0   4  25   -0.06    0.40
  -1  -4 -25    7.29    0.71
  -1  -4 -25    8.20    0.80
  -1  -4 -25    4.77    4.50
   1   4  25    6.81    0.66
   1   4  25    7.12    0.73
   1   4  25    7.95    0.54
  -2  -4 -25    2.81    0.51
  -2  -4 -25    2.15    0.58
   2   4  25    2.02    0.44
   2   4  25    2.06    0.58
  -3  -4 -25   13.56    1.01
  -3  -4 -25   14.44    1.08
   3   4  25   12.42    0.74
  -4  -4 -25    5.35    0.81
  -4  -4 -25    4.38    0.81
   3  -5 -25    5.20    0.75
   3  -5 -25    5.49    0.79
  -3   5  25    6.14    0.80
  -3   5  25    5.80    0.63
   2  -5 -25   32.40    1.70
   2  -5 -25   31.42    1.53
  -2   5  25   34.41    1.44
   1  -5 -25    6.44    5.96
   1  -5 -25    2.95    0.61
   1  -5 -25    3.89    0.54
  -1   5  25    3.29    0.44
  -1   5  25   -5.29    5.07
   0  -5 -25   -1.80    5.61
   0  -5 -25    9.33    0.81
   0  -5 -25    8.94    0.90
   0   5  25   12.94    5.96
   0   5  25    9.20    0.61
   0   5  25    9.11    0.88
  -1  -5 -25    2.20    0.59
  -1  -5 -25    2.70    0.55
   1   5  25    2.45    0.40
   1   5  25    3.25    0.48
  -2  -5 -25   31.39    1.71
  -2  -5 -25   31.30    1.51
   2   5  25   33.39    1.40
   2   5  25   29.92    1.47
  -3  -5 -25    5.79    0.84
  -3  -5 -25    5.71    0.78
   3   5  25    5.53    0.66
   2  -6 -25    5.01    0.82
   2  -6 -25    3.12    0.71
  -2   6  25    3.18    0.52
   1  -6 -25   15.43    1.19
   1  -6 -25   15.62    1.13
   0  -6 -25   -3.32    7.75
   0  -6 -25    0.05    0.60
   0  -6 -25    0.41    0.52
   0   6  25   -0.29    0.54
   0   6  25    0.21    0.34
  -1  -6 -25   12.26    0.99
  -1  -6 -25   12.14    1.14
   1   6  25   13.69    0.83
  -2  -6 -25    4.20    0.69
  -2  -6 -25    3.28    0.85
   2   6  25    4.07    0.55
   0   7  25   12.85    1.01
   2   6 -26   14.60    1.18
   1   6 -26    0.51    0.77
   1   6 -26   -0.29    0.61
   1   6 -26   -0.04    0.49
   0   6 -26    1.05    0.60
   0   6 -26    1.79    0.74
   0   6 -26    0.93    0.47
  -1   6 -26    1.08    0.42
  -1   6 -26    0.28    0.57
  -1   6 -26   -0.05    0.68
  -2   6 -26   15.35    1.23
  -2   6 -26   17.76    1.48
   3   5 -26   12.07    1.22
   3   5 -26   17.76    1.52
  -3  -5  26   15.36    0.87
   2   5 -26    5.25    0.88
   2   5 -26    5.15    0.78
   2   5 -26    7.60    0.87
  -2  -5  26    6.67    0.45
   1   5 -26    1.23    0.43
   1   5 -26    1.71    0.63
   1   5 -26    1.04    0.58
   0   5 -26    4.60    0.52
   0   5 -26    4.23    0.62
   0   5 -26    4.90    0.72
   0   5 -26    3.95    0.73
  -1   5 -26    1.50    0.54
  -1   5 -26    1.50    0.60
  -1   5 -26    1.86    0.38
  -1   5 -26    1.12    0.47
  -2   5 -26    6.66    0.76
  -2   5 -26    8.48    1.09
  -2   5 -26    5.82    0.54
  -3   5 -26   16.05    1.14
  -3   5 -26   13.77    1.35
   3   4 -26   10.31    1.09
   3   4 -26   11.76    1.13
   3   4 -26   12.12    0.94
  -3  -4  26   11.95    0.73
   2   4 -26    0.14    0.50
   2   4 -26    1.12    0.65
   2   4 -26   -0.52    0.36
  -2  -4  26    0.41    0.35
  -2  -4  26    0.22    0.23
   1   4 -26    0.37    0.51
   1   4 -26    0.93    0.24
   1   4 -26    0.26    0.48
   1   4 -26    0.59    0.38
  -1  -4  26    0.45    0.13
  -1  -4  26    0.25    0.24
   0   4 -26    0.76    0.49
   0   4 -26    0.72    0.35
   0   4 -26    0.43    0.21
   0   4 -26    0.74    0.41
   0   4 -26    0.86    0.44
  -1   4 -26    1.38    0.38
  -1   4 -26   -0.05    0.19
  -1   4 -26    0.47    0.49
  -1   4 -26    0.16    0.28
  -1   4 -26    0.73    0.42
   1  -4  26    0.50    0.42
  -2   4 -26    0.04    0.34
  -2   4 -26    1.13    0.56
  -2   4 -26    0.31    0.27
  -2   4 -26   -0.03    0.40
  -2   4 -26    0.13    0.33
  -3   4 -26   12.39    1.13
  -3   4 -26   11.92    0.88
  -3   4 -26   11.05    0.91
   4   3 -26    4.24    0.79
  -4  -3  26    5.42    0.61
  -4  -3  26    3.71    0.57
   3   3 -26    7.64    1.01
   3   3 -26    8.25    0.95
   3   3 -26    9.65    0.86
   3   3 -26    8.51    1.20
  -3  -3  26    8.27    0.63
   2   3 -26    8.68    0.91
   2   3 -26   10.33    0.76
   2   3 -26   11.27    0.75
   2   3 -26    9.04    0.87
  -2  -3  26   10.58    0.69
  -2  -3  26   10.22    0.57
   1   3 -26    3.47    0.59
   1   3 -26    3.01    0.46
   1   3 -26    3.33    0.54
   1   3 -26    3.35    0.49
   1   3 -26    3.08    0.41
  -1  -3  26    4.21    0.40
  -1  -3  26    3.78    0.28
   0   3 -26    5.50    0.70
   0   3 -26    7.10    0.69
   0   3 -26    5.63    0.64
   0   3 -26    5.97    0.65
   0  -3  26    6.69    0.66
  -1   3 -26    4.67    0.52
  -1   3 -26    3.41    0.44
  -1   3 -26    3.95    0.41
  -1   3 -26    3.94    0.52
  -1   3 -26    4.84    0.68
   1  -3  26    4.23    0.57
   1  -3  26    4.85    4.04
  -2   3 -26    9.83    0.61
  -2   3 -26    9.80    0.59
  -2   3 -26   10.48    0.63
  -2   3 -26    9.88    0.94
  -2   3 -26   10.59    0.74
   2  -3  26    9.03    2.28
  -3   3 -26    8.80    0.99
  -3   3 -26    7.93    0.66
  -3   3 -26    7.81    0.49
  -4   3 -26    4.78    0.78
  -4   3 -26    7.13    0.98
   4   2 -26    3.22    0.81
   4   2 -26    3.98    0.75
   4   2 -26    3.20    0.65
  -4  -2  26    2.65    0.47
  -4  -2  26    3.62    0.54
   3   2 -26    0.51    0.49
   3   2 -26    0.73    0.49
   3   2 -26    0.64    0.53
   3   2 -26    0.10    0.39
  -3  -2  26    0.37    0.29
  -3  -2  26    0.42    0.33
   2   2 -26    5.53    0.69
   2   2 -26    5.65    0.69
   2   2 -26    5.82    0.65
   2   2 -26    5.94    0.65
  -2  -2  26    5.72    0.62
   1   2 -26    9.71    0.78
   1   2 -26   11.59    0.84
   1   2 -26   10.35    0.71
   1   2 -26    9.64    0.84
   1   2 -26    8.97    0.65
  -1  -2  26   10.20    0.81
  -1  -2  26   10.91    0.50
  -1  -2  26   10.81    0.63
   0   2 -26    0.72    0.42
   0   2 -26    0.13    0.31
   0   2 -26    0.27    0.27
   0   2 -26    0.06    0.31
   0   2 -26   -0.30    0.22
   0  -2  26    0.03    0.09
   0  -2  26    0.48    0.37
  -1   2 -26   10.56    0.72
  -1   2 -26   11.07    0.64
  -1   2 -26   10.53    0.61
  -1   2 -26   11.56    0.91
  -1   2 -26   10.85    0.63
   1  -2  26   12.08    3.76
   1  -2  26   10.56    0.70
  -2   2 -26    6.10    0.48
  -2   2 -26    5.95    0.56
  -2   2 -26    6.16    0.52
  -2   2 -26    6.11    0.45
  -2   2 -26    6.81    0.76
   2  -2  26    9.17    3.07
  -3   2 -26    0.35    0.50
  -3   2 -26    1.03    0.24
  -3   2 -26    0.46    0.28
  -3   2 -26    0.47    0.24
  -4   2 -26    2.51    0.65
  -4   2 -26    4.26    0.75
   4   1 -26    0.63    0.62
   4   1 -26    1.47    0.56
   4   1 -26    0.23    0.56
  -4  -1  26    1.55    0.45
  -4  -1  26    0.75    0.38
   3   1 -26    1.85    0.48
   3   1 -26    1.05    0.50
   3   1 -26    1.28    0.55
   3   1 -26    1.47    0.51
  -3  -1  26    1.72    0.36
  -3  -1  26    1.14    0.33
   2   1 -26    1.65    0.39
   2   1 -26    0.69    0.40
   2   1 -26    1.23    0.47
   2   1 -26    0.94    0.40
  -2  -1  26    0.99    0.26
  -2  -1  26    0.97    0.39
  -2  -1  26   -0.65    4.91
   1   1 -26   27.31    1.35
   1   1 -26   23.58    1.15
   1   1 -26   26.44    1.18
   1   1 -26   24.53    1.20
   1   1 -26   24.57    1.25
  -1  -1  26   25.09    5.00
  -1  -1  26   24.41    1.11
  -1  -1  26   26.62    1.01
  -1  -1  26   24.69    1.23
   0   1 -26    2.58    3.48
   0   1 -26    0.35    0.25
   0   1 -26   -0.04    0.39
   0   1 -26   -0.19    0.39
   0   1 -26    0.22    0.30
   0   1 -26    0.51    0.32
   0  -1  26    0.45    0.33
   0  -1  26   -0.09    0.19
   0  -1  26    0.21    0.12
  -1   1 -26   25.38    1.16
  -1   1 -26   25.44    1.09
  -1   1 -26   26.86    1.37
  -1   1 -26   26.80    1.15
  -1   1 -26   24.58    1.10
   1  -1  26   25.34    1.14
  -2   1 -26    0.86    0.31
  -2   1 -26    1.15    0.25
  -2   1 -26    0.87    0.27
  -2   1 -26    1.74    0.27
  -2   1 -26    1.11    0.47
   2  -1  26    0.93    0.27
  -3   1 -26    1.68    0.30
  -3   1 -26    1.67    0.28
  -3   1 -26    1.26    0.54
  -3   1 -26    1.48    0.25
  -4   1 -26    1.97    0.63
  -4   1 -26    1.31    0.35
   4   0 -26    6.25    0.77
   4   0 -26    7.36    0.94
  -4   0  26    7.33    0.77
  -4   0  26    8.89    0.74
   3   0 -26    9.27    0.89
   3   0 -26    7.91    0.81
   3   0 -26   10.01    0.73
  -3   0  26    7.40    6.01
  -3   0  26    8.04    0.68
  -3   0  26    7.89    0.57
   2   0 -26    6.46    0.58
   2   0 -26    5.60    0.69
   2   0 -26    6.07    0.71
   2   0 -26    6.85    0.73
  -2   0  26    5.61    0.67
  -2   0  26    9.47    4.91
  -2   0  26    6.35    0.47
   1   0 -26   10.09    0.69
   1   0 -26    8.84    0.70
   1   0 -26    8.39    0.60
   1   0 -26    7.35    3.92
   1   0 -26    9.40    0.79
   1   0 -26    8.43    0.64
  -1   0  26    8.44    0.48
  -1   0  26    9.06    0.72
  -1   0  26    8.58    3.84
  -1   0  26    8.60    0.63
   0   0 -26  181.50    6.42
   0   0 -26  164.41   10.18
   0   0 -26  182.44    6.22
   0   0 -26  175.37    6.24
   0   0 -26  173.24    6.23
   0   0 -26  187.37    6.29
   0   0  26  175.69    6.26
   0   0  26  164.95    9.45
  -1   0 -26    9.38    0.57
  -1   0 -26    8.83    0.78
  -1   0 -26    7.93    0.62
  -1   0 -26    9.02    0.58
  -1   0 -26    6.27    3.54
  -1   0 -26    9.32    0.59
   1   0  26    8.05    0.59
   1   0  26    8.81    0.40
   1   0  26    8.43    0.37
  -2   0 -26    6.32    0.46
  -2   0 -26    5.32    0.55
  -2   0 -26    6.43    0.48
  -2   0 -26    6.17    0.45
  -2   0 -26    5.74    0.70
   2   0  26    5.48    0.44
  -3   0 -26    8.91    0.93
  -3   0 -26    8.10    0.61
  -3   0 -26    8.45    0.54
  -4   0 -26    6.28    0.76
   4  -1 -26    1.50    0.54
   4  -1 -26    0.67    0.57
  -4   1  26    0.92    0.45
  -4   1  26    1.03    0.39
   3  -1 -26    1.83    0.51
   3  -1 -26    1.66    0.46
   3  -1 -26    2.41    5.81
  -3   1  26    1.88    6.52
  -3   1  26    1.24    0.38
  -3   1  26    1.09    0.32
   2  -1 -26    0.73    0.47
   2  -1 -26   -2.46    4.78
   2  -1 -26    1.34    0.35
  -2   1  26   -1.92    4.64
  -2   1  26    1.39    0.47
   1  -1 -26   26.34    1.18
   1  -1 -26   25.88    5.18
   1  -1 -26   28.62    1.36
   1  -1 -26   27.28    1.23
   1  -1 -26   23.07    1.20
  -1   1  26   24.75    1.30
  -1   1  26   24.88    4.68
  -1   1  26   24.50    1.46
  -1   1  26   24.98    1.19
  -1   1  26   26.63    1.08
   0  -1 -26    4.00    3.57
   0  -1 -26    0.52    0.23
   0  -1 -26    0.24    0.39
   0  -1 -26    0.65    0.30
   0  -1 -26    1.23    0.30
   0   1  26    1.95    3.07
   0   1  26   -0.78    0.71
   0   1  26    0.16    0.30
   0   1  26    0.35    0.32
  -1  -1 -26   24.62    1.34
  -1  -1 -26   27.06    1.13
  -1  -1 -26   23.45    4.36
  -1  -1 -26   26.20    1.16
  -1  -1 -26   26.71    1.21
   1   1  26   26.01    1.15
   1   1  26   25.96    1.07
   1   1  26   26.15    1.01
  -2  -1 -26    0.89    0.35
  -2  -1 -26    1.35    0.37
  -2  -1 -26    0.88    0.28
  -2  -1 -26    0.62    0.45
   2   1  26    1.01    0.23
  -3  -1 -26    1.88    0.53
  -3  -1 -26    1.89    0.37
  -3  -1 -26    1.61    0.31
  -4  -1 -26    1.55    0.58
  -4  -1 -26    0.27    0.34
  -4  -1 -26    1.08    0.42
   4  -2 -26    3.50    0.64
   4  -2 -26    3.09    0.62
  -4   2  26    2.43    0.57
  -4   2  26    3.30    0.52
   3  -2 -26    1.12    0.44
   3  -2 -26   -1.97    6.00
   3  -2 -26   -0.28    0.50
  -3   2  26    0.27    0.38
  -3   2  26    4.79    6.42
  -3   2  26    0.58    0.30
   2  -2 -26    7.16    5.63
   2  -2 -26    7.02    0.65
   2  -2 -26    6.43    0.76
  -2   2  26    6.26    0.53
  -2   2  26   -1.20    4.67
   1  -2 -26   10.41    0.91
   1  -2 -26   10.31    4.93
   1  -2 -26   11.06    0.81
   1  -2 -26   10.56    0.74
  -1   2  26   10.69    0.60
  -1   2  26   11.98    0.87
  -1   2  26   10.50    0.79
  -1   2  26    7.52    4.30
   0  -2 -26   -1.62    4.04
   0  -2 -26    0.43    0.41
   0  -2 -26   -0.01    0.35
   0  -2 -26    0.20    0.29
   0  -2 -26    0.38    0.28
   0   2  26   -2.14    3.35
   0   2  26   -0.32    0.18
   0   2  26    0.45    0.39
   0   2  26    0.20    0.34
  -1  -2 -26   11.34    4.44
  -1  -2 -26   10.30    0.65
  -1  -2 -26    9.32    0.61
  -1  -2 -26   10.19    0.72
  -1  -2 -26   10.02    0.90
   1   2  26   11.55    0.68
   1   2  26   10.50    0.54
   1   2  26    9.74    0.65
  -2  -2 -26    6.44    0.81
  -2  -2 -26    4.96    0.51
  -2  -2 -26    5.38    0.57
   2   2  26    6.29    0.44
   2   2  26    5.76    0.37
   2   2  26    5.56    0.40
  -3  -2 -26    0.25    0.50
  -3  -2 -26    0.53    0.39
  -4  -2 -26    4.18    0.73
  -4  -2 -26    3.83    0.59
   4  -3 -26    4.97    0.72
   4  -3 -26    4.88    0.76
  -4   3  26    3.80    0.73
   3  -3 -26    7.02    0.79
   3  -3 -26    8.65    0.95
  -3   3  26    7.32    0.74
  -3   3  26    8.58    0.67
   2  -3 -26   11.03    0.75
   2  -3 -26   17.91    6.30
   2  -3 -26   10.27    0.94
  -2   3  26    9.08    0.64
  -2   3  26    9.59    5.16
   1  -3 -26   -4.32    4.74
   1  -3 -26    4.70    0.65
   1  -3 -26    3.60    0.47
  -1   3  26    4.08    0.39
  -1   3  26    1.65    3.87
  -1   3  26    3.47    0.53
  -1   3  26    3.60    0.57
   0  -3 -26    7.98    4.66
   0  -3 -26    7.13    0.80
   0  -3 -26    7.85    0.62
   0   3  26   11.41    4.58
   0   3  26    6.98    0.71
   0   3  26    6.94    0.50
   0   3  26    6.16    0.68
  -1  -3 -26    4.54    0.52
  -1  -3 -26    3.36    0.59
   1   3  26    2.77    0.45
   1   3  26    4.51    0.50
   1   3  26    3.67    0.39
  -2  -3 -26   10.63    0.78
  -2  -3 -26   10.74    0.91
   2   3  26   10.00    0.67
   2   3  26   10.04    0.54
   2   3  26    8.42    0.55
  -3  -3 -26    7.56    0.78
  -3  -3 -26    8.01    0.89
  -4  -3 -26    4.53    0.67
  -4  -3 -26    3.75    0.79
   3  -4 -26   12.01    1.08
   3  -4 -26   10.56    0.97
  -3   4  26   11.14    0.81
  -3   4  26   11.57    0.91
   2  -4 -26    0.60    0.54
   2  -4 -26   -9.02    6.52
   2  -4 -26   -0.09    0.35
  -2   4  26    7.43    5.84
  -2   4  26   -0.28    0.28
   1  -4 -26    1.21    5.52
   1  -4 -26    0.48    0.50
   1  -4 -26    0.73    0.38
  -1   4  26    0.86    0.30
  -1   4  26   -5.60    4.66
  -1   4  26    0.47    0.49
   0  -4 -26    0.49    0.39
   0  -4 -26    1.15    0.51
   0  -4 -26    1.23    5.36
   0   4  26    0.43    0.43
   0   4  26    0.46    0.28
   0   4  26    0.05    0.44
  -1  -4 -26    1.01    0.40
  -1  -4 -26    0.59    0.48
   1   4  26    0.69    0.43
   1   4  26    0.56    0.28
   1   4  26   -0.07    0.37
  -2  -4 -26    1.17    0.46
  -2  -4 -26    0.52    0.56
   2   4  26    1.71    0.43
  -3  -4 -26   11.24    1.05
  -3  -4 -26   13.32    1.01
   3  -5 -26   17.26    1.71
   3  -5 -26   12.67    1.23
   2  -5 -26    6.48    0.75
   2  -5 -26    4.88    0.78
  -2   5  26    5.86    0.65
   1  -5 -26   10.57    6.54
   1  -5 -26    1.96    0.48
   1  -5 -26    1.36    0.57
  -1   5  26   -4.60    5.87
   0  -5 -26    3.98    0.57
   0  -5 -26    3.72    0.67
   0   5  26    3.86    0.47
   0   5  26    4.57    0.63
  -1  -5 -26    1.09    0.47
  -1  -5 -26    1.26    0.65
   1   5  26    1.09    0.37
  -2  -5 -26    5.59    0.72
  -2  -5 -26    5.28    0.82
   2   5  26    6.84    0.67
   2   5  26    5.06    0.72
  -3  -5 -26   14.45    1.36
  -3  -5 -26   13.08    1.11
   3   5  26   14.23    1.19
   2  -6 -26   15.75    1.36
   1  -6 -26    0.65    0.70
   1  -6 -26    0.48    0.54
  -1   6  26    0.93    0.44
   0  -6 -26    1.27    0.63
   0  -6 -26    0.61    0.66
   0   6  26    1.55    0.45
  -1  -6 -26    0.95    0.74
  -1  -6 -26    0.73    0.58
   1   6  26    1.02    0.47
   2   6  26   16.47    1.05
   1   6 -27    3.09    0.78
   1   6 -27    3.00    0.60
   0   6 -27    0.45    0.63
   0   6 -27    1.06    0.51
  -1   6 -27    2.90    0.99
  -1   6 -27    3.39    0.76
  -1   6 -27    2.62    0.49
   2   5 -27   16.20    1.11
   2   5 -27   17.72    1.35
   2   5 -27   18.70    1.52
   1   5 -27    0.61    0.70
   1   5 -27    0.88    0.48
   1   5 -27    1.12    0.60
   0   5 -27    8.82    0.98
   0   5 -27   10.56    1.05
   0   5 -27    8.92    0.75
   0   5 -27   10.59    1.07
  -1   5 -27    0.82    0.54
  -1   5 -27    1.18    0.66
  -2   5 -27   18.31    1.20
  -2   5 -27   17.95    1.33
   3   4 -27    8.29    0.89
   3   4 -27    6.05    1.01
   3   4 -27    6.79    0.95
  -3  -4  27    8.62    0.64
   2   4 -27    0.89    0.60
   2   4 -27    1.19    0.46
   2   4 -27    0.96    0.65
  -2  -4  27    1.47    0.27
   1   4 -27    2.94    0.63
   1   4 -27    3.00    0.50
   1   4 -27    3.44    0.72
   0   4 -27   18.01    1.06
   0   4 -27   18.48    1.13
   0   4 -27   19.75    1.00
   0   4 -27   19.23    1.24
  -1   4 -27    3.36    0.40
  -1   4 -27    1.85    0.45
  -1   4 -27    2.63    0.65
  -1   4 -27    3.01    0.58
  -2   4 -27    0.59    0.36
  -2   4 -27    1.63    0.65
  -2   4 -27    1.21    0.47
  -2   4 -27    1.31    0.31
  -3   4 -27    8.37    0.84
  -3   4 -27    9.87    1.12
  -3   4 -27    8.52    1.15
   3   3 -27    0.59    0.62
   3   3 -27   -1.30    0.50
   3   3 -27   -0.46    0.50
  -3  -3  27   -0.41    0.33
   2   3 -27    3.64    0.68
   2   3 -27    3.86    0.53
   2   3 -27    3.97    0.69
   2   3 -27    3.39    0.49
  -2  -3  27    3.55    0.48
  -2  -3  27    3.86    0.47
   1   3 -27    4.66    0.71
   1   3 -27    4.41    0.63
   1   3 -27    4.14    0.52
   1   3 -27    3.78    0.43
  -1  -3  27    3.00    0.40
  -1  -3  27    3.75    0.29
   0   3 -27    0.15    0.42
   0   3 -27    0.37    0.39
   0   3 -27    0.71    0.32
   0   3 -27   -0.22    0.24
   0   3 -27   -0.33    0.46
   0  -3  27    0.01    0.40
  -1   3 -27    4.08    0.65
  -1   3 -27    4.43    0.47
  -1   3 -27    5.26    0.59
  -1   3 -27    4.67    0.57
  -1   3 -27    3.97    0.44
   1  -3  27    4.43    0.61
  -2   3 -27    4.05    0.48
  -2   3 -27    4.01    0.71
  -2   3 -27    3.39    0.41
  -2   3 -27    3.46    0.40
   2  -3  27    4.04    2.33
  -3   3 -27    0.79    0.60
  -3   3 -27   -0.03    0.38
   4   2 -27   10.08    1.11
  -4  -2  27    7.80    0.79
  -4  -2  27    7.62    0.75
   3   2 -27    2.88    0.56
   3   2 -27    4.12    0.62
   3   2 -27    1.47    0.56
   3   2 -27    1.78    0.67
  -3  -2  27    2.73    0.40
   2   2 -27    2.15    0.45
   2   2 -27    1.60    0.54
   2   2 -27    1.66    0.46
   2   2 -27    1.24    0.50
  -2  -2  27    1.30    0.27
  -2  -2  27    1.24    0.41
   1   2 -27   13.04    0.80
   1   2 -27   11.78    0.99
   1   2 -27   11.75    0.89
   1   2 -27   12.55    0.76
   1   2 -27   12.79    0.84
  -1  -2  27   12.79    0.57
  -1  -2  27   11.45    0.68
   0   2 -27    8.69    0.62
   0   2 -27    7.93    0.67
   0   2 -27    8.39    0.58
   0   2 -27    8.18    0.79
   0   2 -27    7.55    0.72
   0  -2  27    8.64    0.71
  -1   2 -27   12.14    0.75
  -1   2 -27   12.67    0.73
  -1   2 -27   13.86    0.98
  -1   2 -27   12.94    0.82
  -1   2 -27   14.87    0.75
   1  -2  27   13.25    0.80
  -2   2 -27    1.36    0.35
  -2   2 -27    1.23    0.27
  -2   2 -27    1.15    0.30
  -2   2 -27    1.50    0.55
  -2   2 -27    1.31    0.34
   2  -2  27   -0.69    3.74
  -3   2 -27    2.52    0.34
  -3   2 -27    3.67    0.68
  -3   2 -27    2.42    0.38
  -4   2 -27    7.17    0.87
  -4   2 -27    6.90    0.94
   4   1 -27    4.21    0.81
   4   1 -27    4.02    0.81
   4   1 -27    4.25    0.74
  -4  -1  27    4.03    0.56
  -4  -1  27    4.62    0.55
   3   1 -27    0.62    0.51
   3   1 -27    1.92    0.45
   3   1 -27    0.27    0.56
   3   1 -27    2.17    0.62
  -3  -1  27    1.46    0.38
  -3  -1  27    1.17    0.34
   2   1 -27    1.29    0.42
   2   1 -27    1.66    0.56
   2   1 -27    1.59    0.46
   2   1 -27    1.23    0.44
  -2  -1  27    1.15    0.28
  -2  -1  27    1.10    0.44
   1   1 -27   23.22    1.18
   1   1 -27   25.12    1.18
   1   1 -27   25.71    1.17
   1   1 -27   25.02    1.28
   1   1 -27   25.00    1.37
  -1  -1  27   26.26    1.13
  -1  -1  27   26.10    1.01
  -1  -1  27   23.55    1.24
   0   1 -27    6.95    0.71
   0   1 -27    7.93    0.75
   0   1 -27    6.26    0.60
   0   1 -27    5.38    0.54
   0   1 -27    7.03    0.55
   0  -1  27    6.01    0.65
   0  -1  27    6.97    0.43
   0  -1  27    6.92    0.35
  -1   1 -27   25.55    1.14
  -1   1 -27   24.96    1.10
  -1   1 -27   25.84    1.18
  -1   1 -27   24.62    1.36
  -1   1 -27   25.07    1.10
   1  -1  27   24.43    1.14
  -2   1 -27    1.54    0.31
  -2   1 -27    1.29    0.31
  -2   1 -27    1.41    0.37
  -2   1 -27    1.32    0.28
  -2   1 -27    1.68    0.51
   2  -1  27    1.13    0.29
  -3   1 -27    1.48    0.31
  -3   1 -27    1.26    0.29
  -3   1 -27    1.95    0.59
  -3   1 -27    1.09    0.25
  -4   1 -27    5.60    0.78
   4   0 -27   15.07    1.13
   4   0 -27   14.65    1.19
  -4   0  27   16.36    0.97
  -4   0  27   13.91    0.96
   3   0 -27    4.38    0.69
   3   0 -27    4.47    0.66
   3   0 -27    3.70    0.55
  -3   0  27    4.56    0.53
  -3   0  27    4.01    0.57
   2   0 -27    1.68    0.52
   2   0 -27    2.16    0.43
   2   0 -27    3.11    0.53
   2   0 -27    2.31    0.50
  -2   0  27    2.47    0.31
  -2   0  27    5.81    8.29
  -2   0  27    1.26    0.46
   1   0 -27    9.12    0.72
   1   0 -27   10.34    0.70
   1   0 -27   10.61    0.74
   1   0 -27   10.88    4.77
   1   0 -27    8.47    0.80
   1   0 -27   10.74    1.19
  -1   0  27    8.23    0.69
  -1   0  27    9.84    0.53
  -1   0  27    9.02    0.82
   0   0 -27    2.60    0.40
   0   0 -27    3.51    5.78
   0   0  27    1.99    0.42
  -1   0 -27    9.26    0.83
  -1   0 -27    8.82    0.61
  -1   0 -27    9.14    0.67
  -1   0 -27    9.95    0.63
   1   0  27   10.02    0.65
  -2   0 -27    2.03    0.53
  -2   0 -27    2.02    0.35
  -2   0 -27    2.40    0.33
  -2   0 -27    1.26    0.37
  -3   0 -27    3.39    0.63
  -3   0 -27    4.54    0.47
  -3   0 -27    4.05    0.65
  -4   0 -27   14.79    1.21
  -4   0 -27   14.85    0.91
   4  -1 -27    4.88    0.75
   4  -1 -27    4.27    0.73
  -4   1  27    4.54    0.64
  -4   1  27    3.41    0.51
   3  -1 -27    0.43    0.44
   3  -1 -27    2.01    0.57
  -3   1  27    3.73    7.25
  -3   1  27    1.43    0.34
  -3   1  27    1.43    0.42
   2  -1 -27    2.19    0.41
   2  -1 -27    1.15    5.33
   2  -1 -27    1.55    0.50
  -2   1  27   -0.67    4.94
  -2   1  27    1.14    0.48
  -2   1  27    1.34    0.31
   1  -1 -27   25.27    1.23
   1  -1 -27   23.81    1.15
   1  -1 -27   24.31    5.49
   1  -1 -27   25.12    1.36
  -1   1  27   24.53    1.27
  -1   1  27   24.60    1.11
  -1   1  27   25.75    5.45
  -1   1  27   24.12    1.18
   0  -1 -27    1.79    4.16
   0  -1 -27    6.28    0.77
   0  -1 -27    6.49    0.59
   0  -1 -27    5.59    0.56
   0  -1 -27    6.89    0.59
   0   1  27    6.89    0.60
   0   1  27    6.82    0.42
   0   1  27    6.93    0.66
  -1  -1 -27   24.93    1.13
  -1  -1 -27   26.58    1.36
  -1  -1 -27   23.81    1.11
  -1  -1 -27   25.79    1.19
   1   1  27   24.63    1.14
   1   1  27   25.02    0.98
   1   1  27   25.61    1.04
  -2  -1 -27    1.79    0.35
  -2  -1 -27    1.53    0.32
  -2  -1 -27    1.81    0.55
   2   1  27    1.78    0.27
  -3  -1 -27    0.73    0.52
  -3  -1 -27    1.71    0.37
  -3  -1 -27    1.47    0.33
  -4  -1 -27    3.57    0.71
  -4  -1 -27    3.78    0.55
   4  -2 -27    9.01    1.04
  -4   2  27    7.71    0.93
  -4   2  27    6.69    0.92
   3  -2 -27  -16.06   11.59
   3  -2 -27    2.08    0.57
  -3   2  27   -0.54    7.15
   2  -2 -27    4.31    5.82
   2  -2 -27    1.34    0.56
   2  -2 -27    1.51    0.39
  -2   2  27    3.03    5.56
  -2   2  27    1.63    0.30
   1  -2 -27   10.42    5.15
   1  -2 -27   14.85    1.03
   1  -2 -27   13.50    0.79
  -1   2  27   12.31    0.88
  -1   2  27   12.52    0.68
  -1   2  27   12.00    4.94
  -1   2  27   13.34    0.96
   0  -2 -27    9.30    0.87
   0  -2 -27    7.09    0.59
   0  -2 -27    7.87    4.43
   0   2  27    6.61    0.71
   0   2  27    7.83    0.65
   0   2  27    7.81    0.48
  -1  -2 -27   12.58    0.96
  -1  -2 -27   12.30    0.78
   1   2  27   11.93    0.60
   1   2  27   12.55    0.74
   1   2  27   13.01    0.77
  -2  -2 -27    0.77    0.52
  -2  -2 -27    1.21    0.38
   2   2  27    1.11    0.20
   2   2  27    1.56    0.25
   2   2  27    1.31    0.28
  -3  -2 -27    2.76    0.49
  -3  -2 -27    0.85    0.56
  -4  -2 -27    6.71    0.83
  -4  -2 -27    7.17    0.92
   3  -3 -27    1.15    0.60
   3  -3 -27   -0.38    0.43
  -3   3  27    1.01    0.39
  -3   3  27    0.55    0.42
   2  -3 -27    4.57    0.67
   2  -3 -27    2.98    0.47
   2  -3 -27   13.95    6.69
  -2   3  27    1.81    5.69
  -2   3  27    2.92    0.39
   1  -3 -27    4.52    0.55
   1  -3 -27    3.65    0.63
   1  -3 -27    6.35    5.56
  -1   3  27    4.54    0.46
  -1   3  27   -2.81    4.93
  -1   3  27    2.95    0.58
   0  -3 -27    0.14    0.32
   0  -3 -27    0.49    0.50
   0  -3 -27   -1.71    5.28
   0   3  27    0.62    0.25
   0   3  27    1.22    0.45
   0   3  27    0.29    0.41
  -1  -3 -27    4.30    0.67
  -1  -3 -27    3.52    0.48
   1   3  27    4.03    0.48
   1   3  27    3.80    0.51
   1   3  27    4.36    0.41
  -2  -3 -27    3.04    0.51
  -2  -3 -27    3.97    0.66
   2   3  27    4.07    0.64
   2   3  27    3.10    0.34
  -3  -3 -27    0.65    0.56
  -3  -3 -27    0.35    0.44
   3  -4 -27    6.88    0.82
   3  -4 -27    8.97    1.03
  -3   4  27    7.97    0.72
   2  -4 -27    0.44    0.57
   2  -4 -27    1.50    0.45
  -2   4  27    0.93    0.37
   1  -4 -27   -8.97    6.23
   1  -4 -27    2.61    0.49
   1  -4 -27    2.64    0.62
  -1   4  27    3.57    0.45
  -1   4  27    2.83    6.93
   0  -4 -27   18.02    1.03
   0  -4 -27   17.18    1.19
   0   4  27   17.18    1.13
   0   4  27   20.34    0.93
  -1  -4 -27    2.74    0.48
  -1  -4 -27    4.03    0.65
   1   4  27    3.29    0.53
   1   4  27    2.68    0.39
  -2  -4 -27    1.82    0.51
  -2  -4 -27    1.42    0.58
   2   4  27    1.13    0.41
  -3  -4 -27    8.55    1.13
  -3  -4 -27    9.87    1.00
   2  -5 -27   17.01    1.27
   2  -5 -27   15.82    1.13
  -2   5  27   19.04    1.01
   1  -5 -27    1.14    0.65
   1  -5 -27    1.26    0.49
   0  -5 -27    8.11    0.96
   0  -5 -27    9.20    0.81
   0   5  27    8.65    0.70
   0   5  27    7.29    0.92
  -1  -5 -27    1.16    0.50
  -1  -5 -27   -0.27    0.57
   1   5  27    1.05    0.40
  -2  -5 -27   15.60    1.29
  -2  -5 -27   16.21    1.10
   2   5  27   16.76    0.95
   1  -6 -27    2.32    0.79
  -1   6  27    3.49    0.59
   0  -6 -27    1.12    0.87
   0   6  27    1.89    0.49
   1   6  27    2.61    0.55
   2   5 -28    6.18    0.76
   1   5 -28    1.06    0.51
   1   5 -28    1.28    0.66
   1   5 -28    1.87    0.79
   0   5 -28    0.17    0.43
   0   5 -28    0.54    0.71
   0   5 -28    0.57    0.62
  -1   5 -28    1.60    0.44
  -1   5 -28    1.16    0.75
  -1   5 -28    0.74    0.57
  -2   5 -28    7.19    0.82
  -2   5 -28    5.53    0.96
   2   4 -28    2.71    0.66
   2   4 -28    2.57    0.55
   2   4 -28    2.77    0.77
   1   4 -28    1.25    0.45
   1   4 -28    0.31    0.61
   1   4 -28    0.77    0.54
   0   4 -28    0.63    0.48
   0   4 -28    0.94    0.40
   0   4 -28   -0.09    0.54
   0   4 -28    0.06    0.50
  -1   4 -28    0.32    0.59
  -1   4 -28    0.79    0.47
  -1   4 -28    1.16    0.45
  -2   4 -28    2.41    0.38
  -2   4 -28    1.64    0.68
  -2   4 -28    2.68    0.57
   3   3 -28    2.27    0.70
   3   3 -28    2.72    0.60
   3   3 -28    2.02    0.70
  -3  -3  28    2.40    0.40
   2   3 -28   10.13    1.07
   2   3 -28    8.61    0.86
   2   3 -28   10.55    0.95
  -2  -3  28   10.58    1.11
   1   3 -28    1.26    0.55
   1   3 -28    1.25    0.53
   1   3 -28    0.54    0.32
   1   3 -28    0.76    0.37
  -1  -3  28    0.85    0.18
   0   3 -28    0.21    0.48
   0   3 -28    0.40    0.47
   0   3 -28    0.21    0.34
   0   3 -28   -0.08    0.41
   0   3 -28   -0.24    0.26
  -1   3 -28    0.75    0.29
  -1   3 -28    0.79    0.35
  -1   3 -28    0.84    0.57
  -1   3 -28    0.75    0.41
  -1   3 -28    0.68    0.39
   1  -3  28    1.77    0.43
  -2   3 -28    9.69    0.92
  -2   3 -28    9.80    0.62
  -2   3 -28    9.37    0.78
  -2   3 -28    8.42    0.73
  -2   3 -28    9.56    0.99
  -3   3 -28    3.04    0.48
  -3   3 -28    3.34    0.73
   3   2 -28   -0.12    0.58
   3   2 -28    1.12    0.62
   3   2 -28    0.68    0.60
   3   2 -28    1.19    0.48
  -3  -2  28    0.43    0.34
   2   2 -28    3.27    0.53
   2   2 -28    3.68    0.56
   2   2 -28    3.90    0.65
   2   2 -28    3.79    0.64
  -2  -2  28    4.14    0.41
  -2  -2  28    2.64    0.50
   1   2 -28    2.14    0.41
   1   2 -28    1.58    0.38
   1   2 -28    2.45    0.55
   1   2 -28    2.16    0.57
  -1  -2  28    1.05    0.33
  -1  -2  28    1.77    0.23
   0   2 -28    8.51    0.92
   0   2 -28    8.53    0.63
   0   2 -28    9.29    0.65
   0   2 -28    9.08    0.78
   0   2 -28    8.54    0.73
   0  -2  28    6.95    0.73
  -1   2 -28    2.45    0.58
  -1   2 -28    1.31    0.36
  -1   2 -28    2.57    0.46
  -1   2 -28    1.80    0.34
  -1   2 -28    2.52    0.43
   1  -2  28    1.28    0.40
  -2   2 -28    3.74    0.48
  -2   2 -28    3.73    0.41
  -2   2 -28    3.83    0.65
  -2   2 -28    3.21    0.38
  -2   2 -28    3.00    0.43
  -3   2 -28    0.28    0.36
  -3   2 -28   -0.09    0.58
  -3   2 -28    0.40    0.29
   4   1 -28    7.91    0.93
  -4  -1  28    8.18    0.82
   3   1 -28    0.02    0.50
   3   1 -28   -0.42    0.56
   3   1 -28    0.37    0.47
  -3  -1  28    0.93    0.35
   2   1 -28    4.00    0.66
   2   1 -28    2.97    0.53
   2   1 -28    3.50    0.57
   2   1 -28    2.53    0.48
  -2  -1  28    3.20    0.52
  -2  -1  28    4.07    0.41
   1   1 -28    3.67    0.62
   1   1 -28    2.80    0.45
   1   1 -28    1.90    0.47
   1   1 -28    3.28    0.47
  -1  -1  28    3.24    0.33
  -1  -1  28    2.91    0.42
   0   1 -28    1.30    0.46
   0   1 -28    0.87    0.35
   0   1 -28    1.35    0.39
   0   1 -28    1.60    0.33
   0   1 -28    1.11    0.40
   0  -1  28    1.56    0.44
   0  -1  28    1.14    0.16
   0  -1  28    1.07    0.22
  -1   1 -28    4.30    0.63
  -1   1 -28    2.95    0.41
  -1   1 -28    3.71    0.50
  -1   1 -28    3.49    0.45
  -1   1 -28    3.75    0.47
   1  -1  28    2.55    0.41
  -2   1 -28    3.55    0.64
  -2   1 -28    3.55    0.40
  -2   1 -28    3.56    0.48
  -2   1 -28    3.62    0.47
  -2   1 -28    3.48    0.40
   2  -1  28    2.63    0.38
  -3   1 -28    0.57    0.58
  -3   1 -28    0.65    0.30
   4   0 -28    0.77    0.64
  -4   0  28   -0.12    0.48
  -4   0  28    0.17    0.46
   3   0 -28    1.97    0.49
   3   0 -28    1.40    0.61
  -3   0  28    1.09    0.38
  -3   0  28    1.98    0.43
   2   0 -28   19.77    1.18
   2   0 -28   19.50    1.21
   2   0 -28   22.81    1.15
   2   0 -28   20.52    1.26
  -2   0  28   22.35    0.97
  -2   0  28   21.28    1.15
   1   0 -28    5.46    0.65
   1   0 -28    6.42    0.77
   1   0 -28    5.67    0.68
   1   0 -28    7.89    0.66
  -1   0  28    8.09    0.66
  -1   0  28    9.02    0.78
  -1   0  28    7.82    0.47
   0   0 -28    0.82    0.35
   0   0 -28    0.45    0.42
   0   0 -28    0.01    0.33
   0   0 -28    0.94    0.31
   0   0 -28    0.15    0.32
   0   0  28    1.38    0.39
   0   0  28    0.36    0.17
  -1   0 -28    6.51    0.62
  -1   0 -28    7.88    0.59
  -1   0 -28    7.29    0.60
  -1   0 -28    7.10    0.83
  -1   0 -28    6.97    0.57
   1   0  28    8.19    0.62
  -2   0 -28   22.18    1.06
  -2   0 -28   23.95    1.33
  -2   0 -28   22.05    1.04
   2   0  28   22.61    1.00
  -3   0 -28    1.25    0.34
  -3   0 -28    1.61    0.40
  -3   0 -28    3.11    0.69
  -4   0 -28    0.00    0.42
  -4   0 -28    0.52    0.63
  -4   1  28   10.08    0.96
   3  -1 -28    0.38    0.47
   3  -1 -28   -0.18    0.55
  -3   1  28    0.76    0.39
  -3   1  28    0.13    0.32
   2  -1 -28    2.98    0.48
   2  -1 -28    3.12    0.61
   2  -1 -28    2.40    6.86
  -2   1  28    3.79    0.46
   1  -1 -28    3.17    0.44
   1  -1 -28    3.85    0.60
   1  -1 -28    3.88    0.61
  -1   1  28    3.29    0.38
  -1   1  28    4.16    0.61
  -1   1  28    4.22    0.53
   0  -1 -28    0.40    0.46
   0  -1 -28    1.45    0.38
   0  -1 -28    0.76    0.36
   0   1  28    1.05    0.37
   0   1  28    1.23    0.23
   0   1  28    0.88    0.40
  -1  -1 -28    4.33    0.52
  -1  -1 -28    3.12    0.42
  -1  -1 -28    3.22    0.58
   1   1  28    3.88    0.41
   1   1  28    3.40    0.43
   1   1  28    3.26    0.29
  -2  -1 -28    2.76    0.59
  -2  -1 -28    4.29    0.51
  -2  -1 -28    2.58    0.41
   2   1  28    3.33    0.46
  -3  -1 -28   -0.91    0.53
  -3  -1 -28    0.31    0.53
  -3  -1 -28    0.28    0.37
  -4  -1 -28    7.75    0.91
   3  -2 -28    0.10    0.61
   3  -2 -28    0.36    0.45
  -3   2  28    0.39    0.45
  -3   2  28   -0.12    0.36
   2  -2 -28    4.22    0.70
   2  -2 -28    3.13    0.49
   2  -2 -28    3.99    6.33
  -2   2  28    4.24    0.48
   1  -2 -28    7.46    8.94
   1  -2 -28    1.60    0.40
   1  -2 -28    1.79    0.56
  -1   2  28    2.22    0.52
  -1   2  28    1.31    0.29
  -1   2  28    2.27    0.57
   0  -2 -28    9.43    0.90
   0  -2 -28    9.14    0.72
   0   2  28    9.14    0.81
   0   2  28    9.90    0.65
   0   2  28   11.04    0.79
  -1  -2 -28    1.36    0.39
  -1  -2 -28    2.16    0.59
   1   2  28    2.70    0.40
   1   2  28    1.20    0.38
   1   2  28    1.52    0.26
  -2  -2 -28    2.60    0.60
  -2  -2 -28    3.82    0.49
   2   2  28    2.43    0.31
  -3  -2 -28   -0.62    0.53
  -3  -2 -28   -0.53    0.43
   3  -3 -28    2.74    0.63
   3  -3 -28    2.43    0.68
  -3   3  28    2.73    0.46
   2  -3 -28    3.20    7.23
   2  -3 -28    9.82    0.77
   2  -3 -28    9.99    0.96
  -2   3  28    8.50    0.67
   1  -3 -28    1.10    0.38
   1  -3 -28    0.85    0.53
  -1   3  28    1.15    0.30
   0  -3 -28   -0.10    0.48
   0  -3 -28   -0.04    0.37
   0   3  28    0.45    0.47
   0   3  28   -0.37    0.24
   0   3  28    0.51    0.46
  -1  -3 -28    1.28    0.54
  -1  -3 -28    0.47    0.37
   1   3  28    0.93    0.32
   1   3  28    0.49    0.41
   1   3  28    0.67    0.37
  -2  -3 -28    9.65    0.96
  -2  -3 -28    8.95    0.82
   2   3  28    9.40    0.58
  -3  -3 -28    2.08    0.70
  -3  -3 -28    2.73    0.59
   2  -4 -28    1.79    0.55
   2  -4 -28    2.44    0.67
  -2   4  28    2.69    0.45
   1  -4 -28    0.03    0.55
   1  -4 -28    0.30    0.46
  -1   4  28    0.30    0.35
   0  -4 -28   -0.02    0.40
   0  -4 -28    1.11    0.56
   0   4  28    0.82    0.33
   0   4  28   -0.47    0.49
  -1  -4 -28    0.50    0.56
  -1  -4 -28    0.42    0.42
   1   4  28    0.32    0.33
   1   4  28   -0.49    0.47
  -2  -4 -28    1.98    0.53
  -2  -4 -28    1.90    0.66
   2   4  28    2.04    0.41
   2  -5 -28    6.01    0.88
  -2   5  28    5.80    0.68
   1  -5 -28    2.00    0.59
   1  -5 -28    2.32    0.75
   0  -5 -28    0.04    0.47
   0  -5 -28    0.91    0.65
   0   5  28    0.73    0.40
  -1  -5 -28    1.38    0.52
  -1  -5 -28    1.24    0.71
   1   5  28    1.23    0.44
  -2  -5 -28    4.92    0.78
   2   5  28    6.90    0.73
   1   5 -29    8.67    0.93
   1   5 -29    7.79    0.98
   0   5 -29    3.63    0.60
   0   5 -29    3.36    1.41
   0   5 -29    4.00    0.78
  -1   5 -29    7.10    0.75
  -1   5 -29    9.08    1.05
  -1   5 -29    6.12    1.14
   2   4 -29    1.98    0.55
   2   4 -29    1.01    0.71
   2   4 -29    0.97    0.74
   1   4 -29    1.02    0.50
   1   4 -29   -0.26    0.56
   1   4 -29    1.55    0.69
   0   4 -29   14.91    1.29
   0   4 -29   13.37    1.08
   0   4 -29   14.42    0.91
  -1   4 -29    0.30    0.67
  -1   4 -29    1.18    0.55
  -1   4 -29    1.52    0.41
  -2   4 -29    0.51    0.54
  -2   4 -29   -0.63    0.70
   3   3 -29   10.09    1.34
   3   3 -29   10.26    1.42
  -3  -3  29   10.80    0.73
   2   3 -29   -0.54    0.58
   2   3 -29    1.31    0.53
   2   3 -29    0.55    0.58
   1   3 -29    2.84    0.58
   1   3 -29    1.95    0.65
   1   3 -29    2.37    0.47
   0   3 -29    6.51    0.82
   0   3 -29    4.91    0.67
   0   3 -29    4.27    0.67
   0   3 -29    5.52    0.64
   0   3 -29    5.80    0.88
  -1   3 -29    2.58    0.41
  -1   3 -29    3.21    0.55
  -1   3 -29    2.01    0.65
  -1   3 -29    3.08    0.51
   1  -3  29    2.60    0.59
  -2   3 -29   -0.05    0.31
  -2   3 -29    0.53    0.68
  -2   3 -29   -0.32    0.42
  -3   3 -29   13.29    1.31
   3   2 -29    2.41    0.63
   3   2 -29    1.45    0.69
   3   2 -29    1.47    0.73
  -3  -2  29    2.16    0.40
   2   2 -29    4.93    0.70
   2   2 -29    3.94    0.75
   2   2 -29    4.49    0.59
   2   2 -29    4.04    0.57
  -2  -2  29    3.52    0.52
  -2  -2  29    4.10    0.45
   1   2 -29    4.67    0.57
   1   2 -29    2.86    0.47
   1   2 -29    4.22    0.61
   1   2 -29    3.76    0.68
  -1  -2  29    3.43    0.32
   0   2 -29    0.65    0.50
   0   2 -29    0.83    0.48
   0   2 -29    0.53    0.34
   0   2 -29    0.72    0.35
   0   2 -29    0.85    0.46
   0  -2  29    0.87    0.74
  -1   2 -29    3.13    0.63
  -1   2 -29    3.61    0.43
  -1   2 -29    4.31    0.55
  -1   2 -29    3.55    0.55
  -1   2 -29    3.88    0.48
   1  -2  29    3.92    0.54
  -2   2 -29    4.19    0.46
  -2   2 -29    4.35    0.52
  -2   2 -29    4.90    0.51
  -2   2 -29    4.39    0.71
  -2   2 -29    4.82    0.63
  -3   2 -29    1.68    0.70
  -3   2 -29    2.43    0.43
   3   1 -29    0.39    0.61
   3   1 -29    0.83    0.57
   3   1 -29    0.16    0.46
  -3  -1  29    1.22    0.37
   2   1 -29   10.45    0.97
   2   1 -29    6.17    0.76
   2   1 -29    9.15    0.92
  -2  -1  29    8.73    0.58
  -2  -1  29    8.25    0.84
   1   1 -29    7.78    0.72
   1   1 -29    6.41    0.82
   1   1 -29    6.57    0.77
   1   1 -29    7.14    0.68
  -1  -1  29    6.46    0.44
  -1  -1  29    6.11    0.61
   0   1 -29    7.05    0.70
   0   1 -29    6.75    0.84
   0   1 -29    6.76    0.65
   0   1 -29    7.66    0.65
   0   1 -29    7.35    0.79
   0  -1  29    6.93    0.42
   0  -1  29    7.82    0.37
   0  -1  29    6.87    0.73
  -1   1 -29    5.24    0.63
  -1   1 -29    6.88    0.56
  -1   1 -29    7.65    0.85
  -1   1 -29    5.56    0.61
  -1   1 -29    6.65    0.63
   1  -1  29    6.32    0.66
  -2   1 -29    8.74    0.67
  -2   1 -29    8.36    0.65
  -2   1 -29    9.89    0.71
  -2   1 -29    8.76    0.75
  -2   1 -29    8.36    0.92
  -3   1 -29    0.35    0.62
   3   0 -29    6.21    0.83
   3   0 -29    5.61    0.71
  -3   0  29    5.83    0.62
   2   0 -29    0.63    0.50
   2   0 -29    0.66    0.53
   2   0 -29    1.06    0.39
  -2   0  29    0.90    0.52
  -2   0  29    0.85    0.30
   1   0 -29   -0.07    0.39
   1   0 -29   -0.19    0.37
   1   0 -29    0.10    0.32
   1   0 -29    0.83    0.51
  -1   0  29    0.44    0.22
  -1   0  29    0.02    0.40
   0   0 -29   -0.03    0.34
   0   0 -29    0.31    0.33
   0   0 -29   -0.39    0.33
   0   0 -29    0.94    0.50
   0   0  29    0.14    0.18
   0   0  29    1.08    0.46
  -1   0 -29   -0.19    0.35
  -1   0 -29    0.27    0.31
  -1   0 -29    0.00    0.29
  -1   0 -29   -0.08    0.49
  -1   0 -29    0.21    0.36
   1   0  29    0.16    0.34
  -2   0 -29    0.97    0.34
  -2   0 -29    1.14    0.35
  -2   0 -29    0.32    0.54
  -3   0 -29    6.74    0.92
  -3   0 -29    6.72    0.71
  -3   0 -29    6.73    0.63
   3  -1 -29    0.14    0.62
   3  -1 -29    0.94    0.54
  -3   1  29    0.89    0.38
   2  -1 -29   11.00    1.04
   2  -1 -29    8.26    0.73
  -2   1  29   10.10    0.64
   1  -1 -29    7.24    0.64
   1  -1 -29    6.63    0.85
  -1   1  29    7.68    0.50
  -1   1  29    6.92    0.74
   0  -1 -29    6.92    0.82
   0  -1 -29    7.66    0.68
   0   1  29    7.84    0.65
   0   1  29    6.35    0.75
   0   1  29    7.61    0.47
  -1  -1 -29    7.07    0.64
  -1  -1 -29    8.19    0.90
   1   1  29    6.04    0.39
   1   1  29    6.57    0.63
  -2  -1 -29   10.74    0.75
  -2  -1 -29    9.68    1.05
  -3  -1 -29    0.92    0.65
  -3  -1 -29    0.74    0.43
   3  -2 -29    2.15    0.59
   3  -2 -29    1.19    0.67
  -3   2  29    1.99    0.46
   2  -2 -29    4.12    0.78
   2  -2 -29    4.32    0.55
  -2   2  29    4.50    0.54
   1  -2 -29    3.10    0.66
   1  -2 -29    3.69    0.53
  -1   2  29    4.16    0.45
  -1   2  29    4.24    0.59
   0  -2 -29    1.06    0.56
   0  -2 -29    1.15    0.41
   0   2  29    0.77    0.32
   0   2  29    1.29    0.46
   0   2  29    0.72    0.46
  -1  -2 -29    3.80    0.66
  -1  -2 -29    3.10    0.48
   1   2  29    2.89    0.46
   1   2  29    3.38    0.46
   1   2  29    3.11    0.38
  -2  -2 -29    3.07    0.69
  -2  -2 -29    3.94    0.54
  -3  -2 -29    1.63    0.70
  -3  -2 -29    1.32    0.51
   3  -3 -29   12.34    1.21
  -3   3  29   11.09    0.88
   2  -3 -29   -0.60    0.58
   2  -3 -29    0.27    0.49
  -2   3  29   -0.37    0.33
   1  -3 -29    3.39    0.72
   1  -3 -29    2.07    0.46
  -1   3  29    2.96    0.40
   0  -3 -29    5.09    0.58
   0  -3 -29    4.82    0.72
   0   3  29    5.44    0.50
   0   3  29    5.62    0.69
   0   3  29    4.61    0.62
  -1  -3 -29    2.71    0.65
  -1  -3 -29    1.93    0.52
   1   3  29    3.50    0.53
  -2  -3 -29   -0.26    0.57
  -2  -3 -29   -0.52    0.45
  -3  -3 -29   11.05    1.01
  -3  -3 -29    9.49    1.13
   2  -4 -29    1.21    0.68
   2  -4 -29   -0.32    0.81
  -2   4  29    0.78    0.39
   1  -4 -29    1.24    0.55
   1  -4 -29    1.01    0.63
   0  -4 -29   12.81    1.19
   0  -4 -29   11.25    0.88
   0   4  29   12.83    0.78
   0   4  29   13.37    1.06
  -1  -4 -29    0.57    0.62
  -1  -4 -29    0.90    0.48
   1   4  29    1.45    0.84
   1   4  29    0.83    0.37
  -2  -4 -29    0.28    0.68
  -2  -4 -29    1.10    0.54
   2   4  29    0.12    0.43
   1  -5 -29    7.15    1.03
  -1   5  29    7.25    0.69
   0  -5 -29    3.50    0.75
   0  -5 -29    3.74    1.16
   0   5  29    4.38    0.54
  -1  -5 -29    8.77    1.31
   1   5  29    7.67    0.74
   1   4 -30    1.84    0.54
   1   4 -30    1.15    0.67
   1   4 -30    1.00    0.81
   0   4 -30    3.44    0.69
   0   4 -30    2.62    0.78
   0   4 -30    2.99    0.56
  -1   4 -30    2.49    0.46
  -1   4 -30    1.15    0.61
  -1   4 -30    2.95    0.79
   2   3 -30    2.97    0.86
   2   3 -30    5.66    0.81
   2   3 -30    4.56    0.69
  -2  -3  30    4.66    0.51
   1   3 -30    0.36    0.47
   1   3 -30    1.69    0.75
   1   3 -30    0.73    0.59
   0   3 -30    1.59    0.64
   0   3 -30    0.75    0.43
   0   3 -30    1.16    0.54
  -1   3 -30    1.21    0.40
  -1   3 -30    0.26    0.48
  -1   3 -30    0.35    0.49
  -1   3 -30    0.76    0.64
  -2   3 -30    3.51    0.76
  -2   3 -30    3.79    0.60
   3   2 -30   12.99    1.32
  -3  -2  30   10.98    0.79
   2   2 -30    6.58    0.89
   2   2 -30    5.54    0.70
   2   2 -30    5.76    0.83
  -2  -2  30    6.96    0.53
   1   2 -30    3.69    0.65
   1   2 -30    3.36    0.54
   1   2 -30    3.93    0.72
   1   2 -30    2.42    0.50
  -1  -2  30    3.36    0.33
   0   2 -30    1.33    0.61
   0   2 -30    0.87    0.39
   0   2 -30    0.16    0.44
   0   2 -30    0.16    0.36
  -1   2 -30    2.97    0.43
  -1   2 -30    2.43    0.64
  -1   2 -30    2.84    0.51
  -1   2 -30    3.74    0.54
  -1   2 -30    3.09    0.44
   1  -2  30    2.58    0.51
  -2   2 -30    8.54    1.04
  -2   2 -30    6.69    0.79
  -2   2 -30    6.49    0.60
  -3   2 -30   12.03    1.25
   3   1 -30    5.56    0.81
   3   1 -30    4.82    0.81
   3   1 -30    3.30    0.80
  -3  -1  30    5.08    0.59
   2   1 -30    4.32    0.81
   2   1 -30    4.47    0.68
   2   1 -30    3.09    0.54
   2   1 -30    4.26    0.69
  -2  -1  30    4.20    0.60
  -2  -1  30    4.27    0.47
   1   1 -30    9.69    0.99
   1   1 -30    9.20    0.81
   1   1 -30   10.83    0.76
   1   1 -30   10.65    0.92
  -1  -1  30   10.89    0.55
  -1  -1  30    9.36    0.83
   0   1 -30    0.19    0.34
   0   1 -30   -0.08    0.40
   0   1 -30    0.73    0.57
   0   1 -30   -0.14    0.38
   0  -1  30    0.41    0.19
   0  -1  30    0.18    0.45
  -1   1 -30    9.90    0.76
  -1   1 -30    9.40    0.70
  -1   1 -30    9.94    0.77
  -1   1 -30   10.87    0.77
  -1   1 -30   10.15    0.98
   1  -1  30   10.76    0.79
  -2   1 -30    4.35    0.49
  -2   1 -30    4.17    0.56
  -2   1 -30    4.32    0.48
  -2   1 -30    3.03    0.69
  -3   1 -30    5.75    0.88
  -3   1 -30    5.13    0.55
   3   0 -30    1.83    0.71
   3   0 -30    1.23    0.69
  -3   0  30    1.12    0.41
   2   0 -30    2.82    0.63
   2   0 -30    4.15    0.75
   2   0 -30    3.71    0.55
  -2   0  30    4.02    0.48
   1   0 -30    2.41    0.64
   1   0 -30    1.95    0.47
   1   0 -30    2.28    0.52
  -1   0  30    2.35    0.47
   0   0 -30    1.12    0.43
   0   0 -30    1.85    0.42
   0   0 -30    2.07    0.58
   0   0 -30    2.22    0.46
   0   0  30    2.00    0.50
   0   0  30    1.38    0.23
  -1   0 -30    1.42    0.38
  -1   0 -30    0.85    0.59
  -1   0 -30    1.67    0.39
   1   0  30    0.94    0.41
  -2   0 -30    2.62    0.69
  -2   0 -30    3.12    0.45
  -3   0 -30    1.57    0.45
  -3   0 -30    2.36    0.72
   3  -1 -30    6.23    0.89
  -3   1  30    4.00    0.51
   2  -1 -30    4.86    0.80
   2  -1 -30    3.59    0.59
  -2   1  30    3.31    0.42
   1  -1 -30    9.69    0.74
   1  -1 -30    8.40    0.96
  -1   1  30    9.27    0.81
  -1   1  30   11.10    0.60
   0  -1 -30    0.54    0.53
   0  -1 -30    0.04    0.38
   0   1  30    1.01    0.47
   0   1  30    0.18    0.37
   0   1  30    0.25    0.22
  -1  -1 -30   10.59    0.76
  -1  -1 -30    8.93    0.96
   1   1  30    9.11    0.52
   1   1  30   10.24    0.73
  -2  -1 -30    4.02    0.71
  -2  -1 -30    3.66    0.52
  -3  -1 -30    5.54    0.71
  -3  -1 -30    3.15    0.75
   3  -2 -30   12.50    1.24
  -3   2  30    9.87    0.84
   2  -2 -30    5.36    0.80
   2  -2 -30    6.13    0.79
  -2   2  30    5.19    0.59
   1  -2 -30    2.77    0.52
   1  -2 -30    3.68    0.73
  -1   2  30    2.47    0.38
   0  -2 -30    0.40    0.38
   0  -2 -30    0.40    0.52
   0   2  30   -0.24    0.43
   0   2  30    0.34    0.49
   0   2  30    0.32    0.27
  -1  -2 -30    3.32    0.52
  -1  -2 -30    4.10    0.68
   1   2  30    2.70    0.33
  -2  -2 -30    5.34    0.82
  -2  -2 -30    6.06    0.75
  -3  -2 -30   11.34    1.30
  -3  -2 -30   13.09    1.01
   2  -3 -30    3.36    0.62
   2  -3 -30    2.73    0.79
  -2   3  30    3.80    0.48
   1  -3 -30    1.11    0.65
   1  -3 -30   -0.26    0.42
  -1   3  30    1.27    0.36
   0  -3 -30    0.41    0.58
   0  -3 -30    1.06    0.46
   0   3  30    0.50    0.54
   0   3  30    1.68    0.59
   0   3  30   -0.23    0.32
  -1  -3 -30    0.30    0.59
  -1  -3 -30    1.15    0.49
   1   3  30    1.29    0.41
  -2  -3 -30    5.21    0.87
  -2  -3 -30    3.53    0.63
   1  -4 -30    2.30    0.75
   1  -4 -30    0.93    0.56
   0  -4 -30    3.22    0.83
   0  -4 -30    2.95    0.62
   0   4  30    3.94    0.51
  -1  -4 -30    1.03    0.58
  -1  -4 -30    1.40    0.75
   1   4  30    1.24    0.42
   0   4 -31    7.01    0.73
   0   4 -31    7.00    0.87
   2   3 -31   11.51    1.06
   2   3 -31   10.43    1.16
   1   3 -31    0.65    0.51
   1   3 -31    0.31    0.63
   1   3 -31    0.89    0.72
   0   3 -31    0.54    0.43
   0   3 -31    1.90    0.61
   0   3 -31    0.93    0.75
  -1   3 -31    1.27    0.71
  -1   3 -31    0.99    0.53
  -1   3 -31    0.90    0.42
  -2   3 -31   13.08    1.15
  -2   3 -31   11.08    0.99
   2   2 -31    1.73    0.69
   2   2 -31    2.80    0.85
   2   2 -31    1.90    0.60
  -2  -2  31    1.85    0.34
   1   2 -31   11.76    0.93
   1   2 -31   11.71    1.23
   1   2 -31   12.88    1.07
   0   2 -31    0.45    0.39
   0   2 -31    1.07    0.60
   0   2 -31    0.21    0.48
  -1   2 -31   11.24    0.79
  -1   2 -31   11.92    0.95
  -1   2 -31   13.35    1.23
   1  -2  31   12.80    0.93
  -2   2 -31    2.05    0.48
  -2   2 -31    2.30    0.43
  -2   2 -31    3.38    0.79
   2   1 -31    2.83    0.76
   2   1 -31    3.55    0.61
   2   1 -31    3.78    0.73
  -2  -1  31    3.31    0.40
   1   1 -31    2.44    0.58
   1   1 -31    2.30    0.69
   1   1 -31    2.58    0.52
   1   1 -31    2.28    0.55
  -1  -1  31    2.75    0.35
   0   1 -31    0.52    0.40
   0   1 -31    1.00    0.47
   0   1 -31    0.69    0.60
   0   1 -31    0.40    0.44
  -1   1 -31    2.58    0.49
  -1   1 -31    2.22    0.66
  -1   1 -31    2.06    0.48
  -1   1 -31    2.08    0.42
   1  -1  31    2.79    0.49
  -2   1 -31    2.56    0.46
  -2   1 -31    2.88    0.72
  -2   1 -31    3.09    0.46
   2   0 -31    1.01    0.67
   2   0 -31    0.09    0.49
  -2   0  31   -0.61    0.30
   1   0 -31    4.20    0.57
   1   0 -31    3.46    0.62
   1   0 -31    4.19    0.75
  -1   0  31    3.84    0.43
   0   0 -31    1.35    0.45
   0   0 -31    1.54    0.60
   0   0 -31    1.24    0.39
   0   0  31    0.27    0.48
  -1   0 -31    3.06    0.48
  -1   0 -31    4.84    0.79
  -2   0 -31   -0.02    0.40
  -2   0 -31   -0.44    0.58
   2  -1 -31    2.51    0.56
   2  -1 -31    2.16    0.73
  -2   1  31    3.29    0.44
   1  -1 -31    2.77    0.66
   1  -1 -31    3.81    0.53
  -1   1  31    2.33    0.35
  -1   1  31    2.23    0.53
   0  -1 -31    0.20    0.57
   0  -1 -31    1.69    0.45
   0   1  31    0.63    0.26
   0   1  31    0.44    0.50
  -1  -1 -31    2.78    0.67
  -1  -1 -31    2.34    0.47
  -2  -1 -31    2.88    0.52
  -2  -1 -31    3.68    0.78
   2  -2 -31    3.01    0.64
   2  -2 -31    1.89    0.80
  -2   2  31    1.83    0.41
   1  -2 -31   12.90    1.16
   1  -2 -31    9.85    0.84
  -1   2  31   12.07    0.71
   0  -2 -31    0.47    0.65
   0  -2 -31    0.87    0.43
   0   2  31    0.78    0.30
   0   2  31    0.34    0.54
  -1  -2 -31   13.15    1.20
  -1  -2 -31   11.94    0.90
  -2  -2 -31    2.50    0.53
  -2  -2 -31    2.30    0.74
   2  -3 -31   10.50    1.24
  -2   3  31   10.13    0.80
   1  -3 -31    0.84    0.51
   1  -3 -31    0.11    0.65
   0  -3 -31    0.75    0.69
   0  -3 -31    0.38    0.44
   0   3  31    0.24    0.34
  -1  -3 -31    0.00    0.74
  -1  -3 -31    0.32    0.45
   1   3  31   -0.01    0.34
  -2  -3 -31   10.00    0.91
   0   4  31    7.91    0.69
   1   3 -32    0.44    0.66
   1   3 -32    0.18    0.53
   0   3 -32    0.21    0.50
   0   3 -32    1.02    0.63
  -1   3 -32    0.23    0.44
  -1   3 -32    0.05    0.60
   1   2 -32    6.68    0.86
   1   2 -32    5.33    0.91
   1   2 -32    6.52    0.75
   0   2 -32    8.57    1.16
   0   2 -32    9.63    0.85
   0   2 -32    9.26    0.97
  -1   2 -32    6.15    0.95
  -1   2 -32    6.76    0.85
  -1   2 -32    7.02    0.70
   2   1 -32    3.84    0.63
   2   1 -32    2.10    0.71
   2   1 -32    2.23    0.84
  -2  -1  32    3.32    0.42
   1   1 -32    2.78    0.53
   1   1 -32    2.61    0.62
   1   1 -32    3.64    0.79
   0   1 -32   31.14    1.71
   0   1 -32   30.25    1.43
   0   1 -32   28.77    1.52
  -1   1 -32    3.10    0.50
  -1   1 -32    3.38    0.55
  -1   1 -32    3.42    0.79
  -2   1 -32    3.11    0.50
  -2   1 -32    2.09    0.76
   2   0 -32    2.00    0.85
   2   0 -32    0.75    0.59
  -2   0  32    2.08    0.37
   1   0 -32   22.65    1.53
   1   0 -32   26.05    1.28
   1   0 -32   24.25    1.40
  -1   0  32   24.90    1.08
   0   0 -32    2.72    0.53
   0   0 -32    4.31    0.62
   0   0 -32    3.27    0.74
  -1   0 -32   23.64    1.21
  -1   0 -32   24.36    1.58
  -2   0 -32    1.67    0.48
  -2   0 -32    1.16    0.75
   2  -1 -32    2.95    0.82
  -2   1  32    4.96    0.57
   1  -1 -32    3.16    0.79
   1  -1 -32    2.95    0.54
  -1   1  32    3.83    0.47
   0  -1 -32   28.47    1.42
   0  -1 -32   28.85    1.71
   0   1  32   30.13    1.19
  -1  -1 -32    3.34    0.52
  -1  -1 -32    2.17    0.78
  -2  -1 -32    3.32    0.82
  -2  -1 -32    3.84    0.59
   1  -2 -32    4.77    0.64
   1  -2 -32    7.18    1.06
   0  -2 -32   10.11    0.88
   0  -2 -32    9.12    1.15
   0   2  32    9.15    0.63
  -1  -2 -32    5.59    0.68
  -1  -2 -32    4.18    0.84
   0  -3 -32    0.97    0.57
   0   3  32    0.68    0.39
  -1  -3 -32    0.33    0.57
   0   2 -33    0.82    0.47
   0   2 -33    0.42    0.61
   1   1 -33   -0.44    0.50
   1   1 -33    0.59    0.64
   0   1 -33    3.90    0.58
   0   1 -33    3.38    0.66
  -1   1 -33   -0.06    0.44
  -1   1 -33   -0.81    0.46
   1   0 -33   25.73    1.87
   1   0 -33   21.99    1.31
   0   0 -33    0.44    0.71
   0   0 -33    0.69    0.50
  -1   0 -33   22.55    1.21
   1  -1 -33    0.63    0.50
   0  -1 -33    3.01    0.60
   0  -1 -33    4.06    1.14
  -1  -1 -33   -0.04    0.49
   0  -2 -33    0.42    0.53
   0   2  33    0.75    0.48
   0   0   0    0.00    0.00
;
_shelx_hkl_checksum              6910
loop_
_space_group_symop_operation_xyz
'x, y, z'
'-x+1/2, -y, z+1/2'
'x+1/2, -y+1/2, -z'
'-x, y+1/2, -z+1/2'
loop_
_atom_site_label
_atom_site_type_symbol
_atom_site_fract_x
_atom_site_fract_y
_atom_site_fract_z
_atom_site_U_iso_or_equiv
_atom_site_adp_type
_atom_site_occupancy
_atom_site_site_symmetry_order
_atom_site_calc_flag
_atom_site_refinement_flags_posn
_atom_site_refinement_flags_adp
C1 C 0.3822(2) 0.6241(3) 0.98309(6) 0.0223(3) Uani 1 1 d . .
C2 C 0.2223(2) 0.3044(3) 0.94997(6) 0.0191(3) Uani 1 1 d . .
H2A H 0.0987 0.3252 0.9545 0.023 Uiso 1 1 calc R U
H2B H 0.2474 0.1289 0.9446 0.023 Uiso 1 1 calc R U
C3 C 0.28901(19) 0.4620(3) 0.90296(6) 0.0158(3) Uani 1 1 d . .
C4 C 0.1433(2) 0.5575(4) 0.86809(7) 0.0275(4) Uani 1 1 d . .
H4A H 0.1882 0.6773 0.8432 0.041 Uiso 1 1 d R U
H4B H 0.0928 0.4206 0.8489 0.041 Uiso 1 1 d R U
H4C H 0.0569 0.6353 0.8900 0.041 Uiso 1 1 d R U
C5 C 0.43301(19) 0.3317(3) 0.87146(6) 0.0140(3) Uani 1 1 d . .
H5 H 0.3821 0.1846 0.8544 0.017 Uiso 1 1 calc R U
C6 C 0.58154(19) 0.2403(3) 0.90684(6) 0.0170(3) Uani 1 1 d . .
H6A H 0.6320 0.3809 0.9256 0.020 Uiso 1 1 calc R U
H6B H 0.5373 0.1242 0.9332 0.020 Uiso 1 1 calc R U
C7 C 0.7175(2) 0.1139(3) 0.87383(6) 0.0191(3) Uani 1 1 d . .
H7 H 0.7881 -0.0029 0.8905 0.023 Uiso 1 1 calc R U
C8 C 0.7439(2) 0.1588(3) 0.82167(6) 0.0180(3) Uani 1 1 d . .
C9 C 0.64647(19) 0.3623(3) 0.79521(6) 0.0166(3) Uani 1 1 d . .
C10 C 0.5092(2) 0.4951(3) 0.82725(6) 0.0196(3) Uani 1 1 d . .
H10A H 0.4172 0.5473 0.8035 0.024 Uiso 1 1 calc R U
H10B H 0.5588 0.6439 0.8431 0.024 Uiso 1 1 calc R U
C11 C 0.8723(2) 0.0172(4) 0.78868(7) 0.0270(4) Uani 1 1 d . .
H11A H 0.9361 -0.0948 0.8111 0.041 Uiso 1 1 d R U
H11B H 0.8126 -0.0765 0.7617 0.041 Uiso 1 1 d R U
H11C H 0.9505 0.1324 0.7720 0.041 Uiso 1 1 d R U
O1 O 0.4525(2) 0.7585(3) 1.01424(5) 0.0392(4) Uani 1 1 d . .
O2 O 0.36272(16) 0.6771(2) 0.93118(4) 0.0197(2) Uani 1 1 d . .
O3 O 0.31530(16) 0.4011(2) 0.99543(4) 0.0223(3) Uani 1 1 d . .
O4 O 0.67916(16) 0.4267(2) 0.74954(4) 0.0247(3) Uani 1 1 d . .
loop_
_atom_site_aniso_label
_atom_site_aniso_U_11
_atom_site_aniso_U_22
_atom_site_aniso_U_33
_atom_site_aniso_U_23
_atom_site_aniso_U_13
_atom_site_aniso_U_12
C1 0.0288(8) 0.0216(8) 0.0166(7) -0.0028(6) 0.0011(6) -0.0005(7)
C2 0.0202(7) 0.0190(7) 0.0183(6) -0.0008(6) 0.0043(6) -0.0009(6)
C3 0.0184(7) 0.0153(7) 0.0138(6) -0.0019(5) -0.0001(5) 0.0007(6)
C4 0.0230(8) 0.0400(10) 0.0196(7) -0.0015(7) -0.0012(6) 0.0123(8)
C5 0.0157(6) 0.0140(6) 0.0123(6) -0.0007(5) 0.0001(5) 0.0007(5)
C6 0.0175(7) 0.0199(7) 0.0136(6) 0.0016(5) 0.0006(5) 0.0015(6)
C7 0.0173(7) 0.0211(7) 0.0189(7) 0.0013(6) -0.0010(6) 0.0038(6)
C8 0.0154(6) 0.0205(7) 0.0182(7) -0.0013(6) 0.0002(6) 0.0003(6)
C9 0.0188(7) 0.0156(7) 0.0153(6) -0.0007(5) 0.0002(5) -0.0033(6)
C10 0.0243(8) 0.0182(7) 0.0163(6) 0.0044(6) 0.0032(6) 0.0039(6)
C11 0.0247(8) 0.0336(9) 0.0227(8) 0.0001(7) 0.0054(7) 0.0090(7)
O1 0.0544(9) 0.0382(8) 0.0251(6) -0.0120(6) -0.0058(6) -0.0107(7)
O2 0.0294(6) 0.0134(5) 0.0165(5) -0.0019(4) 0.0012(4) -0.0003(5)
O3 0.0296(6) 0.0236(6) 0.0137(5) 0.0021(4) 0.0014(5) -0.0007(5)
O4 0.0328(6) 0.0257(6) 0.0155(5) 0.0012(4) 0.0052(5) -0.0022(5)
loop_
_atom_type_symbol
_atom_type_description
_atom_type_scat_dispersion_real
_atom_type_scat_dispersion_imag
_atom_type_scat_source
C C 0.0033 0.0016 'International Tables Vol C Tables 4.2.6.8 and 6.1.1.4'
H H 0.0000 0.0000 'International Tables Vol C Tables 4.2.6.8 and 6.1.1.4'
O O 0.0106 0.0060 'International Tables Vol C Tables 4.2.6.8 and 6.1.1.4'
loop_
_geom_angle_atom_site_label_1
_geom_angle_atom_site_label_2
_geom_angle_atom_site_label_3
_geom_angle
O1 C1 O3 124.33(16)
O1 C1 O2 123.93(17)
O3 C1 O2 111.73(13)
O3 C2 C3 103.91(12)
O3 C2 H2A 111.0
C3 C2 H2A 111.0
O3 C2 H2B 111.0
C3 C2 H2B 111.0
H2A C2 H2B 109.0
O2 C3 C4 107.57(13)
O2 C3 C5 108.83(13)
C4 C3 C5 113.43(12)
O2 C3 C2 101.09(12)
C4 C3 C2 112.15(14)
C5 C3 C2 112.85(13)
C3 C4 H4A 109.3
C3 C4 H4B 109.5
H4A C4 H4B 109.5
C3 C4 H4C 109.6
H4A C4 H4C 109.5
H4B C4 H4C 109.5
C10 C5 C6 108.22(13)
C10 C5 C3 113.09(13)
C6 C5 C3 113.13(12)
C10 C5 H5 107.4
C6 C5 H5 107.4
C3 C5 H5 107.4
C7 C6 C5 110.58(12)
C7 C6 H6A 109.5
C5 C6 H6A 109.5
C7 C6 H6B 109.5
C5 C6 H6B 109.5
H6A C6 H6B 108.1
C8 C7 C6 124.18(14)
C8 C7 H7 117.9
C6 C7 H7 117.9
C7 C8 C9 119.29(14)
C7 C8 C11 123.10(15)
C9 C8 C11 117.58(14)
O4 C9 C8 121.41(14)
O4 C9 C10 120.72(14)
C8 C9 C10 117.83(13)
C9 C10 C5 112.74(13)
C9 C10 H10A 109.0
C5 C10 H10A 109.0
C9 C10 H10B 109.0
C5 C10 H10B 109.0
H10A C10 H10B 107.8
C8 C11 H11A 109.5
C8 C11 H11B 109.4
H11A C11 H11B 109.5
C8 C11 H11C 109.5
H11A C11 H11C 109.5
H11B C11 H11C 109.5
C1 O2 C3 110.17(12)
C1 O3 C2 109.30(12)
loop_
_geom_bond_atom_site_label_1
_geom_bond_atom_site_label_2
_geom_bond_distance
C1 O1 1.194(2)
C1 O3 1.338(2)
C1 O2 1.3404(19)
C2 O3 1.4440(19)
C2 C3 1.539(2)
C2 H2A 0.9700
C2 H2B 0.9700
C3 O2 1.4680(19)
C3 C4 1.516(2)
C3 C5 1.534(2)
C4 H4A 0.9600
C4 H4B 0.9600
C4 H4C 0.9600
C5 C10 1.531(2)
C5 C6 1.533(2)
C5 H5 0.9800
C6 C7 1.501(2)
C6 H6A 0.9700
C6 H6B 0.9700
C7 C8 1.345(2)
C7 H7 0.9300
C8 C9 1.482(2)
C8 C11 1.500(2)
C9 O4 1.2222(18)
C9 C10 1.510(2)
C10 H10A 0.9700
C10 H10B 0.9700
C11 H11A 0.9600
C11 H11B 0.9600
C11 H11C 0.9600
loop_
_cod_related_entry_id
_cod_related_entry_database
_cod_related_entry_code
1 PubChem 168346423
