#------------------------------------------------------------------------------
#$Date: 2021-03-04 04:53:01 +0200 (Thu, 04 Mar 2021) $
#$Revision: 262444 $
#$URL: file:///home/coder/svn-repositories/cod/cif/4/51/84/4518484.cif $
#------------------------------------------------------------------------------
#
# This file is available in the Crystallography Open Database (COD),
# http://www.crystallography.net/
#
# All data on this site have been placed in the public domain by the
# contributors.
#
data_4518484
loop_
_publ_author_name
'Li, Yixing'
'Zhang, Xiao'
'Lan, Jianwen'
'Li, Dazhi'
'Wang, Zhijiang'
'Xu, Ping'
'Sun, Jianmin'
_publ_section_title
;
 A High-Performance Zinc-Organic Framework with Accessible Open Metal
 Sites Catalyzes CO2 and Styrene Oxide into Styrene Carbonate under Mild
 Conditions
;
_journal_issue                   7
_journal_name_full               'ACS Sustainable Chemistry &amp; Engineering'
_journal_page_first              2795
_journal_page_last               2803
_journal_paper_doi               10.1021/acssuschemeng.0c08466
_journal_volume                  9
_journal_year                    2021
_chemical_formula_sum            'C26 H45 N8 O30 Zn3.5'
_chemical_formula_weight         1178.49
_space_group_crystal_system      triclinic
_space_group_IT_number           2
_space_group_name_Hall           '-P 1'
_space_group_name_H-M_alt        'P -1'
_atom_sites_solution_hydrogens   mixed
_audit_creation_method           SHELXL-2018/3
_cell_angle_alpha                105.317(11)
_cell_angle_beta                 97.720(11)
_cell_angle_gamma                94.620(10)
_cell_formula_units_Z            1
_cell_length_a                   7.272(2)
_cell_length_b                   11.453(4)
_cell_length_c                   12.792(4)
_cell_measurement_reflns_used    9436
_cell_measurement_temperature    304(2)
_cell_measurement_theta_max      27.10
_cell_measurement_theta_min      2.85
_cell_volume                     1010.7(6)
_computing_structure_refinement  'SHELXL-2018/3 (Sheldrick, 2018)'
_diffrn_ambient_temperature      304(2)
_diffrn_measured_fraction_theta_full 0.981
_diffrn_measured_fraction_theta_max 0.981
_diffrn_measurement_device_type  'BRUKER SAMRT APEXII CCD'
_diffrn_radiation_type           MoK\a
_diffrn_radiation_wavelength     0.71073
_diffrn_reflns_av_R_equivalents  0.0309
_diffrn_reflns_av_unetI/netI     0.0316
_diffrn_reflns_Laue_measured_fraction_full 0.981
_diffrn_reflns_Laue_measured_fraction_max 0.981
_diffrn_reflns_limit_h_max       8
_diffrn_reflns_limit_h_min       -8
_diffrn_reflns_limit_k_max       13
_diffrn_reflns_limit_k_min       -13
_diffrn_reflns_limit_l_max       15
_diffrn_reflns_limit_l_min       -15
_diffrn_reflns_number            11104
_diffrn_reflns_point_group_measured_fraction_full 0.981
_diffrn_reflns_point_group_measured_fraction_max 0.981
_diffrn_reflns_theta_full        25.099
_diffrn_reflns_theta_max         25.099
_diffrn_reflns_theta_min         2.848
_exptl_absorpt_coefficient_mu    2.174
_exptl_absorpt_correction_T_max  0.7455
_exptl_absorpt_correction_T_min  0.5997
_exptl_absorpt_correction_type   multi-scan
_exptl_absorpt_process_details
;
 SADABS 2016/2: Krause, L., Herbst-Irmer, R., Sheldrick G.M. & Stalke D.,
 J. Appl. Cryst. 48 (2015) 3-10
;
_exptl_crystal_colour            colorless
_exptl_crystal_density_diffrn    1.936
_exptl_crystal_description       block
_exptl_crystal_F_000             602
_exptl_crystal_size_max          0.210
_exptl_crystal_size_mid          0.180
_exptl_crystal_size_min          0.160
_refine_diff_density_max         1.207
_refine_diff_density_min         -1.342
_refine_diff_density_rms         0.137
_refine_ls_extinction_method     none
_refine_ls_goodness_of_fit_ref   1.068
_refine_ls_hydrogen_treatment    mixed
_refine_ls_matrix_type           full
_refine_ls_number_parameters     368
_refine_ls_number_reflns         3543
_refine_ls_number_restraints     661
_refine_ls_restrained_S_all      3.661
_refine_ls_R_factor_all          0.0636
_refine_ls_R_factor_gt           0.0625
_refine_ls_shift/su_max          0.000
_refine_ls_shift/su_mean         0.000
_refine_ls_structure_factor_coef Fsqd
_refine_ls_weighting_details
'w=1/[\s^2^(Fo^2^)+(0.0853P)^2^+6.7699P] where P=(Fo^2^+2Fc^2^)/3'
_refine_ls_weighting_scheme      calc
_refine_ls_wR_factor_gt          0.1759
_refine_ls_wR_factor_ref         0.1765
_reflns_Friedel_coverage         0.000
_reflns_number_gt                3406
_reflns_number_total             3543
_reflns_threshold_expression     'I > 2\s(I)'
_cod_data_source_file            sc0c08466_si_002.cif
_cod_data_source_block           20190704C_0m
_cod_depositor_comments          'Adding full bibliography for 4518484.cif.'
_cod_original_formula_sum        'C26 H45 N8 O30 Zn3.50'
_cod_database_code               4518484
_shelx_shelxl_version_number     2018/3
_shelx_space_group_comment
;
The symmetry employed for this shelxl refinement is uniquely defined
by the following loop, which should always be used as a source of
symmetry information in preference to the above space-group names.
They are only intended as comments.
;
_shelx_estimated_absorpt_t_min   0.658
_shelx_estimated_absorpt_t_max   0.722
_shelx_res_file
;
TITL 20190929b_0u_a.res in P-1
    20190704C_0m.res
    created by SHELXL-2018/3 at 16:10:12 on 19-Aug-2020
REM Old TITL 20190929B_0u in P-1 #2
REM SHELXT solution in P-1: R1 0.290, Rweak 0.020, Alpha 0.064
REM <I/s> 0.000 for 0 systematic absences, Orientation as input
REM Formula found by SHELXT: Zn2 C34 N16 O15
REM #####
CELL 0.71073 7.2717 11.4535 12.7918 105.317 97.72 94.62
ZERR 1 0.0023 0.0035 0.0044 0.011 0.011 0.01
LATT 1
SFAC C H N O Zn
UNIT 26 45 8 30 3.5
SIMU 0.01 0.02 3
SADI Zn3 H15a Zn3 H15b
DFIX 0.9 0.001 O10 H10a O10 H10b
DFIX 1.4 0.001 H10a H10b
DFIX 0.9 0.01 O18 H18a O18 H18b
DFIX 1.4 0.01 H18a H18b

L.S. 5 0 3
PLAN  5
SIZE 0.16 0.18 0.21
TEMP 30.95
CONF
LIST 4
BOND
MORE -1
BOND $H
fmap 2
acta
OMIT -3 50.2

WGHT    0.085300    6.769899
FVAR       1.12352
ZN1   5    0.227673    0.331483    0.199759    11.00000    0.01911    0.02123 =
         0.03075    0.00749    0.00818    0.00169
O1    4   -0.273901    0.727721    0.489665    11.00000    0.03818    0.03982 =
         0.04661    0.01085    0.02195    0.01388
O2    4   -0.014509    0.811000    0.448681    11.00000    0.04119    0.02247 =
         0.04768    0.00460    0.01319    0.00154
O3    4   -0.245862    0.207535    0.298830    11.00000    0.03095    0.02559 =
         0.04358    0.01027    0.01397   -0.00295
O4    4    0.022354    0.213722    0.232021    11.00000    0.02805    0.02030 =
         0.03810    0.00595    0.01046    0.00223
O5    4    0.396242    0.218737    0.102709    11.00000    0.02268    0.02172 =
         0.03996    0.00905    0.00938    0.00229
O6    4    0.670715    0.222891    0.043894    11.00000    0.02721    0.02727 =
         0.04312    0.00862    0.01520    0.00898
O7    4    0.865832    0.745023    0.136154    11.00000    0.03624    0.03652 =
         0.04662    0.00333    0.02126   -0.00700
O8    4    0.626636    0.823136    0.212079    11.00000    0.03609    0.02766 =
         0.05005    0.00679    0.01729   -0.00222
O9    4    0.419899    0.320953    0.337012    11.00000    0.02730    0.04015 =
         0.03820    0.01765    0.01006    0.01030
AFIX   7
H9A   2    0.359777    0.296251    0.382377    11.00000   -1.50000
H9B   2    0.490316    0.264787    0.316851    11.00000   -1.50000
AFIX   0
O11   4    0.032310    0.333604    0.063026    11.00000    0.02029    0.04377 =
         0.03154    0.00790    0.00642    0.00118
AFIX   7
H11A  2    0.078237    0.308506    0.003116    11.00000   -1.50000
H11B  2   -0.064606    0.280863    0.054555    11.00000   -1.50000
AFIX   0
N1    3    0.092556    0.574963    0.365269    11.00000    0.02024    0.02087 =
         0.02407    0.00458    0.00718    0.00116
N2    3    0.092371    0.454218    0.318683    11.00000    0.02080    0.02048 =
         0.02821    0.00808    0.00582    0.00078
N3    3    0.409872    0.460506    0.154889    11.00000    0.02058    0.01954 =
         0.02700    0.00847    0.00727   -0.00029
N4    3    0.445929    0.582224    0.173572    11.00000    0.01991    0.01838 =
         0.02716    0.00583    0.00622    0.00212
C1    1   -0.123226    0.723231    0.452677    11.00000    0.02972    0.02389 =
         0.02643    0.00577    0.00471    0.00517
C2    1   -0.072680    0.596659    0.402305    11.00000    0.02267    0.02382 =
         0.02299    0.00871    0.00427    0.00362
C3    1   -0.181163    0.486394    0.379029    11.00000    0.01953    0.02439 =
         0.02369    0.00889    0.00648    0.00187
AFIX  43
H3    2   -0.300819    0.472028    0.394629    11.00000   -1.20000
AFIX   0
C4    1   -0.072838    0.400184    0.326726    11.00000    0.02066    0.02322 =
         0.02536    0.00935    0.00551    0.00126
C5    1   -0.103475    0.263823    0.282727    11.00000    0.02410    0.02094 =
         0.02785    0.00912    0.00564    0.00064
C6    1    0.542806    0.273795    0.085928    11.00000    0.02143    0.02260 =
         0.02625    0.00853    0.00483    0.00436
C7    1    0.556174    0.410009    0.117733    11.00000    0.01861    0.02147 =
         0.02147    0.00785    0.00640    0.00319
C8    1    0.692032    0.500418    0.112465    11.00000    0.01967    0.02705 =
         0.02447    0.00744    0.00594    0.00179
AFIX  43
H8A   2    0.807117    0.489850    0.089497    11.00000   -1.20000
AFIX   0
C9    1    0.618636    0.610227    0.149000    11.00000    0.02255    0.02419 =
         0.02352    0.00823    0.00427   -0.00123
C10   1    0.710290    0.736333    0.166258    11.00000    0.02597    0.02361 =
         0.02381    0.00573    0.00640   -0.00203
C11   1    0.292657    0.657970    0.192362    11.00000    0.02094    0.02403 =
         0.03281    0.01028    0.00697    0.00572
AFIX  23
H11C  2    0.174847    0.605394    0.166906    11.00000   -1.20000
H11D  2    0.296663    0.714506    0.147832    11.00000   -1.20000
AFIX   0
C12   1    0.295639    0.730788    0.311272    11.00000    0.02404    0.01916 =
         0.03755    0.00429    0.01314    0.00001
AFIX  23
H12A  2    0.413167    0.783654    0.336848    11.00000   -1.20000
H12B  2    0.196061    0.782447    0.313449    11.00000   -1.20000
AFIX   0
C13   1    0.272978    0.653961    0.389878    11.00000    0.02092    0.02213 =
         0.03165    0.00498    0.00413   -0.00068
AFIX  23
H13A  2    0.373451    0.603041    0.388479    11.00000   -1.20000
H13B  2    0.285830    0.707823    0.463732    11.00000   -1.20000
AFIX   0
PART 2
ZN2   5    0.000000    1.000000    0.500000    10.25000    0.04716    0.02347 =
         0.04103    0.00686    0.01440    0.00138
O14   4    0.282055    1.022185    0.459665    10.50000    0.04512    0.02354 =
         0.06266    0.00862    0.02456    0.00866
AFIX   3
H14A  2    0.274071    1.010937    0.382043    10.50000   -1.50000
H14B  2    0.353269    0.962738    0.480832    10.50000   -1.50000
H14C  2    0.342325    1.102594    0.498460    10.50000   -1.50000
AFIX   0
O13   4    0.099846    0.996488    0.653774    10.50000    0.06398    0.01040 =
         0.03001    0.00378   -0.00559   -0.00358
AFIX   7
H13C  2    0.157424    0.934948    0.651128    10.50000   -1.50000
H13D  2    0.185111    1.058849    0.684856    10.50000   -1.50000
AFIX   0
PART 1
ZN3   5    0.698610    1.009217    0.249210    10.50000    0.03834    0.01031 =
         0.03451    0.00546    0.01299   -0.00123
O10   4    0.999655    0.973523    0.248637    10.50000    0.09142    0.07408 =
         0.10904    0.01303    0.00189   -0.00930
AFIX  93
H10A  2    1.050569    0.963241    0.184347    10.50000   -1.50000
H10B  2    1.072639    0.969114    0.312690    10.50000   -1.50000
AFIX   0
O15   4    0.775102    1.013078    0.413735    10.50000    0.09261    0.06295 =
         0.08714    0.01696   -0.01149   -0.01229
AFIX  93
H15A  2    0.897359    1.004310    0.439940    10.50000   -1.50000
H15B  2    0.686864    1.023563    0.460699    10.50000   -1.50000
AFIX   0
O12   4    0.428837    1.036850    0.274627    10.50000    0.05398    0.04442 =
         0.05013    0.01037    0.00936    0.00507
AFIX  93
H12C  2    0.339984    1.041715    0.216918    10.50000   -1.50000
H12D  2    0.396294    1.044421    0.343774    10.50000   -1.50000
AFIX   0
O16   4    0.684045    1.000378    0.089468    10.50000    0.09064    0.01341 =
         0.04755    0.00551   -0.02227   -0.00103
AFIX   7
H16A  2    0.801556    0.980666    0.055956    10.50000   -1.50000
H16B  2    0.673193    1.079353    0.064897    10.50000   -1.50000
AFIX   0

PART 3
O17   4    0.563426    0.937220    0.580190    10.50000    0.11784    0.05452 =
         0.10305    0.02160    0.00065    0.03529
AFIX   3
H17A  2    0.655167    0.921920    0.621030    10.50000   -1.50000
H17B  2    0.468476    0.920940    0.608322    10.50000   -1.50000
AFIX   0

O20   4    0.407173    1.007255    0.185852    10.50000    0.08919    0.05743 =
         0.08784    0.00571   -0.00259    0.00391
AFIX   3
H20A  2    0.510601    1.018358    0.163744    10.50000   -1.50000
H20B  2    0.336200    1.049870    0.157267    10.50000   -1.50000
AFIX   0

O19   4    0.910912    1.032734   -0.135059    10.50000    0.06822    0.06121 =
         0.10432   -0.01038    0.01337    0.00590
AFIX   3
H19A  2    0.984972    1.048874   -0.074369    10.50000   -1.50000
H19B  2    0.812962    1.063934   -0.118299    10.50000   -1.50000
AFIX   0
O18   4    0.629824    0.998722   -0.032910    10.50000    0.03587    0.02316 =
         0.06463    0.01176    0.00874    0.00227
H18A  2    0.511241    1.005184   -0.059790    10.50000   -1.50000
H18B  2    0.620133    0.991855    0.034769    10.50000   -1.50000
HKLF 4




REM  20190929b_0u_a.res in P-1
REM wR2 = 0.176539, GooF = S = 1.06753, Restrained GooF = 3.66097 for all data
REM R1 = 0.062538 for 3406 Fo > 4sig(Fo) and 0.063630 for all 3543 data
REM 368 parameters refined using 661 restraints

END

WGHT      0.0824      6.7936

REM Highest difference peak  1.207,  deepest hole -1.342,  1-sigma level  0.137
Q1    1   0.4247  0.6735  0.2781  11.00000  0.05    1.21
Q2    1   0.1474  0.6735  0.3178  11.00000  0.05    1.19
Q3    1   0.8898  1.0108 -0.0403  11.00000  0.05    1.18
Q4    1   0.7865  1.0081 -0.0761  11.00000  0.05    1.06
Q5    1   0.8248  0.9891  0.0838  11.00000  0.05    0.94
;
_shelx_res_checksum              73742
_shelx_hkl_file
;
  -1   0   0 124.953 5.37488   2
  -1   0   0 116.214 5.99428   3
  -1   0   0 117.589 5.88031   1
   1   0   0 118.421 5.36972   2
   1   0   0 112.278 6.00432   3
   1   0   0 126.076 5.90799   1
  -2   0   0 2256.35 94.9939   2
  -2   0   0 2280.52 96.4204   3
   2   0   0 2284.57 96.5595   3
   2   0   0 2286.29 95.0408   2
   2   0   0 2113.00 95.9716   1
   3   0   0 4896.81 209.993   3
   3   0   0 4934.72 207.703   2
  -4   0   0 1112.73 49.3595   1
  -4   0   0 1034.11 46.7053   2
   4   0   0 1087.32 50.0065   3
   4   0   0 1090.22 46.8933   2
  -5   0   0 24.7946 2.79215   2
  -5   0   0 29.2934 5.49153   1
   5   0   0 23.2381 3.72280   2
   5   0   0 32.6571 6.15506   3
  -6   0   0 1330.39 60.3578   1
  -6   0   0 1248.72 55.7677   2
   6   0   0 1270.09 61.0921   3
  -7   0   0 72.8496 10.1071   1
  -7   0   0 77.5510 5.62594   2
   7   0   0 84.9167 11.5058   3
  -8   0   0 9.78816 6.30906   1
   8   0   0 2.78830 5.96617   3
  -9   0   0 196.600 17.7759   1
   9  -1   0 16.1802 8.15351   3
  -9   1   0 25.8456 9.13231   1
   8  -1   0 81.2981 11.9620   3
  -8   1   0 85.0433 5.02984   2
  -8   1   0 98.7604 12.1772   1
   7  -1   0 2.43094 1.76980   2
   7  -1   0 6.01686 5.34336   3
  -7   1   0 5.97668 5.21412   1
  -7   1   0 2.31890 1.69149   2
   6  -1   0 4928.88 222.693   2
   6  -1   0 5565.00 228.602   3
  -6   1   0 5308.14 227.919   1
   5  -1   0 121.457 6.50284   2
   5  -1   0 119.239 10.1814   3
  -5   1   0 126.115 9.93485   1
  -5   1   0 116.793 6.34715   2
   4  -1   0 388.356 19.1078   3
   4  -1   0 345.675 15.6728   2
  -4   1   0 347.659 15.5781   2
  -4   1   0 308.282 18.1915   1
   3  -1   0 4401.28 195.758   2
   3  -1   0 4615.34 198.163   3
  -3   1   0 4902.92 195.769   2
   2  -1   0 146.103 8.19218   3
   2  -1   0 150.648 8.04574   1
   2  -1   0 156.880 6.77610   2
  -2   1   0 137.444 6.78698   2
  -2   1   0 150.312 8.04903   1
  -2   1   0 156.066 8.31388   3
  -2  -1   0 168.567 8.75348   1
  -2  -1   0 169.964 8.14809   2
  -2  -1   0 162.749 9.03582   3
   2   1   0 173.304 8.75650   1
   2   1   0 158.208 8.09368   2
   2   1   0 181.399 9.51244   3
  -3  -1   0 2013.98 84.0685   1
  -3  -1   0 1937.17 82.6525   2
   3   1   0 1901.22 84.8425   3
   3   1   0 1880.61 82.6450   2
  -4  -1   0 852.009 38.5287   2
  -4  -1   0 925.235 40.7435   1
   4   1   0 853.522 41.6155   3
  -5  -1   0 534.529 24.5640   2
  -5  -1   0 501.879 27.0009   1
   5   1   0 568.890 28.9003   3
  -6  -1   0 61.5255 5.24781   2
  -6  -1   0 83.7140 8.78697   1
   6   1   0 76.2684 9.75243   3
  -7  -1   0 1123.91 50.8546   2
  -7  -1   0 1155.49 55.4862   1
   7   1   0 1161.33 57.4761   3
  -8  -1   0 46.0987 5.04933   2
  -9  -1   0 182.715 16.9884   1
   9   1   0 182.245 18.8381   3
   9  -2   0 109.987 14.6505   3
  -9   2   0 113.266 14.5479   1
  -8   2   0 25.1557 7.62330   1
   7  -2   0 496.288 29.7990   3
  -7   2   0 572.130 30.9748   1
   6  -2   0 256.479 11.9114   2
  -6   2   0 268.975 19.5277   1
  -6   2   0 260.816 11.9275   2
   5  -2   0 1100.59 48.0284   2
   5  -2   0 1139.90 52.4699   3
  -5   2   0 1121.60 48.0193   2
  -5   2   0 1126.75 52.6677   1
   4  -2   0 165.841 10.6959   3
   4  -2   0 158.668 7.55972   2
  -4   2   0 149.406 10.5929   1
  -4   2   0 167.763 7.59602   2
   3  -2   0 2586.80 110.472   3
   3  -2   0 2546.46 107.949   2
  -3   2   0 2520.70 107.979   2
  -3   2   0 2517.54 108.027   2
  -3   2   0 2602.83 110.869   1
   2  -2   0 16.0412 2.11915   1
   2  -2   0 16.7408 2.52604   3
  -2   2   0 18.7193 2.51664   3
  -2   2   0 18.6586 1.33513   2
  -2   2   0 20.7004 1.53275   2
  -2   2   0 14.7511 2.27586   1
  -2   2   0 17.3102 2.16822   1
   1  -2   0 2438.88 102.463   3
  -1   2   0 2377.84 102.588   3
   0  -2   0 402.476 18.4294   3
   0  -2   0 394.505 18.0863   1
   0  -2   0 427.696 18.3275   2
   0  -2   0 434.338 18.5292   3
   0   2   0 379.350 17.8673   1
   0   2   0 428.186 18.4680   3
   0   2   0 407.318 18.4535   3
   0   2   0 450.733 18.3754   2
  -1  -2   0 916.334 41.0239   3
  -1  -2   0 959.492 40.4718   1
  -1  -2   0 940.105 40.8065   2
   1   2   0 949.419 40.8211   2
   1   2   0 952.490 40.5155   1
   2   2   0 3325.09 136.102   2
   2   2   0 3167.65 137.317   3
   2   2   0 3115.07 136.226   1
  -3  -2   0 1174.28 50.3052   2
  -3  -2   0 1143.95 51.0077   1
   3   2   0 1141.62 52.4161   3
  -4  -2   0 1340.88 56.9247   2
  -4  -2   0 1257.03 58.1255   1
   4   2   0 1304.44 59.9799   3
  -5  -2   0 6.01253 2.32646   2
  -5  -2   0 8.85617 3.63763   1
   5   2   0 6.62279 4.56802   3
  -6  -2   0 1491.74 65.2987   2
  -6  -2   0 1474.64 68.1558   1
  -7  -2   0 77.2582 6.80873   2
  -7  -2   0 84.6175 9.90682   1
   7   2   0 88.2099 11.9981   3
  -8  -2   0 814.090 42.9625   1
  -8  -2   0 796.339 38.2540   2
   8   2   0 879.132 46.7375   3
   9  -3   0 119.574 14.6373   3
  -9   3   0 104.733 14.6178   1
   8  -3   0 7.65999 6.18503   3
  -8   3   0 5.22200 6.16767   1
   7  -3   0 2.34997 4.88319   3
  -7   3   0 0.52498 5.10296   1
   6  -3   0 270.132 17.7170   3
  -6   3   0 291.689 18.6311   1
   5  -3   0 89.9486 8.66169   3
  -5   3   0 89.2110 8.70246   1
  -5   3   0 87.1642 4.55085   2
  -5   3   0 95.4316 4.54279   2
   4  -3   0 3198.98 138.539   3
  -4   3   0 3070.31 135.200   2
  -4   3   0 3300.83 135.130   2
  -4   3   0 3222.45 139.092   1
  -2   3   0 7831.55 332.739   3
   1  -3   0 303.175 14.3487   1
   1  -3   0 318.832 14.0486   2
   1  -3   0 321.875 14.4973   3
  -1   3   0 299.556 14.3662   1
  -1   3   0 292.159 14.5765   3
  -1  -3   0 573.481 22.6025   1
  -1  -3   0 459.251 23.3478   3
  -1  -3   0 502.694 23.2184   2
   1   3   0 520.271 23.2876   2
   1   3   0 480.121 23.6871   3
   1   3   0 555.517 22.6890   1
  -2  -3   0 1736.32 72.9904   2
  -2  -3   0 1709.25 72.6178   1
   2   3   0 1620.43 74.0826   3
   2   3   0 1693.32 72.6973   1
  -3  -3   0 289.955 18.6765   2
  -3  -3   0 358.080 16.6356   1
   3   3   0 346.058 18.4099   3
  -4  -3   0 2132.11 91.9788   2
  -4  -3   0 2190.38 92.8959   1
   4   3   0 2051.84 94.8974   3
  -5  -3   0 4.38234 2.48086   2
  -5  -3   0 4.15652 3.14795   1
   5   3   0 5.36390 4.03757   3
  -6  -3   0 696.661 33.1514   2
  -6  -3   0 731.617 35.4494   1
   6   3   0 693.777 38.2067   3
  -7  -3   0 1.67939 3.04982   2
  -7  -3   0 0.21517 4.43497   1
   7   3   0 3.88413 6.18711   3
  -8  -3   0 128.520 10.0234   2
  -8  -3   0 137.500 13.6228   1
   8   3   0 152.152 16.7404   3
   9  -4   0 3.75647 7.03376   3
  -9   4   0 14.3199 8.63197   1
   8  -4   0 419.255 26.4960   3
  -8   4   0 436.021 28.1757   1
   7  -4   0 496.648 28.8030   3
  -7   4   0 525.897 30.2395   1
   6  -4   0 1197.10 53.5917   3
  -6   4   0 1032.01 53.8590   1
   5  -4   0 18.4989 4.78039   3
  -5   4   0 22.5397 1.98412   2
  -5   4   0 23.9112 1.82740   2
  -5   4   0 27.7526 6.19312   1
   4  -4   0 2289.65 98.7290   3
  -4   4   0 2327.66 95.5048   2
  -4   4   0 2150.58 99.2946   1
  -4   4   0 2228.20 95.7390   2
   2  -4   0 87.2215 6.14002   3
   2  -4   0 95.2574 5.40019   2
   2  -4   0 87.0590 6.35514   1
  -2   4   0 91.6124 5.14590   2
  -2   4   0 115.517 6.86900   1
   1  -4   0 2888.73 118.916   2
   1  -4   0 2651.68 119.181   3
   1  -4   0 2817.92 119.055   1
  -1   4   0 2747.30 118.617   1
  -1   4   0 2767.17 118.740   2
  -1   4   0 2872.73 119.124   1
  -1  -4   0 2008.16 86.4650   2
  -1  -4   0 2049.74 85.3253   1
   1   4   0 1965.76 87.1242   3
   1   4   0 2010.91 85.5063   1
  -2  -4   0 1744.26 74.4498   2
  -2  -4   0 1763.83 73.6489   1
   2   4   0 1719.16 73.7933   1
   2   4   0 1630.21 75.6260   3
  -3  -4   0 6009.13 248.870   1
  -3  -4   0 5889.13 249.151   2
   3   4   0 5690.04 251.265   3
  -4  -4   0 582.124 26.3399   1
  -4  -4   0 529.040 25.8317   2
   4   4   0 515.780 28.7232   3
  -5  -4   0 3011.80 129.346   2
  -5  -4   0 2942.82 130.042   1
   5   4   0 3024.81 133.705   3
  -6  -4   0 126.144 9.14918   2
  -6  -4   0 116.121 10.1871   1
   6   4   0 127.908 13.7248   3
  -7  -4   0 1174.86 48.9512   2
  -7  -4   0 992.158 50.2230   1
   7   4   0 959.872 54.2777   3
  -8  -4   0 255.124 15.7302   2
  -8  -4   0 239.429 18.0464   1
   8   4   0 297.320 27.8071   3
   8  -5   0 627.950 33.3943   3
  -8   5   0 524.623 34.0882   1
   7  -5   0 31.7617 7.18050   3
  -7   5   0 31.7464 8.57391   1
   6  -5   0 181.650 13.6724   3
  -6   5   0 181.840 14.9054   1
   5  -5   0 497.010 25.6674   3
  -5   5   0 525.715 21.9743   2
  -5   5   0 466.228 26.5687   1
  -5   5   0 463.480 21.7627   2
   4  -5   0 3.96457 2.88184   3
  -4   5   0 1.99125 1.05830   2
  -4   5   0 1.26879 1.40451   2
  -4   5   0 1.86904 3.13461   1
   3  -5   0 6654.20 286.448   3
   3  -5   0 6830.12 285.054   2
  -3   5   0 6876.48 285.040   2
  -3   5   0 6594.82 284.660   2
   2  -5   0 1541.67 67.4227   3
   2  -5   0 1540.51 66.6838   2
   2  -5   0 1536.61 67.6951   1
  -2   5   0 1547.47 67.7629   1
   1  -5   0 753.213 32.6998   2
   1  -5   0 746.775 33.2155   3
   1  -5   0 722.912 32.5880   1
  -1   5   0 697.109 32.0433   1
  -1   5   0 722.084 32.6009   1
  -1  -5   0 1512.13 67.1114   2
  -1  -5   0 1507.38 65.6045   1
   1   5   0 1584.45 68.1493   3
   1   5   0 1552.58 65.9051   1
  -2  -5   0 1894.17 82.3376   2
  -2  -5   0 1970.90 81.0667   1
   2   5   0 1911.79 81.2997   1
   2   5   0 1786.82 83.6894   3
  -3  -5   0 1333.38 60.0890   2
  -3  -5   0 1375.41 59.2719   1
  -4  -5   0 433.418 21.7344   1
  -4  -5   0 463.716 22.3537   2
   4   5   0 434.717 25.2086   3
  -5  -5   0 257.092 14.5995   1
  -5  -5   0 255.069 14.3996   2
   5   5   0 216.259 17.5688   3
  -6  -5   0 732.387 36.7575   1
  -6  -5   0 786.612 36.7383   2
   6   5   0 746.444 41.5171   3
  -7  -5   0 36.4103 7.08701   1
  -7  -5   0 42.6961 6.70255   2
   7   5   0 50.6090 11.2695   3
  -8  -5   0 409.678 22.8393   2
  -8  -5   0 407.611 24.6217   1
   8   5   0 401.093 29.9123   3
   8  -6   0 134.682 14.0889   3
  -8   6   0 162.494 22.4446   1
   7  -6   0 2.77218 4.98312   3
  -7   6   0 6.76053 6.02314   1
   6  -6   0 216.178 16.8610   3
  -6   6   0 199.941 16.1669   1
  -5   6   0 896.067 43.8791   1
  -5   6   0 805.104 38.3509   2
  -5   6   0 948.437 38.9779   2
   4  -6   0 1377.35 63.3131   3
   4  -6   0 1388.73 61.2906   2
  -4   6   0 1460.67 64.8261   1
  -4   6   0 1411.23 61.3553   2
   3  -6   0 2845.48 118.908   2
   3  -6   0 2708.05 119.939   3
  -3   6   0 2767.84 120.878   1
   2  -6   0 4473.13 192.415   3
   2  -6   0 4411.60 192.815   1
   2  -6   0 4567.76 191.941   2
  -2   6   0 4572.89 192.699   1
   1  -6   0 438.851 21.1103   3
   1  -6   0 412.286 20.1905   1
   1  -6   0 431.094 20.5353   2
  -1   6   0 420.428 20.2000   1
  -1   6   0 438.619 21.0094   3
   0  -6   0 6228.55 257.470   3
   0   6   0 5805.33 255.311   1
   0   6   0 6096.94 257.320   3
  -1  -6   0 1090.41 45.7774   1
  -1  -6   0 1026.38 47.6065   2
   1   6   0 1127.40 46.4340   1
   1   6   0 999.871 48.4702   3
  -2  -6   0 2585.66 106.985   1
  -2  -6   0 2476.16 108.786   2
   2   6   0 2491.44 110.595   3
   2   6   0 2487.01 107.325   1
  -3  -6   0 118.323 8.36854   2
  -3  -6   0 107.851 6.91674   1
   3   6   0 119.185 10.4755   3
  -4  -6   0 2901.10 125.078   2
  -4  -6   0 2897.46 123.949   1
   4   6   0 2832.03 128.672   3
  -5  -6   0 828.758 39.6469   1
   5   6   0 879.888 45.2548   3
  -6  -6   0 64.3704 8.06611   2
  -6  -6   0 76.1593 7.97431   1
   6   6   0 62.6037 11.5558   3
  -7  -6   0 129.383 11.2474   2
  -7  -6   0 127.921 11.3677   1
   7   6   0 119.200 16.6237   3
   8  -7   0 434.372 26.3140   3
  -8   7   0 415.837 28.8362   1
   7  -7   0 26.4188 7.31563   3
  -7   7   0 24.9951 8.36096   1
   6  -7   0 455.307 22.9261   3
  -6   7   0 381.735 17.5864   2
  -6   7   0 386.450 24.1667   1
  -6   7   0 322.844 17.1537   2
   5  -7   0 13.5614 4.60280   3
  -5   7   0 6.42021 8.12088   1
  -5   7   0 7.16877 2.43977   2
   4  -7   0 1652.45 70.0535   3
   4  -7   0 1550.90 68.1441   2
  -4   7   0 1479.81 69.4056   2
  -4   7   0 1544.19 71.1210   1
   3  -7   0 226.666 12.6734   2
   3  -7   0 246.077 13.7992   3
  -3   7   0 237.135 14.3603   1
   2  -7   0 146.091 9.66650   3
   2  -7   0 135.375 9.32139   1
   2  -7   0 145.275 8.91107   2
  -2   7   0 148.018 9.42449   1
   1  -7   0 796.380 35.7501   1
   1  -7   0 758.727 36.6978   3
   1  -7   0 806.954 36.2813   2
  -1   7   0 746.382 36.4755   3
  -1   7   0 835.258 35.8301   1
   0  -7   0 896.903 39.2721   2
   0  -7   0 919.059 37.7388   1
   0  -7   0 859.565 39.8950   3
   0   7   0 811.898 37.3835   1
   0   7   0 779.805 39.4738   3
  -1  -7   0 835.164 33.8083   1
  -1  -7   0 769.733 35.9005   2
   1   7   0 740.385 36.9496   3
   1   7   0 735.924 33.9216   1
  -2  -7   0 344.692 15.7201   1
  -2  -7   0 338.725 18.1745   2
   2   7   0 358.149 20.2550   3
   2   7   0 326.226 16.1055   1
  -3  -7   0 30.7436 4.82904   2
  -3  -7   0 31.3913 3.54119   1
   3   7   0 18.8691 5.47461   3
  -4  -7   0 28.1343 4.32335   1
  -4  -7   0 35.4237 5.58197   2
   4   7   0 32.3026 7.69326   3
  -5  -7   0 2687.18 117.748   1
  -5  -7   0 2736.43 119.458   2
   5   7   0 2723.30 124.500   3
  -6  -7   0 303.985 19.0773   2
  -6  -7   0 345.144 18.5403   1
   6   7   0 299.381 24.0560   3
  -7  -7   0 296.894 18.0940   1
  -7  -7   0 299.257 18.8175   2
   7   7   0 268.150 24.2561   3
   8  -8   0 107.574 12.5036   3
  -8   8   0 62.8674 12.6244   1
   7  -8   0 308.485 20.5225   3
  -7   8   0 333.505 23.3070   1
   6  -8   0 67.4803 9.22359   3
  -6   8   0 59.3882 5.18665   2
  -6   8   0 67.2165 10.7155   1
   5  -8   0 3020.66 130.354   3
  -5   8   0 3005.92 132.523   1
  -5   8   0 2896.01 127.803   2
   4  -8   0 42.0170 5.24869   2
   4  -8   0 47.1125 6.61747   3
  -4   8   0 64.1979 5.67777   2
  -4   8   0 63.0025 7.73470   1
   3  -8   0 140.390 10.0350   3
   3  -8   0 128.951 9.09470   2
  -3   8   0 135.311 10.2545   1
   2  -8   0 517.351 25.1976   2
   2  -8   0 539.862 26.0487   3
   2  -8   0 499.160 25.4076   1
  -2   8   0 512.284 25.3739   1
   1  -8   0 467.470 24.3485   1
   1  -8   0 536.355 26.1935   3
   1  -8   0 530.010 25.4321   2
  -1   8   0 565.292 26.1101   3
  -1   8   0 496.857 24.4335   1
   0  -8   0 192.531 12.7144   3
   0  -8   0 206.021 12.0259   2
   0  -8   0 194.549 10.2521   1
   0   8   0 163.538 9.67966   1
   0   8   0 214.920 12.9876   3
  -1  -8   0 433.987 22.7207   2
  -1  -8   0 440.785 20.1617   1
   1   8   0 516.409 24.7851   3
   1   8   0 403.253 20.2138   1
  -2  -8   0 44.2090 3.60170   1
  -2  -8   0 42.3256 6.17905   2
   2   8   0 53.7589 8.46507   3
   2   8   0 51.4825 3.96691   1
  -3  -8   0 734.333 33.0343   1
  -3  -8   0 773.024 36.2458   2
   3   8   0 724.308 38.9852   3
  -4  -8   0 444.797 22.7035   1
  -4  -8   0 490.758 24.8642   2
   4   8   0 440.286 28.3036   3
  -5  -8   0 2.35793 4.12808   2
   5   8   0 3.22415 6.43520   3
  -6  -8   0 695.533 33.9941   1
  -6  -8   0 741.002 36.6465   2
   6   8   0 690.403 42.0868   3
   7  -9   0 117.017 12.0604   3
  -7   9   0 88.3639 13.1565   1
   6  -9   0 248.293 17.0192   3
  -6   9   0 250.290 14.9212   2
  -6   9   0 250.557 19.0628   1
  -5   9   0 510.731 24.9898   2
  -5   9   0 509.204 28.8441   1
   4  -9   0 353.399 20.3771   3
   4  -9   0 372.651 19.3937   2
  -4   9   0 366.543 19.1904   2
  -4   9   0 381.898 21.8129   1
   3  -9   0 660.796 32.1068   2
   3  -9   0 678.437 33.0200   3
  -3   9   0 673.150 33.2271   1
   2  -9   0 639.615 31.3338   3
   2  -9   0 631.878 30.5506   2
   2  -9   0 613.417 30.5094   1
  -2   9   0 627.227 30.4397   1
  -2   9   0 640.368 31.1051   3
   1  -9   0 19.2205 4.28442   2
   1  -9   0 15.6609 4.44673   1
   1  -9   0 13.8906 4.72821   3
  -1   9   0 21.5117 3.72183   1
  -1   9   0 27.9995 5.28998   3
   0  -9   0 4052.21 173.783   2
   0  -9   0 4233.09 171.703   1
   0   9   0 4005.33 171.492   1
   0   9   0 3820.36 174.445   3
  -1  -9   0 206.759 10.2210   1
  -1  -9   0 211.030 13.9041   2
   1   9   0 187.139 17.8033   3
   1   9   0 194.345 10.1385   1
  -2  -9   0 858.865 37.1426   1
  -2  -9   0 870.424 40.9737   2
   2   9   0 847.035 43.2438   3
   2   9   0 829.207 37.4723   1
  -3  -9   0 13.5599 4.75361   2
  -3  -9   0 17.3063 2.60596   1
   3   9   0 12.5179 5.98975   3
  -4  -9   0 1279.97 57.6343   1
  -4  -9   0 1283.05 60.2476   2
   4   9   0 1307.62 64.9327   3
  -5  -9   0 138.623 8.90848   1
  -5  -9   0 119.759 11.8697   2
   5   9   0 145.753 16.8188   3
  -6  -9   0 8.01825 4.10997   1
  -6  -9   0 7.87357 5.62477   2
   6   9   0 1.82552 8.15883   3
   7 -10   0 0.42902 5.35138   3
   6 -10   0 1110.55 51.8651   3
  -6  10   0 1083.77 54.5388   1
  -6  10   0 1027.22 48.4402   2
   5 -10   0 275.622 16.3481   2
   5 -10   0 306.031 18.6870   3
  -5  10   0 300.404 20.2129   1
  -5  10   0 289.849 16.4069   2
   4 -10   0 454.344 23.5077   2
   4 -10   0 448.599 24.4434   3
  -4  10   0 439.006 23.1771   2
  -4  10   0 452.199 25.3945   1
   3 -10   0 60.3406 7.28083   2
   3 -10   0 62.7407 8.38998   3
  -3  10   0 62.3780 8.02149   3
  -3  10   0 76.6660 8.08022   1
   2 -10   0 616.620 31.1473   2
   2 -10   0 605.334 31.7604   3
  -2  10   0 600.563 30.4832   1
  -2  10   0 697.658 32.0235   3
   1 -10   0 29.7896 6.48625   3
   1 -10   0 19.6468 8.46126   2
   1 -10   0 29.3751 4.62401   1
  -1  10   0 26.4608 5.77463   3
  -1  10   0 29.0161 4.57680   1
   0 -10   0 741.836 31.6801   1
   0 -10   0 707.489 34.2007   2
   0  10   0 605.812 34.5720   3
   0  10   0 698.967 31.3777   1
  -1 -10   0 19.3714 5.29278   2
  -1 -10   0 27.8482 3.73226   1
   1  10   0 19.9264 2.85537   1
   1  10   0 20.7607 6.32982   3
   1  10   0 25.2452 3.09091   1
  -2 -10   0 2.94559 1.90496   1
  -2 -10   0 -1.2617 3.96738   2
   2  10   0 7.71783 5.66647   3
  -3 -10   0 1403.82 63.7537   2
  -3 -10   0 1414.73 58.7548   1
   3  10   0 1264.44 66.8165   3
  -4 -10   0 363.667 17.0831   1
  -4 -10   0 366.539 21.9697   2
   4  10   0 359.598 26.3371   3
  -5 -10   0 129.029 14.1394   2
  -5 -10   0 124.690 10.1262   1
   5  10   0 119.568 16.6802   3
   6 -11   0 -1.2305 4.97753   3
  -6  11   0 1.47549 6.09226   1
  -6  11   0 0.63013 3.40033   2
   5 -11   0 477.628 25.7409   2
   5 -11   0 494.671 27.5517   3
  -5  11   0 503.000 25.6996   2
  -5  11   0 520.228 29.1901   1
   4 -11   0 4.67448 5.32998   3
   4 -11   0 2.23562 4.11892   2
  -4  11   0 5.94829 5.14939   1
  -4  11   0 1.93849 3.72339   2
   3 -11   0 1832.99 83.1979   3
   3 -11   0 1819.62 82.4070   2
  -3  11   0 1785.57 82.7838   3
  -3  11   0 1905.91 82.8730   1
   2 -11   0 30.2941 6.17324   2
   2 -11   0 47.1077 8.02844   3
  -2  11   0 38.5408 6.86490   3
  -2  11   0 41.0745 5.96222   1
   1 -11   0 359.088 20.6951   2
   1 -11   0 352.558 21.5300   3
  -1  11   0 350.207 18.4249   1
  -1  11   0 385.537 21.6194   3
   0 -11   0 119.429 10.5870   2
   0 -11   0 121.927 7.60761   1
   0  11   0 106.464 7.15708   1
   0  11   0 102.255 11.1482   3
  -1 -11   0 615.522 28.7144   1
  -1 -11   0 607.188 32.7856   2
   1  11   0 667.409 28.5660   1
   1  11   0 682.057 35.5616   3
  -2 -11   0 46.4705 7.51745   2
   2  11   0 67.1812 11.5642   3
  -3 -11   0 52.2752 8.38708   2
   3  11   0 83.2447 13.5055   3
  -4 -11   0 79.3193 15.4992   2
   4  11   0 87.4955 14.4227   3
   5 -12   0 29.7496 6.59780   2
   5 -12   0 45.8139 8.86107   3
  -5  12   0 37.0864 6.64332   2
  -5  12   0 56.3499 9.82419   1
   4 -12   0 269.742 17.0781   2
   4 -12   0 258.143 17.9527   3
  -4  12   0 253.364 17.6396   3
  -4  12   0 266.965 16.6432   2
  -4  12   0 254.221 17.6120   1
   3 -12   0 7.56761 5.62873   3
   3 -12   0 9.48598 5.19814   2
  -3  12   0 12.3955 4.80844   1
  -3  12   0 11.4377 5.59554   3
   2 -12   0 207.106 15.7891   3
   2 -12   0 202.338 14.8032   2
  -2  12   0 204.243 13.0966   1
  -2  12   0 203.139 15.2195   3
   1 -12   0 44.4271 7.68691   2
  -1  12   0 36.3807 5.24355   1
  -1  12   0 39.3934 7.67211   3
   0 -12   0 2194.91 94.9546   2
   0  12   0 2130.27 96.2629   3
   0  12   0 1983.14 90.2944   1
  -1 -12   0 138.516 12.1948   2
   1  12   0 136.316 14.1209   3
  -2 -12   0 706.687 37.5134   2
   2  12   0 745.878 41.3159   3
  -3 -12   0 -2.6501 5.08382   2
   3  12   0 15.5862 8.28846   3
   4 -13   0 424.054 32.0912   3
   4 -13   0 392.765 23.4303   2
  -4  13   0 394.485 23.7361   1
  -4  13   0 390.450 22.9756   2
   3 -13   0 7.21944 5.35917   2
   3 -13   0 9.26349 6.31340   3
  -3  13   0 11.9119 5.31578   1
  -3  13   0 7.41559 5.77994   3
   2 -13   0 75.4696 10.1721   2
   2 -13   0 106.222 12.4877   3
  -2  13   0 97.4152 8.92079   1
  -2  13   0 118.590 11.8649   3
   1 -13   0 41.4515 7.86907   2
  -1  13   0 42.1401 8.83856   3
  -1  13   0 43.3428 5.58467   1
   0 -13   0 62.1164 9.60783   2
   0  13   0 77.2547 11.5009   3
  -1 -13   0 133.987 13.0034   2
   1  13   0 146.543 15.5977   3
  -2 -13   0 26.5274 7.47916   2
   2  13   0 22.8441 9.40115   3
   1 -14   0 109.717 12.5066   2
  -1  14   0 125.397 13.6977   3
   0  14  -1 9.61016 7.05040   3
   0 -14   1 9.25908 6.07065   2
  -1  14  -1 28.9815 8.10338   3
   1 -14   1 24.8948 8.60016   2
  -2  14  -1 6.21916 4.27086   1
  -2  14  -1 1.32982 5.56726   3
   2 -14   1 1.87344 5.43438   2
   2  13  -1 636.484 37.5757   3
  -2 -13   1 604.126 33.8271   2
   1  13  -1 569.007 33.6915   3
  -1 -13   1 566.354 34.8827   2
   0  13  -1 239.296 13.1222   1
   0  13  -1 246.560 18.4597   3
   0 -13   1 231.046 13.4220   1
   0 -13   1 235.422 17.1138   2
  -1  13  -1 289.257 19.4778   3
  -1  13  -1 272.024 15.8792   1
   1 -13   1 288.492 18.9692   2
   1 -13   1 290.391 16.5101   1
  -2  13  -1 524.446 26.7729   1
  -2  13  -1 516.838 28.6516   3
   2 -13   1 483.302 28.6781   3
   2 -13   1 519.753 28.4991   2
  -3  13  -1 391.087 23.0709   3
  -3  13  -1 395.714 22.4470   1
   3 -13   1 351.715 22.9953   3
   3 -13   1 388.594 23.0305   2
  -4  13  -1 81.7519 10.9360   1
  -4  13  -1 81.3449 10.7980   3
  -4  13  -1 81.1404 10.0442   2
   4 -13   1 80.5846 10.2980   2
   4 -13   1 70.1515 11.0682   3
   4  12  -1 380.317 29.7507   3
  -4 -12   1 421.305 25.1233   2
  -3 -12   1 448.098 28.6949   2
   2  12  -1 49.3041 10.3254   3
  -2 -12   1 33.0090 4.62498   1
  -2 -12   1 25.8065 6.76285   2
   1  12  -1 4.86860 5.28712   3
   1  12  -1 4.43628 2.45688   1
  -1 -12   1 4.95557 3.15541   1
  -1 -12   1 3.62073 4.90886   2
   0  12  -1 9.14785 3.20272   1
   0  12  -1 9.13379 6.05700   3
   0 -12   1 10.5305 5.28196   2
   0 -12   1 13.0648 3.79247   1
  -1  12  -1 248.451 14.9783   1
  -1  12  -1 254.662 17.8623   3
   1 -12   1 287.087 15.6314   1
   1 -12   1 267.258 17.3499   2
  -2  12  -1 474.440 25.6613   3
  -2  12  -1 465.821 24.2089   1
   2 -12   1 443.644 25.7688   3
   2 -12   1 459.109 25.4540   2
   2 -12   1 433.349 24.2539   1
  -3  12  -1 220.529 15.5753   1
  -3  12  -1 248.671 16.1807   3
   3 -12   1 232.988 16.3768   3
   3 -12   1 216.838 15.7661   2
  -4  12  -1 493.149 26.7567   3
  -4  12  -1 477.613 27.4599   1
  -4  12  -1 485.606 26.2370   2
   4 -12   1 496.591 26.3960   2
   4 -12   1 466.993 26.7791   3
  -5  12  -1 512.461 26.7763   2
  -5  12  -1 489.281 29.4514   1
   5 -12   1 498.902 27.9469   3
   5 -12   1 501.463 26.8458   2
   5  11  -1 282.246 25.9877   3
  -5 -11   1 343.024 21.2413   2
   4  11  -1 48.7495 18.5007   3
  -4 -11   1 42.4819 5.80456   1
  -4 -11   1 39.5428 7.81571   2
   3  11  -1 82.7701 13.2967   3
  -3 -11   1 70.3167 9.50219   2
  -3 -11   1 89.7938 6.23350   1
   2  11  -1 245.889 18.7157   3
  -2 -11   1 246.160 16.0179   2
  -2 -11   1 209.179 11.6946   1
   1  11  -1 1046.86 51.4278   3
  -1 -11   1 1006.81 49.2080   2
  -1 -11   1 1037.31 45.8520   1
   0  11  -1 83.6781 6.81843   1
   0  11  -1 97.0531 10.6504   3
   0 -11   1 86.9565 7.25287   1
   0 -11   1 88.9143 9.40606   2
  -1  11  -1 7.73889 3.25633   1
  -1  11  -1 6.91510 4.49686   3
   1 -11   1 16.6918 5.42332   3
  -2  11  -1 63.4801 7.30278   1
  -2  11  -1 74.6793 8.62399   3
   2 -11   1 57.3338 7.59978   1
   2 -11   1 59.4043 8.11386   2
   2 -11   1 69.8005 8.83425   3
  -3  11  -1 11.0222 4.87344   1
  -3  11  -1 26.1242 5.96173   3
   3 -11   1 14.8513 5.41003   3
   3 -11   1 11.4657 4.90137   2
  -4  11  -1 870.324 43.5501   1
  -4  11  -1 849.192 41.5686   2
   4 -11   1 893.593 41.8813   2
   4 -11   1 858.179 42.3410   3
  -5  11  -1 149.230 14.7309   1
  -5  11  -1 156.301 11.8662   2
   5 -11   1 146.454 12.7715   2
   5 -11   1 196.324 14.0947   3
  -6  11  -1 14.5874 7.36099   1
  -6  11  -1 21.6086 4.96545   2
   6 -11   1 20.1234 6.51849   3
  -5 -10   1 183.923 10.9037   1
  -5 -10   1 152.065 13.9107   2
   4  10  -1 5.13917 6.79107   3
  -4 -10   1 6.27156 2.70947   1
  -4 -10   1 13.0201 5.36567   2
   3  10  -1 568.885 32.8413   3
  -3 -10   1 560.972 29.1489   2
  -3 -10   1 522.884 25.5529   1
   2  10  -1 1701.20 80.8273   3
  -2 -10   1 1617.46 77.6934   2
  -2 -10   1 1833.60 74.4964   1
   1  10  -1 4523.33 192.413   3
  -1 -10   1 4288.03 187.219   1
   0  10  -1 1022.32 48.7077   3
   0 -10   1 1013.87 46.6471   1
   0 -10   1 1004.85 47.6819   2
  -1  10  -1 225.971 13.8751   1
   1 -10   1 252.382 15.8795   2
   1 -10   1 278.623 14.6897   1
  -2  10  -1 1083.45 48.0641   1
   2 -10   1 1036.38 48.1379   2
   2 -10   1 1032.45 48.0232   1
   2 -10   1 960.903 53.9945   3
  -3  10  -1 59.6189 7.56759   1
  -3  10  -1 52.5945 7.12823   3
   3 -10   1 46.8690 7.24649   3
   3 -10   1 48.2286 6.84423   2
   3 -10   1 54.2602 7.76473   1
  -4  10  -1 248.995 17.6255   1
  -4  10  -1 234.847 14.8235   2
   4 -10   1 251.687 15.1487   2
   4 -10   1 249.073 15.7762   3
  -5  10  -1 695.702 34.5649   2
  -5  10  -1 760.599 38.7713   1
   5 -10   1 708.963 35.8503   3
  -6  10  -1 35.9836 5.21460   2
  -6  10  -1 43.5505 9.33364   1
   6 -10   1 25.6124 6.67547   3
  -7  10  -1 154.506 16.5861   1
   7 -10   1 166.387 13.9271   3
   6   9  -1 304.780 25.7396   3
  -6  -9   1 317.567 20.0622   2
  -6  -9   1 288.969 17.1609   1
   5   9  -1 230.705 20.8992   3
  -5  -9   1 225.195 13.2695   1
  -5  -9   1 226.417 15.8120   2
   4   9  -1 721.806 39.8372   3
  -4  -9   1 728.006 35.4397   2
  -4  -9   1 657.193 31.9860   1
   3   9  -1 10.6001 6.11422   3
  -3  -9   1 19.5119 3.48887   1
  -3  -9   1 12.3083 4.72871   2
   2   9  -1 18.4446 6.17169   3
  -2  -9   1 24.9732 3.50273   1
  -2  -9   1 28.2633 5.56017   2
   1   9  -1 360.123 20.9407   3
  -1  -9   1 320.988 19.3600   2
  -1  -9   1 371.074 17.0807   1
   0   9  -1 801.185 36.0311   3
   0  -9   1 680.086 32.8205   1
   0  -9   1 691.457 34.5989   2
  -1   9  -1 1589.80 76.8204   3
  -1   9  -1 1676.66 75.9057   1
   1  -9   1 1790.66 77.1165   2
   1  -9   1 1861.95 77.7355   3
  -2   9  -1 588.485 28.4065   1
  -2   9  -1 578.469 28.4382   3
   2  -9   1 557.805 28.5660   3
   2  -9   1 577.652 28.2905   2
   2  -9   1 568.327 28.4653   1
  -3   9  -1 34.3311 6.28728   1
   3  -9   1 42.8304 6.24609   3
   3  -9   1 34.6123 6.44538   1
   3  -9   1 38.9998 5.72606   2
  -4   9  -1 7.39023 4.63871   1
  -4   9  -1 7.98981 3.48679   2
   4  -9   1 13.6602 3.80634   2
   4  -9   1 10.5904 4.30333   3
  -5   9  -1 386.021 20.9576   2
  -5   9  -1 412.207 25.0814   1
   5  -9   1 440.860 22.9511   3
  -6   9  -1 566.662 28.8833   2
  -6   9  -1 661.729 35.4005   1
   6  -9   1 623.101 32.5439   3
  -7   9  -1 103.290 13.7085   1
   7  -9   1 88.4626 10.7006   3
   7   8  -1 167.350 19.6743   3
  -7  -8   1 159.266 13.6420   2
  -7  -8   1 162.288 12.8020   1
   6   8  -1 366.920 27.8771   3
  -6  -8   1 386.625 22.3062   2
  -6  -8   1 385.841 20.8315   1
   5   8  -1 692.020 40.7885   3
  -5  -8   1 717.467 36.0410   2
  -5  -8   1 740.707 34.1792   1
   4   8  -1 1642.39 80.7059   3
  -4  -8   1 1673.41 74.5269   1
  -4  -8   1 1792.29 77.0610   2
   3   8  -1 147.686 13.1931   3
  -3  -8   1 129.456 8.35191   1
  -3  -8   1 154.763 11.1834   2
   2   8  -1 56.7596 8.42427   3
  -2  -8   1 62.8294 6.46059   2
  -2  -8   1 61.6321 4.59102   1
   1   8  -1 2707.79 124.252   3
  -1  -8   1 2830.95 123.139   2
  -1  -8   1 2954.44 120.976   1
   0   8  -1 2088.67 93.6065   3
   0  -8   1 2123.08 93.0075   2
   0  -8   1 2152.87 91.4764   1
  -1   8  -1 66.9480 6.80572   3
   1  -8   1 82.5288 7.16749   2
   1  -8   1 87.2980 6.82783   1
   1  -8   1 81.3566 7.30771   3
  -2   8  -1 388.609 20.1607   1
  -2   8  -1 381.715 19.9166   3
   2  -8   1 383.253 19.7532   2
   2  -8   1 389.688 20.2577   1
   2  -8   1 388.047 20.1551   3
  -3   8  -1 31.8511 5.79503   1
  -3   8  -1 28.0848 4.52203   2
   3  -8   1 42.5631 5.90320   3
   3  -8   1 25.8201 5.44761   1
   3  -8   1 33.3159 4.83762   2
  -4   8  -1 113.651 7.99866   2
  -4   8  -1 95.5515 9.81557   1
   4  -8   1 117.199 8.10169   2
   4  -8   1 98.6113 8.85803   3
  -5   8  -1 1355.79 66.3132   1
  -5   8  -1 1349.39 62.0527   2
   5  -8   1 1502.98 64.2593   3
  -6   8  -1 46.4672 5.63165   2
  -6   8  -1 50.8600 9.45124   1
   6  -8   1 61.1921 8.60346   3
  -7   8  -1 211.132 18.6709   1
   7  -8   1 208.125 15.8378   3
  -8   8  -1 322.141 25.1376   1
   8  -8   1 350.382 22.1479   3
   7   7  -1 50.5361 12.3936   3
  -7  -7   1 57.5500 8.61025   1
  -7  -7   1 65.9397 8.84409   2
   6   7  -1 380.936 27.3413   3
  -6  -7   1 404.248 21.6427   1
  -6  -7   1 378.115 21.7624   2
   5   7  -1 41.3359 9.72677   3
  -5  -7   1 37.2249 5.84335   1
  -5  -7   1 26.0770 5.93198   2
   4   7  -1 267.335 18.5713   3
  -4  -7   1 264.805 15.2810   2
  -4  -7   1 226.213 13.4639   1
   3   7  -1 23.7611 6.14520   3
  -3  -7   1 26.4756 4.58237   2
  -3  -7   1 25.0672 3.74598   1
   2   7  -1 670.611 35.2806   3
  -2  -7   1 693.976 33.6212   2
  -2  -7   1 760.861 31.8742   1
   1   7  -1 4350.68 194.396   1
  -1  -7   1 4697.16 195.978   2
  -1  -7   1 4685.92 194.031   1
   0   7  -1 1365.87 62.3171   3
   0  -7   1 1400.26 61.8951   2
   0  -7   1 1417.38 60.6567   1
  -1   7  -1 203.722 12.3543   3
   1  -7   1 242.899 12.3614   1
   1  -7   1 223.452 12.4910   2
   1  -7   1 224.980 12.8306   3
  -2   7  -1 1412.25 63.4069   1
   2  -7   1 1441.21 62.8037   2
   2  -7   1 1391.67 63.3798   1
   2  -7   1 1438.79 63.0412   3
  -3   7  -1 3130.72 134.849   1
  -3   7  -1 3127.23 132.959   2
   3  -7   1 3056.13 133.397   3
   3  -7   1 3075.73 134.766   1
   3  -7   1 3075.29 132.977   2
  -4   7  -1 381.628 18.7290   2
  -4   7  -1 367.055 21.4813   1
   4  -7   1 382.942 19.9420   3
   4  -7   1 371.670 18.7165   2
  -5   7  -1 1668.14 73.0452   2
  -5   7  -1 1660.77 77.9657   1
   5  -7   1 1695.17 75.2857   3
  -6   7  -1 162.592 14.7085   1
  -6   7  -1 160.256 9.04774   2
   6  -7   1 152.158 12.3445   3
  -7   7  -1 41.2967 9.88083   1
   7  -7   1 34.2957 7.49585   3
  -8   7  -1 16.3828 8.34931   1
   8  -7   1 26.4662 7.63831   3
   7   6  -1 362.595 26.8900   3
  -7  -6   1 345.011 20.5920   2
  -7  -6   1 375.447 21.6836   1
   6   6  -1 104.169 13.8170   3
  -6  -6   1 107.162 9.83340   1
  -6  -6   1 111.136 9.68330   2
   5   6  -1 69.2316 11.2133   3
  -5  -6   1 58.2849 6.76349   1
  -5  -6   1 68.1907 7.36929   2
   4   6  -1 291.170 19.4330   3
   3   6  -1 96.1206 9.41059   3
  -3  -6   1 95.6714 7.54387   2
  -3  -6   1 103.350 6.81018   1
   2   6  -1 30.4528 5.17349   3
  -2  -6   1 33.4319 3.34980   1
  -2  -6   1 21.4433 3.69634   2
   1   6  -1 736.826 33.7953   3
   1   6  -1 692.070 31.6087   1
  -1  -6   1 687.646 32.6593   2
  -1  -6   1 719.441 31.3022   1
   0   6  -1 190.333 10.6071   3
   0   6  -1 167.880 9.11681   1
   0  -6   1 176.843 10.1256   2
   0  -6   1 186.576 10.6350   3
   0  -6   1 170.419 9.15198   1
  -2   6  -1 3966.90 166.952   1
   2  -6   1 3858.45 166.864   1
   2  -6   1 4054.51 166.309   3
   2  -6   1 3669.11 167.539   2
  -3   6  -1 1243.08 59.1823   1
  -3   6  -1 1346.94 57.4416   2
   3  -6   1 1298.68 57.3202   2
   3  -6   1 1383.54 58.1926   3
   3  -6   1 1256.27 59.1913   1
  -4   6  -1 1177.63 58.0141   1
  -4   6  -1 1244.42 55.0383   2
   4  -6   1 1334.75 56.7866   3
  -5   6  -1 1713.61 79.0107   1
  -5   6  -1 1701.10 74.2862   2
   5  -6   1 1730.51 76.9010   3
  -6   6  -1 691.575 31.7690   2
  -6   6  -1 819.717 39.5793   1
  -6   6  -1 682.107 32.1284   2
   6  -6   1 736.512 36.3816   3
  -7   6  -1 11.6855 6.68385   1
   7  -6   1 9.87721 5.36908   3
   8  -6   1 168.571 15.2880   3
   8   5  -1 74.1010 14.4987   3
  -8  -5   1 52.7951 9.28668   1
  -8  -5   1 49.5217 7.22771   2
   7   5  -1 546.562 35.1486   3
  -7  -5   1 593.413 28.9927   2
  -7  -5   1 563.154 30.4264   1
   6   5  -1 18.8319 7.41460   3
  -6  -5   1 28.5296 5.20733   2
  -6  -5   1 17.9433 5.19322   1
   5   5  -1 241.392 18.7984   3
  -5  -5   1 277.721 15.2374   2
  -5  -5   1 276.116 15.6436   1
   4   5  -1 4140.47 177.899   3
  -4  -5   1 4089.41 174.283   2
  -4  -5   1 3964.14 174.122   1
   3   5  -1 1043.08 52.2569   3
  -3  -5   1 1163.06 50.3008   2
  -3  -5   1 1155.08 49.7620   1
   2   5  -1 940.830 42.7784   1
   2   5  -1 947.186 44.8601   3
  -2  -5   1 1016.21 43.5539   2
  -2  -5   1 970.826 42.5630   1
   0   5  -1 51.5410 4.58792   3
   0   5  -1 63.0851 3.95776   1
   0  -5   1 53.8187 4.47810   2
   0  -5   1 49.8501 4.57276   3
   0  -5   1 61.9986 4.00687   1
   1  -5   1 1961.32 88.9815   2
   1  -5   1 2044.87 89.2253   3
   1  -5   1 2200.79 89.2442   1
  -2   5  -1 23.5127 3.58805   1
   2  -5   1 22.8781 3.73265   1
   2  -5   1 24.7808 3.03453   2
   2  -5   1 23.1671 3.30151   3
  -3   5  -1 9.08554 3.23839   1
  -3   5  -1 7.46977 2.12332   2
   3  -5   1 2.08880 2.58253   1
   3  -5   1 9.53955 2.73186   3
   3  -5   1 5.36699 1.93798   2
  -4   5  -1 2941.07 128.603   1
  -4   5  -1 3013.86 125.197   2
  -4   5  -1 2932.21 124.693   2
   4  -5   1 2837.52 126.894   3
  -5   5  -1 182.986 14.1892   1
  -5   5  -1 192.285 10.2487   2
  -5   5  -1 212.478 9.89537   2
   5  -5   1 208.634 13.2937   3
  -6   5  -1 192.190 10.0294   2
  -6   5  -1 214.353 15.8878   1
  -6   5  -1 207.288 9.96460   2
   6  -5   1 217.409 14.6193   3
  -7   5  -1 44.5239 9.38702   1
   7  -5   1 42.1784 7.95794   3
  -8   5  -1 10.0714 7.30495   1
   8  -5   1 25.8585 7.73078   3
   8   4  -1 43.0890 11.4417   3
  -8  -4   1 47.0016 8.89024   1
  -8  -4   1 48.7200 7.97704   2
   7   4  -1 1284.84 62.9230   3
  -7  -4   1 1181.95 57.8638   1
  -7  -4   1 1202.94 55.4934   2
   6   4  -1 16.5531 6.77905   3
  -6  -4   1 24.9024 4.51020   2
  -6  -4   1 20.2043 5.39929   1
   5   4  -1 85.0960 10.2098   3
  -5  -4   1 82.2046 7.64074   1
  -5  -4   1 79.2830 6.79242   2
   4   4  -1 948.028 46.5620   3
  -4  -4   1 969.852 43.4237   2
  -4  -4   1 969.979 43.9589   1
   3   4  -1 2777.65 128.224   3
  -3  -4   1 3030.39 126.226   1
  -3  -4   1 3008.83 126.201   2
   2   4  -1 1994.33 90.3567   1
  -2  -4   1 2189.13 90.3028   1
  -2  -4   1 2127.28 91.0134   2
   0   4  -1 1743.72 71.8625   3
   0   4  -1 1635.53 71.9525   3
   0   4  -1 1647.63 71.9828   1
   0  -4   1 1622.02 71.9369   3
   0  -4   1 1662.77 71.2838   1
   0  -4   1 1642.37 71.8262   3
   0  -4   1 1714.43 71.8787   2
  -1   4  -1 338.121 16.6076   2
  -1   4  -1 341.134 17.0546   3
  -1   4  -1 357.834 16.7752   1
   1  -4   1 380.696 17.0442   3
   1  -4   1 378.324 17.1776   1
   1  -4   1 384.575 16.9814   2
  -2   4  -1 383.374 17.6228   2
  -2   4  -1 389.691 19.1233   1
  -2   4  -1 390.923 17.9290   2
   2  -4   1 387.263 19.0777   1
   2  -4   1 378.483 18.3259   3
   2  -4   1 400.711 17.9913   2
  -4   4  -1 308.863 14.5595   2
   4  -4   1 305.328 16.6944   3
  -5   4  -1 759.446 32.0691   2
  -5   4  -1 757.411 37.1322   1
  -5   4  -1 714.155 32.2181   2
   5  -4   1 694.676 35.3973   3
  -6   4  -1 615.335 32.6455   1
  -6   4  -1 613.781 26.9595   2
  -6   4  -1 581.604 26.4444   2
   6  -4   1 588.086 31.0982   3
  -7   4  -1 150.868 14.4623   1
   7  -4   1 136.710 12.9881   3
  -8   4  -1 162.934 16.6902   1
   8  -4   1 183.204 15.9809   3
  -9   4  -1 244.197 21.5084   1
   9  -4   1 231.380 19.5603   3
   8   3  -1 218.162 20.9768   3
  -8  -3   1 266.981 18.2796   1
  -8  -3   1 215.086 13.5584   2
   7   3  -1 416.036 27.4267   3
  -7  -3   1 403.209 23.9994   1
  -7  -3   1 417.118 20.9788   2
   6   3  -1 803.591 42.4003   3
  -6  -3   1 763.325 36.7032   2
  -6  -3   1 838.041 39.6057   1
   5   3  -1 775.974 40.3847   3
  -5  -3   1 765.658 37.8210   1
  -5  -3   1 840.994 36.3679   2
   4   3  -1 2039.32 89.2735   3
  -4  -3   1 2007.81 86.9590   1
  -4  -3   1 1903.74 85.6499   2
   3   3  -1 3204.52 144.832   3
  -3  -3   1 3524.13 142.722   2
  -3  -3   1 3303.09 143.186   1
   2   3  -1 234.615 13.7543   3
   2   3  -1 268.947 12.9287   1
  -2  -3   1 257.925 12.7109   2
  -2  -3   1 281.178 12.8836   1
   0   3  -1 16.4800 1.77460   3
   0   3  -1 17.2580 1.76113   2
   0   3  -1 14.1178 1.86150   3
   0  -3   1 13.5759 1.72945   3
   0  -3   1 23.4117 2.08591   2
   0  -3   1 18.2676 1.70354   1
   0  -3   1 16.2239 1.90267   3
  -1   3  -1 928.677 40.3814   1
  -1   3  -1 933.832 40.1399   2
   1  -3   1 886.385 40.2311   3
   1  -3   1 966.308 40.3120   2
  -2   3  -1 299.322 16.0893   1
  -2   3  -1 329.177 15.9963   3
  -2   3  -1 327.024 15.0558   2
  -2   3  -1 324.363 16.2027   2
   2  -3   1 332.587 16.2872   1
   2  -3   1 354.325 15.7708   3
  -3   3  -1 526.446 25.7370   1
  -3   3  -1 519.374 23.5710   2
   3  -3   1 539.695 25.7916   1
   3  -3   1 531.378 25.0681   3
  -4   3  -1 3660.29 159.236   2
  -4   3  -1 3999.82 159.267   2
   4  -3   1 3830.65 161.853   3
   4  -3   1 3537.19 159.042   2
  -5   3  -1 1212.53 48.1278   2
  -5   3  -1 1044.83 52.1633   1
  -5   3  -1 1083.42 47.9498   2
   5  -3   1 1099.62 51.4993   3
   5  -3   1 1091.36 47.8597   2
  -6   3  -1 619.493 26.7377   2
  -6   3  -1 608.122 26.7741   2
  -6   3  -1 611.364 32.5028   1
   6  -3   1 579.306 26.5869   2
   6  -3   1 587.576 31.2725   3
  -7   3  -1 36.1184 7.80293   1
  -7   3  -1 32.6527 2.97913   2
  -7   3  -1 38.2987 3.42084   2
   7  -3   1 47.8542 8.46016   3
  -8   3  -1 66.3678 11.1268   1
   8  -3   1 47.9339 9.60764   3
  -9   3  -1 25.8959 9.16405   1
   9  -3   1 23.2138 8.30425   3
   8   2  -1 114.985 14.8975   3
  -8  -2   1 130.659 13.1407   1
  -8  -2   1 111.876 8.09319   2
   7   2  -1 230.402 18.4635   3
  -7  -2   1 215.641 12.2184   2
  -7  -2   1 222.820 16.0985   1
  -6  -2   1 193.432 13.6179   1
  -6  -2   1 175.559 10.3011   2
   5   2  -1 1742.94 77.3911   3
  -5  -2   1 1818.82 75.5161   1
  -5  -2   1 1452.11 75.6824   2
   4   2  -1 311.779 18.4254   3
  -4  -2   1 318.325 17.0023   1
  -4  -2   1 328.511 15.3966   2
   3   2  -1 3863.56 163.941   3
   3   2  -1 3650.19 161.350   2
  -3  -2   1 3892.32 161.396   2
   2   2  -1 1184.08 49.4323   2
   2   2  -1 1104.43 49.9259   1
   2   2  -1 1162.03 50.9461   3
  -2  -2   1 1128.66 49.4018   2
  -2  -2   1 1144.36 49.9141   1
  -1   2  -1 372.137 15.9598   2
  -1   2  -1 365.867 16.0241   2
  -1   2  -1 351.595 16.1596   3
   1  -2   1 336.884 15.9784   3
   1  -2   1 371.001 16.0475   2
  -2   2  -1 1397.13 54.8163   2
  -2   2  -1 1180.92 56.1312   1
  -2   2  -1 1282.72 54.7838   2
  -2   2  -1 1305.03 55.7798   3
  -2   2  -1 1230.32 55.9910   1
   2  -2   1 1202.35 55.8952   1
   2  -2   1 1339.58 55.6687   3
   2  -2   1 1290.24 54.6930   2
  -3   2  -1 329.889 14.2829   2
   3  -2   1 300.068 15.7088   3
   3  -2   1 298.874 14.0842   2
  -4   2  -1 553.376 23.1124   2
   4  -2   1 517.364 25.5745   3
   4  -2   1 478.066 22.9291   2
  -5   2  -1 755.366 34.3009   2
  -5   2  -1 749.068 38.1522   1
   5  -2   1 845.999 38.2950   3
   5  -2   1 777.614 34.3672   2
  -6   2  -1 62.0842 4.26984   2
   6  -2   1 50.6409 4.50441   2
   6  -2   1 58.8804 8.07697   3
  -7   2  -1 1814.46 76.3422   2
  -7   2  -1 1668.25 82.4222   1
   7  -2   1 1836.13 82.6224   3
  -8   2  -1 9.06482 6.49467   1
  -8   2  -1 5.14901 1.77366   2
   8  -2   1 4.11722 5.96639   3
  -9   2  -1 508.034 32.9159   1
   9  -2   1 534.568 32.5962   3
   9   1  -1 113.784 15.3810   3
  -9  -1   1 90.2096 13.0799   1
   8   1  -1 40.9243 9.80982   3
  -8  -1   1 36.6773 5.50371   2
  -8  -1   1 33.8204 8.44803   1
   7   1  -1 344.964 22.6423   3
  -7  -1   1 282.110 19.8689   1
   6   1  -1 1858.92 85.3568   3
  -6  -1   1 1833.69 83.4498   1
  -6  -1   1 1833.14 79.4332   2
   5   1  -1 10.3040 4.33146   3
  -5  -1   1 17.9843 4.56516   1
  -5  -1   1 15.5744 2.38410   2
   4   1  -1 39.9782 5.98741   3
  -4  -1   1 29.5386 2.78632   2
   3   1  -1 50.7805 3.44124   2
   3   1  -1 52.7534 5.42987   3
  -3  -1   1 63.4158 3.59872   2
  -3  -1   1 56.3424 4.82548   1
   2   1  -1 555.528 26.1938   3
   2   1  -1 569.448 24.6003   2
  -2  -1   1 571.891 24.6004   2
  -2  -1   1 559.571 25.5454   1
  -2  -1   1 566.044 25.9672   3
  -2   1  -1 112.098 6.83842   3
  -2   1  -1 100.688 5.91473   1
  -2   1  -1 92.7608 6.05666   1
  -2   1  -1 101.562 5.19838   2
   2  -1   1 91.2415 6.03512   1
   2  -1   1 101.809 5.19615   2
   2  -1   1 114.412 6.18341   3
   2  -1   1 93.8663 5.87127   1
   3  -1   1 5090.69 213.702   3
   3  -1   1 4932.52 212.656   2
  -4   1  -1 205.341 13.4354   1
  -4   1  -1 242.670 11.4126   2
   4  -1   1 230.005 11.4554   2
   4  -1   1 262.862 14.2181   3
  -5   1  -1 1236.79 54.1496   2
  -5   1  -1 1312.87 57.9819   1
   5  -1   1 1193.64 57.6322   3
  -6   1  -1 275.703 17.7843   1
  -6   1  -1 271.139 13.6179   2
   6  -1   1 279.821 18.1860   3
  -7   1  -1 2528.92 114.395   1
  -7   1  -1 2475.63 108.629   2
   7  -1   1 2590.36 114.807   3
  -8   1  -1 9.30589 6.58084   1
   8  -1   1 3.48361 5.89281   3
  -9   1  -1 138.509 15.4180   1
   9  -1   1 131.528 15.7394   3
   9   0  -1 81.8364 17.6077   3
  -9   0   1 76.5965 12.7889   1
   8   0  -1 154.131 16.0236   3
  -8   0   1 156.339 14.7479   1
  -8   0   1 149.093 7.85224   2
   7   0  -1 816.305 42.7017   3
   7   0  -1 834.777 35.8676   2
  -7   0   1 782.031 35.3217   2
  -7   0   1 786.850 41.1950   1
   6   0  -1 1031.72 45.1148   2
   6   0  -1 1029.62 50.7960   3
  -6   0   1 1092.19 50.0787   1
  -6   0   1 989.044 44.8456   2
   5   0  -1 3952.56 169.562   3
   5   0  -1 3783.31 164.730   2
  -5   0   1 3954.54 168.578   1
  -5   0   1 3863.54 164.613   2
   4   0  -1 5801.90 234.568   3
   4   0  -1 5563.32 230.563   2
  -4   0   1 5392.09 230.435   2
  -4   0   1 5086.31 233.208   1
   3   0  -1 18.7794 3.51342   3
   3   0  -1 11.7072 1.36544   2
  -3   0   1 11.8343 2.69602   1
  -3   0   1 14.4675 1.38115   2
   2   0  -1 116.037 5.09841   2
   2   0  -1 105.929 6.75719   3
  -2   0   1 117.027 6.57247   1
  -2   0   1 109.405 5.27938   2
  -2   0   1 105.482 6.65077   3
  -2   0  -1 34.2601 2.53240   2
  -2   0  -1 38.3670 2.99281   1
  -2   0  -1 32.1138 3.01725   1
  -2   0  -1 41.9103 3.23978   3
   2   0   1 32.1315 2.49326   2
   2   0   1 27.1907 2.70502   1
   2   0   1 38.0826 3.36168   3
  -3   0  -1 56.1943 4.72165   1
  -3   0  -1 42.1416 3.34405   2
   3   0   1 50.2769 4.89811   3
   3   0   1 50.5430 3.55428   2
  -4   0  -1 1043.82 49.9942   1
  -4   0  -1 1075.35 47.9820   2
   4   0   1 1188.08 51.0765   3
  -5   0  -1 847.581 37.6466   2
  -5   0  -1 812.937 40.3667   1
   5   0   1 878.374 41.4613   3
  -6   0  -1 682.688 35.0985   1
  -6   0  -1 687.554 31.3687   2
   6   0   1 694.604 36.1036   3
  -7   0  -1 101.459 10.9781   1
  -7   0  -1 88.1230 6.72842   2
   7   0   1 91.7772 11.5666   3
  -8   0  -1 39.8132 4.71496   2
  -8   0  -1 42.3632 9.25889   1
   8   0   1 43.9794 9.79344   3
  -9   0  -1 5.12261 6.39023   1
   9   0   1 12.5098 10.3300   3
   9  -1  -1 449.020 38.8309   3
  -9   1   1 408.740 28.2784   1
   8  -1  -1 3.26371 5.78097   3
  -8   1   1 8.39235 6.24442   1
   7  -1  -1 38.7467 8.43169   3
  -7   1   1 44.6735 8.22741   1
   6  -1  -1 1905.48 87.4182   3
  -6   1   1 1954.27 87.0057   1
  -6   1   1 1877.31 81.0391   2
   5  -1  -1 4660.95 194.283   2
   5  -1  -1 4707.76 199.432   3
  -5   1   1 4450.52 194.180   2
   4  -1  -1 8494.24 361.535   3
   3  -1  -1 881.000 41.4668   3
  -3   1   1 940.373 41.3581   1
   2  -1  -1 262.620 12.9762   3
  -2   1   1 242.907 12.6164   1
  -2   1   1 262.621 13.0434   3
  -1   1   1 3200.05 135.892   3
  -2  -1  -1 1216.80 52.0776   1
  -2  -1  -1 1142.30 51.6632   2
  -2  -1  -1 1207.46 51.9817   1
  -2  -1  -1 1225.03 52.3920   3
   2   1   1 1236.01 52.7854   3
   2   1   1 1206.46 51.9827   1
   2   1   1 1156.14 51.7379   2
  -3  -1  -1 85.5602 5.46054   2
  -3  -1  -1 99.6335 6.53638   1
   3   1   1 95.5999 7.24439   3
  -4  -1  -1 3005.67 135.705   1
  -4  -1  -1 3145.60 134.251   2
   4   1   1 3285.35 137.298   3
  -5  -1  -1 1402.73 65.1129   1
  -5  -1  -1 1408.45 62.8517   2
   5   1   1 1503.77 66.9124   3
  -6  -1  -1 13.4846 3.06159   2
  -6  -1  -1 20.1137 5.69914   1
   6   1   1 13.1654 5.62426   3
  -7  -1  -1 139.126 9.01023   2
  -7  -1  -1 127.018 12.2635   1
   7   1   1 136.595 13.9840   3
  -8  -1  -1 201.305 16.6402   1
  -8  -1  -1 223.125 12.5875   2
   8   1   1 210.317 18.7052   3
   9  -2  -1 98.9690 14.5648   3
  -9   2   1 80.9703 13.1314   1
   8  -2  -1 10.4699 6.49176   3
  -8   2   1 2.67703 5.79585   1
   7  -2  -1 721.207 37.6364   3
  -7   2   1 680.401 37.3931   1
   6  -2  -1 2185.62 94.4899   3
  -6   2   1 1963.83 97.8328   1
   5  -2  -1 25.8790 5.32302   3
  -5   2   1 16.2044 4.55243   1
   4  -2  -1 162.402 11.0429   3
  -4   2   1 176.037 11.1871   1
   3  -2  -1 2570.50 113.199   3
  -3   2   1 2660.99 113.351   1
   2  -2  -1 268.563 12.0701   2
   2  -2  -1 261.180 13.2478   1
   2  -2  -1 265.339 13.6534   3
  -2   2   1 278.722 13.3932   1
  -2   2   1 283.789 11.8518   2
  -2   2   1 263.495 13.7672   3
  -2   2   1 275.223 13.5406   1
   0  -2  -1 12.7379 1.74172   3
   0  -2  -1 15.9785 1.55021   2
   0   2   1 14.0777 0.92443   1
   0   2   1 13.8129 1.51668   2
   0   2   1 13.8265 1.78040   3
   1   2   1 2625.02 111.716   2
  -2  -2  -1 1020.22 45.6748   1
  -2  -2  -1 1081.96 45.9198   2
   2   2   1 1017.51 45.6749   1
   2   2   1 1086.87 46.9743   3
  -4  -2  -1 1383.19 60.6999   1
  -4  -2  -1 1276.87 59.4649   2
   4   2   1 1418.70 62.5805   3
  -5  -2  -1 1261.65 56.6898   2
  -5  -2  -1 1337.02 58.6268   1
   5   2   1 1244.18 60.3806   3
  -6  -2  -1 3.23666 3.80830   1
  -6  -2  -1 1.43873 2.43880   2
  -7  -2  -1 40.2970 7.70420   1
  -7  -2  -1 37.1183 5.27065   2
   7   2   1 30.3951 8.21084   3
  -8  -2  -1 60.8518 6.91130   2
  -8  -2  -1 70.9053 10.8096   1
   8   2   1 63.2555 11.9563   3
   9  -3  -1 266.032 23.6632   3
  -9   3   1 246.832 21.3508   1
   8  -3  -1 52.7235 10.2043   3
  -8   3   1 77.5846 12.3972   1
   7  -3  -1 1216.33 59.7906   3
  -7   3   1 1255.54 60.6312   1
   6  -3  -1 567.894 30.6216   3
  -6   3   1 579.429 31.1627   1
   5  -3  -1 1828.44 80.2253   3
  -5   3   1 1722.12 80.1806   1
   4  -3  -1 134.617 9.45010   3
  -4   3   1 115.916 9.17687   1
   3  -3  -1 4929.27 227.205   3
  -3   3   1 5650.31 224.409   2
  -3   3   1 5387.22 224.464   2
   2  -3  -1 213.533 11.1250   3
   2  -3  -1 202.901 11.1008   1
   2  -3  -1 221.554 9.66318   2
  -2   3   1 186.401 10.7830   1
  -2   3   1 221.621 9.63417   2
  -2   3   1 189.857 11.1782   1
   0  -3  -1 122.959 6.27202   2
   0  -3  -1 112.009 6.51304   3
   0   3   1 120.319 5.33070   1
   0   3   1 121.383 6.24236   2
   0   3   1 108.588 6.45331   3
   0   3   1 116.610 5.19734   1
   0   3   1 97.4641 6.23679   3
  -1  -3  -1 522.591 23.8864   2
   1   3   1 539.812 22.6993   1
   1   3   1 516.321 24.3574   3
  -2  -3  -1 651.689 30.7690   2
  -2  -3  -1 715.270 30.1922   1
   2   3   1 650.675 31.7822   3
   2   3   1 713.706 30.6057   1
  -3  -3  -1 1481.16 64.4114   2
  -3  -3  -1 1477.39 64.2431   1
   3   3   1 1458.67 66.2433   3
  -4  -3  -1 2213.27 97.1412   2
  -4  -3  -1 2141.58 97.4707   1
   4   3   1 2379.81 100.354   3
  -5  -3  -1 8.56007 2.99316   2
  -5  -3  -1 10.9374 3.81601   1
   5   3   1 14.8640 5.74636   3
  -6  -3  -1 992.053 45.6784   2
  -6  -3  -1 1064.88 47.7775   1
   6   3   1 925.142 50.0655   3
  -7  -3  -1 81.8615 9.91074   1
  -7  -3  -1 82.0423 7.60479   2
   7   3   1 65.6919 11.5633   3
  -8  -3  -1 346.329 19.7790   2
  -8  -3  -1 383.392 23.1793   1
   8   3   1 338.211 26.1202   3
  -9   4   1 178.873 18.3359   1
   8  -4  -1 167.529 15.7297   3
  -8   4   1 162.189 16.2567   1
   7  -4  -1 394.504 24.4317   3
  -7   4   1 405.758 25.4883   1
   6  -4  -1 1624.61 76.0473   3
  -6   4   1 1687.64 77.0772   1
   5  -4  -1 997.789 48.2278   3
  -5   4   1 1046.85 49.0519   1
   4  -4  -1 2024.09 86.4811   3
  -4   4   1 1956.17 86.8023   1
  -4   4   1 1854.61 82.6488   2
  -4   4   1 1973.45 82.8009   2
   3  -4  -1 3817.23 155.951   2
   3  -4  -1 3419.10 157.927   3
  -3   4   1 3826.38 155.891   2
  -3   4   1 3661.35 158.393   1
   2  -4  -1 622.653 29.9214   3
   2  -4  -1 675.728 28.7802   2
  -2   4   1 648.904 29.8983   1
  -2   4   1 655.219 28.6908   2
   0  -4  -1 1597.21 72.5741   3
   0  -4  -1 1684.07 71.0126   1
   0  -4  -1 1707.12 72.2106   2
   0   4   1 1672.01 71.0024   1
   0   4   1 1645.73 70.8471   1
   0   4   1 1728.32 72.6848   3
   1   4   1 4225.83 180.813   3
  -2  -4  -1 235.389 12.5837   2
  -2  -4  -1 248.589 11.4636   1
   2   4   1 224.019 13.5796   3
   2   4   1 253.516 11.5482   1
  -3  -4  -1 117.824 7.08758   1
  -3  -4  -1 112.531 7.70658   2
   3   4   1 120.510 9.48888   3
  -4  -4  -1 1062.52 50.1558   2
  -4  -4  -1 1155.33 50.1471   1
   4   4   1 1128.46 53.2415   3
  -5  -4  -1 1184.80 52.0477   2
  -5  -4  -1 1103.24 52.0823   1
   5   4   1 1142.93 55.8015   3
  -6  -4  -1 126.748 10.5064   1
  -6  -4  -1 146.797 10.1784   2
   6   4   1 126.741 13.8973   3
  -7  -4  -1 91.7739 10.2420   1
  -7  -4  -1 110.261 9.33521   2
   7   4   1 110.790 14.5704   3
  -8  -4  -1 85.8813 10.9788   1
  -8  -4  -1 99.1031 9.37551   2
   8  -5  -1 249.870 19.1402   3
  -8   5   1 239.510 20.2505   1
   7  -5  -1 91.1824 10.9685   3
  -7   5   1 73.8482 11.6071   1
   6  -5  -1 292.957 23.5081   3
  -6   5   1 306.880 20.0043   1
   5  -5  -1 331.279 20.0927   3
  -5   5   1 391.446 21.6235   1
   4  -5  -1 590.446 24.6172   2
   4  -5  -1 542.410 27.4156   3
  -4   5   1 545.183 28.0309   1
  -4   5   1 512.442 24.2758   2
  -4   5   1 560.983 24.5781   2
   3  -5  -1 98.2879 8.04878   3
   3  -5  -1 113.937 6.49020   2
  -3   5   1 134.202 8.83963   1
  -3   5   1 109.945 6.24346   2
   2  -5  -1 752.690 35.0782   3
   2  -5  -1 773.834 34.0681   2
  -2   5   1 771.377 34.9858   1
   0  -5  -1 7.54666 1.36582   1
   0  -5  -1 7.63834 2.14036   2
   0  -5  -1 4.64471 2.11759   3
   0   5   1 7.65117 2.31079   3
   0   5   1 8.56510 1.25459   1
   0   5   1 5.81455 1.23082   1
  -1  -5  -1 2177.70 92.6450   2
  -1  -5  -1 2106.82 90.4375   1
   1   5   1 2136.35 93.4648   3
  -2  -5  -1 3496.02 146.081   2
  -2  -5  -1 3365.39 144.046   1
   2   5   1 3529.00 147.628   3
   2   5   1 3222.29 144.169   1
  -3  -5  -1 5013.13 205.859   1
  -3  -5  -1 4759.99 207.188   2
   3   5   1 4733.34 206.167   1
   3   5   1 4888.35 209.568   3
  -4  -5  -1 192.205 12.3917   1
  -4  -5  -1 206.283 12.8196   2
   4   5   1 252.427 16.1705   3
  -5  -5  -1 1393.93 60.8664   1
  -5  -5  -1 1393.05 61.2733   2
   5   5   1 1261.12 64.8630   3
  -6  -5  -1 0.06094 3.20923   2
  -6  -5  -1 1.46910 3.55937   1
   6   5   1 5.42259 6.15899   3
  -7  -5  -1 241.231 15.1245   2
  -7  -5  -1 222.283 15.5572   1
   7   5   1 213.985 19.7920   3
   8  -6  -1 77.8307 11.6884   3
  -8   6   1 96.7980 15.8839   1
   7  -6  -1 2444.81 110.268   3
  -7   6   1 2443.86 112.420   1
   6  -6  -1 9.88789 4.98648   3
  -6   6   1 9.23615 5.61619   1
   5  -6  -1 819.596 38.0315   3
  -5   6   1 706.979 34.1537   2
  -5   6   1 799.756 39.1048   1
  -5   6   1 764.521 33.8015   2
   4  -6  -1 2987.93 127.625   3
   4  -6  -1 2940.02 124.953   2
  -4   6   1 2913.78 124.946   2
  -4   6   1 2868.75 128.292   1
   3  -6  -1 949.212 41.6857   3
   3  -6  -1 906.551 39.9650   2
  -3   6   1 839.889 41.6617   1
   2  -6  -1 315.304 15.6898   3
  -2   6   1 263.698 14.8797   1
   1  -6  -1 1045.41 46.8604   2
   1  -6  -1 1061.82 46.3960   1
   1  -6  -1 1061.18 47.6621   3
  -1   6   1 1045.64 46.3348   1
  -1   6   1 1072.40 47.5910   3
  -1   6   1 1040.82 45.7436   1
   0  -6  -1 24.6212 3.70066   2
   0  -6  -1 20.9055 4.21529   3
   0  -6  -1 23.4083 2.42200   1
   0   6   1 28.7465 2.47351   1
   0   6   1 33.5100 4.48812   3
   0   6   1 23.4220 2.13366   1
  -1  -6  -1 205.803 9.15063   1
  -1  -6  -1 196.050 11.3816   2
   1   6   1 199.315 12.3883   3
  -2  -6  -1 886.053 40.6588   2
  -2  -6  -1 918.457 38.1922   1
   2   6   1 810.672 38.2977   1
   2   6   1 933.298 42.6153   3
  -3  -6  -1 3.69292 2.64985   2
  -3  -6  -1 3.53529 1.78093   1
   3   6   1 5.02643 1.73440   1
   3   6   1 1.88172 3.77147   3
  -4  -6  -1 251.359 14.5489   1
  -4  -6  -1 280.238 15.6594   2
   4   6   1 278.029 23.1566   3
  -5  -6  -1 607.263 29.9326   1
  -5  -6  -1 648.847 31.3474   2
   5   6   1 627.861 35.6464   3
  -6  -6  -1 762.529 38.1210   2
  -6  -6  -1 813.345 37.6859   1
   6   6   1 757.744 43.4014   3
  -7  -6  -1 14.5947 5.46386   2
  -7  -6  -1 17.7980 5.50332   1
   7   6   1 11.1079 8.30036   3
   8  -7  -1 160.003 15.1459   3
  -8   7   1 167.238 17.2646   1
   7  -7  -1 135.934 13.0306   3
  -7   7   1 159.657 15.2446   1
   6  -7  -1 482.875 27.4587   3
  -6   7   1 529.070 29.5750   1
  -5   7   1 113.755 10.7878   1
  -5   7   1 98.8740 6.56353   2
   4  -7  -1 1345.91 59.5918   2
   4  -7  -1 1311.90 61.6320   3
  -4   7   1 1401.20 62.8489   1
  -4   7   1 1377.09 59.6167   2
   3  -7  -1 32.3491 4.22874   2
   3  -7  -1 36.5057 5.55611   3
   2  -7  -1 2161.30 91.3111   2
   2  -7  -1 2084.08 91.3545   3
  -2   7   1 2003.01 91.9936   1
   1  -7  -1 1595.83 65.4751   3
   1  -7  -1 1466.12 64.3007   2
  -1   7   1 1296.02 62.5927   1
  -1   7   1 1448.60 63.4133   1
  -1   7   1 1482.79 65.0213   3
   0  -7  -1 6128.02 270.637   3
   0  -7  -1 5985.35 269.668   2
   0  -7  -1 6395.72 267.876   1
   0   7   1 6773.10 270.919   3
   0   7   1 6144.42 267.615   1
   0   7   1 6612.05 267.880   1
  -1  -7  -1 23.4910 4.02059   2
  -2  -7  -1 1097.03 44.9523   1
  -2  -7  -1 1024.43 47.9922   2
   2   7   1 1027.79 49.9496   3
   2   7   1 1043.74 45.1185   1
  -3  -7  -1 40.5617 5.94340   2
  -3  -7  -1 42.4101 3.52305   1
   3   7   1 40.2506 3.53854   1
   3   7   1 41.5791 8.77674   3
  -4  -7  -1 2.61514 3.55918   2
  -4  -7  -1 8.07136 2.58769   1
   4   7   1 8.09487 5.46553   3
  -5  -7  -1 81.7817 8.81839   2
  -5  -7  -1 73.6501 6.90946   1
   5   7   1 81.1896 12.4242   3
  -6  -7  -1 53.6034 8.08249   2
  -6  -7  -1 49.3035 6.94573   1
   6   7   1 39.5790 10.3122   3
  -7  -7  -1 37.0443 6.81749   1
  -7  -7  -1 25.4145 6.73798   2
   7   7   1 35.7661 10.9732   3
   8  -8  -1 113.601 17.4172   3
  -8   8   1 102.517 14.3600   1
   7  -8  -1 78.1598 10.7620   3
  -7   8   1 98.4929 12.6023   1
   6  -8  -1 78.7527 10.0092   3
  -6   8   1 66.1879 10.4565   1
  -6   8   1 63.0338 4.91446   2
   5  -8  -1 162.718 13.0579   3
  -5   8   1 177.402 14.0962   1
   4  -8  -1 68.6735 5.99974   2
   4  -8  -1 60.1267 7.84339   3
  -4   8   1 49.0544 7.28607   1
   3  -8  -1 17.9374 3.78476   2
   3  -8  -1 16.4545 4.62682   3
  -3   8   1 24.4473 4.86475   1
   2  -8  -1 277.327 16.5087   3
   2  -8  -1 294.463 15.6160   2
  -2   8   1 297.804 15.6777   1
   1  -8  -1 4598.26 189.906   3
   1  -8  -1 4348.48 188.740   2
  -1   8   1 4372.86 189.419   3
  -1   8   1 4299.87 187.489   1
   0  -8  -1 2120.64 97.2229   3
   0  -8  -1 2105.13 96.1266   2
   0  -8  -1 2174.90 93.9702   1
   0   8   1 2288.16 93.9482   1
   0   8   1 2299.92 97.4474   3
  -1  -8  -1 4032.20 178.272   2
   1   8   1 4252.99 180.046   3
  -2  -8  -1 25.4900 5.82352   2
   2   8   1 27.3230 7.90615   3
  -3  -8  -1 108.942 5.91478   1
  -3  -8  -1 127.026 9.56239   2
  -3  -8  -1 105.142 6.99881   1
   3   8   1 113.898 11.9212   3
  -4  -8  -1 78.4254 5.54920   1
  -4  -8  -1 69.5646 8.41427   2
   4   8   1 78.7760 11.6709   3
  -5  -8  -1 1319.37 56.4156   1
  -5  -8  -1 1250.61 59.5782   2
   5   8   1 1233.63 64.4935   3
  -6  -8  -1 197.968 14.9325   2
  -6  -8  -1 179.768 11.7744   1
   7  -9  -1 195.887 16.0844   3
  -7   9   1 212.910 18.4960   1
   6  -9  -1 213.924 15.9673   3
  -6   9   1 233.775 17.5317   1
  -6   9   1 198.088 11.8984   2
   5  -9  -1 807.518 38.1900   2
   5  -9  -1 854.764 40.9432   3
  -5   9   1 866.806 42.5042   1
  -5   9   1 795.423 38.0424   2
   4  -9  -1 439.089 25.2285   3
   4  -9  -1 550.144 24.2234   2
  -4   9   1 443.631 25.6417   1
   3  -9  -1 104.029 8.19567   2
   3  -9  -1 84.0135 9.18473   3
  -3   9   1 110.657 9.11029   1
   2  -9  -1 91.4888 7.72546   2
   2  -9  -1 84.4137 13.2976   3
  -2   9   1 89.7299 7.37848   1
  -2   9   1 82.9384 12.8890   3
   1  -9  -1 1149.22 53.3004   3
   1  -9  -1 1118.59 51.8452   2
  -1   9   1 1144.28 53.8978   3
  -1   9   1 1127.12 50.2530   1
   0  -9  -1 111.041 8.99980   2
   0   9   1 103.299 6.01547   1
   0   9   1 91.2168 12.1988   3
  -1  -9  -1 605.629 31.2436   2
   1   9   1 661.356 33.2584   3
  -2  -9  -1 652.062 32.6795   2
   2   9   1 656.028 35.1946   3
  -3  -9  -1 126.054 10.5390   2
   3   9   1 137.088 13.9594   3
  -4  -9  -1 851.744 40.1826   2
  -4  -9  -1 753.326 34.9557   1
   4   9   1 816.714 44.4661   3
  -5  -9  -1 120.858 11.5111   2
   5   9   1 94.1448 15.0267   3
  -6  -9  -1 266.022 18.3580   2
   6   9   1 252.743 23.4581   3
   6 -10  -1 84.6091 10.9848   3
  -6  10   1 83.5275 11.2324   1
  -6  10   1 66.6147 6.61997   2
   5 -10  -1 457.734 25.6439   3
   5 -10  -1 425.976 22.9251   2
  -5  10   1 455.558 22.9413   2
  -5  10   1 472.522 26.5822   1
   4 -10  -1 1616.56 70.3260   2
   4 -10  -1 1507.26 71.5263   3
  -4  10   1 1575.97 72.0977   1
   3 -10  -1 11.8190 5.17327   3
   3 -10  -1 5.11591 3.81746   2
  -3  10   1 13.5447 5.11999   3
  -3  10   1 4.90384 3.75039   1
   2 -10  -1 1376.02 63.4976   2
   2 -10  -1 1428.99 64.7254   3
  -2  10   1 1400.70 64.2935   3
  -2  10   1 1395.71 62.7001   1
   1 -10  -1 2158.26 92.1522   3
   1 -10  -1 1973.12 90.4713   2
  -1  10   1 2000.17 91.3355   3
  -1  10   1 2030.80 88.4605   1
   0 -10  -1 2157.68 100.386   2
   0  10   1 2227.80 96.9500   1
   0  10   1 2432.26 102.332   3
  -1 -10  -1 191.969 14.0006   2
   1  10   1 228.980 16.2714   3
  -2 -10  -1 33.5964 6.56228   2
   2  10   1 35.1546 8.45137   3
  -3 -10  -1 312.943 19.9785   2
   3  10   1 352.462 24.2622   3
  -4 -10  -1 190.646 14.6248   2
   4  10   1 162.049 17.5404   3
  -5 -10  -1 115.547 12.1347   2
   5  10   1 95.4348 15.9441   3
   6 -11  -1 132.720 13.0340   3
  -6  11   1 95.3199 8.64109   2
  -6  11   1 103.198 12.7625   1
   5 -11  -1 7.85207 4.51614   2
   5 -11  -1 5.03213 5.77604   3
  -5  11   1 11.7382 6.21114   1
  -5  11   1 4.94002 3.71276   2
   4 -11  -1 42.9879 6.60416   2
   4 -11  -1 40.4814 7.96972   3
   3 -11  -1 72.2804 8.56798   2
   3 -11  -1 80.6921 10.3072   3
  -3  11   1 88.8089 10.0141   3
  -3  11   1 66.6426 8.25408   1
   2 -11  -1 27.7877 6.78168   3
   2 -11  -1 28.5914 6.03120   2
  -2  11   1 23.4937 6.11381   3
  -2  11   1 33.1356 5.25170   1
   1 -11  -1 1178.47 55.5701   2
   1 -11  -1 1274.73 57.4007   3
  -1  11   1 1174.20 52.7045   1
  -1  11   1 1140.81 56.3529   3
   0 -11  -1 494.963 27.1071   2
   0  11   1 527.100 28.9108   3
  -1 -11  -1 578.553 31.0073   2
   1  11   1 614.751 33.5370   3
  -2 -11  -1 -1.1039 4.30467   2
   2  11   1 -1.3652 5.40184   3
  -3 -11  -1 800.628 40.7711   2
   3  11   1 799.642 44.8940   3
  -4 -11  -1 26.7011 7.20234   2
   4  11   1 26.2052 9.84300   3
   5 -12  -1 163.673 13.0632   2
   5 -12  -1 190.805 23.4491   3
  -5  12   1 164.775 14.6154   1
  -5  12   1 190.813 12.8578   2
   4 -12  -1 45.4652 8.61935   3
   4 -12  -1 48.4878 7.57868   2
  -4  12   1 53.6073 8.48965   1
  -4  12   1 38.1281 8.00828   3
   3 -12  -1 554.851 30.0903   2
   3 -12  -1 559.509 31.3980   3
  -3  12   1 568.475 29.4411   1
  -3  12   1 633.237 31.4873   3
   2 -12  -1 28.2377 7.36623   3
   2 -12  -1 35.6022 7.23625   2
  -2  12   1 25.2803 7.02764   3
  -2  12   1 30.7137 5.01696   1
   1 -12  -1 6.17499 4.71594   2
  -1  12   1 5.94525 2.58195   1
  -1  12   1 2.29824 5.07373   3
   0 -12  -1 146.299 12.5240   2
   0  12   1 134.803 13.9402   3
  -1 -12  -1 22.1742 6.06272   2
   1  12   1 20.0512 7.35923   3
   2  12   1 181.183 24.3115   3
  -3 -12  -1 203.668 16.5865   2
   3  12   1 233.359 21.3429   3
   4 -13  -1 659.218 32.6231   2
   4 -13  -1 578.677 33.5767   3
  -4  13   1 587.208 33.1179   3
  -4  13   1 622.775 32.2171   1
   3 -13  -1 245.543 17.0210   2
   3 -13  -1 222.761 22.5378   3
  -3  13   1 251.521 19.1100   3
  -3  13   1 259.209 15.7437   1
   2 -13  -1 364.941 22.3856   2
   2 -13  -1 363.877 27.6340   3
  -2  13   1 365.220 19.4039   1
  -2  13   1 421.562 33.4246   3
   1 -13  -1 107.019 11.3373   2
   0 -13  -1 84.2966 12.8290   2
   0  13   1 91.8082 12.2640   3
  -1 -13  -1 10.0571 5.88591   2
   1  13   1 7.01871 6.88313   3
   1  14  -2 209.314 19.1513   3
  -1 -14   2 200.272 16.5845   2
   0  14  -2 3.16931 7.06413   3
   0  14  -2 4.22804 3.56914   1
   0 -14   2 7.66435 5.93978   2
   0 -14   2 5.80308 4.10605   1
  -1  14  -2 60.8201 7.36408   1
  -1  14  -2 54.0425 9.85899   3
   1 -14   2 58.6686 7.92017   1
  -2  14  -2 0.65528 5.13030   3
  -2  14  -2 3.77346 7.13622   1
   2 -14   2 0.36813 4.54728   1
   2 -14   2 -4.2725 4.78099   2
  -3  14  -2 429.695 25.5215   3
  -3  14  -2 442.412 24.9946   1
  -3  14  -2 411.178 25.1430   2
   3 -14   2 430.648 25.9015   3
   3 -14   2 401.683 25.4428   2
   3  13  -2 136.492 17.5245   3
  -3 -13   2 134.880 13.7761   2
  -2 -13   2 71.8601 10.5266   2
  -2 -13   2 70.4420 6.77277   1
   1  13  -2 153.932 16.1980   3
  -1 -13   2 171.561 11.1015   1
  -1 -13   2 168.809 14.3412   2
   0  13  -2 27.7755 4.86493   1
   0  13  -2 29.2686 7.78804   3
   0 -13   2 47.1209 8.43199   2
  -1  13  -2 3.10080 3.59357   1
  -1  13  -2 10.7615 5.79742   3
   1 -13   2 14.1667 5.12374   1
   1 -13   2 18.5016 6.61151   2
  -2  13  -2 43.4238 7.91760   3
  -2  13  -2 27.8649 5.96183   1
   2 -13   2 30.1169 7.15216   2
   2 -13   2 35.6319 6.87430   1
  -3  13  -2 -1.1153 4.59783   2
  -3  13  -2 6.22034 5.16270   3
  -3  13  -2 7.99626 5.22231   1
   3 -13   2 6.55259 5.35182   1
   3 -13   2 2.19188 5.17710   2
   3 -13   2 5.88379 5.64230   3
  -4  13  -2 839.954 42.2284   2
  -4  13  -2 925.367 42.5175   3
  -4  13  -2 827.441 43.3150   1
   4 -13   2 784.579 42.1620   2
   4 -13   2 845.950 42.5605   3
   4  12  -2 196.382 20.4081   3
  -4 -12   2 191.477 16.0145   2
   3  12  -2 33.9100 10.0318   3
  -3 -12   2 42.8378 5.49356   1
  -3 -12   2 35.6801 8.00570   2
   2  12  -2 1817.01 86.7581   3
  -2 -12   2 1830.66 79.0161   1
  -2 -12   2 1795.89 83.4258   2
   1  12  -2 4.18151 6.05772   3
  -1 -12   2 3.14973 4.89227   2
  -1 -12   2 4.44602 3.34464   1
   0  12  -2 291.430 20.3727   3
   0 -12   2 311.449 19.6378   2
   0 -12   2 335.275 17.6100   1
  -1  12  -2 495.743 26.6995   3
  -1  12  -2 470.712 24.3964   1
   1 -12   2 456.232 24.5668   1
   1 -12   2 476.239 26.4540   2
  -2  12  -2 339.898 19.1987   1
  -2  12  -2 299.823 19.4647   3
   2 -12   2 298.509 19.5860   2
   2 -12   2 324.216 20.1681   3
   2 -12   2 356.528 19.8476   1
  -3  12  -2 29.9718 6.30060   2
  -3  12  -2 29.7101 6.42302   1
  -3  12  -2 23.8857 5.94737   3
   3 -12   2 32.5784 6.64187   2
  -4  12  -2 88.6255 11.2015   1
  -4  12  -2 83.9980 9.83737   2
  -4  12  -2 112.579 10.7390   3
   4 -12   2 97.7890 10.4919   2
   4 -12   2 98.4537 10.9989   3
  -5  12  -2 10.9967 5.66530   3
  -5  12  -2 9.32358 6.21218   1
  -5  12  -2 5.21351 4.50807   2
   5 -12   2 8.67594 5.61065   3
   5  11  -2 4.75575 8.48246   3
  -5 -11   2 6.16499 3.57646   1
  -5 -11   2 1.24881 5.40649   2
   4  11  -2 41.2127 10.8742   3
  -4 -11   2 30.2588 7.02877   2
  -4 -11   2 37.7910 5.25358   1
   3  11  -2 532.056 32.1083   3
  -3 -11   2 536.173 28.4317   2
  -3 -11   2 475.773 23.9053   1
   2  11  -2 353.715 23.1018   3
  -2 -11   2 328.598 20.0469   2
  -2 -11   2 304.503 16.3654   1
   1  11  -2 800.923 40.3884   3
  -1 -11   2 741.804 38.2682   2
  -1 -11   2 766.340 35.2639   1
   0  11  -2 59.1196 8.88371   3
   0 -11   2 51.1131 7.54016   2
   0 -11   2 59.0101 6.51254   1
  -1  11  -2 1560.88 68.7505   1
  -1  11  -2 1640.48 70.6375   3
   1 -11   2 1488.77 68.7203   1
   1 -11   2 1438.80 69.7912   2
  -2  11  -2 775.698 39.2492   3
  -2  11  -2 849.203 39.4611   1
   2 -11   2 867.812 39.7993   1
   2 -11   2 793.613 39.6542   3
   2 -11   2 774.726 39.6298   2
  -3  11  -2 1129.39 53.6590   2
  -3  11  -2 1183.60 54.5677   1
  -3  11  -2 1151.80 53.4116   3
   3 -11   2 1128.07 53.8617   2
   3 -11   2 1155.50 53.7283   3
   3 -11   2 1139.52 54.5702   1
  -4  11  -2 45.5865 7.08584   3
  -4  11  -2 29.1974 7.10731   1
  -4  11  -2 31.0600 7.30814   2
   4 -11   2 33.5744 6.60134   3
   4 -11   2 35.2024 6.47245   2
   4 -11   2 21.6256 7.00898   1
  -5  11  -2 884.213 43.2293   2
  -5  11  -2 926.616 46.9444   1
   5 -11   2 909.334 44.0130   3
  -6  11  -2 112.749 9.57684   2
  -6  11  -2 116.291 13.8329   1
   6 -11   2 107.865 11.5185   3
   6  10  -2 10.6220 9.01360   3
  -6 -10   2 6.75863 4.95055   1
  -6 -10   2 9.36222 6.22152   2
   5  10  -2 577.675 38.2624   3
  -5 -10   2 602.615 32.4046   2
  -5 -10   2 626.728 29.4022   1
   4  10  -2 7.03954 7.04245   3
  -4 -10   2 2.39756 4.40179   2
  -4 -10   2 6.08425 3.20433   1
   3  10  -2 201.863 17.1112   3
  -3 -10   2 198.017 13.9551   2
  -3 -10   2 176.613 10.6605   1
   2  10  -2 498.802 29.8521   3
  -2 -10   2 516.592 27.5787   2
  -2 -10   2 545.139 24.6484   1
   1  10  -2 942.677 47.1979   3
  -1 -10   2 984.507 43.1034   1
  -1 -10   2 947.699 45.7416   2
   0  10  -2 721.598 37.2681   3
   0 -10   2 769.231 34.8814   1
   0 -10   2 763.929 36.8363   2
  -1  10  -2 19.7574 4.98269   3
   1 -10   2 15.3752 4.37246   1
   1 -10   2 17.6024 4.91159   2
   1 -10   2 23.1095 5.41300   3
  -2  10  -2 1481.83 66.8402   1
  -2  10  -2 1560.93 66.8209   3
   2 -10   2 1484.16 67.0075   2
   2 -10   2 1455.17 66.8010   3
   2 -10   2 1392.33 66.7284   1
  -3  10  -2 7.89129 4.30013   1
  -3  10  -2 6.28960 3.90092   2
  -3  10  -2 3.94261 3.78076   3
   3 -10   2 4.83010 3.97693   2
   3 -10   2 10.2153 4.95662   1
   3 -10   2 4.71361 3.94767   3
  -4  10  -2 62.5085 8.89619   1
  -4  10  -2 59.3739 7.62732   2
   4 -10   2 66.4109 8.41879   3
   4 -10   2 67.0054 9.64573   1
   4 -10   2 69.6415 7.55840   2
  -5  10  -2 33.9591 8.07574   1
  -6  10  -2 199.867 17.5371   1
  -6  10  -2 181.797 12.1925   2
   6 -10   2 178.910 13.8503   3
  -7  10  -2 87.4672 13.7756   1
   7 -10   2 69.5141 9.88182   3
   6   9  -2 396.972 29.4655   3
  -6  -9   2 424.770 23.4816   2
  -6  -9   2 349.015 22.9948   1
   5   9  -2 483.314 32.0843   3
  -5  -9   2 489.446 24.9198   1
  -5  -9   2 513.887 27.1945   2
   4   9  -2 1493.29 74.6749   3
  -4  -9   2 1572.74 70.4818   2
  -4  -9   2 1540.14 67.8409   1
   3   9  -2 114.302 12.6970   3
  -3  -9   2 133.375 8.44343   1
  -3  -9   2 136.636 10.6967   2
   2   9  -2 615.441 44.7468   3
  -2  -9   2 734.876 34.5794   2
  -2  -9   2 723.667 31.8919   1
   1   9  -2 43.1036 7.05067   3
  -1  -9   2 45.1703 4.82679   1
  -1  -9   2 38.7986 5.94866   2
   0   9  -2 2538.13 110.911   3
   0  -9   2 2506.25 110.277   2
   0  -9   2 2504.94 108.573   1
  -1   9  -2 1307.38 57.8651   3
   1  -9   2 1277.24 57.8205   2
   1  -9   2 1253.36 56.9917   1
   1  -9   2 1244.83 57.8526   3
  -2   9  -2 2222.46 94.7990   1
  -2   9  -2 2097.20 93.9896   3
   2  -9   2 2091.84 94.3684   2
   2  -9   2 2164.65 94.7911   1
   2  -9   2 2140.64 94.2771   3
  -3   9  -2 335.558 19.5404   1
  -3   9  -2 347.075 18.3740   2
   3  -9   2 328.118 19.6170   1
   3  -9   2 323.355 18.2610   3
   3  -9   2 343.181 18.4096   2
  -4   9  -2 8.09484 6.01910   1
  -4   9  -2 10.0232 3.70893   2
   4  -9   2 8.59173 3.66710   2
   4  -9   2 8.56192 4.07189   3
  -5   9  -2 40.6576 8.35336   1
  -5   9  -2 54.2129 6.28637   2
  -6   9  -2 7.00301 6.16306   1
  -6   9  -2 6.72930 3.63937   2
   6  -9   2 6.75475 4.70268   3
  -7   9  -2 67.2771 13.4670   1
   7  -9   2 88.8311 10.3451   3
   7   8  -2 15.9470 9.90921   3
  -7  -8   2 18.0527 5.92203   1
  -7  -8   2 12.0796 5.70293   2
   6   8  -2 12.4461 7.93173   3
   5   8  -2 80.3360 12.7107   3
  -5  -8   2 79.0833 7.87146   1
  -5  -8   2 77.6523 8.86297   2
   4   8  -2 20.1979 7.36872   3
  -4  -8   2 17.5746 4.16945   1
  -4  -8   2 24.8192 5.54292   2
  -3  -8   2 365.876 20.5117   2
  -3  -8   2 377.552 18.5150   1
   2   8  -2 68.2454 8.64303   3
  -2  -8   2 84.3426 7.48671   2
   1   8  -2 2345.70 105.466   3
  -1  -8   2 2389.42 104.387   2
  -1  -8   2 2418.54 102.467   1
   0   8  -2 190.324 12.0920   3
   0  -8   2 182.485 11.6089   2
   0  -8   2 181.454 13.5320   1
  -1   8  -2 4300.66 171.409   3
   1  -8   2 3927.47 171.196   2
   1  -8   2 3734.84 170.494   1
   1  -8   2 3972.57 171.281   3
  -2   8  -2 111.531 8.37345   3
  -2   8  -2 140.200 9.49241   1
   2  -8   2 114.978 8.66342   2
   2  -8   2 132.235 9.62021   1
   2  -8   2 109.989 8.51547   3
  -3   8  -2 3501.61 148.609   2
  -3   8  -2 3568.39 150.296   1
   3  -8   2 3338.45 148.407   2
   3  -8   2 3431.07 150.229   1
   3  -8   2 3390.59 148.348   3
  -4   8  -2 108.992 8.34558   2
  -4   8  -2 91.9353 9.99134   1
   4  -8   2 139.067 9.47529   3
   4  -8   2 110.257 10.7824   1
  -5   8  -2 484.329 23.7899   2
  -5   8  -2 496.865 27.9721   1
   5  -8   2 460.824 24.6446   3
  -6   8  -2 1.24657 2.55607   2
  -6   8  -2 2.84201 5.39441   1
   6  -8   2 5.60547 4.43652   3
  -7   8  -2 28.6628 3.75966   2
  -7   8  -2 42.3864 9.79031   1
   7  -8   2 23.7347 6.53666   3
  -8   8  -2 62.2567 12.5624   1
   8  -8   2 99.9817 11.6934   3
   7   7  -2 374.921 39.5837   3
  -7  -7   2 499.356 26.0479   2
  -7  -7   2 481.292 26.1779   1
   6   7  -2 12.6708 6.84226   3
  -6  -7   2 11.8958 4.64966   2
   5   7  -2 1696.78 82.3909   3
  -5  -7   2 1788.89 77.6729   2
  -5  -7   2 1691.57 76.7723   1
   4   7  -2 407.987 24.8135   3
  -4  -7   2 387.191 20.9714   2
  -4  -7   2 387.663 20.0770   1
   3   7  -2 210.193 15.0644   3
  -3  -7   2 202.128 11.4339   1
  -3  -7   2 193.628 12.4238   2
   2   7  -2 30.6005 5.90907   3
  -2  -7   2 34.6891 3.85560   1
  -2  -7   2 25.2441 4.53373   2
  -1  -7   2 2156.22 89.9598   1
  -1  -7   2 2023.41 91.3445   2
   0   7  -2 438.234 24.3349   3
   0  -7   2 550.057 23.6451   1
   0  -7   2 521.045 24.5885   2
  -1   7  -2 571.275 26.0556   3
   1  -7   2 543.473 26.0821   2
   1  -7   2 554.532 26.1170   3
   1  -7   2 508.780 25.6601   1
  -2   7  -2 518.961 26.9448   1
  -2   7  -2 562.977 26.5543   2
   2  -7   2 561.891 26.4613   2
   2  -7   2 601.506 26.5084   3
   2  -7   2 519.350 27.0359   1
  -3   7  -2 335.356 17.1166   2
  -3   7  -2 318.472 18.6187   1
   3  -7   2 295.558 18.3980   1
   3  -7   2 333.086 17.0960   2
   3  -7   2 360.529 17.3572   3
  -4   7  -2 2546.92 111.611   2
  -4   7  -2 2454.27 114.422   1
   4  -7   2 2587.30 114.862   1
   4  -7   2 2732.93 112.366   3
  -5   7  -2 831.030 46.0575   1
  -5   7  -2 921.987 42.4103   2
   5  -7   2 1050.56 44.3728   3
  -6   7  -2 256.559 19.3623   1
   6  -7   2 276.015 16.8198   3
  -7   7  -2 7.55951 2.24584   2
  -7   7  -2 10.1427 6.30005   1
   7  -7   2 17.3656 6.04443   3
  -8   7  -2 1137.41 58.8984   1
   8  -7   2 1079.15 53.9618   3
   8   6  -2 67.7791 14.0191   3
  -8  -6   2 79.5155 11.0262   1
  -8  -6   2 90.9824 9.61309   2
   7   6  -2 154.330 18.1609   3
  -7  -6   2 169.158 13.6685   1
  -7  -6   2 175.017 12.5922   2
   6   6  -2 755.102 42.5094   3
  -6  -6   2 838.082 37.8769   1
  -6  -6   2 658.934 40.2296   2
   5   6  -2 15.8584 6.17481   3
  -5  -6   2 8.64317 3.85491   2
  -5  -6   2 11.7206 4.18027   1
   4   6  -2 547.856 31.0756   3
  -4  -6   2 595.702 27.7138   1
  -4  -6   2 563.608 27.7933   2
  -3  -6   2 88.4869 7.03568   2
  -3  -6   2 83.8933 6.44877   1
   2   6  -2 8967.36 381.864   3
   1   6  -2 4581.20 191.963   3
  -1  -6   2 4524.26 189.912   1
  -1  -6   2 4315.31 190.954   2
   0   6  -2 2092.24 90.4871   3
   0  -6   2 2078.05 89.4933   1
   0  -6   2 2073.55 90.3174   2
  -1   6  -2 351.182 16.2920   3
   1  -6   2 298.718 16.0142   1
   1  -6   2 320.608 16.1777   3
   1  -6   2 323.978 16.3251   2
  -2   6  -2 2357.31 100.954   2
   2  -6   2 2276.94 100.939   2
   2  -6   2 2374.73 101.936   1
  -3   6  -2 797.733 38.1241   1
   3  -6   2 803.643 38.1585   1
   3  -6   2 789.010 36.2721   3
  -4   6  -2 90.3577 6.64779   2
  -4   6  -2 108.429 9.58295   1
   4  -6   2 75.9511 7.19580   3
   4  -6   2 94.8830 9.35862   1
  -5   6  -2 4.26701 2.46354   2
  -5   6  -2 -0.0530 6.45414   1
   5  -6   2 6.53615 3.61207   3
  -6   6  -2 140.713 13.3670   1
  -6   6  -2 124.566 7.85798   2
   6  -6   2 120.544 10.5964   3
  -7   6  -2 82.7258 5.65859   2
  -7   6  -2 93.0041 12.3680   1
   7  -6   2 99.4663 10.5549   3
   8  -6   2 105.297 12.1814   3
   8   5  -2 318.277 25.3306   3
  -8  -5   2 251.191 16.7619   2
  -8  -5   2 301.933 20.0531   1
   7   5  -2 192.901 19.1292   3
  -7  -5   2 194.389 15.0110   1
  -7  -5   2 195.560 12.9287   2
   6   5  -2 215.645 17.9326   3
  -6  -5   2 193.360 13.8525   1
  -6  -5   2 196.265 12.5665   2
   5   5  -2 375.662 24.3837   3
  -5  -5   2 337.934 19.1307   1
  -5  -5   2 351.214 18.4742   2
   4   5  -2 25.5905 6.16934   3
  -4  -5   2 27.4484 4.62242   1
  -4  -5   2 30.0317 4.41615   2
   3   5  -2 3432.91 155.000   3
  -3  -5   2 3470.02 153.616   1
  -3  -5   2 3780.71 152.855   2
   2   5  -2 807.237 38.4439   3
  -2  -5   2 833.841 37.0266   2
  -2  -5   2 807.051 36.4987   1
   1   5  -2 5495.76 233.096   1
   0   5  -2 2106.58 90.3790   3
   0   5  -2 2018.63 90.4373   1
   0  -5   2 2076.56 89.7404   1
   0  -5   2 2174.10 90.4585   2
  -1   5  -2 613.978 26.5903   3
   1  -5   2 563.616 26.4761   3
   1  -5   2 560.133 26.7488   1
   1  -5   2 596.537 26.8393   2
  -2   5  -2 1003.43 42.1686   2
   2  -5   2 945.863 41.9998   2
   2  -5   2 916.305 42.9623   1
   2  -5   2 915.722 41.7060   3
  -3   5  -2 2209.34 97.4003   1
  -3   5  -2 2198.69 95.3510   2
   3  -5   2 2225.93 95.6793   3
   3  -5   2 2219.62 97.4017   1
  -4   5  -2 1728.34 76.5253   1
  -4   5  -2 1715.55 73.2629   2
   4  -5   2 1582.15 74.1226   3
   4  -5   2 1718.68 76.5255   1
  -5   5  -2 635.714 34.1159   1
  -5   5  -2 655.443 30.0018   2
   5  -5   2 680.650 32.2765   3
  -6   5  -2 217.910 11.6120   2
  -6   5  -2 250.140 17.6155   1
   6  -5   2 219.114 14.9542   3
  -7   5  -2 382.248 18.3164   2
  -7   5  -2 426.575 26.2530   1
   7  -5   2 382.753 23.3415   3
  -8   5  -2 224.654 19.8727   1
   8  -5   2 240.634 18.0724   3
   8   4  -2 56.9112 12.2625   3
  -8  -4   2 44.0518 8.62039   1
  -8  -4   2 48.3328 6.41317   2
   7   4  -2 2009.14 98.6959   3
  -7  -4   2 2172.66 94.9979   1
  -7  -4   2 2081.88 91.7279   2
   6   4  -2 304.668 21.5690   3
  -6  -4   2 289.514 16.1291   2
  -6  -4   2 317.563 18.5406   1
   5   4  -2 2297.07 110.619   3
  -5  -4   2 2510.78 107.955   1
  -5  -4   2 2550.67 106.442   2
   4   4  -2 380.104 22.7676   3
  -4  -4   2 411.707 19.8617   2
  -4  -4   2 424.680 20.8972   1
   3   4  -2 1695.90 77.8893   3
  -3  -4   2 1756.30 77.2285   1
  -3  -4   2 1762.33 75.5664   2
   2   4  -2 1876.15 96.0836   3
  -2  -4   2 2281.66 92.9215   2
  -2  -4   2 2296.90 92.8559   1
   1   4  -2 25.0141 3.36235   3
   1   4  -2 34.8856 3.00432   1
  -1  -4   2 31.2506 3.18307   2
  -1  -4   2 39.8533 3.12326   1
   0   4  -2 132.599 7.44796   3
   0   4  -2 131.093 7.16815   3
   0   4  -2 134.654 7.35540   1
   0  -4   2 146.352 7.34588   1
   0  -4   2 131.445 7.20952   3
   0  -4   2 152.139 7.77565   2
  -1   4  -2 297.051 13.6928   2
  -1   4  -2 288.250 13.4075   3
   1  -4   2 287.771 13.2751   3
   1  -4   2 270.140 13.5644   2
   1  -4   2 255.348 13.6114   1
  -2   4  -2 3758.69 158.194   2
  -2   4  -2 3803.07 157.999   2
  -2   4  -2 3452.58 158.411   3
   2  -4   2 3647.09 159.228   1
   2  -4   2 3782.82 158.005   3
   2  -4   2 3858.16 158.248   2
  -3   4  -2 421.951 24.6492   2
  -3   4  -2 516.385 24.8924   1
  -3   4  -2 514.030 22.8561   2
   3  -4   2 517.945 23.4193   3
   3  -4   2 491.804 24.6785   1
  -4   4  -2 8468.96 365.568   2
   4  -4   2 8829.45 367.174   3
  -5   4  -2 90.0685 6.06911   2
  -5   4  -2 83.5585 9.39022   1
   5  -4   2 112.181 8.76058   3
  -6   4  -2 784.066 36.3785   2
  -6   4  -2 844.195 42.3004   1
   6  -4   2 830.941 40.2227   3
  -7   4  -2 17.3638 6.61419   1
  -7   4  -2 8.26547 2.26696   2
   7  -4   2 8.78151 5.30210   3
  -8   4  -2 462.210 29.2745   1
   8  -4   2 432.770 26.9467   3
   8   3  -2 72.1134 12.8657   3
  -8  -3   2 87.7172 11.0637   1
  -8  -3   2 67.7332 6.65007   2
   7   3  -2 56.7293 10.7464   3
  -7  -3   2 68.4816 9.84088   1
  -7  -3   2 62.2204 6.02549   2
   6   3  -2 293.866 21.0369   3
  -6  -3   2 300.960 15.8410   2
  -6  -3   2 328.396 18.8549   1
   5   3  -2 59.4718 8.76284   3
  -5  -3   2 58.4566 6.77227   1
  -5  -3   2 55.7245 5.07550   2
   4   3  -2 194.831 13.7311   3
  -4  -3   2 196.271 12.0209   2
  -4  -3   2 222.973 12.4592   1
   3   3  -2 852.548 40.6846   3
  -3  -3   2 872.054 38.2953   2
  -3  -3   2 866.128 39.1686   1
   0   3  -2 3775.57 158.672   3
   0   3  -2 3865.42 158.503   3
   0  -3   2 3596.33 158.437   3
  -1   3  -2 196.442 10.0228   2
  -1   3  -2 216.996 9.97342   2
  -1   3  -2 191.760 10.0490   1
  -1   3  -2 203.589 9.71973   3
   1  -3   2 212.917 10.1279   2
   1  -3   2 188.842 10.2188   1
   1  -3   2 217.640 9.61657   3
  -2   3  -2 81.9759 5.00583   2
  -2   3  -2 87.3330 5.29694   3
  -2   3  -2 69.0084 5.66509   1
  -2   3  -2 84.7633 4.87238   2
   2  -3   2 77.8729 4.68124   2
   2  -3   2 91.0668 5.08791   3
   2  -3   2 65.3803 5.62246   1
  -3   3  -2 658.229 28.5886   2
  -3   3  -2 632.122 28.4038   2
   3  -3   2 601.933 28.2086   2
   3  -3   2 685.048 30.6491   1
   3  -3   2 607.057 29.2056   3
  -4   3  -2 1385.08 58.2467   1
  -4   3  -2 1238.58 54.8260   2
   4  -3   2 1281.26 55.1655   2
   4  -3   2 1243.32 57.6905   1
   4  -3   2 1153.86 56.3014   3
  -5   3  -2 123.844 7.01713   2
  -5   3  -2 104.731 10.0679   1
  -6   3  -2 4.31614 4.70524   1
  -6   3  -2 7.72031 2.20809   2
   6  -3   2 9.55324 4.56677   3
  -7   3  -2 612.504 35.1444   1
  -7   3  -2 627.954 28.8947   2
   7  -3   2 668.413 34.3888   3
  -8   3  -2 495.913 30.7811   1
  -8   3  -2 492.962 22.7204   2
   8  -3   2 493.305 29.3806   3
   9   2  -2 36.6538 10.9187   3
  -9  -2   2 43.8167 9.49955   1
   8   2  -2 904.410 47.6837   3
  -8  -2   2 838.257 44.0515   1
  -8  -2   2 813.088 38.1934   2
   7   2  -2 465.405 29.3363   3
  -7  -2   2 471.620 22.5650   2
  -7  -2   2 486.482 27.1412   1
   6   2  -2 358.937 24.3590   3
  -6  -2   2 324.946 19.1686   2
  -6  -2   2 377.224 20.9801   1
   5   2  -2 5.83771 3.95193   3
  -5  -2   2 1.92729 2.96807   1
  -5  -2   2 4.14278 1.96639   2
   4   2  -2 140.129 10.8326   3
  -4  -2   2 145.806 7.78081   2
  -4  -2   2 138.859 9.45504   1
   3   2  -2 4011.81 169.997   2
   3   2  -2 3967.77 172.697   3
  -3  -2   2 4146.93 170.066   2
  -3  -2   2 3910.71 171.343   1
   2   2  -2 27.9593 2.31895   2
   2   2  -2 32.2280 3.73572   3
  -2  -2   2 19.3866 2.69949   1
  -2  -2   2 31.4230 2.48722   2
   1   2  -2 446.536 21.3512   2
   1   2  -2 482.210 21.4382   3
   1   2  -2 442.983 21.1120   1
  -1  -2   2 511.122 20.9154   2
  -1  -2   2 475.016 21.0741   1
  -1  -2   2 444.484 23.3807   3
   0   2  -2 1402.57 69.5074   1
   0   2  -2 1640.59 69.6595   2
   0   2  -2 1706.03 69.6083   2
   0   2  -2 1668.61 69.2299   3
   0  -2   2 1692.82 69.6864   2
   0  -2   2 1665.35 69.1052   3
  -1   2  -2 691.414 38.2036   2
  -1   2  -2 878.449 36.8770   2
  -1   2  -2 889.075 37.0266   1
  -1   2  -2 895.423 36.3878   3
   1  -2   2 937.431 36.2434   3
   1  -2   2 765.988 36.9474   1
  -2   2  -2 465.974 20.4607   1
  -2   2  -2 419.322 19.2109   2
  -2   2  -2 403.091 19.3791   3
   2  -2   2 432.863 20.2136   1
   2  -2   2 409.194 19.2912   3
   2  -2   2 408.212 19.0415   2
  -3   2  -2 3706.23 154.994   1
  -3   2  -2 3671.96 153.084   2
  -3   2  -2 3357.21 155.555   3
   3  -2   2 3846.00 155.000   1
   3  -2   2 3603.02 154.035   3
   3  -2   2 3426.48 152.876   2
  -4   2  -2 429.123 20.4705   2
  -4   2  -2 472.729 23.3291   1
   4  -2   2 433.453 22.5369   3
  -5   2  -2 2916.96 125.481   1
  -5   2  -2 2834.25 121.600   2
   5  -2   2 2781.45 124.430   3
  -6   2  -2 862.288 38.4052   2
  -6   2  -2 909.795 46.1186   1
   6  -2   2 808.032 41.9308   3
  -7   2  -2 567.588 26.6721   2
  -7   2  -2 629.810 33.0064   1
   7  -2   2 534.194 31.2924   3
  -8   2  -2 98.8419 12.8955   1
  -8   2  -2 94.7480 6.66001   2
   8  -2   2 97.0869 12.3596   3
   9   1  -2 407.549 29.1243   3
  -9  -1   2 388.297 26.2867   1
   8   1  -2 32.2643 8.99817   3
  -8  -1   2 14.7123 2.49630   2
  -8  -1   2 19.6648 7.19798   1
   7   1  -2 823.071 44.2964   3
  -7  -1   2 889.509 42.9594   1
  -7  -1   2 803.050 36.9242   2
   6   1  -2 87.9830 10.2108   3
  -6  -1   2 60.5624 4.58908   2
   5   1  -2 1291.10 57.0806   2
   5   1  -2 1349.80 62.1095   3
  -5  -1   2 1320.52 60.5616   1
  -5  -1   2 1330.12 57.0485   2
   4   1  -2 923.665 41.0720   2
   4   1  -2 950.557 44.9274   3
  -4  -1   2 995.207 41.1608   2
  -4  -1   2 923.424 43.6660   1
   3   1  -2 13.0953 3.24349   3
   3   1  -2 14.0823 1.63846   2
  -3  -1   2 9.66797 2.55841   1
  -3  -1   2 14.9276 1.73585   2
   2   1  -2 163.633 10.0378   3
   2   1  -2 174.098 8.48860   2
   2   1  -2 208.328 9.89157   1
  -2  -1   2 176.728 9.91844   3
  -2  -1   2 169.956 8.51465   2
  -2  -1   2 210.144 9.90100   1
   1   1  -2 1562.24 65.1675   1
   1   1  -2 1588.03 64.6624   2
   1   1  -2 1519.81 64.5638   2
   1   1  -2 1478.61 65.2668   3
  -1  -1   2 1489.40 65.1890   3
  -1  -1   2 1479.18 65.0773   1
  -1  -1   2 1503.44 64.6131   2
  -1   1  -2 301.732 12.6213   3
  -1   1  -2 276.687 13.1332   2
  -1   1  -2 265.430 13.4168   1
   1  -1   2 307.136 13.3207   3
   1  -1   2 286.494 13.2749   1
   1  -1   2 271.694 13.0684   2
  -2   1  -2 479.817 20.6883   1
  -2   1  -2 409.989 19.8101   3
  -2   1  -2 435.656 20.0848   1
  -2   1  -2 420.936 19.6870   2
   2  -1   2 414.521 19.9332   3
   2  -1   2 465.428 20.5600   1
   2  -1   2 422.880 19.6660   2
  -3   1  -2 133.565 7.13321   2
  -3   1  -2 112.552 8.12270   1
   3  -1   2 140.820 8.32726   3
   3  -1   2 123.333 7.04319   2
   3  -1   2 127.037 8.44524   1
  -4   1  -2 2285.82 101.073   1
  -4   1  -2 2281.11 98.8457   2
   4  -1   2 2347.89 101.032   3
  -5   1  -2 1804.27 73.9898   2
  -5   1  -2 1670.26 76.8867   1
   5  -1   2 1632.65 76.7324   3
  -6   1  -2 750.800 32.7561   2
  -6   1  -2 676.687 36.5519   1
   6  -1   2 714.710 36.7188   3
  -7   1  -2 107.040 7.64240   2
  -7   1  -2 125.617 12.4104   1
   7  -1   2 105.964 12.1054   3
  -8   1  -2 469.511 24.1145   2
  -8   1  -2 506.994 30.4869   1
   8  -1   2 554.635 31.2192   3
   9   0  -2 37.6536 10.0546   3
  -9   0   2 39.2888 9.77820   1
   8   0  -2 53.8987 10.7443   3
  -8   0   2 41.3379 9.01337   1
   7   0  -2 29.7861 8.06080   3
  -7   0   2 13.4813 5.71388   1
   6   0  -2 4673.88 202.893   2
   6   0  -2 4733.03 209.300   3
  -6   0   2 4838.91 202.785   2
  -6   0   2 4961.95 208.402   1
   5   0  -2 847.628 36.9279   2
   5   0  -2 852.870 42.0201   3
  -5   0   2 836.350 40.9367   1
  -5   0   2 883.608 36.8850   2
   4   0  -2 1219.43 51.3206   2
   4   0  -2 1111.11 55.0563   3
  -4   0   2 1245.44 54.7011   1
  -4   0   2 1232.74 51.3072   2
   3   0  -2 8.59286 2.75617   3
   3   0  -2 8.73896 1.05361   2
  -3   0   2 12.2577 2.86371   1
  -3   0   2 9.20588 1.12278   2
   1   0  -2 1019.62 44.2422   3
   1   0  -2 1056.73 44.1043   1
   1   0  -2 1031.67 43.4651   2
  -1   0   2 1020.61 43.4337   2
  -1   0   2 1003.14 44.2448   3
  -1   0   2 976.583 44.0102   1
  -1   0  -2 170.777 8.58310   1
  -1   0  -2 208.975 8.54804   3
  -1   0  -2 171.800 8.83816   2
   1   0   2 166.355 8.65254   1
   1   0   2 191.245 8.62190   3
  -2   0  -2 18.5239 2.26610   3
  -2   0  -2 15.3449 2.13024   1
  -2   0  -2 20.0870 2.25298   2
  -2   0  -2 19.0050 2.50469   1
   2   0   2 18.7749 2.19745   2
   2   0   2 21.8474 2.66299   3
   2   0   2 20.6803 2.56647   1
  -3   0  -2 961.275 42.6111   2
   3   0   2 978.559 43.9731   3
  -4   0  -2 14.6220 2.63355   2
  -4   0  -2 11.6567 3.33802   1
   4   0   2 17.4657 4.09104   3
  -5   0  -2 616.595 32.2084   1
  -5   0  -2 667.937 29.9531   2
   5   0   2 669.600 33.1372   3
  -6   0  -2 29.7568 6.36837   1
  -6   0  -2 33.3079 4.37729   2
   6   0   2 35.9006 7.06862   3
  -7   0  -2 324.353 21.0174   1
  -7   0  -2 336.228 16.9905   2
   7   0   2 306.146 21.5246   3
   8   0   2 112.083 13.7140   3
   9  -1  -2 26.3871 11.7642   3
  -9   1   2 20.0033 8.37265   1
   8  -1  -2 581.810 33.0644   3
  -8   1   2 505.408 31.4606   1
   7  -1  -2 15.4509 6.58405   3
  -7   1   2 21.5305 6.55999   1
   6  -1  -2 2031.29 89.9332   3
  -6   1   2 1894.60 88.8233   1
   5  -1  -2 17.8989 5.06355   3
  -5   1   2 27.1571 5.55567   1
   4  -1  -2 444.163 22.2609   3
  -4   1   2 392.664 21.3629   1
   3  -1  -2 18.2833 3.43118   3
  -3   1   2 16.0193 3.08273   1
   2  -1  -2 1438.23 56.9553   2
   2  -1  -2 1356.82 59.1138   3
   2  -1  -2 1303.28 58.5585   1
  -2   1   2 1357.30 56.9780   2
  -2   1   2 1316.06 59.1413   3
  -2   1   2 1303.05 58.6529   1
   1  -1  -2 327.059 14.2613   2
   1  -1  -2 313.073 15.0313   3
   1  -1  -2 310.556 14.6912   1
  -1   1   2 352.791 16.2479   3
  -1   1   2 312.675 14.2682   2
  -1   1   2 318.239 14.7367   1
   0  -1  -2 498.153 19.9328   3
   0   1   2 399.380 19.3058   1
  -1  -1  -2 363.799 15.9464   3
  -1  -1  -2 336.672 15.4098   1
  -1  -1  -2 330.043 15.5133   1
  -1  -1  -2 340.048 16.0125   2
   1   1   2 348.734 16.2913   3
   1   1   2 395.185 16.1560   3
   1   1   2 346.001 15.5055   1
   1   1   2 330.506 15.9894   2
  -2  -1  -2 320.789 14.8865   1
  -2  -1  -2 320.940 15.1643   3
  -2  -1  -2 323.109 15.0763   1
  -2  -1  -2 297.284 14.9431   2
   2   1   2 322.209 15.6422   3
  -3  -1  -2 3449.08 144.954   2
  -3  -1  -2 3239.58 145.413   1
   3   1   2 3506.25 146.454   3
  -4  -1  -2 3451.04 144.114   2
  -4  -1  -2 3312.92 145.285   1
   4   1   2 3342.10 146.407   3
  -5  -1  -2 497.738 22.3699   2
  -5  -1  -2 442.113 23.8821   1
   5   1   2 438.560 25.1290   3
  -6  -1  -2 726.551 33.2497   2
  -6  -1  -2 703.053 35.8008   1
   6   1   2 701.688 37.2381   3
  -7  -1  -2 0.98051 2.86533   2
  -7  -1  -2 5.86691 5.01829   1
   7   1   2 2.72758 5.14438   3
  -8  -1  -2 68.2943 7.14420   2
  -8  -1  -2 74.6794 10.7529   1
   8   1   2 89.8062 12.7673   3
   9  -2  -2 191.422 30.2297   3
  -9   2   2 204.812 18.9152   1
   8  -2  -2 181.373 16.8649   3
  -8   2   2 190.609 16.7558   1
   7  -2  -2 825.279 44.8086   3
  -7   2   2 928.095 45.3231   1
   6  -2  -2 465.847 26.3724   3
   5  -2  -2 1650.44 76.0255   3
  -5   2   2 1697.10 75.9380   1
   4  -2  -2 72.2398 7.11810   3
  -4   2   2 59.4420 6.15798   1
   3  -2  -2 3035.05 131.196   3
   2  -2  -2 1415.75 57.5112   2
   2  -2  -2 1394.76 59.0253   1
   2  -2  -2 1237.59 59.2469   3
  -2   2   2 1377.10 59.1481   1
  -2   2   2 1338.83 57.5575   2
  -1   2   2 4697.61 199.488   3
   0  -2  -2 2177.30 88.8868   1
   0  -2  -2 2241.15 89.8602   2
   0  -2  -2 2064.25 89.9679   3
   0   2   2 1789.33 89.7819   3
   0   2   2 2137.60 88.8567   1
   0   2   2 2219.30 89.9076   2
  -1  -2  -2 52.6929 2.90675   1
  -1  -2  -2 45.8575 2.90461   1
  -1  -2  -2 56.0964 3.91507   2
  -1  -2  -2 60.4709 3.86595   3
   1   2   2 67.3429 4.26960   3
   1   2   2 62.4526 3.93311   3
  -2  -2  -2 1682.84 72.4613   2
  -2  -2  -2 1641.52 71.9199   1
  -2  -2  -2 1695.32 72.6461   1
   2   2   2 1682.92 73.1992   3
  -4  -2  -2 5176.03 230.335   1
  -4  -2  -2 5521.14 229.831   2
   4   2   2 5505.66 232.367   3
  -5  -2  -2 623.948 29.9775   2
  -5  -2  -2 621.709 31.2527   1
   5   2   2 666.783 33.5513   3
  -6  -2  -2 374.156 21.3629   1
  -6  -2  -2 371.276 19.3414   2
   6   2   2 373.396 33.3277   3
  -7  -2  -2 223.151 15.8326   1
  -7  -2  -2 205.322 13.0729   2
   7   2   2 196.468 17.7778   3
  -8  -2  -2 356.095 22.3936   2
  -8  -2  -2 335.870 22.5120   1
   8   2   2 339.153 24.8980   3
  -9   3   2 56.7726 11.6176   1
   8  -3  -2 200.507 17.9689   3
  -8   3   2 227.541 18.3095   1
   7  -3  -2 271.447 18.9174   3
  -7   3   2 234.669 17.9146   1
   6  -3  -2 1027.56 50.6831   3
  -6   3   2 1062.79 51.0671   1
   5  -3  -2 466.954 24.9376   3
  -5   3   2 453.001 24.8380   1
   4  -3  -2 21.4645 4.40984   3
  -4   3   2 22.2310 4.33682   1
  -3   3   2 127.923 8.48080   1
   1  -3  -2 287.305 14.3636   3
   1  -3  -2 306.530 13.7305   2
   1  -3  -2 290.952 13.5678   1
  -1   3   2 292.138 13.6855   1
  -1   3   2 282.293 13.6798   2
  -1   3   2 300.565 13.6193   1
   0  -3  -2 304.543 14.7549   2
   0  -3  -2 315.954 15.2004   3
   0   3   2 316.652 15.1579   3
  -1  -3  -2 119.552 6.88513   2
   1   3   2 115.852 7.20407   3
  -2  -3  -2 1455.93 63.5075   2
  -2  -3  -2 1407.69 62.3039   1
  -2  -3  -2 1548.55 62.5105   1
   2   3   2 1402.67 64.5493   3
  -3  -3  -2 1044.98 46.0567   2
  -3  -3  -2 1087.46 45.6044   1
   3   3   2 947.431 47.3116   3
  -4  -3  -2 1197.44 56.3342   2
  -4  -3  -2 1344.44 56.7209   1
   4   3   2 1255.30 58.9362   3
  -5  -3  -2 12.1898 3.52750   2
  -5  -3  -2 25.0083 4.74491   1
   5   3   2 11.4476 5.32606   3
  -6  -3  -2 15.8244 4.23101   2
  -6  -3  -2 17.2913 5.04760   1
   6   3   2 14.4526 6.22670   3
  -7  -3  -2 22.6702 6.32899   1
  -7  -3  -2 17.0988 4.86461   2
   7   3   2 14.9608 7.39785   3
  -8  -3  -2 508.717 30.7536   1
  -8  -3  -2 538.022 28.4856   2
   8   3   2 651.519 36.6390   3
   9  -4  -2 7.98665 7.48324   3
  -9   4   2 8.18593 7.71296   1
   8  -4  -2 680.543 35.9783   3
  -8   4   2 549.406 34.7704   1
   7  -4  -2 38.9548 8.34025   3
  -7   4   2 27.7939 7.62220   1
  -6   4   2 93.6032 10.1537   1
   5  -4  -2 314.761 18.8754   3
  -5   4   2 324.878 19.2014   1
   4  -4  -2 7.62183 3.43723   3
  -4   4   2 11.0787 3.53633   1
  -4   4   2 7.12454 1.09823   2
   3  -4  -2 3339.47 135.503   2
   3  -4  -2 3177.59 137.953   3
  -3   4   2 3312.76 137.997   1
  -3   4   2 2950.44 136.546   2
   2  -4  -2 65.6214 5.44974   3
   2  -4  -2 68.6771 4.27434   2
  -2   4   2 60.2714 4.91118   1
  -2   4   2 61.5066 4.14816   2
   1  -4  -2 2168.11 88.8142   1
   1  -4  -2 1799.67 91.7378   3
   1  -4  -2 2159.90 89.2886   2
  -1   4   2 2141.44 88.7866   1
  -1   4   2 2123.57 88.9640   1
   0   4   2 262.570 14.1570   3
  -1  -4  -2 76.2652 5.61512   2
   1   4   2 91.5167 6.47714   3
  -2  -4  -2 2333.76 103.680   2
  -2  -4  -2 2345.62 101.909   1
  -2  -4  -2 2451.13 101.959   1
   2   4   2 2472.74 104.958   3
  -3  -4  -2 1594.44 70.5847   1
  -3  -4  -2 1643.63 70.5686   1
  -3  -4  -2 1629.00 71.8593   2
   3   4   2 1678.76 73.8185   3
   3   4   2 1617.42 70.5161   1
  -4  -4  -2 1146.65 50.4767   2
  -4  -4  -2 1056.64 50.8600   1
   4   4   2 1134.16 53.1797   3
  -5  -4  -2 2040.71 93.8452   1
  -5  -4  -2 2285.51 94.3538   2
   5   4   2 2093.35 99.3327   3
  -6  -4  -2 38.0324 6.35826   1
  -6  -4  -2 32.6314 6.01758   2
   6   4   2 39.0124 8.87095   3
  -7  -4  -2 6.36560 4.81949   1
  -7  -4  -2 2.85645 3.66714   2
   7   4   2 2.19776 6.62051   3
  -8  -4  -2 283.333 17.4788   2
  -8  -4  -2 277.998 18.9913   1
   8   4   2 266.397 24.6665   3
   8  -5  -2 59.4509 10.4154   3
  -8   5   2 61.8288 11.6730   1
   7  -5  -2 958.911 49.9228   3
  -7   5   2 1063.27 51.9280   1
   6  -5  -2 139.276 12.2116   3
  -6   5   2 120.104 12.1987   1
   5  -5  -2 2136.80 95.2974   3
  -5   5   2 2129.92 95.8791   1
   4  -5  -2 860.295 35.5344   2
   4  -5  -2 831.379 38.8851   3
  -4   5   2 767.947 38.7472   1
  -4   5   2 788.108 35.6109   2
   3  -5  -2 2183.08 94.6750   3
   3  -5  -2 2213.82 92.4895   2
  -3   5   2 2071.65 94.4149   1
  -3   5   2 2171.61 92.4702   2
   2  -5  -2 588.263 28.6681   3
   2  -5  -2 619.895 27.5299   2
  -2   5   2 616.945 28.2603   1
   1  -5  -2 7184.17 304.994   3
   0  -5  -2 518.613 24.5898   2
   0  -5  -2 533.591 25.3731   3
  -1  -5  -2 74.2786 5.87571   2
   1   5   2 80.8828 6.69759   3
  -2  -5  -2 495.661 21.3891   1
  -2  -5  -2 487.281 21.2930   1
  -2  -5  -2 475.832 23.7209   2
   2   5   2 499.312 25.1749   3
  -3  -5  -2 114.595 8.19012   2
  -3  -5  -2 113.222 6.54321   1
  -3  -5  -2 118.609 6.64459   1
   3   5   2 96.0441 6.25755   1
   3   5   2 123.344 10.3120   3
  -4  -5  -2 788.242 37.0906   1
  -4  -5  -2 844.288 38.6893   2
   4   5   2 829.016 41.5417   3
  -6  -5  -2 23.7462 5.25493   2
  -6  -5  -2 20.4592 5.08187   1
   6   5   2 23.2102 8.37464   3
  -7  -5  -2 19.7735 5.75558   1
  -7  -5  -2 14.6257 5.26677   2
   7   5   2 15.1457 8.29528   3
   8  -6  -2 75.0525 11.7130   3
  -8   6   2 59.4168 12.2798   1
   7  -6  -2 46.7219 8.83129   3
  -7   6   2 29.2151 8.06801   1
   6  -6  -2 350.294 21.5098   3
  -6   6   2 360.740 22.5598   1
   5  -6  -2 325.291 19.8360   3
  -5   6   2 367.709 20.8224   1
  -5   6   2 339.348 15.6691   2
   4  -6  -2 544.985 29.1718   3
   4  -6  -2 587.173 26.5442   2
  -4   6   2 631.252 30.0684   1
   3  -6  -2 537.534 25.0241   2
   3  -6  -2 542.656 26.8732   3
  -3   6   2 552.946 26.8553   1
   2  -6  -2 6392.75 276.617   2
   2  -6  -2 6684.40 277.963   3
  -2   6   2 6497.86 277.103   1
   1  -6  -2 3652.45 156.916   3
   1  -6  -2 3696.13 155.993   2
  -1   6   2 3564.28 154.494   1
  -1   6   2 3677.02 155.084   1
   0  -6  -2 1113.47 52.2382   3
   0  -6  -2 1143.60 51.4517   2
   0   6   2 1204.76 52.3573   3
  -1  -6  -2 228.279 12.7792   2
   1   6   2 223.528 13.6666   3
  -2  -6  -2 739.126 35.9782   2
   2   6   2 802.247 37.8519   3
  -3  -6  -2 592.870 29.1194   2
  -4  -6  -2 3.65634 2.35971   1
  -4  -6  -2 2.97940 3.41819   2
   4   6   2 5.00796 5.05388   3
  -5  -6  -2 171.115 10.8117   1
  -5  -6  -2 185.191 12.5677   2
   5   6   2 171.370 15.8282   3
  -6  -6  -2 1.30436 4.03949   2
  -6  -6  -2 4.14686 3.69799   1
   6   6   2 -2.7319 5.77104   3
  -7  -6  -2 114.619 10.5317   1
  -7  -6  -2 118.218 11.2975   2
   7   6   2 174.331 33.9995   3
   8  -7  -2 342.394 23.0845   3
  -8   7   2 320.266 24.3290   1
   7  -7  -2 480.724 27.7717   3
  -7   7   2 470.938 29.3510   1
   6  -7  -2 640.367 32.4427   3
  -6   7   2 566.336 32.9808   1
   5  -7  -2 198.297 10.6430   2
   5  -7  -2 223.624 14.7097   3
  -5   7   2 191.441 14.7530   1
  -5   7   2 212.313 10.7560   2
   4  -7  -2 1002.10 44.5998   2
   4  -7  -2 1048.00 47.3575   3
  -4   7   2 957.524 47.2225   1
   3  -7  -2 39.4325 5.98580   3
  -3   7   2 34.2435 5.25784   1
   2  -7  -2 12.4230 2.97217   2
   2  -7  -2 10.0323 3.64181   3
  -2   7   2 8.89034 2.82412   1
   1  -7  -2 977.630 45.5012   3
   1  -7  -2 1018.75 44.5648   2
  -1   7   2 949.145 42.5946   1
  -1   7   2 950.670 45.2047   3
  -1   7   2 1020.52 43.3006   1
   0  -7  -2 106.585 8.79980   3
   0  -7  -2 96.3333 7.50353   2
   0   7   2 89.0057 8.04639   3
  -1  -7  -2 1977.78 88.1838   2
   1   7   2 2038.86 89.6488   3
  -2  -7  -2 642.301 29.7572   2
   2   7   2 563.384 31.0921   3
  -3  -7  -2 193.120 12.9329   2
  -3  -7  -2 205.567 9.50682   1
   3   7   2 197.310 15.4203   3
  -4  -7  -2 298.622 17.9346   2
  -4  -7  -2 313.650 14.8651   1
   4   7   2 296.660 21.1477   3
  -5  -7  -2 752.023 34.3132   1
  -5  -7  -2 724.228 36.8693   2
   5   7   2 757.769 41.7313   3
  -6  -7  -2 248.551 16.8906   2
  -6  -7  -2 272.599 15.0244   1
   6   7   2 223.183 21.1268   3
   8  -8  -2 35.4530 9.01480   3
  -8   8   2 37.3625 10.0935   1
   7  -8  -2 466.644 28.1527   3
  -7   8   2 512.947 30.4692   1
   6  -8  -2 230.932 16.7589   3
  -6   8   2 226.499 11.2810   2
  -6   8   2 239.427 17.6746   1
   5  -8  -2 1797.89 82.8403   2
   5  -8  -2 1974.77 85.7116   3
  -5   8   2 1907.91 86.8312   1
   4  -8  -2 464.305 23.0223   2
   4  -8  -2 467.909 25.3864   3
  -4   8   2 501.636 25.7643   1
   3  -8  -2 43.6601 6.92212   3
  -3   8   2 49.3248 6.07311   1
   2  -8  -2 4.84249 2.80449   2
   2  -8  -2 2.91826 3.43253   3
  -2   8   2 5.78174 3.10435   1
   1  -8  -2 335.119 17.6628   2
   1  -8  -2 346.986 19.0509   3
  -1   8   2 340.694 18.5645   3
  -1   8   2 334.056 15.9782   1
  -1   8   2 307.499 15.2768   1
   0  -8  -2 1752.23 74.4931   3
   0  -8  -2 1660.76 72.9531   2
   0   8   2 1509.77 73.6153   3
  -1  -8  -2 446.900 23.7293   2
   1   8   2 488.362 26.1704   3
  -2  -8  -2 697.695 33.8100   2
   2   8   2 680.829 35.8287   3
  -3  -8  -2 60.9427 7.64888   2
   3   8   2 66.4400 10.2806   3
  -4  -8  -2 44.6779 7.05806   2
  -4  -8  -2 39.1117 3.45996   1
   4   8   2 57.9459 10.6005   3
  -5  -8  -2 753.222 36.5936   2
  -5  -8  -2 669.602 34.5042   1
   5   8   2 732.850 41.6127   3
  -6  -8  -2 204.024 14.9102   2
  -6  -8  -2 168.364 11.0628   1
   6   8   2 195.807 19.7516   3
   7  -9  -2 13.4224 6.85090   3
  -7   9   2 15.8812 7.51142   1
   6  -9  -2 450.326 25.8699   3
  -6   9   2 427.079 21.2183   2
  -6   9   2 484.191 27.6322   1
   5  -9  -2 17.9784 4.14820   2
   5  -9  -2 25.5864 6.45051   3
  -5   9   2 26.8635 6.69427   1
  -5   9   2 20.7423 3.98061   2
   4  -9  -2 804.825 37.5399   2
   4  -9  -2 824.026 39.7827   3
  -4   9   2 791.310 39.5185   1
   3  -9  -2 212.142 12.8657   2
   3  -9  -2 214.036 14.4841   3
  -3   9   2 203.473 13.1514   1
   2  -9  -2 203.655 13.5487   3
   2  -9  -2 186.616 12.1655   2
  -2   9   2 185.095 11.5816   1
  -2   9   2 200.270 13.3758   3
   1  -9  -2 2210.14 98.3979   3
   1  -9  -2 2276.80 97.2703   2
  -1   9   2 2261.16 98.1461   3
  -1   9   2 2141.45 94.3012   1
  -1   9   2 2160.12 94.8230   1
   0  -9  -2 438.600 24.1741   3
   0  -9  -2 423.633 22.8088   2
   0   9   2 434.063 23.9249   3
  -1  -9  -2 132.424 10.4286   2
   1   9   2 131.487 11.8075   3
  -2  -9  -2 2005.99 91.5560   2
   2   9   2 2101.90 94.5180   3
  -3  -9  -2 572.178 29.0038   2
   3   9   2 520.830 31.8849   3
  -4  -9  -2 231.885 16.6164   2
   4   9   2 261.338 21.0220   3
  -5  -9  -2 42.5986 8.09991   2
   6 -10  -2 105.911 12.0567   3
  -6  10   2 93.0662 11.6246   1
  -6  10   2 97.1832 7.52495   2
   5 -10  -2 43.9942 6.12161   2
  -5  10   2 34.2010 7.60190   1
  -5  10   2 39.4617 5.54754   2
   4 -10  -2 195.569 14.7849   3
   4 -10  -2 182.000 12.3934   2
  -4  10   2 197.254 13.9749   1
   3 -10  -2 229.140 16.2265   3
   3 -10  -2 251.121 14.8479   2
  -3  10   2 235.278 14.5248   1
   2 -10  -2 328.661 19.6748   3
  -2  10   2 327.193 16.8660   1
  -2  10   2 300.258 18.9364   3
   1 -10  -2 42.6867 6.45162   2
   1 -10  -2 35.3534 7.03940   3
  -1  10   2 38.9761 3.45866   1
  -1  10   2 33.8640 6.62248   3
  -1  10   2 42.3521 4.00985   1
   0 -10  -2 99.1528 9.40851   2
   0  10   2 118.250 11.1211   3
  -1 -10  -2 170.179 12.6732   2
   1  10   2 171.395 14.5561   3
  -2 -10  -2 223.392 15.8272   2
   2  10   2 247.309 18.7105   3
  -3 -10  -2 391.319 23.2188   2
   3  10   2 406.063 26.9852   3
  -4 -10  -2 132.974 14.3001   2
   4  10   2 159.626 24.5594   3
   5  10   2 75.6458 15.0408   3
   6 -11  -2 138.918 13.7128   3
  -6  11   2 135.942 13.9298   1
   5 -11  -2 448.167 25.7306   3
   5 -11  -2 417.798 22.9758   2
  -5  11   2 466.014 25.8963   1
  -5  11   2 404.502 22.4798   2
   4 -11  -2 571.657 30.1587   3
   4 -11  -2 518.744 30.0340   2
  -4  11   2 530.157 28.6290   1
   3 -11  -2 752.796 35.6465   2
   3 -11  -2 701.097 37.0470   3
  -3  11   2 742.268 35.1812   1
  -3  11   2 693.246 36.6529   3
   2 -11  -2 87.3821 9.54080   2
   2 -11  -2 100.684 11.0239   3
  -2  11   2 114.726 10.7679   3
  -2  11   2 94.9148 7.53191   1
   1 -11  -2 793.297 39.7520   2
   1 -11  -2 779.213 41.2316   3
  -1  11   2 910.224 41.7295   3
  -1  11   2 785.284 35.9487   1
   0 -11  -2 288.744 18.1055   2
   0  11   2 290.109 19.7014   3
  -1 -11  -2 40.0979 7.27414   2
   1  11   2 24.8372 7.50167   3
  -2 -11  -2 0.69357 4.34717   2
   2  11   2 4.49232 6.28435   3
  -3 -11  -2 3.36160 5.83200   2
   3  11   2 1.17913 8.90676   3
  -4 -11  -2 449.787 26.3380   2
   4  11   2 420.902 30.9670   3
   5 -12  -2 111.453 13.3935   3
   5 -12  -2 129.619 10.9507   2
  -5  12   2 111.021 10.1026   2
  -5  12   2 125.298 12.4589   1
   4 -12  -2 1.21706 4.41082   2
   4 -12  -2 0.37875 6.67645   3
  -4  12   2 5.86184 5.91294   1
  -4  12   2 -0.9194 7.85055   3
   3 -12  -2 108.378 12.6592   3
   3 -12  -2 105.955 10.5290   2
  -3  12   2 114.396 9.53451   1
  -3  12   2 95.7404 11.7053   3
   2 -12  -2 752.079 37.9815   2
   2 -12  -2 748.604 39.5138   3
  -2  12   2 743.453 35.1982   1
  -2  12   2 801.883 39.5441   3
   1 -12  -2 670.969 34.4871   2
   1 -12  -2 633.561 35.8790   3
  -1  12   2 713.464 36.2071   3
   0 -12  -2 299.652 19.9194   2
   0  12   2 351.828 22.5705   3
  -1 -12  -2 67.5423 9.78387   2
   1  12   2 61.7461 12.8235   3
  -2 -12  -2 180.863 15.0146   2
   2  12   2 195.251 18.4959   3
   3 -13  -2 148.805 13.1766   2
   3 -13  -2 176.554 15.2107   3
  -3  13   2 151.166 14.4495   3
  -3  13   2 157.921 11.4861   1
   2 -13  -2 9.78800 7.24957   3
   2 -13  -2 7.89839 6.03299   2
  -2  13   2 14.0933 6.77182   3
   1 -13  -2 44.5410 7.99779   2
  -1  13   2 42.2588 8.99581   3
   0 -13  -2 13.7023 6.14071   2
   0  13   2 23.4107 7.98790   3
  -1 -13  -2 8.88478 6.42085   2
   1  13   2 7.42578 7.23955   3
   1  14  -3 7.07430 7.55368   3
  -1 -14   3 7.24174 4.40953   1
  -1 -14   3 7.83069 6.48827   2
   0  14  -3 127.218 10.0079   1
   0  14  -3 123.887 14.3269   3
   0 -14   3 116.746 13.0750   2
   0 -14   3 133.649 10.9658   1
  -1  14  -3 103.954 10.0669   1
  -1  14  -3 124.348 13.3023   3
   1 -14   3 119.844 14.3580   2
  -2  14  -3 42.9840 7.68144   1
  -2  14  -3 41.1473 8.22100   2
  -2  14  -3 39.5852 8.20633   3
   2 -14   3 32.2795 8.56391   2
   2 -14   3 41.0973 7.69101   1
  -3  14  -3 113.378 12.6647   2
  -3  14  -3 158.674 13.1448   3
  -3  14  -3 119.024 12.1684   1
   3 -14   3 110.527 12.9531   2
   3 -14   3 119.301 12.7519   1
   3  13  -3 333.923 25.8899   3
  -3 -13   3 327.945 16.9845   1
  -3 -13   3 282.266 21.0596   2
   2  13  -3 24.6051 9.07013   3
  -2 -13   3 24.6334 4.89957   1
  -2 -13   3 17.7326 6.93319   2
   1  13  -3 683.737 37.1969   3
  -1 -13   3 636.694 31.1614   1
  -1 -13   3 619.392 34.4763   2
   0  13  -3 31.2101 8.06120   3
   0 -13   3 25.0077 5.69071   1
   0 -13   3 25.7573 6.73197   2
  -1  13  -3 542.765 30.4538   3
  -1  13  -3 535.373 28.2763   1
   1 -13   3 570.819 28.8945   1
   1 -13   3 561.309 30.6480   2
  -2  13  -3 6.89631 5.36110   3
  -2  13  -3 19.2568 5.74578   1
  -2  13  -3 11.4505 5.93162   2
   2 -13   3 20.4518 6.05816   1
   2 -13   3 4.46704 5.35334   2
  -3  13  -3 99.4602 10.9358   2
  -3  13  -3 94.5478 10.5979   1
  -3  13  -3 84.6008 9.96082   3
   3 -13   3 94.5038 10.9013   3
   3 -13   3 91.6334 11.1497   1
   3 -13   3 88.0342 10.7548   2
  -4  13  -3 55.0388 9.58398   1
  -4  13  -3 48.1422 7.83227   3
  -4  13  -3 35.6704 7.41758   2
   4 -13   3 53.2959 8.89687   2
   4 -13   3 46.2296 8.42406   3
   4 -13   3 48.6447 9.60622   1
   4  12  -3 22.7104 9.39167   3
  -4 -12   3 21.3386 4.59084   1
  -4 -12   3 24.0288 7.24042   2
   3  12  -3 66.9120 12.8192   3
  -3 -12   3 62.6498 6.71820   1
  -3 -12   3 64.0235 9.41267   2
   2  12  -3 298.189 22.1614   3
  -2 -12   3 284.692 19.4230   2
  -2 -12   3 303.475 16.1505   1
   1  12  -3 11.3450 6.38199   3
  -1 -12   3 29.0020 6.76330   2
   0  12  -3 1211.88 55.9805   3
   0 -12   3 1102.60 54.6190   2
   0 -12   3 1118.26 52.1745   1
  -1  12  -3 13.3926 5.55593   3
   1 -12   3 20.5736 5.50647   1
   1 -12   3 15.7392 5.88230   2
  -2  12  -3 654.284 33.2765   1
  -2  12  -3 654.199 34.0934   2
  -2  12  -3 698.693 33.7612   3
   2 -12   3 655.044 34.1888   2
   2 -12   3 641.855 33.5623   3
   2 -12   3 629.948 33.6043   1
  -3  12  -3 91.2175 10.4532   1
  -3  12  -3 104.709 9.98880   3
  -3  12  -3 99.1848 10.4781   2
   3 -12   3 101.424 10.7953   2
   3 -12   3 101.957 11.2813   1
   3 -12   3 100.585 10.3299   3
  -4  12  -3 1319.41 63.2451   1
  -4  12  -3 1170.66 60.2333   3
  -4  12  -3 1323.59 61.6944   2
   4 -12   3 1342.61 61.8913   2
   4 -12   3 1275.43 60.9444   3
   4 -12   3 1475.02 64.5808   1
  -5  12  -3 23.5357 7.79225   1
  -5  12  -3 25.2583 6.07246   2
  -5  12  -3 22.2274 6.20866   3
   5 -12   3 20.3284 6.28252   3
   5  11  -3 3.37776 8.03768   3
  -5 -11   3 9.53619 7.31080   2
  -5 -11   3 4.81716 3.91834   1
   4  11  -3 160.626 17.3987   3
  -4 -11   3 149.966 10.2937   1
  -4 -11   3 159.403 13.7990   2
   3  11  -3 659.560 37.8272   3
  -3 -11   3 630.923 33.8030   2
  -3 -11   3 649.364 30.4308   1
   2  11  -3 1597.10 80.1496   3
  -2 -11   3 1788.21 74.6351   1
   1  11  -3 77.5154 10.9068   3
  -1 -11   3 103.488 10.3841   2
  -1 -11   3 113.781 8.33492   1
   0  11  -3 13.0429 5.34634   3
   0 -11   3 5.14695 4.57076   2
   0 -11   3 5.09284 3.60645   1
   1 -11   3 175.363 13.5701   2
   1 -11   3 198.715 12.9809   1
  -2  11  -3 40.9061 7.00065   2
  -2  11  -3 34.0501 6.55472   3
  -2  11  -3 49.0192 7.51656   1
   2 -11   3 48.9282 7.81959   1
   2 -11   3 40.0821 11.8084   3
   2 -11   3 45.5692 7.66289   2
  -3  11  -3 893.367 44.3446   1
  -3  11  -3 989.093 43.2224   3
  -3  11  -3 875.984 43.6204   2
   3 -11   3 901.050 43.1675   3
   3 -11   3 918.744 43.9320   2
   3 -11   3 836.985 44.2933   1
  -4  11  -3 23.2021 5.68665   2
  -4  11  -3 30.1922 7.19807   1
  -4  11  -3 27.1400 5.90219   3
   4 -11   3 22.8379 5.68574   3
   4 -11   3 21.4924 5.95269   2
   4 -11   3 18.8448 6.90408   1
  -5  11  -3 37.0599 8.83366   1
  -5  11  -3 41.4937 7.33904   2
   5 -11   3 51.3633 7.63556   3
  -6  11  -3 84.9484 9.03359   2
  -6  11  -3 85.8194 13.4705   1
   6 -11   3 96.4194 10.5046   3
   6  10  -3 13.6961 9.75049   3
  -6 -10   3 29.1298 6.11046   1
  -6 -10   3 25.7009 7.75687   2
   5  10  -3 15.1157 8.40079   3
  -5 -10   3 12.7531 4.31304   1
  -5 -10   3 15.5069 6.25823   2
   4  10  -3 225.541 20.1426   3
  -4 -10   3 259.591 14.3801   1
  -4 -10   3 246.007 16.8878   2
   3  10  -3 1787.09 85.4077   3
  -3 -10   3 1758.33 78.7185   1
  -3 -10   3 1859.61 81.9913   2
   2  10  -3 22.0302 6.71171   3
  -2 -10   3 13.9801 3.59415   1
  -2 -10   3 36.9093 6.44147   2
  -1 -10   3 526.173 24.5800   1
  -1 -10   3 483.331 26.5945   2
   0  10  -3 182.679 13.2565   3
   0 -10   3 187.027 12.9288   2
   0 -10   3 184.055 11.4032   1
  -1  10  -3 377.480 22.0085   3
   1 -10   3 415.649 23.1877   2
   1 -10   3 455.278 22.0351   1
  -2  10  -3 128.860 9.42191   3
  -2  10  -3 112.646 9.50960   1
  -2  10  -3 98.7095 9.24596   2
   2 -10   3 100.156 9.52644   2
   2 -10   3 87.5592 8.95059   3
   2 -10   3 94.4955 9.64194   1
  -3  10  -3 986.002 45.2028   2
  -3  10  -3 919.129 44.0859   3
  -3  10  -3 989.681 46.2785   1
   3 -10   3 937.229 45.1145   2
   3 -10   3 966.551 46.4225   1
   3 -10   3 907.293 44.2348   3
  -4  10  -3 199.855 13.1089   2
  -4  10  -3 181.287 14.6603   1
   4 -10   3 163.980 12.3421   3
   4 -10   3 219.798 15.8405   1
  -5  10  -3 59.7565 7.47554   2
  -5  10  -3 81.1399 11.7318   1
   5 -10   3 59.2366 10.3829   1
   5 -10   3 57.5920 7.98889   3
  -6  10  -3 203.678 17.9109   1
  -6  10  -3 189.322 13.5529   2
   6 -10   3 236.522 14.9498   3
  -7  10  -3 125.941 15.2714   1
   7 -10   3 106.938 11.1161   3
  -6  -9   3 395.145 24.7204   2
  -6  -9   3 471.228 24.1952   1
   5   9  -3 111.345 15.7770   3
  -5  -9   3 136.606 11.9573   2
  -5  -9   3 143.655 10.6297   1
   4   9  -3 183.373 17.1940   3
  -4  -9   3 178.930 11.6127   1
  -4  -9   3 185.543 13.5018   2
   3   9  -3 408.972 25.6192   3
  -3  -9   3 393.093 22.4144   2
  -3  -9   3 420.353 20.5609   1
   2   9  -3 50.5595 8.64145   3
  -2  -9   3 53.7234 5.36683   1
  -2  -9   3 52.4887 6.54074   2
   1   9  -3 265.777 17.0714   3
  -1  -9   3 280.260 16.3797   2
  -1  -9   3 278.229 14.4726   1
   0   9  -3 205.234 12.9133   3
   0  -9   3 188.777 12.3147   2
   0  -9   3 161.305 10.8003   1
  -1   9  -3 23.5445 4.73998   3
   1  -9   3 20.3554 4.55785   3
   1  -9   3 25.9846 4.76037   1
   1  -9   3 21.6871 4.55022   2
  -2   9  -3 1753.67 72.1580   3
  -2   9  -3 1615.07 72.6066   2
   2  -9   3 1616.68 72.7622   2
   2  -9   3 1572.98 72.0019   3
   2  -9   3 1543.40 72.8163   1
  -3   9  -3 58.8970 6.92984   2
  -3   9  -3 75.4379 7.04203   3
  -3   9  -3 63.4268 7.93991   1
   3  -9   3 71.7565 8.66549   1
   3  -9   3 71.8221 7.63517   2
   3  -9   3 66.4062 7.17968   3
  -4   9  -3 487.349 24.4356   2
  -4   9  -3 427.019 26.0260   1
   4  -9   3 518.415 27.2518   1
   4  -9   3 452.463 23.7097   3
  -5   9  -3 79.7443 7.73249   2
  -5   9  -3 69.7390 10.1538   1
   5  -9   3 67.0120 10.5143   1
   5  -9   3 66.4173 7.74782   3
  -6   9  -3 808.477 43.1082   1
  -6   9  -3 768.330 37.4216   2
   6  -9   3 797.180 38.4947   3
  -7   9  -3 15.0476 10.9715   1
  -7   9  -3 18.2443 4.05293   2
   7  -9   3 27.2504 6.41177   3
   7   8  -3 223.087 22.3746   3
  -7  -8   3 226.125 16.3043   2
  -7  -8   3 239.298 16.5559   1
   6   8  -3 633.061 38.6352   3
  -6  -8   3 657.934 32.2752   1
  -6  -8   3 603.792 32.5405   2
   5   8  -3 231.512 19.7606   3
  -5  -8   3 231.877 14.7544   1
  -5  -8   3 258.071 15.9442   2
   4   8  -3 4351.10 195.002   3
  -4  -8   3 4438.39 190.991   2
  -4  -8   3 4466.69 189.685   1
   3   8  -3 327.480 21.8234   3
  -3  -8   3 357.393 19.4863   2
  -3  -8   3 357.367 18.0184   1
   2   8  -3 429.965 24.1440   3
  -2  -8   3 424.470 20.6994   1
  -2  -8   3 424.592 22.3208   2
   1   8  -3 87.3974 8.39926   3
  -1  -8   3 70.7502 5.94709   1
  -1  -8   3 90.2044 7.60566   2
   0   8  -3 10.8004 3.58284   3
   0  -8   3 10.5049 3.54048   2
   0  -8   3 21.4546 3.78704   1
  -1   8  -3 40.4354 5.24322   3
   1  -8   3 49.3820 5.92401   2
   1  -8   3 53.7695 5.75391   3
  -2   8  -3 792.226 36.0738   2
  -2   8  -3 746.174 35.1606   3
   2  -8   3 762.217 36.4527   1
   2  -8   3 754.976 35.3543   3
   2  -8   3 755.284 36.0560   2
  -3   8  -3 577.576 28.0505   2
  -3   8  -3 523.533 29.0733   1
   3  -8   3 626.078 27.6834   3
   3  -8   3 585.107 28.1122   2
   3  -8   3 540.710 29.3319   1
  -4   8  -3 0.88208 2.78397   2
  -4   8  -3 -1.1947 3.70739   1
   4  -8   3 3.81929 4.44451   1
   4  -8   3 3.16479 2.99317   3
  -5   8  -3 678.380 37.2910   1
  -5   8  -3 676.624 33.3986   2
   5  -8   3 697.151 37.6999   1
   5  -8   3 751.992 34.0322   3
  -6   8  -3 30.1976 8.15043   1
  -6   8  -3 40.1336 5.53751   2
   6  -8   3 39.4091 6.60170   3
  -7   8  -3 144.543 9.43975   2
  -7   8  -3 148.572 16.0419   1
   7  -8   3 143.839 12.3686   3
  -7  -7   3 66.5735 9.69004   1
  -7  -7   3 59.3843 8.33449   2
   6   7  -3 214.966 19.7779   3
  -6  -7   3 228.065 15.2044   1
  -6  -7   3 237.709 15.2199   2
   5   7  -3 10.8764 7.05270   3
  -5  -7   3 18.5596 4.87583   1
  -5  -7   3 11.7117 5.36022   2
   4   7  -3 1820.42 80.0805   3
  -4  -7   3 1622.04 74.3511   1
  -4  -7   3 1606.81 74.8954   2
   3   7  -3 2532.43 114.127   3
  -3  -7   3 2537.38 110.482   1
  -3  -7   3 2585.49 111.485   2
   2   7  -3 132.457 10.9023   3
  -2  -7   3 157.926 9.05236   1
  -2  -7   3 141.472 9.66241   2
   1   7  -3 3253.55 137.137   3
  -1  -7   3 3043.47 136.085   2
  -1  -7   3 3162.20 135.083   1
   0   7  -3 332.231 17.2387   3
   0  -7   3 324.371 16.3573   1
   0  -7   3 325.576 17.1926   2
  -1   7  -3 65.1752 5.64267   3
   1  -7   3 64.3684 5.90976   2
   1  -7   3 71.2441 5.83374   3
   1  -7   3 75.7628 6.10175   1
  -2   7  -3 441.005 21.0859   3
  -2   7  -3 447.784 21.9351   2
   2  -7   3 410.345 21.5774   2
   2  -7   3 437.138 22.3845   1
   2  -7   3 445.177 21.1888   3
  -3   7  -3 2533.67 107.508   2
  -3   7  -3 2460.64 109.106   1
   3  -7   3 2485.45 109.208   1
   3  -7   3 2433.31 107.401   2
   3  -7   3 2447.90 106.715   3
  -4   7  -3 702.895 36.2846   1
  -4   7  -3 731.072 33.7205   2
   4  -7   3 721.940 33.4818   3
   4  -7   3 709.536 36.4352   1
  -5   7  -3 233.371 13.2693   2
  -5   7  -3 243.098 17.0498   1
   5  -7   3 217.710 16.7515   1
   5  -7   3 213.600 13.6112   3
  -6   7  -3 453.350 23.9357   2
  -6   7  -3 450.818 28.9785   1
   6  -7   3 570.751 26.4897   3
  -7   7  -3 182.253 17.5113   1
  -7   7  -3 192.015 11.1670   2
   7  -7   3 207.720 14.6807   3
  -8   7  -3 151.079 17.3842   1
   8  -7   3 165.355 14.2061   3
   8   6  -3 53.0591 13.0618   3
  -8  -6   3 51.6489 9.61286   1
  -8  -6   3 51.4667 7.46115   2
   7   6  -3 599.301 38.2661   3
  -7  -6   3 626.352 33.1036   1
  -7  -6   3 644.950 31.6115   2
   6   6  -3 27.7498 8.78155   3
  -6  -6   3 20.2622 6.62306   1
  -6  -6   3 28.3976 5.57119   2
   5   6  -3 267.167 19.5293   3
  -5  -6   3 266.473 15.2776   2
  -5  -6   3 251.233 15.6205   1
   4   6  -3 282.807 19.3346   3
  -4  -6   3 307.095 16.4839   1
  -4  -6   3 300.334 16.4507   2
   3   6  -3 32.6283 6.22363   3
  -3  -6   3 34.8609 4.72674   1
  -3  -6   3 28.1161 4.37989   2
   2   6  -3 87.6878 8.33364   3
  -2  -6   3 92.8869 7.29973   2
  -2  -6   3 114.147 7.19821   1
   1   6  -3 1087.26 50.7155   3
  -1  -6   3 1102.20 50.1329   2
  -1  -6   3 1166.61 49.3908   1
   0   6  -3 1947.29 81.6354   3
   0  -6   3 1805.42 80.8945   1
   0  -6   3 1862.12 81.6555   2
  -1   6  -3 1518.92 70.0723   3
  -1   6  -3 1563.94 70.7818   2
   1  -6   3 1626.45 70.9475   2
   1  -6   3 1667.61 70.3584   3
   1  -6   3 1701.74 70.9071   1
  -2   6  -3 2459.88 104.490   2
   2  -6   3 2428.07 103.666   3
   2  -6   3 2406.80 105.134   1
   2  -6   3 2357.03 104.393   2
  -3   6  -3 1913.70 85.0911   1
  -3   6  -3 2024.69 83.4585   2
   3  -6   3 1727.32 86.0664   3
   3  -6   3 1962.42 85.2294   1
  -4   6  -3 5937.38 270.194   1
  -4   6  -3 6687.94 267.731   2
   4  -6   3 6002.46 270.267   1
   4  -6   3 6528.83 267.716   3
  -5   6  -3 11.2074 3.17611   2
  -5   6  -3 17.1127 5.74712   1
   5  -6   3 16.5613 4.30935   3
   5  -6   3 10.7473 5.00633   1
  -6   6  -3 115.272 8.03535   2
  -6   6  -3 131.185 12.9769   1
   6  -6   3 115.311 10.1144   3
  -7   6  -3 46.8912 4.91805   2
  -7   6  -3 38.1063 9.20102   1
   7  -6   3 55.7786 8.60620   3
  -8   6  -3 99.2348 14.3841   1
   8  -6   3 94.7078 11.5180   3
   8   5  -3 358.057 27.7399   3
  -8  -5   3 327.593 21.6235   2
  -8  -5   3 388.078 23.4461   1
   7   5  -3 761.561 42.0094   3
  -7  -5   3 690.055 34.0831   2
  -7  -5   3 680.346 36.3639   1
   6   5  -3 2670.30 123.695   3
  -6  -5   3 2728.39 117.624   2
   5   5  -3 286.918 21.6984   3
  -5  -5   3 295.979 16.1029   2
  -5  -5   3 299.246 17.1524   1
   4   5  -3 2745.27 121.816   3
  -4  -5   3 2776.02 118.200   2
  -4  -5   3 2675.26 118.684   1
   3   5  -3 1405.59 68.3722   3
  -3  -5   3 1512.21 66.2943   2
  -3  -5   3 1592.08 66.5447   1
   1   5  -3 2206.44 95.8050   3
  -1  -5   3 2274.09 94.9008   1
  -1  -5   3 2132.11 95.2033   2
   0   5  -3 297.125 15.3488   3
   0  -5   3 333.345 15.3925   1
  -1   5  -3 4600.74 199.235   3
  -1   5  -3 4598.79 199.144   3
  -1   5  -3 4736.15 200.120   2
   1  -5   3 4855.93 199.300   3
  -2   5  -3 2841.83 113.248   2
  -2   5  -3 2565.89 112.805   3
   2  -5   3 2492.78 113.654   1
   2  -5   3 2515.52 112.078   3
   2  -5   3 2722.96 113.137   2
  -3   5  -3 125.233 9.91615   1
  -3   5  -3 156.006 8.88084   2
   3  -5   3 157.906 8.54200   3
   3  -5   3 127.630 10.0047   1
  -4   5  -3 89.3041 8.56673   1
   4  -5   3 85.4223 6.85396   3
   4  -5   3 91.5560 8.64007   1
  -5   5  -3 283.706 18.3438   1
  -5   5  -3 264.304 14.4947   2
   5  -5   3 273.320 18.2343   1
   5  -5   3 289.325 16.0110   3
  -6   5  -3 48.1811 8.88362   1
  -6   5  -3 31.7268 4.30814   2
   6  -5   3 36.6508 6.57343   3
  -7   5  -3 512.776 30.5503   1
  -7   5  -3 484.333 23.5022   2
   8  -5   3 144.360 13.9267   3
   8   4  -3 506.485 34.8296   3
  -8  -4   3 521.588 25.8366   2
  -8  -4   3 522.352 29.9466   1
   7   4  -3 720.912 41.3015   3
  -7  -4   3 721.461 34.0431   2
  -7  -4   3 715.065 37.3140   1
   6   4  -3 7.98041 6.34088   3
  -6  -4   3 9.55058 4.86339   1
  -6  -4   3 12.3680 3.44406   2
   5   4  -3 764.386 40.9723   3
  -5  -4   3 811.905 36.6592   2
  -5  -4   3 813.555 38.4666   1
   4   4  -3 13.1539 4.37081   3
  -4  -4   3 4.20660 2.71656   1
  -4  -4   3 8.39106 2.44261   2
   3   4  -3 3824.52 171.065   3
  -3  -4   3 4003.81 168.749   2
  -3  -4   3 4033.91 169.420   1
   2   4  -3 1497.92 69.2817   3
  -2  -4   3 1515.02 66.5097   2
  -2  -4   3 1569.85 66.7588   1
   1   4  -3 2203.89 97.4800   3
  -1  -4   3 2254.65 97.1230   2
  -1  -4   3 2318.15 97.0159   1
   0   4  -3 161.137 8.37746   3
   0   4  -3 153.549 8.75036   2
   0   4  -3 169.279 8.10395   3
   0  -4   3 161.128 8.83627   2
   0  -4   3 166.662 8.09451   3
   0  -4   3 149.906 8.47286   1
  -1   4  -3 33.9384 2.73756   3
  -1   4  -3 39.2847 3.57185   2
  -1   4  -3 33.5151 2.75930   3
   1  -4   3 37.4848 3.54816   2
   1  -4   3 40.0115 2.87218   3
  -2   4  -3 175.502 9.59950   2
  -2   4  -3 178.414 9.27627   3
   2  -4   3 158.098 10.0252   1
   2  -4   3 179.724 8.78196   3
  -3   4  -3 3200.51 136.390   1
  -3   4  -3 3226.62 134.542   2
   3  -4   3 2900.64 134.062   3
   3  -4   3 3240.74 136.358   1
  -4   4  -3 376.404 17.7428   2
  -4   4  -3 310.512 19.7044   1
   4  -4   3 395.772 21.3153   3
   4  -4   3 350.203 20.0656   1
  -5   4  -3 684.080 32.7566   2
  -5   4  -3 599.817 32.0522   1
   5  -4   3 566.423 29.7363   3
  -6   4  -3 23.0218 6.52479   1
  -6   4  -3 17.4520 3.19024   2
   6  -4   3 10.0164 4.50967   3
  -7   4  -3 62.8827 10.3706   1
  -7   4  -3 49.5449 5.13966   2
   7  -4   3 57.3560 9.27727   3
  -8   4  -3 223.122 20.2508   1
  -8   4  -3 282.132 13.6521   2
   8  -4   3 254.392 18.7866   3
   8   3  -3 216.468 20.3336   3
  -8  -3   3 206.591 12.3388   2
  -8  -3   3 235.404 17.7476   1
   7   3  -3 2179.45 100.344   3
  -7  -3   3 2047.16 96.4644   1
  -7  -3   3 2159.21 92.4891   2
   6   3  -3 107.034 12.1366   3
  -6  -3   3 113.935 7.63424   2
  -6  -3   3 111.765 10.3460   1
   5   3  -3 254.055 17.4886   3
  -5  -3   3 257.216 13.1510   2
  -5  -3   3 244.772 15.1609   1
   4   3  -3 250.996 16.0226   3
  -4  -3   3 238.698 12.5586   2
  -4  -3   3 255.435 14.3327   1
   3   3  -3 308.670 17.5193   3
  -3  -3   3 314.945 15.2096   2
  -3  -3   3 317.710 16.2590   1
   2   3  -3 4785.57 204.487   3
   1   3  -3 2923.26 123.683   2
   1   3  -3 3008.91 123.613   2
   1   3  -3 2809.30 123.967   3
   1   3  -3 2820.04 123.837   1
  -1  -3   3 2818.88 123.572   3
  -1  -3   3 3017.70 123.705   2
   0   3  -3 1762.85 75.6776   2
   0   3  -3 1785.38 75.0468   3
   0   3  -3 1728.73 74.7150   3
   0   3  -3 1798.40 75.5102   2
   0  -3   3 1643.77 75.4074   1
   0  -3   3 1795.01 74.7742   3
   0  -3   3 1787.91 75.6966   2
  -1   3  -3 3720.87 151.217   3
  -1   3  -3 3424.93 152.000   2
  -1   3  -3 3383.77 152.126   2
   1  -3   3 3351.66 151.898   2
   1  -3   3 3992.33 151.119   3
  -2   3  -3 5329.15 225.617   3
  -3   3  -3 83.5073 5.68245   2
  -3   3  -3 69.8033 6.63119   1
  -3   3  -3 82.0723 5.75827   3
   3  -3   3 63.0942 6.30596   1
   3  -3   3 98.4916 5.96829   3
  -4   3  -3 4669.98 209.695   1
  -4   3  -3 5087.09 207.360   2
   4  -3   3 4492.55 209.487   1
   4  -3   3 5235.81 208.470   3
  -5   3  -3 317.300 16.5233   2
  -5   3  -3 322.760 19.5492   1
   5  -3   3 326.311 18.0362   3
  -6   3  -3 88.2808 6.71788   2
  -6   3  -3 111.596 11.1746   1
   6  -3   3 88.7944 9.24430   3
  -7   3  -3 55.4421 9.80081   1
  -8   3  -3 257.543 14.1409   2
  -8   3  -3 294.462 21.5664   1
   8  -3   3 262.847 19.5569   3
   9   2  -3 0.98983 7.22043   3
  -9  -2   3 32.0636 9.02474   1
   8   2  -3 671.176 30.0583   2
   8   2  -3 607.901 37.8590   3
  -8  -2   3 639.717 35.6652   1
   7   2  -3 312.595 21.3759   3
  -7  -2   3 225.573 17.4866   1
   6   2  -3 3119.94 141.588   3
  -6  -2   3 3137.55 135.192   2
  -6  -2   3 3242.23 139.404   1
   5   2  -3 44.7416 7.55916   3
  -5  -2   3 46.2409 6.25573   1
  -5  -2   3 50.3440 4.09839   2
   4   2  -3 289.502 16.0715   3
  -4  -2   3 235.817 11.9166   2
  -4  -2   3 216.180 13.7332   1
   3   2  -3 800.897 34.3733   2
   3   2  -3 773.794 37.0851   3
  -3  -2   3 796.528 34.4952   2
  -3  -2   3 760.362 35.9299   1
   1   2  -3 1526.69 67.1662   1
   1   2  -3 1505.69 66.6260   2
   1   2  -3 1666.18 66.8997   2
   1   2  -3 1536.80 67.1970   3
  -1  -2   3 1638.30 66.8800   2
  -1  -2   3 1455.94 67.0091   1
   0   2  -3 3454.33 150.902   2
   0   2  -3 3498.62 150.166   3
   0   2  -3 3873.68 150.995   2
   0  -2   3 3508.91 150.010   3
   0  -2   3 3440.30 150.769   2
  -1   2  -3 2442.89 105.016   2
  -1   2  -3 2466.24 104.971   1
   1  -2   3 2363.23 104.817   2
   1  -2   3 2559.20 105.172   1
  -2   2  -3 1929.77 81.7318   3
  -2   2  -3 1949.82 82.3032   2
   2  -2   3 1791.05 82.7394   1
   2  -2   3 1906.82 82.1050   2
   2  -2   3 1975.53 81.7173   3
  -3   2  -3 2007.90 84.6781   3
  -3   2  -3 1920.02 84.3379   2
  -3   2  -3 1846.67 85.6671   1
   3  -2   3 2017.20 84.7379   3
   3  -2   3 1984.23 85.8094   1
  -4   2  -3 1020.78 44.8330   2
  -4   2  -3 996.444 47.0782   1
   4  -2   3 1005.34 47.0489   1
   4  -2   3 1013.72 46.0471   3
  -5   2  -3 12.8830 2.88191   2
  -5   2  -3 23.6298 5.50663   1
   5  -2   3 8.11253 3.73747   3
  -6   2  -3 2.65695 4.39014   1
  -6   2  -3 -0.2411 2.16377   2
   6  -2   3 3.25910 4.02781   3
  -7   2  -3 2476.93 113.754   1
  -7   2  -3 2715.64 108.459   2
   7  -2   3 2289.26 117.848   3
  -8   2  -3 29.1681 8.42839   1
  -8   2  -3 30.2579 4.52289   2
   8  -2   3 36.4045 8.95551   3
   9   1  -3 10.9967 8.44054   3
  -9  -1   3 6.13245 6.99946   1
   8   1  -3 636.927 37.4989   3
  -8  -1   3 627.799 35.3755   1
   7   1  -3 108.798 6.30087   2
   7   1  -3 101.462 12.8511   3
   7   1  -3 111.414 6.24729   2
  -7  -1   3 116.086 11.6408   1
  -7  -1   3 106.128 6.27560   2
   6   1  -3 63.0340 4.44667   2
  -6  -1   3 72.3605 8.45521   1
  -6  -1   3 71.0731 4.55685   2
   5   1  -3 730.663 37.2449   3
   5   1  -3 757.678 32.2021   2
  -5  -1   3 772.979 36.0399   1
  -5  -1   3 679.346 32.1477   2
   3   1  -3 4673.06 190.029   2
   3   1  -3 4685.45 190.029   2
   3   1  -3 4156.87 193.144   3
  -3  -1   3 4293.90 193.271   1
  -3  -1   3 4645.05 190.044   2
   2   1  -3 335.954 15.2769   2
   2   1  -3 311.877 16.6852   3
   2   1  -3 385.829 15.2695   2
  -2  -1   3 359.808 15.3506   2
  -2  -1   3 334.930 17.7682   3
  -2  -1   3 285.360 16.0589   1
   1   1  -3 1198.49 51.3247   2
   1   1  -3 1085.67 51.6665   1
   1   1  -3 1161.18 51.7558   3
   1   1  -3 1272.04 51.3605   2
  -1  -1   3 1181.93 51.7429   3
  -1  -1   3 1229.39 51.7998   1
  -1  -1   3 1218.71 51.2961   2
   0   1  -3 1067.16 46.9083   2
   0   1  -3 1011.90 47.4408   1
   0  -1   3 1110.74 46.8449   1
   0  -1   3 1126.71 46.2040   3
   0  -1   3 1096.65 46.8551   2
  -2   1  -3 31.8640 3.11645   2
  -2   1  -3 31.9958 2.67508   3
   2  -1   3 31.5784 3.49073   1
   2  -1   3 32.1076 2.98463   3
  -3   1  -3 3365.52 148.476   3
  -3   1  -3 3512.47 147.513   2
  -3   1  -3 3610.89 148.822   1
   3  -1   3 3386.97 148.512   1
   3  -1   3 3410.58 148.051   3
  -4   1  -3 1113.90 49.8324   1
  -4   1  -3 979.955 49.0617   2
   4  -1   3 1138.88 49.8593   3
  -5   1  -3 28.8181 3.93294   2
  -5   1  -3 26.6653 5.57568   1
   5  -1   3 24.8585 5.45033   3
  -6   1  -3 2.29127 2.52924   2
   6  -1   3 3.90927 4.36704   3
  -7   1  -3 385.665 19.1647   2
  -7   1  -3 378.738 23.7089   1
   7  -1   3 348.612 23.1221   3
  -8   1  -3 13.1872 3.70428   2
  -8   1  -3 10.7531 6.71318   1
   8  -1   3 18.7863 7.57685   3
   9   0  -3 200.170 19.9895   3
  -9   0   3 211.787 18.5250   1
   8   0  -3 6.69779 6.41043   3
  -8   0   3 0.39294 5.56589   1
   7   0  -3 197.377 16.9203   3
  -7   0   3 202.311 15.6229   1
   6   0  -3 53.0632 9.33049   3
  -6   0   3 40.4659 7.71568   1
   5   0  -3 2455.52 111.017   3
  -5   0   3 2531.54 110.172   1
   4   0  -3 160.217 7.37349   2
   4   0  -3 147.790 11.0313   3
   4   0  -3 167.413 7.49991   2
  -4   0   3 159.765 10.6220   1
   3   0  -3 7.77291 3.23679   3
   3   0  -3 6.25896 0.98125   2
  -3   0   3 8.03201 2.73081   1
   2   0  -3 10.9687 2.35375   3
   2   0  -3 6.67650 1.19274   2
  -2   0   3 12.2582 1.33216   2
  -2   0   3 7.77690 2.04262   1
   1   0  -3 48.2930 3.67042   3
   1   0  -3 53.0319 3.58552   1
   1   0  -3 52.3111 3.25748   2
  -1   0   3 53.6900 3.62087   1
  -1   0   3 47.3165 3.15486   2
  -3   0  -3 291.090 15.7626   1
  -3   0  -3 297.930 15.1446   2
   3   0   3 323.221 16.0953   3
   3   0   3 312.932 15.9320   1
  -4   0  -3 4849.12 208.419   2
  -4   0  -3 4790.23 209.790   1
   4   0   3 5050.45 210.364   3
  -5   0  -3 363.717 18.8290   1
  -5   0  -3 281.669 16.0590   2
   5   0   3 310.478 18.7552   3
  -6   0  -3 75.2659 6.64802   2
  -6   0  -3 84.2095 9.25281   1
   6   0   3 76.9450 9.51513   3
  -7   0  -3 5.64019 3.29998   2
  -7   0  -3 7.92446 5.26111   1
   7   0   3 9.71341 5.70318   3
  -8   0  -3 605.862 33.6929   1
  -8   0  -3 597.960 28.7313   2
   8   0   3 542.360 33.7578   3
   9  -1  -3 9.45498 7.67550   3
  -9   1   3 14.2787 7.95614   1
   8  -1  -3 375.443 26.3134   3
  -8   1   3 422.749 26.1745   1
   7  -1  -3 171.763 14.9633   3
  -7   1   3 145.094 13.7868   1
   6  -1  -3 1979.41 90.6955   3
   5  -1  -3 29.5901 5.96802   3
  -5   1   3 37.1267 5.75372   1
   4  -1  -3 1202.47 55.7052   3
  -4   1   3 1221.25 55.2147   1
   3  -1  -3 451.654 22.9685   3
  -3   1   3 470.281 23.8608   1
  -2   1   3 9999.99 421.191   2
   1  -1  -3 1175.87 47.8360   2
   1  -1  -3 1047.48 48.3291   3
  -1   1   3 1121.27 48.1213   1
  -1   1   3 1110.55 47.9460   2
  -1   1   3 1089.70 48.6020   3
   0  -1  -3 1500.51 64.0057   1
   0  -1  -3 1444.61 64.2924   3
   0  -1  -3 1449.11 64.5029   2
   0   1   3 1460.69 65.1342   3
   0   1   3 1659.49 64.0509   1
   0   1   3 1484.43 64.5989   2
  -2  -1  -3 977.434 46.8130   3
  -2  -1  -3 1182.77 47.0754   1
  -2  -1  -3 1115.74 46.6417   1
  -2  -1  -3 1038.87 47.1442   2
   2   1   3 1063.24 46.8320   1
   2   1   3 1048.92 47.3411   3
  -3  -1  -3 2269.84 96.2626   1
  -3  -1  -3 2152.79 95.8785   2
   3   1   3 2245.26 96.9794   3
  -4  -1  -3 772.413 36.6924   2
  -4  -1  -3 792.592 37.6046   1
   4   1   3 855.908 38.9056   3
  -5  -1  -3 336.810 16.5803   2
  -5  -1  -3 292.576 17.7123   1
   5   1   3 310.375 19.1195   3
  -6  -1  -3 15.6913 5.16047   1
  -6  -1  -3 22.5301 4.28739   2
   6   1   3 18.4671 6.18756   3
  -7  -1  -3 700.827 37.3395   1
  -7  -1  -3 713.023 34.3902   2
   7   1   3 738.092 39.3113   3
  -8  -1  -3 73.1771 9.83143   2
  -8  -1  -3 55.9684 10.3064   1
   8   1   3 72.7710 12.4156   3
   9  -2  -3 9.69182 7.86701   3
  -9   2   3 12.4440 7.78411   1
   8  -2  -3 319.538 22.7206   3
  -8   2   3 278.033 21.3584   1
   7  -2  -3 32.1484 8.11869   3
  -7   2   3 42.5724 8.31285   1
   6  -2  -3 143.109 17.6946   3
  -6   2   3 153.388 13.3195   1
   5  -2  -3 80.6168 8.87634   3
  -5   2   3 87.1826 8.22370   1
   4  -2  -3 561.178 27.6990   3
  -4   2   3 526.858 27.0489   1
   3  -2  -3 5612.16 223.035   2
   3  -2  -3 4993.45 226.131   3
  -3   2   3 5271.26 223.129   2
   2  -2  -3 1810.09 81.3139   3
   2  -2  -3 1880.29 79.5452   2
  -2   2   3 1827.39 79.6656   2
  -2   2   3 1960.95 81.0620   1
   0  -2  -3 22.9288 1.71847   1
   0  -2  -3 20.0736 2.51364   3
   0  -2  -3 20.7210 2.44297   2
   0   2   3 21.2841 1.67290   1
   0   2   3 18.4602 2.36333   3
  -1  -2  -3 32.8047 3.28918   2
  -1  -2  -3 35.0167 2.18787   1
   1   2   3 32.3128 2.26727   1
   1   2   3 33.7318 3.30454   3
  -2  -2  -3 282.956 13.7298   1
  -2  -2  -3 326.283 14.1794   1
  -2  -2  -3 288.414 14.7932   2
   2   2   3 283.863 15.1713   3
  -3  -2  -3 1666.66 67.3902   1
  -3  -2  -3 1407.73 67.2462   2
   3   2   3 1538.61 68.6385   3
  -4  -2  -3 112.022 7.95665   1
  -4  -2  -3 97.1595 7.36930   2
   4   2   3 106.065 9.27308   3
  -5  -2  -3 369.495 18.9854   1
  -5  -2  -3 320.865 17.6847   2
   5   2   3 317.751 20.3146   3
  -6  -2  -3 4.67090 4.14380   1
  -6  -2  -3 3.51382 3.37084   2
   6   2   3 15.6463 6.17242   3
  -7  -2  -3 170.603 13.6526   1
   7   2   3 140.592 15.1547   3
  -8  -2  -3 151.268 11.3016   2
  -8  -2  -3 119.755 12.8892   1
   8   2   3 151.639 16.3335   3
   9  -3  -3 469.431 30.5466   3
  -9   3   3 450.019 30.4583   1
   8  -3  -3 7.15053 6.21560   3
  -8   3   3 1.78091 5.91118   1
   7  -3  -3 1129.45 56.8762   3
  -7   3   3 1182.87 57.2155   1
   6  -3  -3 1059.98 51.5118   3
  -6   3   3 1046.98 51.2646   1
   5  -3  -3 280.260 17.0262   3
  -5   3   3 256.989 16.5550   1
  -4   3   3 15.7083 3.85671   1
   3  -3  -3 615.707 25.7173   2
   3  -3  -3 594.888 28.6181   3
  -3   3   3 574.137 28.1452   1
  -3   3   3 574.859 25.8193   2
   2  -3  -3 3751.78 154.288   2
   2  -3  -3 3425.76 155.800   3
  -2   3   3 3543.97 154.367   2
  -2   3   3 3836.39 155.539   1
   1  -3  -3 47.1509 3.36078   1
   1  -3  -3 44.8996 3.56297   2
   1  -3  -3 55.0054 4.48657   3
  -1   3   3 51.8679 3.54877   1
   0  -3  -3 1527.14 66.7953   3
   0  -3  -3 1546.60 66.4891   2
   0  -3  -3 1564.51 65.0316   1
   0   3   3 1496.74 66.7073   3
  -2  -3  -3 2650.26 116.615   1
  -2  -3  -3 2672.44 116.418   1
  -2  -3  -3 2856.98 118.168   2
   2   3   3 2802.70 118.854   3
  -3  -3  -3 840.513 36.7551   1
  -3  -3  -3 800.634 37.5349   2
   3   3   3 815.045 38.9441   3
  -4  -3  -3 7770.18 325.707   2
  -4  -3  -3 7570.11 325.326   1
   4   3   3 7647.41 327.955   3
  -5  -3  -3 64.5359 6.70090   2
  -5  -3  -3 71.9019 7.06156   1
   5   3   3 56.6891 8.82051   3
  -6  -3  -3 945.889 43.4982   1
  -6  -3  -3 793.704 44.0534   2
   6   3   3 954.384 47.0727   3
  -7  -3  -3 221.035 16.2813   1
  -7  -3  -3 250.174 15.4389   2
   7   3   3 260.563 20.4212   3
  -8  -3  -3 575.228 29.8674   2
  -8  -3  -3 598.891 32.4054   1
   8   3   3 558.120 35.9184   3
   9  -4  -3 17.0875 8.48230   3
  -9   4   3 22.7872 9.24270   1
   8  -4  -3 226.717 19.2575   3
  -8   4   3 256.549 19.8738   1
   7  -4  -3 1308.34 60.0954   3
  -7   4   3 1135.15 59.5399   1
   6  -4  -3 151.935 13.2030   3
  -6   4   3 160.222 13.3922   1
   5  -4  -3 35.9529 6.53158   3
  -5   4   3 45.2203 7.20471   1
   4  -4  -3 88.6827 4.58437   2
   4  -4  -3 85.0190 8.01486   3
  -4   4   3 89.9882 4.67300   2
  -4   4   3 87.0322 7.90752   1
   3  -4  -3 53.5562 3.68644   2
   3  -4  -3 51.4815 5.94372   3
  -3   4   3 63.9411 5.72183   1
  -3   4   3 54.9649 3.79847   2
   1  -4  -3 3734.31 163.955   3
   1  -4  -3 3804.96 162.596   1
   1  -4  -3 3863.48 163.257   2
  -1   4   3 3904.80 162.736   1
  -1   4   3 3869.40 162.622   1
   0  -4  -3 214.285 11.8145   3
   0  -4  -3 210.117 11.2875   2
   0   4   3 215.383 11.7671   3
  -1  -4  -3 2144.49 92.3134   2
   1   4   3 2117.60 92.7946   3
  -2  -4  -3 788.612 38.5521   2
  -2  -4  -3 819.526 36.3782   1
  -2  -4  -3 914.172 36.5989   1
   2   4   3 861.699 39.7570   3
  -3  -4  -3 2605.57 112.044   1
  -3  -4  -3 2743.14 114.081   2
  -3  -4  -3 2551.73 112.246   1
   3   4   3 2605.28 115.548   3
  -4  -4  -3 468.492 24.5187   2
   4   4   3 514.303 27.2681   3
  -5  -4  -3 330.136 18.2808   2
  -5  -4  -3 310.150 17.5235   1
   5   4   3 339.828 22.2907   3
  -6  -4  -3 293.749 17.4712   2
  -6  -4  -3 303.324 17.5883   1
   6   4   3 285.529 21.3312   3
  -7  -4  -3 156.074 12.9640   1
  -7  -4  -3 171.307 12.7488   2
   7   4   3 171.559 16.8762   3
   8  -5  -3 522.062 30.5121   3
  -8   5   3 478.573 30.9775   1
   7  -5  -3 616.560 34.0499   3
  -7   5   3 618.661 34.8649   1
   6  -5  -3 23.0576 6.35446   3
  -6   5   3 18.7257 6.10899   1
   5  -5  -3 494.688 26.6033   3
  -5   5   3 498.049 26.8622   1
   4  -5  -3 1329.33 56.1968   3
   4  -5  -3 1218.23 52.2045   2
  -4   5   3 1173.81 55.5932   1
  -4   5   3 1125.27 52.2124   2
   3  -5  -3 2788.47 126.692   3
   3  -5  -3 3006.58 124.566   2
  -3   5   3 2964.07 126.551   1
   2  -5  -3 822.840 35.5892   2
   2  -5  -3 766.360 36.8075   3
  -2   5   3 795.498 36.0471   1
   1  -5  -3 5730.77 248.549   3
  -1   5   3 5939.31 246.856   1
   0  -5  -3 7.45970 2.36401   2
   0  -5  -3 4.69187 2.77325   3
   0   5   3 7.47478 2.68431   3
  -1  -5  -3 81.4065 6.25736   2
   1   5   3 70.1575 6.57900   3
  -2  -5  -3 318.154 16.8543   2
   2   5   3 313.530 17.8647   3
  -3  -5  -3 1217.79 59.4309   2
  -3  -5  -3 1275.07 57.1716   1
  -3  -5  -3 1470.97 57.1951   1
   3   5   3 1326.90 61.7027   3
  -4  -5  -3 3.71231 2.27356   1
  -4  -5  -3 3.94889 3.15320   2
   4   5   3 -0.0715 4.27083   3
  -5  -5  -3 1356.40 62.1672   2
  -5  -5  -3 1422.32 60.9388   1
   5   5   3 1292.68 65.5630   3
  -6  -5  -3 256.912 15.7135   1
  -6  -5  -3 284.161 17.0459   2
   6   5   3 244.963 20.3740   3
  -7  -5  -3 12.3988 4.92049   2
  -7  -5  -3 15.7159 5.33308   1
   7   5   3 2.60838 7.30600   3
   8  -6  -3 32.4439 8.62653   3
   7  -6  -3 1305.52 62.5336   3
  -7   6   3 1284.52 63.7000   1
   6  -6  -3 306.668 19.6200   3
  -6   6   3 299.099 20.2646   1
   5  -6  -3 160.120 7.63603   2
   5  -6  -3 160.136 12.1652   3
  -5   6   3 137.745 7.47149   2
  -5   6   3 134.300 11.7359   1
   4  -6  -3 159.714 8.28254   2
   4  -6  -3 143.564 11.0896   3
  -4   6   3 133.537 10.8157   1
   3  -6  -3 12.1494 3.28578   2
   3  -6  -3 17.3216 4.30956   3
  -3   6   3 9.37141 3.30884   1
   2  -6  -3 136.083 8.63170   2
   2  -6  -3 144.611 10.0730   3
  -2   6   3 157.573 9.00201   1
   1  -6  -3 251.328 13.5849   2
   1  -6  -3 263.285 14.8190   3
  -1   6   3 253.246 12.3654   1
   0  -6  -3 298.463 17.1594   3
   0  -6  -3 331.308 16.5629   2
   0   6   3 317.383 17.2033   3
  -1  -6  -3 182.327 10.8597   2
   1   6   3 161.030 11.4195   3
  -2  -6  -3 1672.04 71.5701   2
   2   6   3 1535.81 72.7408   3
  -3  -6  -3 119.943 6.02261   1
  -3  -6  -3 111.059 9.38466   2
   3   6   3 128.518 11.6231   3
  -4  -6  -3 551.913 26.1596   1
  -4  -6  -3 582.988 29.2101   2
   4   6   3 596.376 32.3931   3
  -5  -6  -3 3.43325 2.74088   1
  -5  -6  -3 2.83034 4.05140   2
   5   6   3 8.35931 6.39229   3
  -6  -6  -3 673.674 34.2640   2
  -6  -6  -3 674.667 32.4420   1
   6   6   3 659.201 39.1811   3
  -7  -6  -3 60.6061 8.62795   2
   7   6   3 43.3056 11.5640   3
   8  -7  -3 82.6116 12.3662   3
  -8   7   3 105.598 14.2095   1
   7  -7  -3 120.085 13.0147   3
  -7   7   3 117.179 13.5130   1
   6  -7  -3 996.935 49.1005   3
  -6   7   3 1010.49 50.1784   1
   5  -7  -3 257.981 17.0462   3
   5  -7  -3 272.036 12.9517   2
  -5   7   3 257.181 12.7764   2
  -5   7   3 235.283 16.7324   1
   4  -7  -3 3387.84 150.063   2
   4  -7  -3 3554.60 152.397   3
  -4   7   3 3529.09 152.103   1
   3  -7  -3 4.95066 3.80075   3
   3  -7  -3 2.55176 2.30490   2
  -3   7   3 1.18053 2.61568   1
   2  -7  -3 663.488 32.0694   3
   2  -7  -3 695.728 30.7320   2
  -2   7   3 610.171 30.2211   1
   1  -7  -3 123.972 9.56650   3
   1  -7  -3 124.577 8.55709   2
  -1   7   3 141.581 9.65777   3
  -1   7   3 105.684 6.64485   1
   0  -7  -3 208.044 12.8337   2
   0  -7  -3 204.300 13.8799   3
   0   7   3 251.303 14.1982   3
  -1  -7  -3 44.2138 5.85707   2
   1   7   3 52.6703 7.23068   3
  -2  -7  -3 430.233 30.9913   2
   2   7   3 584.122 28.8038   3
  -3  -7  -3 148.631 10.7600   2
   3   7   3 127.980 12.8376   3
  -4  -7  -3 442.804 21.0810   1
  -4  -7  -3 450.933 25.1114   2
  -4  -7  -3 519.928 22.5465   1
   4   7   3 462.157 28.4868   3
  -5  -7  -3 202.587 14.6388   2
   5   7   3 224.645 18.8955   3
  -6  -7  -3 5.39601 3.42934   1
  -6  -7  -3 1.05114 4.31846   2
   6   7   3 -7.7621 6.09012   3
   7  -8  -3 90.7451 11.7202   3
  -7   8   3 90.1314 12.2796   1
   6  -8  -3 281.015 18.8643   3
  -6   8   3 256.214 18.9550   1
   5  -8  -3 237.531 16.4309   3
  -5   8   3 252.246 18.0707   1
   4  -8  -3 1766.78 80.2026   3
   4  -8  -3 1887.72 77.8587   2
  -4   8   3 1670.68 79.7889   1
   3  -8  -3 753.906 37.9734   3
   3  -8  -3 784.021 36.3015   2
  -3   8   3 814.386 37.2693   1
   2  -8  -3 101.206 8.02091   2
  -2   8   3 111.954 7.59036   1
   1  -8  -3 316.358 17.7653   2
   1  -8  -3 355.064 19.7322   3
  -1   8   3 371.869 19.5520   3
  -1   8   3 309.828 15.5953   1
   0  -8  -3 7.22212 3.38354   2
  -1  -8  -3 639.473 30.7484   2
   1   8   3 599.301 31.9547   3
  -2  -8  -3 9.20103 4.20912   2
   2   8   3 15.4064 5.85837   3
  -3  -8  -3 644.778 32.1533   2
   3   8   3 613.992 34.8220   3
  -4  -8  -3 0.10972 4.27640   2
   4   8   3 0.77340 5.47202   3
  -5  -8  -3 397.955 23.3206   2
   5   8   3 393.369 28.3318   3
  -6  -8  -3 69.2511 9.96254   2
   6   8   3 62.8884 12.9977   3
   7  -9  -3 248.717 18.8078   3
  -7   9   3 255.042 20.0650   1
   6  -9  -3 14.8078 6.47757   3
  -6   9   3 17.8953 6.90030   1
  -6   9   3 11.7564 2.72290   2
   5  -9  -3 733.660 37.4291   3
   5  -9  -3 735.659 34.0103   2
  -5   9   3 724.966 37.5884   1
   4  -9  -3 181.191 11.2942   2
   4  -9  -3 171.676 13.5306   3
  -4   9   3 170.411 12.6650   1
   3  -9  -3 152.718 12.1756   3
   3  -9  -3 149.503 10.3533   2
  -3   9   3 148.219 10.5632   1
   2  -9  -3 0.12568 2.99898   2
   2  -9  -3 1.92581 4.16074   3
  -2   9   3 2.67354 3.94409   3
   1  -9  -3 449.721 25.3503   3
   1  -9  -3 421.725 27.4960   2
  -1   9   3 486.363 21.7529   1
  -1   9   3 504.151 25.4255   3
  -1   9   3 435.995 20.7385   1
   0  -9  -3 61.8161 8.78370   3
   0  -9  -3 71.2413 7.52773   2
   0   9   3 61.6382 8.45185   3
  -1  -9  -3 358.584 19.8569   2
   1   9   3 332.435 21.2206   3
  -2  -9  -3 59.3140 8.10971   2
   2   9   3 58.9049 10.0878   3
  -3  -9  -3 5.22924 4.47904   2
   3   9   3 2.54419 6.05740   3
  -4  -9  -3 1795.47 78.8713   2
   4   9   3 1621.83 82.7618   3
  -5  -9  -3 281.378 18.3851   2
   5   9   3 238.608 22.5211   3
   6 -10  -3 780.509 49.6186   3
  -6  10   3 811.998 42.1462   1
   5 -10  -3 23.8580 4.80125   2
   5 -10  -3 21.7327 7.02552   3
  -5  10   3 19.3407 6.30223   1
   4 -10  -3 261.457 17.2326   3
   4 -10  -3 257.877 15.0151   2
  -4  10   3 233.285 15.7101   1
   3 -10  -3 63.9275 9.24319   3
   3 -10  -3 68.2170 7.51420   2
  -3  10   3 75.6820 7.53090   1
   2 -10  -3 2719.87 119.875   3
   2 -10  -3 2684.90 118.192   2
  -2  10   3 2716.83 119.498   3
  -2  10   3 2672.72 116.316   1
   1 -10  -3 3.76465 3.85222   2
   1 -10  -3 6.42285 5.42172   3
  -1  10   3 5.25466 4.61220   3
   0 -10  -3 385.560 22.6358   2
   0  10   3 446.527 24.7119   3
  -1 -10  -3 49.3625 7.73433   2
   1  10   3 35.5783 7.83944   3
  -2 -10  -3 179.184 13.6540   2
   2  10   3 177.236 16.3727   3
  -3 -10  -3 202.476 15.1687   2
   3  10   3 199.979 18.4698   3
  -4 -10  -3 46.5164 8.38677   2
   4  10   3 67.4082 12.6686   3
   5 -11  -3 -0.6507 3.77920   2
  -5  11   3 4.62185 5.13446   1
   4 -11  -3 33.6722 7.86413   3
   4 -11  -3 36.9071 6.32311   2
  -4  11   3 36.4780 6.72636   1
   3 -11  -3 354.378 22.3234   3
   3 -11  -3 352.376 20.2926   2
  -3  11   3 347.837 21.8210   3
  -3  11   3 370.815 19.4914   1
   2 -11  -3 6.59833 5.79011   3
   2 -11  -3 5.54784 4.45554   2
  -2  11   3 9.21101 5.31552   3
   1 -11  -3 343.425 20.1142   2
   1 -11  -3 340.224 21.7729   3
  -1  11   3 340.437 21.2802   3
   0 -11  -3 0.39315 4.15307   2
   0  11   3 2.33529 5.03715   3
  -1 -11  -3 803.196 39.8274   2
   1  11   3 775.148 41.9047   3
  -2 -11  -3 25.4943 6.51373   2
   2  11   3 28.1682 9.25542   3
  -3 -11  -3 372.513 23.4262   2
   3  11   3 390.333 27.5032   3
   4 -12  -3 101.990 10.1649   2
   4 -12  -3 91.4568 12.4343   3
  -4  12   3 87.4946 11.9105   3
  -4  12   3 95.8261 9.66554   1
   3 -12  -3 238.751 16.1122   2
   3 -12  -3 215.136 25.0649   3
  -3  12   3 228.992 14.0169   1
  -3  12   3 257.068 24.4395   3
   2 -12  -3 21.6698 7.87050   3
   2 -12  -3 27.3778 6.53251   2
  -2  12   3 16.9781 7.11452   3
   1 -12  -3 79.1228 10.1299   2
   1 -12  -3 94.8244 12.2570   3
  -1  12   3 79.0072 11.5974   3
   0 -12  -3 49.6528 8.05384   2
  -1 -12  -3 58.4383 9.09402   2
   1  12   3 64.4304 11.2545   3
  -2 -12  -3 86.5958 11.5321   2
   2  12   3 95.0772 14.1363   3
   2 -13  -3 937.538 46.1275   2
   2 -13  -3 901.887 47.9327   3
  -2  13   3 956.959 47.7090   3
   1 -13  -3 39.0287 7.76483   2
  -1  13   3 39.4791 9.27672   3
  -2 -14   4 91.3617 9.10799   1
   1  14  -4 366.518 27.7986   3
  -1 -14   4 367.687 20.4175   1
  -1 -14   4 369.887 24.0143   2
   0  14  -4 56.9761 10.6892   3
   0 -14   4 38.8894 9.22753   1
   0 -14   4 42.7409 8.73889   2
  -1  14  -4 196.496 19.2611   2
  -1  14  -4 179.943 15.7189   3
  -1  14  -4 190.629 13.7306   1
   1 -14   4 173.260 14.1561   1
   1 -14   4 167.441 18.4994   2
  -2  14  -4 121.922 12.4226   2
  -2  14  -4 105.404 11.9366   3
  -2  14  -4 107.458 11.4117   1
   2 -14   4 111.866 11.9240   1
   2 -14   4 119.812 12.5339   2
  -3  14  -4 343.203 21.5985   1
  -3  14  -4 325.301 20.4616   3
  -3  14  -4 306.945 21.1095   2
   3 -14   4 319.220 21.5994   1
   3 -14   4 306.803 21.5962   2
   3  13  -4 364.838 28.2094   3
  -3 -13   4 371.902 20.2993   1
  -3 -13   4 428.747 24.9732   2
   2  13  -4 397.945 26.4833   3
  -2 -13   4 352.565 19.1193   1
  -2 -13   4 280.448 28.2828   2
   1  13  -4 71.4783 11.7508   3
  -1 -13   4 67.1564 8.15050   1
  -1 -13   4 64.0145 10.1983   2
   0  13  -4 11.2995 6.30034   3
   0 -13   4 14.9726 6.21133   2
   0 -13   4 6.87649 4.63654   1
  -1  13  -4 19.2042 6.70170   2
  -1  13  -4 24.4036 6.95343   3
   1 -13   4 10.7192 6.08615   2
  -2  13  -4 414.331 23.7449   1
  -2  13  -4 436.384 24.0764   3
  -2  13  -4 387.625 24.0205   2
   2 -13   4 410.392 24.1203   1
   2 -13   4 388.699 24.5674   2
  -3  13  -4 322.651 20.9539   2
  -3  13  -4 364.818 20.2574   3
  -3  13  -4 328.363 21.0459   1
   3 -13   4 299.240 19.8188   3
   3 -13   4 310.792 21.0943   2
   3 -13   4 325.072 21.2941   1
  -4  13  -4 52.8821 9.76240   1
  -4  13  -4 60.1972 8.68657   3
  -4  13  -4 68.1436 9.76570   2
   4 -13   4 60.0697 10.4171   1
   4 -13   4 61.8285 9.37644   3
   4  12  -4 286.360 25.2656   3
  -4 -12   4 320.430 21.0052   2
  -4 -12   4 314.862 17.3201   1
   3  12  -4 109.509 14.7869   3
  -3 -12   4 99.0740 8.55217   1
  -3 -12   4 95.2062 11.3741   2
   2  12  -4 118.151 14.3922   3
  -2 -12   4 115.277 11.9513   2
  -2 -12   4 127.670 9.63339   1
   1  12  -4 284.184 19.9071   3
  -1 -12   4 256.402 15.2617   1
  -1 -12   4 240.159 17.5250   2
   0  12  -4 177.882 15.5812   3
   0 -12   4 241.236 14.1842   1
   0 -12   4 220.348 16.0509   2
  -1  12  -4 331.974 19.8790   3
  -1  12  -4 317.269 19.8054   2
   1 -12   4 305.181 19.9343   2
   1 -12   4 297.476 18.4593   1
  -2  12  -4 20.7499 5.94214   1
  -2  12  -4 10.5780 5.46591   2
  -2  12  -4 14.8037 5.39395   3
   2 -12   4 11.5129 6.07025   2
   2 -12   4 14.9843 6.04657   1
  -3  12  -4 5.41402 5.04079   1
  -3  12  -4 1.46979 4.55978   2
  -3  12  -4 3.19925 4.09627   3
   3 -12   4 3.20963 4.45655   3
   3 -12   4 1.40344 4.81228   2
   3 -12   4 -5.3341 4.60198   1
  -4  12  -4 5.11223 4.88349   2
  -4  12  -4 8.97625 4.62570   3
  -4  12  -4 3.27593 5.48367   1
   4 -12   4 0.88565 5.42853   1
   4 -12   4 6.32554 4.98516   3
  -5  12  -4 338.649 21.6130   2
  -5  12  -4 330.607 24.0285   1
  -5  12  -4 366.886 21.0772   3
   5 -12   4 410.254 26.0252   1
   5 -12   4 390.516 21.5374   3
   5  11  -4 183.603 20.8510   3
  -5 -11   4 209.275 20.4322   2
  -5 -11   4 200.538 13.3808   1
   4  11  -4 235.240 21.1270   3
  -4 -11   4 214.752 13.8114   1
  -4 -11   4 240.898 16.9884   2
   3  11  -4 249.306 19.9763   3
  -3 -11   4 236.119 16.4035   2
  -3 -11   4 210.375 13.3527   1
   2  11  -4 460.174 27.8151   3
  -2 -11   4 434.125 22.2479   1
  -2 -11   4 434.907 24.9836   2
   1  11  -4 1471.03 67.6010   3
  -1 -11   4 1369.88 65.7107   2
  -1 -11   4 1408.67 63.2989   1
   0  11  -4 1443.22 68.7542   3
   0 -11   4 1525.36 68.6579   2
   0 -11   4 1478.92 66.4063   1
  -1  11  -4 998.818 48.9849   2
  -1  11  -4 1051.83 48.8486   3
   1 -11   4 1018.80 49.2761   2
   1 -11   4 1030.12 48.0662   1
  -2  11  -4 67.7330 7.93063   3
  -2  11  -4 57.4780 8.33178   2
   2 -11   4 72.1289 8.24417   3
   2 -11   4 79.6510 9.04916   2
   2 -11   4 83.2622 9.48554   1
  -3  11  -4 683.429 34.1749   1
  -3  11  -4 691.702 33.6360   2
  -3  11  -4 600.348 31.6265   3
   3 -11   4 644.284 34.3838   1
   3 -11   4 644.540 32.1924   3
   3 -11   4 632.884 33.1983   2
  -4  11  -4 4.50552 4.73882   3
  -4  11  -4 6.59995 4.79420   2
  -4  11  -4 2.02592 4.73994   1
   4 -11   4 10.6272 6.13689   1
  -5  11  -4 9.87213 5.06237   2
  -5  11  -4 33.7295 8.73776   1
   5 -11   4 16.9037 5.31843   3
   5 -11   4 15.0666 7.34083   1
  -6  11  -4 137.270 11.9127   2
   6 -11   4 133.745 11.6248   3
   6  10  -4 357.165 29.1168   3
  -6 -10   4 417.853 24.2030   2
  -6 -10   4 378.235 21.7050   1
   5  10  -4 407.580 29.1225   3
  -5 -10   4 377.625 23.6157   1
  -5 -10   4 430.488 24.2010   2
   4  10  -4 58.1426 11.2414   3
  -4 -10   4 61.1804 7.43798   1
  -4 -10   4 74.0463 9.09373   2
   3  10  -4 630.738 34.2951   3
  -3 -10   4 619.135 30.4936   2
  -3 -10   4 499.977 27.4829   1
   2  10  -4 1.98727 4.70432   3
  -2 -10   4 14.5986 3.90531   1
  -2 -10   4 12.9758 4.92969   2
   1  10  -4 0.31964 4.11152   3
  -1 -10   4 4.72494 3.21651   1
  -1 -10   4 -1.0186 3.61652   2
   0  10  -4 149.375 11.9645   3
   0 -10   4 161.386 10.7058   1
   0 -10   4 161.186 12.0902   2
  -1  10  -4 335.270 27.4275   2
  -1  10  -4 388.435 20.2952   3
   1 -10   4 351.174 19.7499   1
  -2  10  -4 1268.20 58.3940   3
  -2  10  -4 1259.18 59.5425   2
   2 -10   4 1258.07 59.6133   2
   2 -10   4 1293.27 58.6390   3
   2 -10   4 1371.16 59.9820   1
  -3  10  -4 1582.58 66.0363   3
  -3  10  -4 1444.54 68.9855   1
  -3  10  -4 1482.40 67.3247   2
   3 -10   4 1395.88 68.1837   1
   3 -10   4 1435.22 67.2015   2
   3 -10   4 1472.19 66.0166   3
  -4  10  -4 3.19579 3.70464   2
  -4  10  -4 10.1320 4.08918   3
  -4  10  -4 1.87454 4.45670   1
   4 -10   4 0.75837 3.53052   3
   4 -10   4 2.67822 5.12535   1
  -5  10  -4 11.0311 6.16623   1
  -5  10  -4 12.9903 4.86895   2
   5 -10   4 17.2541 7.39747   1
   5 -10   4 15.3693 4.97379   3
  -6  10  -4 112.306 13.9495   1
  -6  10  -4 115.946 10.2997   2
   6 -10   4 122.542 10.5676   3
  -7  10  -4 406.023 21.8934   2
  -7  10  -4 410.697 28.6255   1
   7 -10   4 396.016 22.7807   3
   6   9  -4 12.8207 10.1902   3
  -6  -9   4 17.2666 5.85851   2
  -6  -9   4 18.1885 5.74556   1
   5   9  -4 391.517 27.1433   3
  -5  -9   4 389.673 21.3071   1
  -5  -9   4 367.125 22.1562   2
   4   9  -4 712.431 41.4991   3
  -4  -9   4 784.278 36.3532   1
  -4  -9   4 779.624 37.9501   2
   3   9  -4 3050.07 137.476   3
  -3  -9   4 3083.08 132.561   1
  -3  -9   4 3062.89 134.343   2
   2   9  -4 294.398 18.7131   3
  -2  -9   4 269.587 14.9365   1
  -2  -9   4 276.154 16.7761   2
   1   9  -4 297.335 18.4953   3
  -1  -9   4 315.072 16.1500   1
  -1  -9   4 300.266 17.5164   2
   0   9  -4 461.145 25.1321   3
   0  -9   4 514.271 24.2413   1
  -1   9  -4 2197.78 96.9563   2
  -1   9  -4 2203.80 96.2913   3
   1  -9   4 2197.93 97.1519   2
   1  -9   4 2175.00 96.1920   1
  -2   9  -4 322.287 18.2493   3
  -2   9  -4 375.159 19.9431   2
   2  -9   4 343.080 18.6527   3
   2  -9   4 350.092 19.7420   2
   2  -9   4 387.091 20.2097   1
  -3   9  -4 1113.33 52.4324   1
  -3   9  -4 1093.57 49.7136   3
  -3   9  -4 1164.41 51.4419   2
   3  -9   4 1061.25 51.0112   2
   3  -9   4 1101.49 49.9069   3
   3  -9   4 1074.95 52.4823   1
  -4   9  -4 62.1333 9.17795   1
  -4   9  -4 72.4618 7.78964   2
   4  -9   4 73.2831 9.89852   1
   4  -9   4 65.9800 6.99313   3
  -5   9  -4 5.22085 4.10070   2
  -5   9  -4 8.56148 5.90576   1
   5  -9   4 20.5048 7.23357   1
   5  -9   4 14.3972 4.39669   3
  -6   9  -4 573.429 29.0760   2
  -6   9  -4 551.716 33.8637   1
   6  -9   4 603.918 29.8871   3
  -7   9  -4 125.975 9.91953   2
  -7   9  -4 113.189 15.0624   1
   7  -9   4 145.396 11.6014   3
   7   8  -4 45.7661 12.0908   3
  -7  -8   4 36.9320 7.41209   2
  -7  -8   4 52.9904 8.61503   1
   6   8  -4 19.7778 8.71424   3
  -6  -8   4 13.7136 5.19896   2
  -6  -8   4 12.4885 5.18537   1
   5   8  -4 221.216 19.2687   3
  -5  -8   4 218.763 14.3884   1
  -5  -8   4 218.122 14.8395   2
   4   8  -4 124.221 13.3855   3
  -4  -8   4 113.937 9.73265   2
  -4  -8   4 90.1954 9.01821   1
   3   8  -4 2786.61 125.433   3
  -3  -8   4 2807.77 121.345   1
  -3  -8   4 2807.53 122.565   2
   2   8  -4 258.710 16.9790   3
  -2  -8   4 281.731 14.4699   1
  -2  -8   4 247.870 15.2326   2
   1   8  -4 389.630 21.9855   3
  -1  -8   4 410.998 20.1687   1
  -1  -8   4 424.003 21.6369   2
   0   8  -4 1259.66 58.3304   3
   0  -8   4 1340.84 57.6311   1
   0  -8   4 1274.75 58.5922   2
  -1   8  -4 423.229 23.1999   2
  -1   8  -4 478.453 22.7274   3
   1  -8   4 459.100 22.9969   1
   1  -8   4 467.426 23.5540   2
  -2   8  -4 133.544 9.72355   2
  -2   8  -4 126.368 8.49271   3
   2  -8   4 143.502 10.3322   1
   2  -8   4 129.834 8.72718   3
   2  -8   4 130.269 9.80279   2
  -3   8  -4 1859.50 84.3727   1
  -3   8  -4 1899.25 83.0120   2
   3  -8   4 1876.66 84.5260   1
   3  -8   4 1841.14 81.5701   3
  -4   8  -4 263.727 17.4017   1
  -4   8  -4 257.535 15.1781   2
   4  -8   4 259.117 17.5378   1
   4  -8   4 237.814 13.8521   3
  -5   8  -4 10.8642 5.84025   1
  -5   8  -4 12.2204 4.20342   2
   5  -8   4 9.97146 3.76514   3
   5  -8   4 12.5812 5.75053   1
  -6   8  -4 665.285 37.5318   1
  -6   8  -4 638.056 32.2179   2
   6  -8   4 693.101 32.8321   3
  -7   8  -4 5.51005 7.38649   1
  -7   8  -4 3.39596 3.23022   2
   7  -8   4 4.58285 4.75925   3
   7   7  -4 560.973 44.3366   3
  -7  -7   4 637.843 31.5044   2
  -7  -7   4 601.214 32.2734   1
   6   7  -4 312.382 24.5469   3
  -6  -7   4 337.283 20.4203   1
  -6  -7   4 376.151 20.1694   2
   5   7  -4 50.3218 10.1253   3
  -5  -7   4 38.1521 6.40707   1
  -5  -7   4 39.3354 7.49813   2
   4   7  -4 11.3187 9.77889   3
  -4  -7   4 9.64692 3.82765   2
  -4  -7   4 6.71850 3.60204   1
   3   7  -4 883.447 40.9008   3
  -3  -7   4 824.334 37.8382   2
  -3  -7   4 699.570 36.7590   1
   2   7  -4 14.4080 4.35870   3
  -2  -7   4 7.08045 3.08189   2
  -2  -7   4 12.3848 3.79490   1
   1   7  -4 166.703 11.1748   3
  -1  -7   4 163.490 9.75778   1
  -1  -7   4 171.615 10.8027   2
   0   7  -4 282.243 15.4415   2
   0   7  -4 273.405 14.9335   3
   0  -7   4 275.082 15.1844   2
   0  -7   4 278.163 14.5640   1
  -1   7  -4 648.456 32.3197   3
  -1   7  -4 678.469 32.0144   2
   1  -7   4 701.883 32.1053   2
   1  -7   4 665.150 31.6475   1
  -2   7  -4 511.895 25.0273   2
  -2   7  -4 533.094 23.7673   3
   2  -7   4 501.348 25.4506   1
   2  -7   4 471.020 24.7400   2
   2  -7   4 496.054 23.6753   3
  -3   7  -4 4571.92 189.330   2
  -3   7  -4 4289.79 190.734   1
   3  -7   4 4443.50 190.933   1
   3  -7   4 4330.41 187.779   3
  -4   7  -4 401.374 21.0476   2
  -4   7  -4 368.561 23.0359   1
   4  -7   4 409.036 23.6993   1
   4  -7   4 444.434 20.4061   3
  -5   7  -4 337.178 17.7876   2
  -5   7  -4 300.045 20.5544   1
   5  -7   4 327.454 17.4671   3
   5  -7   4 330.906 21.4154   1
  -6   7  -4 850.797 40.2147   2
  -6   7  -4 840.148 45.2548   1
   6  -7   4 896.128 41.1158   3
  -7   7  -4 599.063 30.1718   2
  -7   7  -4 690.457 37.9934   1
   7  -7   4 627.260 32.9018   3
  -8   7  -4 6.95658 7.67387   1
   8  -7   4 8.79874 5.85145   3
   8   6  -4 71.9321 14.2870   3
  -8  -6   4 91.0292 11.8600   1
  -8  -6   4 100.815 9.58043   2
   7   6  -4 157.371 18.0714   3
  -7  -6   4 169.232 14.3660   1
  -7  -6   4 170.159 12.1576   2
   6   6  -4 112.584 13.9226   3
  -6  -6   4 112.915 10.4521   1
  -6  -6   4 99.0648 8.96990   2
   5   6  -4 80.6509 11.1666   3
  -5  -6   4 61.0681 6.95236   2
  -5  -6   4 60.2435 7.49221   1
   4   6  -4 288.039 19.2755   3
  -4  -6   4 278.236 15.9242   2
  -4  -6   4 299.634 16.4388   1
   3   6  -4 5798.66 251.933   3
  -3  -6   4 6023.80 249.500   1
  -3  -6   4 5718.83 249.340   2
   2   6  -4 973.157 45.9605   3
  -2  -6   4 998.308 44.6574   2
  -2  -6   4 968.993 44.1354   1
   1   6  -4 1730.04 75.2203   3
  -1  -6   4 1685.40 74.0707   1
  -1  -6   4 1684.56 74.7652   2
   0   6  -4 5238.71 216.897   3
   0   6  -4 5311.68 217.446   2
   0  -6   4 5005.38 216.611   1
   0  -6   4 4814.50 217.191   2
  -1   6  -4 511.600 24.3184   3
  -1   6  -4 524.852 25.5324   2
   1  -6   4 536.220 25.3750   1
   1  -6   4 548.850 25.6234   2
  -2   6  -4 338.828 18.0485   2
  -2   6  -4 380.987 16.9012   3
   2  -6   4 324.016 18.5065   1
   2  -6   4 358.620 16.8441   3
  -3   6  -4 230.866 12.4606   2
   3  -6   4 208.450 13.7495   1
   3  -6   4 190.362 10.8066   3
  -4   6  -4 31.6912 6.21147   1
  -4   6  -4 38.2711 5.18834   2
   4  -6   4 27.2780 4.20579   3
   4  -6   4 37.6723 6.83423   1
  -5   6  -4 714.097 33.4716   2
  -5   6  -4 678.137 36.9782   1
   5  -6   4 765.615 33.7746   3
   5  -6   4 663.839 36.9719   1
  -6   6  -4 11.2230 3.50427   2
  -6   6  -4 23.9131 7.53746   1
   6  -6   4 16.4288 4.78448   3
  -7   6  -4 353.705 18.5951   2
  -7   6  -4 372.671 25.3486   1
   7  -6   4 358.836 21.1893   3
  -8   6  -4 19.3050 8.63324   1
   8  -6   4 29.8205 7.13396   3
   8   5  -4 56.9496 13.0214   3
  -8  -5   4 39.6423 8.72190   1
  -8  -5   4 37.8123 6.01103   2
   7   5  -4 292.907 23.0900   3
  -7  -5   4 299.320 19.3319   1
  -7  -5   4 277.936 16.4606   2
  -6  -5   4 1180.20 54.3215   1
  -6  -5   4 1105.12 51.9118   2
   5   5  -4 6.69789 5.57630   3
  -5  -5   4 9.42091 3.24562   2
  -5  -5   4 7.71762 3.99823   1
   4   5  -4 362.937 22.0157   3
  -4  -5   4 374.065 19.6693   1
  -4  -5   4 360.976 18.7006   2
   3   5  -4 248.970 15.8732   3
  -3  -5   4 268.007 13.9464   2
  -3  -5   4 255.039 14.1817   1
   2   5  -4 2275.67 101.855   3
  -2  -5   4 2454.72 100.772   2
  -2  -5   4 2243.15 100.532   1
   1   5  -4 1439.73 62.8761   3
   1   5  -4 1482.65 62.7184   2
  -1  -5   4 1340.27 62.3896   2
   0   5  -4 3125.48 134.464   2
   0   5  -4 3059.48 133.157   3
   0   5  -4 3353.66 133.918   3
   0  -5   4 3194.31 134.486   2
   0  -5   4 2926.57 133.105   3
  -1   5  -4 321.102 17.0675   2
  -1   5  -4 345.353 15.8899   3
  -1   5  -4 375.337 16.0122   3
   1  -5   4 332.844 17.1042   2
   1  -5   4 323.346 17.0125   1
  -2   5  -4 1387.96 60.0242   2
  -2   5  -4 1327.14 58.9889   3
   2  -5   4 1311.90 60.4712   1
   2  -5   4 1389.93 58.4256   3
  -3   5  -4 782.778 35.8758   2
   3  -5   4 788.841 37.5719   1
   3  -5   4 763.876 34.6026   3
  -4   5  -4 1684.46 74.0535   2
  -4   5  -4 1728.69 76.8604   1
   4  -5   4 1678.81 76.6845   1
   4  -5   4 1641.82 73.4814   3
  -6   5  -4 117.779 8.55116   2
  -6   5  -4 131.346 12.6152   1
   6  -5   4 119.849 10.1697   3
  -7   5  -4 173.620 11.0459   2
  -7   5  -4 185.475 17.0632   1
   7  -5   4 187.630 14.0539   3
  -8   5  -4 117.077 8.48607   2
  -8   5  -4 132.479 15.5553   1
   8  -5   4 127.717 12.8069   3
   8   4  -4 98.6399 18.5388   3
  -8  -4   4 108.502 8.56327   2
  -8  -4   4 110.405 12.9302   1
   7   4  -4 1226.62 64.7030   3
  -7  -4   4 1317.50 61.3439   1
  -7  -4   4 1294.46 57.5063   2
   6   4  -4 164.275 15.5381   3
  -6  -4   4 176.734 13.0892   1
  -6  -4   4 167.377 10.5370   2
   5   4  -4 691.052 38.4388   3
  -5  -4   4 790.989 34.3122   2
  -5  -4   4 731.697 36.1196   1
   4   4  -4 56.3165 7.58942   3
  -4  -4   4 59.2338 5.12798   2
  -4  -4   4 42.0323 5.63953   1
   3   4  -4 3342.74 144.422   3
  -3  -4   4 3501.76 142.019   2
  -3  -4   4 3097.60 142.502   1
   2   4  -4 4230.77 180.626   3
  -2  -4   4 4172.58 179.617   1
   1   4  -4 143.465 8.51999   3
   1   4  -4 144.248 8.34228   2
  -1  -4   4 138.320 7.94307   3
  -1  -4   4 133.154 8.27457   2
  -1  -4   4 152.660 8.40680   1
   0   4  -4 687.727 35.9986   3
   0   4  -4 822.062 36.0780   2
   0   4  -4 858.944 35.2741   3
   0  -4   4 837.880 36.1263   2
   0  -4   4 784.739 35.7171   1
  -1   4  -4 14.5650 1.76903   3
  -1   4  -4 16.6011 1.78705   3
  -2   4  -4 1050.42 45.8775   2
  -2   4  -4 1052.26 44.6177   3
   2  -4   4 1025.86 44.0384   3
   2  -4   4 959.277 46.1525   1
  -3   4  -4 2523.97 107.945   2
  -3   4  -4 2449.10 109.457   1
  -3   4  -4 2483.98 107.411   3
   3  -4   4 2368.69 109.252   1
   3  -4   4 2653.42 106.942   3
  -4   4  -4 9.39138 2.99207   2
  -4   4  -4 5.25414 3.56111   1
   4  -4   4 9.73435 2.88902   3
   4  -4   4 5.93638 3.69896   1
  -5   4  -4 903.921 44.9087   1
  -5   4  -4 892.808 41.3447   2
   5  -4   4 914.965 45.0089   1
   5  -4   4 916.438 42.2539   3
  -6   4  -4 401.438 19.9992   2
  -6   4  -4 393.933 24.2123   1
   6  -4   4 387.106 21.7087   3
  -7   4  -4 773.414 40.7239   1
  -7   4  -4 703.988 33.9531   2
   7  -4   4 719.315 37.0607   3
  -8   4  -4 22.3185 4.04921   2
   8  -4   4 34.2459 7.90681   3
   8   3  -4 160.587 9.69187   2
   8   3  -4 156.262 17.4881   3
  -8  -3   4 145.562 9.63596   2
  -8  -3   4 167.559 15.1214   1
   7   3  -4 317.480 23.8924   3
  -7  -3   4 352.851 17.5388   2
  -7  -3   4 360.156 22.0414   1
   6   3  -4 23.5911 6.61363   3
  -6  -3   4 20.4013 5.49949   1
   5   3  -4 267.196 18.3877   3
  -5  -3   4 279.629 14.2698   2
  -5  -3   4 287.364 16.8636   1
   4   3  -4 1509.57 74.9571   3
  -4  -3   4 1770.02 73.8627   1
  -4  -3   4 1669.19 71.7208   2
   3   3  -4 874.037 38.3110   2
   3   3  -4 830.564 40.6028   3
  -3  -3   4 881.674 38.2985   2
  -3  -3   4 846.501 39.4477   1
   2   3  -4 2338.00 100.396   3
   2   3  -4 2369.41 98.9994   2
  -2  -3   4 2208.55 99.5018   1
   1   3  -4 2819.47 116.917   3
   1   3  -4 2737.55 116.678   2
  -1  -3   4 2654.83 116.756   1
  -1  -3   4 2648.60 116.631   2
  -1  -3   4 2768.82 116.454   3
   0   3  -4 370.325 17.5259   2
   0   3  -4 392.331 16.5902   3
   0  -3   4 333.795 16.0893   3
  -2   3  -4 69.5745 4.23270   3
  -2   3  -4 62.8649 5.29366   2
   2  -3   4 75.1139 4.07221   3
   2  -3   4 76.6260 6.09158   1
  -3   3  -4 68.3730 4.97801   3
  -3   3  -4 69.6135 9.07663   2
  -3   3  -4 76.2131 6.87737   1
   3  -3   4 79.2500 5.20849   3
   3  -3   4 58.4619 6.46958   1
  -4   3  -4 11.6419 4.21846   1
  -4   3  -4 3.48861 2.37473   2
   4  -3   4 7.40594 3.70802   1
   4  -3   4 6.46437 2.55981   3
  -5   3  -4 209.153 11.8820   2
   5  -3   4 200.974 14.6224   1
   5  -3   4 212.695 13.0706   3
  -6   3  -4 29.2235 4.50865   2
  -6   3  -4 21.1392 6.69030   1
   6  -3   4 33.5891 6.22911   3
  -7   3  -4 237.800 14.0688   2
  -7   3  -4 271.805 19.6149   1
   7  -3   4 254.319 17.3733   3
  -8   3  -4 964.939 51.6509   1
  -8   3  -4 962.104 44.8483   2
   8  -3   4 1016.86 49.7133   3
   9   2  -4 201.814 20.8699   3
  -9  -2   4 205.233 18.4644   1
   8   2  -4 223.232 20.2039   3
   8   2  -4 204.586 10.9906   2
  -8  -2   4 215.447 17.6109   1
  -8  -2   4 217.177 11.1467   2
   7   2  -4 109.706 13.5038   3
   7   2  -4 105.014 6.84631   2
  -7  -2   4 104.861 11.4147   1
  -7  -2   4 115.826 7.03767   2
   5   2  -4 2452.06 114.336   3
   5   2  -4 2506.27 109.373   2
  -5  -2   4 2787.89 109.651   2
  -5  -2   4 2475.14 112.539   1
   4   2  -4 278.366 12.9009   2
   4   2  -4 239.905 15.9203   3
  -4  -2   4 249.877 12.8260   2
  -4  -2   4 273.942 15.2206   1
   3   2  -4 3144.52 132.296   3
   3   2  -4 3179.88 129.597   2
   3   2  -4 2879.18 129.202   2
  -3  -2   4 2947.21 131.032   1
  -3  -2   4 3047.53 129.516   2
   2   2  -4 337.726 17.4038   3
   2   2  -4 338.230 16.1216   2
   2   2  -4 360.807 15.9798   2
  -2  -2   4 349.079 16.1660   2
  -2  -2   4 323.026 16.8604   1
   1   2  -4 16.6429 2.20369   2
   1   2  -4 19.9187 2.56522   3
   1   2  -4 19.4918 2.46240   2
  -1  -2   4 22.5363 2.69831   1
  -1  -2   4 17.5777 2.12476   2
  -1  -2   4 22.9158 2.47859   3
   0   2  -4 1030.87 48.2106   1
   0   2  -4 1110.49 46.6703   3
   0   2  -4 1085.22 47.7823   2
   0  -2   4 1088.95 47.6627   1
   0  -2   4 1135.06 46.6181   3
  -1   2  -4 3047.39 131.616   2
   1  -2   4 3110.95 131.538   1
  -3   2  -4 2975.13 145.272   2
  -3   2  -4 3554.02 145.053   1
  -3   2  -4 3451.50 143.029   3
   3  -2   4 3348.37 144.685   1
   3  -2   4 3421.88 143.270   3
  -4   2  -4 1366.62 57.9761   1
  -4   2  -4 1225.85 55.5261   2
   4  -2   4 1208.94 56.0034   3
   4  -2   4 1212.71 57.2734   1
  -5   2  -4 9.93946 4.50212   1
  -5   2  -4 8.65434 2.90794   2
   5  -2   4 7.59933 3.58031   3
  -6   2  -4 7.07914 2.96950   2
  -6   2  -4 7.45821 4.96174   1
   6  -2   4 9.29845 4.48891   3
  -7   2  -4 16.8392 4.11909   2
  -7   2  -4 18.6032 7.14285   1
   7  -2   4 18.4350 6.55241   3
  -8   2  -4 1433.40 69.8567   1
  -8   2  -4 1412.99 63.5866   2
   8  -2   4 1412.76 68.3316   3
   9   1  -4 291.438 24.0262   3
  -9  -1   4 302.090 22.4078   1
   8   1  -4 399.352 26.2663   3
  -8  -1   4 294.077 22.1179   1
   7   1  -4 830.270 44.5027   3
  -7  -1   4 838.511 42.7023   1
   6   1  -4 384.084 18.4433   2
   6   1  -4 412.856 24.9334   3
   6   1  -4 422.149 18.6156   2
  -6  -1   4 425.027 25.7376   1
   5   1  -4 1599.11 68.2816   2
   5   1  -4 1741.74 68.1820   2
   5   1  -4 1455.29 73.0840   3
  -5  -1   4 1507.24 71.9036   1
  -5  -1   4 1633.39 68.3482   2
   4   1  -4 3532.15 141.385   2
   4   1  -4 3271.06 145.266   3
   4   1  -4 3383.33 141.135   2
  -4  -1   4 3122.68 143.957   1
   3   1  -4 9189.10 373.283   3
   3   1  -4 8369.17 370.067   2
   2   1  -4 1077.84 45.3612   2
   2   1  -4 1059.83 45.4480   2
   2   1  -4 1009.35 46.8137   3
  -2  -1   4 1047.69 46.5734   1
  -2  -1   4 1034.35 45.3214   2
   1   1  -4 62.0312 4.74922   1
   1   1  -4 79.0463 4.73067   2
  -1  -1   4 65.7973 4.86817   1
  -1  -1   4 91.2431 5.13497   3
  -1  -1   4 72.4821 4.55132   2
  -1   1  -4 615.707 29.3036   2
  -1   1  -4 602.917 28.9228   1
   1  -1   4 744.889 27.9187   3
   1  -1   4 587.917 28.9560   1
   1  -1   4 683.107 27.9506   3
  -2   1  -4 5043.55 215.689   3
  -2   1  -4 5182.39 216.990   2
   2  -1   4 5088.65 216.136   3
  -3   1  -4 4138.59 174.847   2
  -3   1  -4 4170.22 174.268   3
   3  -1   4 4057.87 174.821   3
   3  -1   4 4013.48 175.525   1
  -4   1  -4 26.7518 3.91628   2
  -4   1  -4 26.1639 5.15825   1
   4  -1   4 25.8914 4.85137   1
  -5   1  -4 409.550 22.5138   1
  -5   1  -4 402.660 20.2550   2
   5  -1   4 399.737 21.9715   3
  -6   1  -4 22.3798 6.17688   1
  -6   1  -4 23.8718 4.50830   2
   6  -1   4 23.4850 6.01827   3
  -7   1  -4 1131.77 55.4664   1
  -7   1  -4 1093.55 51.0242   2
   7  -1   4 1140.40 55.1271   3
  -8   1  -4 136.352 14.9526   1
  -8   1  -4 149.518 10.6836   2
   8  -1   4 147.653 14.7758   3
   9   0  -4 45.3151 10.5106   3
  -9   0   4 26.5684 8.82646   1
   8   0  -4 1242.49 63.6508   3
  -8   0   4 1278.32 62.3478   1
   7   0  -4 48.5125 9.97047   3
  -7   0   4 45.0092 8.40340   1
   6   0  -4 195.405 15.1800   3
  -6   0   4 150.225 12.9369   1
   5   0  -4 1208.86 58.4424   3
  -5   0   4 1275.69 57.7212   1
   4   0  -4 6243.83 289.202   3
   4   0  -4 6710.48 285.282   2
   4   0  -4 7315.26 285.198   2
  -4   0   4 6785.57 288.759   1
   2   0  -4 1240.62 54.4663   3
   2   0  -4 1282.59 52.8952   2
  -2   0   4 1145.82 53.8875   1
  -2   0   4 1232.70 52.8441   2
   1   0  -4 668.838 28.2095   2
   1   0  -4 678.495 28.5938   3
   1   0  -4 588.529 28.3138   1
  -1   0   4 645.451 28.6096   3
  -1   0   4 577.545 28.2486   1
  -1   0   4 631.169 28.0978   2
   0   0  -4 369.763 17.3407   1
   0   0   4 344.084 17.2047   1
   0   0   4 417.937 17.2861   3
  -2   0  -4 944.396 45.0838   2
  -2   0  -4 980.950 43.9620   3
   2   0   4 1108.17 45.0039   1
   2   0   4 1012.41 44.5305   3
  -3   0  -4 163.123 9.60725   2
  -3   0  -4 170.747 9.98387   1
   3   0   4 158.235 9.93046   1
   3   0   4 156.890 9.75309   3
  -4   0  -4 424.288 21.2102   2
  -4   0  -4 474.709 22.6400   1
   4   0   4 399.787 22.2151   3
  -5   0  -4 884.603 41.0987   2
  -5   0  -4 859.355 42.7000   1
   5   0   4 941.418 43.5096   3
  -6   0  -4 335.090 18.0984   2
   6   0   4 343.113 21.0416   3
  -7   0  -4 7.07382 5.74527   1
  -7   0  -4 14.7396 4.21903   2
   7   0   4 17.5249 6.72610   3
  -8   0  -4 92.5550 12.1232   1
  -8   0  -4 91.8662 8.88750   2
   8   0   4 100.826 13.1010   3
   9  -1  -4 276.183 22.9013   3
  -9   1   4 287.798 22.3706   1
  -8   1   4 247.560 19.2241   1
   7  -1  -4 16.0462 6.65289   3
  -7   1   4 11.8708 5.87779   1
   6  -1  -4 249.076 17.3339   3
  -6   1   4 236.436 16.4502   1
   5  -1  -4 2537.31 113.270   3
  -5   1   4 2553.25 112.543   1
   4  -1  -4 99.7964 8.80724   3
  -4   1   4 111.298 8.50853   1
   3  -1  -4 1901.06 85.3551   3
   3  -1  -4 2019.64 82.3783   2
  -3   1   4 1937.03 82.3987   2
  -3   1   4 1888.50 84.7751   1
   2  -1  -4 2873.86 122.584   3
   2  -1  -4 2953.37 120.895   2
  -2   1   4 2786.13 120.900   2
  -2   1   4 2763.58 122.036   1
   1  -1  -4 387.157 17.0334   1
   1  -1  -4 324.417 16.9963   3
   1  -1  -4 371.847 16.7868   2
  -1   1   4 336.054 17.3214   3
  -1   1   4 399.265 17.0861   1
  -1   1   4 341.680 16.7628   2
   0  -1  -4 866.557 37.1244   3
   0  -1  -4 828.988 37.4381   2
   0  -1  -4 926.233 37.4137   1
   0   1   4 735.760 37.0777   3
   0   1   4 870.724 36.8442   1
  -1  -1  -4 672.594 30.0689   1
  -1  -1  -4 648.998 30.9183   2
   1   1   4 705.798 30.3942   3
   1   1   4 657.593 30.0250   1
   1   1   4 731.770 30.5227   3
  -2  -1  -4 1208.13 49.7717   1
  -2  -1  -4 1087.24 49.9583   1
  -2  -1  -4 1086.85 50.5063   2
   2   1   4 1096.02 50.3256   3
   2   1   4 1224.52 50.0926   1
  -3  -1  -4 1897.17 82.6180   1
  -3  -1  -4 1937.61 82.7125   2
   3   1   4 1937.85 82.6493   1
   3   1   4 1806.86 85.0192   3
  -4  -1  -4 2454.93 106.974   2
  -4  -1  -4 2468.78 107.518   1
   4   1   4 2472.49 108.473   3
  -5  -1  -4 258.402 14.3971   2
  -5  -1  -4 257.797 15.5568   1
   5   1   4 240.172 16.3869   3
  -6  -1  -4 108.533 10.2491   1
  -6  -1  -4 98.6324 8.47418   2
   6   1   4 91.8719 10.7881   3
  -7  -1  -4 37.3389 6.02634   2
  -7  -1  -4 15.1733 6.39396   1
   7   1   4 34.3721 8.54994   3
  -8  -1  -4 37.3215 6.02675   2
  -8  -1  -4 31.4367 8.30030   1
   8   1   4 44.7086 9.97982   3
   9  -2  -4 222.880 20.0608   3
  -9   2   4 172.752 18.0435   1
   8  -2  -4 886.123 46.7016   3
  -8   2   4 839.924 45.6327   1
   7  -2  -4 878.530 46.6717   3
  -7   2   4 934.013 46.5548   1
   6  -2  -4 1537.20 72.6512   3
  -6   2   4 1570.44 72.3145   1
   5  -2  -4 884.717 43.0678   3
  -5   2   4 872.537 42.5225   1
   4  -2  -4 474.116 24.5484   3
  -4   2   4 457.730 23.9014   1
   3  -2  -4 446.716 19.6824   2
   3  -2  -4 436.431 22.5694   3
  -3   2   4 425.507 21.9609   1
  -3   2   4 469.381 19.9337   2
   2  -2  -4 5814.87 238.270   2
   2  -2  -4 5604.31 244.512   3
  -2   2   4 5484.28 238.357   2
   1  -2  -4 1379.88 56.2233   3
   1  -2  -4 1204.40 55.3489   1
   1  -2  -4 1286.54 55.5309   2
  -1   2   4 1245.06 55.3973   1
   0  -2  -4 536.874 24.6718   1
   0  -2  -4 590.662 25.8053   2
   0  -2  -4 575.695 25.6854   3
   0   2   4 544.073 24.5900   1
  -1  -2  -4 57.4270 3.52156   1
  -1  -2  -4 54.9588 4.76756   2
   1   2   4 64.1309 3.72248   1
  -2  -2  -4 1195.36 55.0615   1
  -2  -2  -4 1293.04 56.3007   2
  -2  -2  -4 1222.42 54.7858   1
   2   2   4 1335.51 55.1910   1
   2   2   4 1308.14 56.4867   3
  -3  -2  -4 1283.55 57.1935   1
  -3  -2  -4 1317.32 57.9040   2
   3   2   4 1297.63 58.6801   3
  -4  -2  -4 236.677 13.5537   2
  -4  -2  -4 213.993 13.1789   1
   4   2   4 262.784 15.5351   3
  -5  -2  -4 591.743 29.0514   2
  -5  -2  -4 574.722 29.3609   1
   5   2   4 612.073 31.7183   3
  -6  -2  -4 14.3633 5.02741   1
  -6  -2  -4 14.7867 5.12053   2
   6   2   4 13.2673 6.25689   3
  -7  -2  -4 815.735 40.1840   2
  -7  -2  -4 849.236 42.1826   1
   7   2   4 835.548 44.8106   3
  -8  -2  -4 5.66494 4.43048   2
  -8  -2  -4 5.57636 5.95071   1
   8   2   4 9.95634 7.30691   3
   9  -3  -4 9.68676 7.85313   3
  -9   3   4 1.83648 6.53892   1
   8  -3  -4 369.827 25.1706   3
  -8   3   4 347.474 24.4023   1
   7  -3  -4 520.023 31.0864   3
  -7   3   4 560.507 31.3078   1
   6  -3  -4 181.281 14.5330   3
  -6   3   4 191.264 14.6116   1
   5  -3  -4 728.536 37.3044   3
  -5   3   4 764.906 37.2523   1
   4  -3  -4 268.335 16.2774   3
   4  -3  -4 256.577 12.0085   2
  -4   3   4 294.677 16.1364   1
  -4   3   4 275.464 12.1812   2
   3  -3  -4 4731.95 208.541   3
   3  -3  -4 4926.07 205.768   2
  -3   3   4 4931.27 208.208   1
  -3   3   4 4876.71 206.007   2
   2  -3  -4 2849.62 119.268   2
   2  -3  -4 2904.70 121.010   3
  -2   3   4 2879.38 120.282   1
  -2   3   4 2548.87 122.393   2
   1  -3  -4 1816.79 82.0878   1
   1  -3  -4 1920.03 82.5541   2
   1  -3  -4 2067.34 83.4651   3
  -1   3   4 1865.28 82.1592   1
   0  -3  -4 3317.09 135.023   2
   0  -3  -4 3267.15 133.435   1
   0  -3  -4 3062.80 137.027   3
   0   3   4 2828.37 136.359   3
   0   3   4 3275.77 133.293   1
  -1  -3  -4 244.336 14.7736   3
  -1  -3  -4 308.808 13.1877   1
  -1  -3  -4 324.151 13.2323   1
  -1  -3  -4 289.852 15.1022   2
   1   3   4 325.352 13.1798   1
   1   3   4 262.130 14.9509   3
  -2  -3  -4 1155.65 49.8032   1
  -2  -3  -4 1082.35 51.3650   2
   2   3   4 1213.65 52.1696   3
  -3  -3  -4 642.453 31.2220   2
  -3  -3  -4 678.886 30.1654   1
   3   3   4 658.151 32.4082   3
  -4  -3  -4 36.8577 5.53455   2
  -4  -3  -4 49.7501 5.43046   1
   4   3   4 50.2714 7.82830   3
  -5  -3  -4 211.087 13.6906   1
  -5  -3  -4 241.406 14.3532   2
   5   3   4 234.025 16.5452   3
  -6  -3  -4 533.735 26.0758   2
  -6  -3  -4 477.219 26.0639   1
   6   3   4 465.804 29.0953   3
  -7  -3  -4 3.32679 3.98617   2
  -7  -3  -4 1.42247 4.55531   1
   7   3   4 3.32594 6.17339   3
   8  -4  -4 20.7035 7.58782   3
  -8   4   4 9.69049 6.94058   1
   7  -4  -4 1134.01 54.8341   3
  -7   4   4 1057.93 54.5910   1
   6  -4  -4 75.9529 10.0813   3
  -6   4   4 70.2481 9.55926   1
   5  -4  -4 441.227 23.9121   3
  -5   4   4 397.587 23.2167   1
   4  -4  -4 709.838 29.7705   2
   4  -4  -4 652.919 33.5034   3
  -4   4   4 631.299 30.3821   2
  -4   4   4 734.622 33.6684   1
   3  -4  -4 90.0569 5.74416   2
   3  -4  -4 100.145 8.16915   3
  -3   4   4 99.6701 7.57747   1
  -3   4   4 114.708 6.24280   2
   2  -4  -4 587.680 28.8260   3
   2  -4  -4 599.824 27.3967   2
  -2   4   4 627.934 28.1609   1
   1  -4  -4 1552.40 68.7205   2
   1  -4  -4 1585.06 69.5796   3
   1  -4  -4 1587.34 68.2934   1
  -1   4   4 1599.58 68.0734   1
   0  -4  -4 6735.29 285.821   2
  -1  -4  -4 416.832 21.6505   2
   1   4   4 476.667 22.4318   3
  -2  -4  -4 922.201 45.0324   2
  -2  -4  -4 1001.93 42.6806   1
  -2  -4  -4 1009.20 42.5144   1
   2   4   4 1034.81 46.1590   3
  -3  -4  -4 3326.99 143.233   1
  -3  -4  -4 3209.09 142.802   1
  -3  -4  -4 3505.66 145.384   2
   3   4   4 3415.87 146.853   3
  -4  -4  -4 1661.81 75.5219   1
  -4  -4  -4 1680.65 74.6517   2
   4   4   4 1666.69 76.8676   3
  -5  -4  -4 81.6100 8.29357   2
  -5  -4  -4 81.8591 7.48880   1
   5   4   4 96.4675 11.2135   3
  -6  -4  -4 252.606 16.3866   2
  -6  -4  -4 281.574 16.6047   1
   6   4   4 264.699 20.3166   3
  -7  -4  -4 1.50379 4.38593   2
  -7  -4  -4 0.41203 4.39060   1
   7   4   4 5.79673 6.48104   3
   8  -5  -4 343.789 23.7797   3
  -8   5   4 348.751 24.7374   1
   7  -5  -4 863.905 44.9698   3
  -7   5   4 878.979 45.6206   1
   6  -5  -4 3171.45 139.375   3
  -6   5   4 3114.31 139.594   1
   5  -5  -4 31.4100 6.18909   3
  -5   5   4 36.9942 6.71256   1
   4  -5  -4 151.698 11.4502   3
   4  -5  -4 153.853 8.04424   2
  -4   5   4 140.550 8.14383   2
  -4   5   4 169.714 11.3061   1
   3  -5  -4 4743.00 198.843   2
   3  -5  -4 4609.56 201.191   3
  -3   5   4 4697.39 200.664   1
   2  -5  -4 671.134 31.6558   3
   2  -5  -4 648.787 30.0885   2
  -2   5   4 663.136 30.4433   1
   1  -5  -4 452.503 22.3021   2
   1  -5  -4 493.398 23.4068   3
  -1   5   4 455.330 21.1133   1
   0  -5  -4 93.0462 7.59633   3
   0  -5  -4 90.7033 6.80701   2
   0   5   4 86.0158 7.08932   3
  -1  -5  -4 37.3865 4.91435   2
   1   5   4 39.2292 5.56019   3
  -2  -5  -4 281.644 15.5059   2
   2   5   4 265.991 16.3148   3
  -3  -5  -4 2390.03 101.803   2
  -3  -5  -4 2214.73 98.5224   1
   3   5   4 2343.60 103.560   3
  -4  -5  -4 318.246 18.5008   2
  -4  -5  -4 323.262 16.1537   1
   4   5   4 345.718 28.8091   3
  -5  -5  -4 40.1929 6.49963   2
  -5  -5  -4 35.3495 5.16509   1
   5   5   4 46.9878 9.35581   3
  -6  -5  -4 276.225 17.4588   2
  -6  -5  -4 273.523 16.0761   1
   6   5   4 260.091 20.9166   3
  -7  -5  -4 581.695 30.8094   2
  -7  -5  -4 581.929 30.0027   1
   7   5   4 558.975 35.7785   3
   8  -6  -4 168.546 17.1490   3
   7  -6  -4 341.041 23.0193   3
  -7   6   4 390.373 24.4182   1
   6  -6  -4 27.9732 6.64410   3
  -6   6   4 23.9866 6.74302   1
   5  -6  -4 252.197 11.2862   2
   5  -6  -4 221.611 15.6305   3
  -5   6   4 252.243 16.0690   1
  -5   6   4 205.653 11.1655   2
   4  -6  -4 29.8920 3.53670   2
   4  -6  -4 27.6030 6.52873   3
  -4   6   4 32.2690 5.86190   1
   3  -6  -4 3386.48 144.781   2
   3  -6  -4 3410.92 147.044   3
  -3   6   4 3364.30 146.227   1
   2  -6  -4 5.08573 2.42941   2
   2  -6  -4 24.3217 4.67824   3
  -2   6   4 11.4868 2.86592   1
   1  -6  -4 1723.65 73.3920   2
   1  -6  -4 1684.67 74.4466   3
  -1   6   4 1639.73 71.5710   1
  -1   6   4 1634.32 71.4972   1
   0  -6  -4 1057.64 49.4832   3
   0  -6  -4 1110.14 48.7137   2
   0   6   4 1049.90 49.1786   3
  -1  -6  -4 2797.79 124.577   2
   1   6   4 2944.41 125.681   3
  -2  -6  -4 248.985 14.3660   2
   2   6   4 215.320 15.2514   3
  -3  -6  -4 1737.30 77.8347   2
  -4  -6  -4 11.8100 2.18084   1
  -4  -6  -4 16.5590 2.61264   1
  -4  -6  -4 17.3592 5.00428   2
   4   6   4 9.02246 5.75040   3
  -5  -6  -4 -0.1045 3.78541   2
  -5  -6  -4 -0.6170 2.34183   1
   5   6   4 3.87339 5.92612   3
  -6  -6  -4 8.08307 5.54183   2
  -6  -6  -4 2.56169 3.39396   1
   6   6   4 8.03663 7.42403   3
   8  -7  -4 32.1481 8.60524   3
  -8   7   4 30.4830 9.40312   1
   7  -7  -4 245.518 18.5271   3
  -7   7   4 239.533 19.1054   1
   6  -7  -4 75.6310 10.1493   3
  -6   7   4 46.2264 8.77340   1
   5  -7  -4 12.1685 5.52835   3
   5  -7  -4 13.8139 2.66306   2
  -5   7   4 12.8688 5.17289   1
   4  -7  -4 508.883 28.4553   3
   4  -7  -4 543.171 25.7382   2
  -4   7   4 609.272 31.6873   1
   3  -7  -4 1033.13 44.6618   2
  -3   7   4 945.317 45.3618   1
   2  -7  -4 775.533 37.6353   3
   2  -7  -4 794.271 36.1643   2
  -2   7   4 775.563 35.5847   1
   1  -7  -4 711.705 32.9626   2
   1  -7  -4 699.193 34.1063   3
  -1   7   4 702.013 30.5279   1
  -1   7   4 645.642 30.0741   1
  -1   7   4 730.825 34.0333   3
   0  -7  -4 1518.05 67.7433   2
   0  -7  -4 1498.99 68.8159   3
   0   7   4 1529.54 68.6335   3
  -1  -7  -4 1754.08 82.5297   2
   1   7   4 1969.76 84.2234   3
  -2  -7  -4 2843.91 122.728   2
   2   7   4 2759.04 124.373   3
  -3  -7  -4 694.293 33.8563   2
   3   7   4 657.420 36.1958   3
  -4  -7  -4 47.1121 7.31184   2
   4   7   4 61.3975 10.3001   3
  -5  -7  -4 7.07720 2.37813   1
  -5  -7  -4 4.26581 4.59587   2
   5   7   4 6.06741 6.87401   3
  -7   8   4 125.016 14.1983   1
   6  -8  -4 138.594 13.1774   3
  -6   8   4 139.340 13.0421   1
   5  -8  -4 161.393 9.62509   2
   5  -8  -4 173.155 13.8234   3
  -5   8   4 155.049 12.9323   1
   4  -8  -4 636.758 30.0653   2
   4  -8  -4 663.648 33.1760   3
  -4   8   4 622.866 32.0649   1
   3  -8  -4 1194.78 56.3095   3
   3  -8  -4 1290.59 54.5181   2
  -3   8   4 1144.32 54.6744   1
   2  -8  -4 7.35555 4.52524   3
   2  -8  -4 3.87970 3.04835   2
  -2   8   4 5.95423 2.54630   1
   1  -8  -4 42.2301 7.10969   3
   1  -8  -4 38.4690 5.68330   2
  -1   8   4 40.6062 6.74979   3
   0  -8  -4 242.452 16.3764   3
   0  -8  -4 244.586 15.4162   2
   0   8   4 269.020 16.4019   3
  -1  -8  -4 113.528 9.28993   2
   1   8   4 112.902 10.8759   3
  -2  -8  -4 304.493 18.4961   2
   2   8   4 319.879 20.5817   3
  -3  -8  -4 879.961 42.6358   2
   3   8   4 862.464 45.4367   3
  -4  -8  -4 166.076 13.4288   2
   4   8   4 173.136 16.8900   3
  -5  -8  -4 434.871 30.5092   2
   5   8   4 497.262 31.8061   3
   7  -9  -4 63.8725 10.6335   3
  -7   9   4 61.1511 10.8716   1
   6  -9  -4 78.8905 10.6934   3
  -6   9   4 59.8834 9.89113   1
   5  -9  -4 1.49133 5.19061   3
   5  -9  -4 6.54483 3.36571   2
  -5   9   4 5.43915 4.85447   1
   4  -9  -4 247.724 17.0147   3
   4  -9  -4 255.115 14.4643   2
  -4   9   4 251.058 15.9706   1
   3  -9  -4 1778.25 77.3649   2
   3  -9  -4 1740.46 79.3702   3
  -3   9   4 1706.68 77.2028   1
   2  -9  -4 3.60525 3.30509   2
   2  -9  -4 4.87820 4.84001   3
  -2   9   4 6.18222 2.61930   1
  -2   9   4 5.24505 4.47638   3
   1  -9  -4 1577.12 73.0778   3
   1  -9  -4 1552.74 71.3387   2
  -1   9   4 1636.41 72.8155   3
   0  -9  -4 1019.79 48.1285   2
   0  -9  -4 1096.84 50.1322   3
   0   9   4 959.783 49.0646   3
  -1  -9  -4 1364.21 64.2429   2
   1   9   4 1433.64 66.3365   3
  -2  -9  -4 24.9630 5.79011   2
   2   9   4 27.8709 7.64522   3
  -3  -9  -4 20.2357 6.20012   2
   3   9   4 25.6350 8.04849   3
  -4  -9  -4 209.377 22.1083   2
   4   9   4 206.174 19.5852   3
   6 -10  -4 138.776 14.0636   3
  -6  10   4 138.632 13.6972   1
   5 -10  -4 167.846 14.2946   3
   5 -10  -4 145.726 10.8002   2
  -5  10   4 156.444 13.2719   1
   4 -10  -4 55.0230 7.12933   2
   4 -10  -4 60.5056 9.37252   3
  -4  10   4 64.4765 8.08370   1
   3 -10  -4 27.3956 7.07309   3
   3 -10  -4 35.6891 5.96705   2
  -3  10   4 30.0188 6.92477   3
  -3  10   4 45.1679 6.01932   1
   2 -10  -4 88.8235 11.1199   3
   2 -10  -4 104.623 9.53213   2
  -2  10   4 101.537 10.7991   3
  -2  10   4 103.873 6.91506   1
   1 -10  -4 265.582 18.5002   3
   1 -10  -4 299.821 17.2171   2
  -1  10   4 261.272 17.9133   3
   0 -10  -4 587.942 31.1567   2
   0  10   4 631.493 32.9645   3
  -1 -10  -4 113.559 10.7514   2
   1  10   4 126.146 13.0458   3
  -2 -10  -4 396.056 23.4238   2
   2  10   4 409.464 26.2234   3
  -3 -10  -4 45.1310 11.8960   2
   3  10   4 29.2337 12.4453   3
  -4 -10  -4 455.672 26.6311   2
   4  10   4 450.213 31.3111   3
   5 -11  -4 120.608 10.5398   2
   5 -11  -4 151.708 14.5099   3
  -5  11   4 149.955 12.8467   1
   4 -11  -4 59.6058 7.74032   2
  -4  11   4 50.6356 7.55593   1
   3 -11  -4 152.057 11.8239   2
   3 -11  -4 144.982 13.9169   3
  -3  11   4 152.257 10.2985   1
  -3  11   4 158.152 13.8611   3
   2 -11  -4 611.348 33.3755   3
   2 -11  -4 592.944 31.3644   2
  -2  11   4 607.142 32.8065   3
  -2  11   4 641.651 29.9558   1
   1 -11  -4 11.9640 6.89967   3
   1 -11  -4 18.0992 5.81365   2
  -1  11   4 12.8420 6.42803   3
   0 -11  -4 42.9216 7.49538   2
   0  11   4 50.1069 9.36240   3
  -1 -11  -4 68.2561 9.51436   2
   1  11   4 77.3651 12.1875   3
  -2 -11  -4 -6.5702 4.00494   2
   2  11   4 1.99655 6.63042   3
   4 -12  -4 15.1691 7.64860   3
  -4  12   4 23.6596 5.53700   1
  -4  12   4 14.6218 7.18985   3
   3 -12  -4 730.482 36.6163   2
   3 -12  -4 733.854 38.9135   3
  -3  12   4 711.308 38.1257   3
   2 -12  -4 219.414 15.6258   2
   2 -12  -4 207.118 17.5248   3
  -2  12   4 235.030 17.5899   3
   1 -12  -4 366.057 22.3866   2
   1 -12  -4 365.902 24.2617   3
  -1  12   4 386.260 24.0988   3
   0 -12  -4 1.25292 6.74478   2
   0  12   4 10.1926 6.95005   3
  -1 -12  -4 67.4456 9.87314   2
   1  12   4 74.1792 12.7378   3
  -2 -14   5 115.605 10.6055   1
   1  14  -5 36.9232 9.64269   3
  -1 -14   5 21.7484 6.03253   1
  -1 -14   5 36.1293 9.01505   2
   0  14  -5 80.5866 11.6540   2
   0  14  -5 93.9735 12.5647   3
   0 -14   5 92.7231 12.1539   2
   0 -14   5 96.3912 10.2261   1
  -1  14  -5 37.7015 8.16673   3
   1 -14   5 48.6808 8.43839   1
  -2  14  -5 15.8118 6.35019   3
  -2  14  -5 19.2731 6.72816   2
  -2  14  -5 9.30713 5.81198   1
   2 -14   5 13.0879 7.12443   2
   2 -14   5 4.11123 5.92047   1
  -3  14  -5 2.44188 4.65053   3
  -3  14  -5 -1.9756 5.23955   2
  -3  14  -5 6.15318 5.84786   1
   3 -14   5 0.48145 5.75512   2
   3 -14   5 10.7045 6.95276   1
   3  13  -5 169.255 33.3380   3
  -3 -13   5 154.635 14.7328   2
  -3 -13   5 151.580 11.5006   1
   2  13  -5 3.50470 6.56604   3
  -2 -13   5 5.42266 7.05466   1
   1  13  -5 920.415 48.9983   3
  -1 -13   5 970.865 45.9577   1
  -1 -13   5 915.293 47.3374   2
   0  13  -5 31.2813 7.58707   2
   0  13  -5 28.3401 7.63714   3
   0 -13   5 35.1667 8.14937   2
   0 -13   5 36.7187 7.09277   1
  -1  13  -5 168.303 14.5165   2
  -1  13  -5 171.626 14.4228   3
   1 -13   5 184.647 15.2571   2
   1 -13   5 171.108 13.6585   1
  -2  13  -5 174.465 14.6241   2
  -2  13  -5 166.100 13.4556   3
  -2  13  -5 186.489 14.3661   1
   2 -13   5 160.543 14.7554   2
   2 -13   5 175.091 14.7186   1
  -3  13  -5 126.191 12.7598   1
  -3  13  -5 109.099 11.9274   2
  -3  13  -5 96.4180 10.3957   3
   3 -13   5 124.166 13.4084   1
   3 -13   5 104.258 12.2450   2
  -4  13  -5 41.5965 9.01522   1
  -4  13  -5 38.3748 6.97088   3
  -4  13  -5 73.4157 10.1256   2
   4 -13   5 73.1524 11.2357   1
  -4 -12   5 116.050 9.97201   1
  -4 -12   5 103.516 12.6875   2
   3  12  -5 74.6680 13.2183   3
  -3 -12   5 75.3558 9.93129   1
  -3 -12   5 81.6354 10.4931   2
   2  12  -5 441.968 28.2247   3
  -2 -12   5 428.219 25.8251   2
  -2 -12   5 449.044 22.9750   1
   1  12  -5 180.353 15.3246   3
  -1 -12   5 162.523 13.9285   2
  -1 -12   5 152.931 11.7946   1
   0  12  -5 1125.74 51.4001   3
   0  12  -5 1018.44 50.3974   2
   0 -12   5 1005.64 48.3410   1
   0 -12   5 987.308 50.3948   2
  -1  12  -5 94.2684 10.7874   3
  -1  12  -5 110.137 11.2727   2
   1 -12   5 141.500 12.5198   2
   1 -12   5 138.720 11.5716   1
  -2  12  -5 2246.32 96.8007   3
  -2  12  -5 2111.43 97.9202   2
   2 -12   5 2153.92 97.6359   1
   2 -12   5 2143.76 98.1787   2
  -3  12  -5 216.464 15.4668   2
  -3  12  -5 174.813 12.8831   3
  -3  12  -5 197.493 15.0793   1
   3 -12   5 181.767 14.7040   2
   3 -12   5 173.657 13.1736   3
   3 -12   5 190.670 15.7886   1
  -4  12  -5 91.3918 9.10624   3
  -4  12  -5 104.078 12.3133   1
  -4  12  -5 102.550 11.1712   2
   4 -12   5 93.7862 9.59826   3
   4 -12   5 110.181 12.9999   1
  -5  12  -5 29.4445 8.59407   1
  -5  12  -5 30.7175 7.07895   2
  -5  12  -5 34.8307 6.18642   3
   5 -12   5 28.9081 6.35849   3
   5 -12   5 31.3746 9.34613   1
   5  11  -5 3.66082 8.49471   3
  -5 -11   5 15.5640 6.75624   2
  -5 -11   5 19.4439 5.74129   1
   4  11  -5 1198.24 62.1933   3
  -4 -11   5 1141.47 54.6516   1
  -4 -11   5 1234.14 57.7281   2
   3  11  -5 6.83608 6.79887   3
  -3 -11   5 20.0850 6.26316   2
  -3 -11   5 14.4692 4.69849   1
   2  11  -5 6.08561 6.41860   3
  -2 -11   5 12.8094 5.14562   2
  -2 -11   5 9.98367 4.11583   1
   1  11  -5 728.034 37.8871   3
  -1 -11   5 736.908 34.5013   1
  -1 -11   5 686.658 36.6110   2
   0  11  -5 515.067 28.1038   2
   0  11  -5 527.324 28.3386   3
   0 -11   5 543.694 26.6444   1
   0 -11   5 490.067 28.0520   2
  -1  11  -5 786.217 39.9951   2
  -1  11  -5 856.123 39.7391   3
   1 -11   5 776.167 38.9834   1
   1 -11   5 810.579 40.4036   2
  -2  11  -5 27.2683 5.43358   3
  -2  11  -5 25.1277 6.01649   2
   2 -11   5 24.1919 6.63715   1
   2 -11   5 17.8565 6.03525   2
  -3  11  -5 624.711 33.7424   1
  -3  11  -5 701.938 31.5887   3
  -3  11  -5 605.092 32.9677   2
   3 -11   5 611.487 33.1491   2
   3 -11   5 663.576 31.6174   3
   3 -11   5 606.720 33.9865   1
  -4  11  -5 42.1255 7.58445   2
  -4  11  -5 57.8967 9.77222   1
  -4  11  -5 52.2864 6.79520   3
   4 -11   5 57.3185 9.99893   1
   4 -11   5 44.4655 7.08513   3
  -5  11  -5 7.38153 4.98095   2
  -5  11  -5 6.85818 5.34577   3
  -5  11  -5 5.58617 6.14778   1
   5 -11   5 10.5587 7.39937   3
   5 -11   5 9.62615 6.54968   1
  -6  11  -5 28.6870 9.01408   1
  -6  11  -5 30.4554 6.77903   2
   6 -11   5 37.4350 6.67932   3
   6 -11   5 42.5372 10.6082   1
   6  10  -5 2.51798 8.29956   3
  -6 -10   5 7.49788 5.03542   1
  -6 -10   5 2.54224 5.56817   2
   5  10  -5 494.017 32.6805   3
  -5 -10   5 474.160 25.4728   1
  -5 -10   5 469.000 27.2912   2
   4  10  -5 212.356 18.5107   3
  -4 -10   5 175.664 14.1166   2
  -4 -10   5 180.447 12.7188   1
   3  10  -5 2026.84 95.7607   3
  -3 -10   5 2112.48 90.5039   1
  -3 -10   5 2014.23 92.4966   2
   2  10  -5 19.2786 6.60109   3
  -2 -10   5 12.9941 4.97996   2
   1  10  -5 143.824 12.3454   3
  -1 -10   5 143.562 11.7475   2
  -1 -10   5 144.057 10.1089   1
   0  10  -5 16.8532 5.08876   3
   0  10  -5 15.5635 5.02359   2
   0 -10   5 24.4239 5.14948   1
   0 -10   5 19.6735 5.34025   2
  -1  10  -5 1100.16 53.9073   3
  -1  10  -5 1127.12 53.3532   2
   1 -10   5 1176.83 52.5742   1
   1 -10   5 1135.56 53.4379   2
  -2  10  -5 573.797 29.3320   2
  -2  10  -5 551.106 26.8495   3
   2 -10   5 540.078 28.3789   1
   2 -10   5 488.327 30.2088   2
  -3  10  -5 1202.07 56.7658   3
  -3  10  -5 1313.55 60.2616   1
   3 -10   5 1308.85 60.4692   1
   3 -10   5 1246.67 57.1009   3
  -4  10  -5 327.950 22.6184   1
  -4  10  -5 378.439 19.4954   3
   4 -10   5 389.670 23.8247   1
   4 -10   5 382.576 19.6943   3
  -5  10  -5 6.39886 5.90285   1
   5 -10   5 2.99570 6.05833   1
   5 -10   5 3.24543 3.69062   3
  -6  10  -5 178.512 17.7272   1
  -6  10  -5 157.761 19.5670   2
   6 -10   5 189.855 18.4384   1
   6   9  -5 6.74560 7.96448   3
  -6  -9   5 11.1780 5.78614   1
  -6  -9   5 5.69985 5.28592   2
   5   9  -5 44.0561 10.9668   3
  -5  -9   5 41.0148 7.56713   2
  -5  -9   5 54.8969 7.88268   1
   4   9  -5 402.691 25.8345   3
  -4  -9   5 371.496 20.6272   1
  -4  -9   5 362.825 21.6593   2
   3   9  -5 21.8736 7.21798   3
  -3  -9   5 29.3221 5.47497   1
  -3  -9   5 27.5252 5.98903   2
   2   9  -5 555.299 30.1628   3
  -2  -9   5 568.075 28.6281   2
  -2  -9   5 534.593 26.7761   1
   1   9  -5 143.654 11.3748   3
  -1  -9   5 130.361 9.48803   1
  -1  -9   5 144.364 11.0863   2
   0   9  -5 1683.58 74.8928   2
   0   9  -5 1654.54 74.5521   3
   0  -9   5 1641.57 73.5291   1
   0  -9   5 1660.12 75.0080   2
  -1   9  -5 31.3089 5.03003   3
  -1   9  -5 32.3628 5.98160   2
   1  -9   5 50.9497 6.44377   2
   1  -9   5 47.2098 6.51505   1
  -2   9  -5 4934.71 211.289   2
  -2   9  -5 5214.51 209.575   3
   2  -9   5 4943.72 211.353   1
   2  -9   5 4815.36 211.134   2
   2  -9   5 4597.02 209.245   3
  -3   9  -5 10.9455 4.43572   2
  -3   9  -5 7.39304 3.04031   3
   3  -9   5 13.0862 6.10526   1
   3  -9   5 4.92749 3.16458   3
  -4   9  -5 1001.53 49.0015   1
  -4   9  -5 1021.15 46.8067   2
   4  -9   5 947.946 48.9857   1
   4  -9   5 971.679 44.7830   3
  -5   9  -5 207.428 17.3650   1
  -5   9  -5 222.822 14.8506   2
   5  -9   5 207.787 17.5632   1
   5  -9   5 237.747 13.4375   3
  -6   9  -5 317.392 18.9627   2
  -6   9  -5 344.265 23.8337   1
   6  -9   5 345.508 24.2385   1
   6  -9   5 295.052 19.2389   3
  -7   9  -5 7.67973 4.21714   2
  -7   9  -5 -3.7027 6.62658   1
   7  -9   5 8.32630 4.75600   3
   7   8  -5 107.672 16.4314   3
  -7  -8   5 85.9778 10.9709   1
  -7  -8   5 107.982 10.9035   2
   6   8  -5 239.817 20.8845   3
  -6  -8   5 234.535 16.0918   1
  -6  -8   5 218.781 15.5487   2
   5   8  -5 4.86602 6.69607   3
  -5  -8   5 7.43322 4.67444   2
  -5  -8   5 8.55247 4.70419   1
   4   8  -5 2875.68 125.793   3
  -4  -8   5 2661.84 120.769   1
   3   8  -5 523.086 30.2035   3
  -3  -8   5 586.536 28.2669   2
  -3  -8   5 530.784 26.9582   1
   2   8  -5 444.839 25.0289   3
  -2  -8   5 441.847 22.5306   1
  -2  -8   5 470.197 23.7234   2
   1   8  -5 95.3421 8.45588   3
   1   8  -5 89.0992 8.08967   2
  -1  -8   5 82.2623 6.98943   1
  -1  -8   5 86.5198 7.96194   2
   0   8  -5 715.852 35.0537   3
   0   8  -5 739.939 35.6117   2
   0  -8   5 773.810 34.8304   1
   0  -8   5 734.189 35.7694   2
  -1   8  -5 1638.77 72.4772   3
  -1   8  -5 1632.16 73.8440   2
   1  -8   5 1697.79 73.9757   2
   1  -8   5 1622.74 73.2089   1
  -2   8  -5 337.554 16.0557   3
  -2   8  -5 289.285 17.4623   2
   2  -8   5 326.974 16.1001   3
   2  -8   5 307.177 17.6185   2
   2  -8   5 281.195 17.6488   1
  -3   8  -5 41.1193 6.27453   2
   3  -8   5 35.9605 7.33087   1
   3  -8   5 41.4921 4.86703   3
  -4   8  -5 79.6129 7.79693   2
  -4   8  -5 75.4639 8.96045   1
   4  -8   5 75.5477 10.0802   1
   4  -8   5 67.9208 6.33133   3
  -5   8  -5 194.030 16.2847   1
  -5   8  -5 219.833 14.2292   2
   5  -8   5 243.503 13.0789   3
   5  -8   5 212.358 17.2291   1
  -6   8  -5 491.634 25.7369   2
  -6   8  -5 480.843 30.1926   1
   6  -8   5 452.491 29.8387   1
   6  -8   5 524.410 25.1012   3
  -7   8  -5 356.033 25.4957   1
  -7   8  -5 305.774 18.1927   2
   7   7  -5 70.8660 17.9615   3
  -7  -7   5 37.0892 7.87398   1
   6   7  -5 170.948 17.5867   3
  -6  -7   5 201.300 14.4406   1
  -6  -7   5 198.178 13.7007   2
   5   7  -5 711.276 39.2663   3
  -5  -7   5 725.729 36.6782   1
  -5  -7   5 676.093 34.8055   2
   4   7  -5 21.4240 9.74972   3
  -4  -7   5 17.7609 4.50526   2
   3   7  -5 1099.21 53.8222   3
  -3  -7   5 1150.45 51.2154   1
  -3  -7   5 1111.26 51.4687   2
   2   7  -5 3.96642 3.42139   3
   1   7  -5 2832.43 120.554   2
   1   7  -5 2755.47 120.726   3
  -1  -7   5 2793.52 119.591   1
  -1  -7   5 2696.01 120.453   2
   0   7  -5 2721.09 117.264   2
   0  -7   5 2657.14 116.315   1
   0  -7   5 2698.76 117.199   2
  -1   7  -5 1365.31 61.0384   2
  -1   7  -5 1346.64 59.4684   3
   1  -7   5 1325.68 60.9019   2
   1  -7   5 1376.38 60.6449   1
  -2   7  -5 10.3541 2.42278   3
  -2   7  -5 3.11956 2.83250   2
   2  -7   5 4.16996 3.51121   1
   2  -7   5 5.62789 2.29022   3
  -3   7  -5 739.315 35.3430   2
   3  -7   5 770.155 36.8789   1
   3  -7   5 707.262 33.1916   3
  -4   7  -5 560.364 32.1102   1
  -4   7  -5 627.734 30.1447   2
   4  -7   5 633.046 32.8512   1
   4  -7   5 604.633 28.0639   3
  -5   7  -5 7.18726 3.79103   2
  -5   7  -5 3.49775 4.75607   1
   5  -7   5 11.2568 3.41264   3
   5  -7   5 3.14731 4.98682   1
  -6   7  -5 138.114 11.3642   2
  -6   7  -5 153.613 15.4172   1
   6  -7   5 171.926 16.1724   1
   6  -7   5 197.960 11.9147   3
  -7   7  -5 127.172 15.1770   1
  -7   7  -5 119.434 9.59486   2
   7  -7   5 124.114 10.7379   3
   8   6  -5 14.0463 9.24529   3
   8   6  -5 11.2636 5.10985   2
  -8  -6   5 11.5132 4.85997   2
  -8  -6   5 13.0014 6.93445   1
   7   6  -5 211.014 19.9307   3
  -7  -6   5 191.756 15.1419   2
  -7  -6   5 183.622 15.4147   1
   6   6  -5 360.319 25.8316   3
  -6  -6   5 377.022 20.6548   2
  -6  -6   5 391.774 22.3381   1
   5   6  -5 64.5340 10.6451   3
  -5  -6   5 71.4721 8.41894   1
  -5  -6   5 70.0051 7.34612   2
  -4  -6   5 36.5533 5.38469   2
   3   6  -5 9.91074 4.55557   3
  -3  -6   5 11.3926 3.56577   2
  -3  -6   5 15.7693 3.94312   1
   2   6  -5 3933.39 170.985   3
   2   6  -5 4016.38 169.855   2
  -2  -6   5 3908.53 169.493   1
   1   6  -5 1993.31 85.1340   2
  -1  -6   5 1853.22 85.0382   2
  -1  -6   5 1970.74 84.6010   1
   0   6  -5 6890.06 283.487   3
   0   6  -5 6342.71 284.164   2
   0  -6   5 6799.85 284.381   2
   1  -6   5 151.356 9.79694   1
  -2   6  -5 4594.44 192.567   2
  -2   6  -5 4349.04 190.872   3
  -2   6  -5 4577.34 190.307   3
   2  -6   5 4450.69 192.782   1
   2  -6   5 4474.54 190.338   3
  -3   6  -5 600.062 28.1511   2
   3  -6   5 552.434 29.2007   1
   3  -6   5 570.082 25.9296   3
  -4   6  -5 419.360 24.6548   1
  -4   6  -5 471.641 22.9823   2
   4  -6   5 456.972 25.2232   1
   4  -6   5 428.214 20.9709   3
  -5   6  -5 294.949 16.5352   2
  -5   6  -5 312.302 20.0371   1
   5  -6   5 283.494 19.5930   1
   5  -6   5 278.184 15.4633   3
  -6   6  -5 370.874 20.6275   2
  -6   6  -5 441.304 26.0925   1
   6  -6   5 382.688 20.8643   3
   6  -6   5 388.218 25.4284   1
  -7   6  -5 118.372 9.43257   2
  -7   6  -5 133.345 14.8889   1
   7  -6   5 118.031 10.6799   3
  -8   6  -5 99.3791 14.9006   1
  -8   6  -5 115.979 8.99338   2
   8  -6   5 115.141 11.6461   3
   8   5  -5 733.233 46.2201   3
   8   5  -5 829.792 38.1816   2
  -8  -5   5 868.655 42.8456   1
  -8  -5   5 759.874 38.0451   2
   7   5  -5 282.999 16.7764   2
   7   5  -5 301.002 23.2567   3
  -7  -5   5 303.138 16.9078   2
  -7  -5   5 299.906 20.0087   1
   6   5  -5 1816.52 84.4256   3
  -6  -5   5 1747.42 80.2547   1
  -6  -5   5 1709.05 77.7493   2
   5   5  -5 557.833 32.1602   3
  -5  -5   5 574.049 29.0241   1
  -5  -5   5 545.092 27.1505   2
   4   5  -5 5159.32 214.008   3
  -4  -5   5 4983.76 211.056   1
  -4  -5   5 4599.57 209.768   2
   3   5  -5 603.171 31.3417   3
   3   5  -5 617.729 29.3083   2
  -3  -5   5 633.178 29.8944   1
  -3  -5   5 619.159 29.2656   2
   2   5  -5 1618.08 77.8968   2
   2   5  -5 1766.92 79.2870   3
  -2  -5   5 1864.33 78.4056   2
  -2  -5   5 1890.27 78.5371   1
   1   5  -5 10.1208 2.76572   3
   1   5  -5 10.3453 2.82992   2
  -1  -5   5 7.63921 2.54141   2
  -1  -5   5 10.8702 2.83338   1
   0   5  -5 74.8329 5.15571   3
   0   5  -5 64.4173 5.97299   2
   0   5  -5 76.1855 5.01546   3
   0  -5   5 78.9192 4.57611   3
   0  -5   5 66.4458 5.94921   2
   0  -5   5 65.0359 5.58337   1
  -1   5  -5 1096.78 46.5474   3
  -1   5  -5 1070.58 48.5445   2
  -1   5  -5 1101.98 46.6307   3
   1  -5   5 1035.05 48.3037   1
  -2   5  -5 62.2216 5.94907   2
  -2   5  -5 72.5531 4.10991   3
  -2   5  -5 65.0665 4.38812   3
   2  -5   5 67.5611 4.07212   3
   2  -5   5 54.3111 5.94564   1
  -3   5  -5 92.2674 7.04660   2
  -3   5  -5 72.8025 5.45159   3
   3  -5   5 64.6844 7.46179   1
   3  -5   5 85.3736 5.07024   3
  -4   5  -5 191.164 13.8059   1
  -4   5  -5 190.152 11.9039   2
   4  -5   5 197.667 10.6653   3
   4  -5   5 190.262 13.9019   1
  -5   5  -5 1639.77 77.5225   1
  -5   5  -5 1608.60 73.9585   2
   5  -5   5 1766.57 77.9196   1
   5  -5   5 1658.68 73.5217   3
  -6   5  -5 372.513 23.1478   1
  -6   5  -5 305.387 17.7101   2
   6  -5   5 318.915 18.4051   3
  -7   5  -5 928.420 48.7431   1
  -7   5  -5 889.110 42.4641   2
   7  -5   5 924.313 44.2213   3
  -8   5  -5 13.7254 8.04093   1
  -8   5  -5 11.2363 3.93577   2
   8  -5   5 15.0671 6.04240   3
   8   4  -5 129.486 9.51946   2
  -8  -4   5 137.980 13.9757   1
  -8  -4   5 136.576 9.52464   2
   7   4  -5 105.565 8.01754   2
   7   4  -5 122.356 14.2137   3
  -7  -4   5 87.2566 7.83998   2
  -7  -4   5 108.525 11.5424   1
   6   4  -5 48.3672 9.57830   3
   6   4  -5 42.6053 5.32954   2
  -6  -4   5 39.7186 5.18171   2
  -6  -4   5 43.5866 7.56361   1
   5   4  -5 202.245 11.4793   2
   5   4  -5 181.792 15.2501   3
  -5  -4   5 225.844 13.9572   1
  -5  -4   5 180.813 11.2470   2
   4   4  -5 159.933 12.5928   3
   4   4  -5 150.014 9.31710   2
  -4  -4   5 142.036 10.5871   1
  -4  -4   5 160.307 9.52836   2
   3   4  -5 702.651 30.8695   2
   3   4  -5 680.888 33.1590   3
  -3  -4   5 606.111 31.3417   1
  -3  -4   5 675.514 30.8812   2
   2   4  -5 1421.00 62.1446   2
   2   4  -5 1437.36 63.6897   3
  -2  -4   5 1327.22 61.9409   2
  -2  -4   5 1461.28 62.6680   1
   1   4  -5 1537.77 66.7084   3
   1   4  -5 1553.27 66.8597   2
  -1  -4   5 1479.82 66.6667   1
  -1  -4   5 1506.36 65.9866   3
  -1  -4   5 1536.48 66.7991   2
   0   4  -5 4176.23 169.368   3
   0   4  -5 3936.75 170.562   2
   0  -4   5 3839.76 170.175   1
   0  -4   5 4003.56 168.738   3
  -1   4  -5 2821.26 118.365   3
   1  -4   5 2775.99 120.527   1
  -2   4  -5 416.612 18.2323   3
  -2   4  -5 424.983 20.4362   2
   2  -4   5 383.128 20.4958   1
  -3   4  -5 181.686 9.89162   3
  -3   4  -5 211.648 11.6194   2
   3  -4   5 179.292 9.53483   3
   3  -4   5 207.179 12.7559   1
  -4   4  -5 274.260 18.2918   1
  -4   4  -5 359.776 17.2342   2
   4  -4   5 302.323 18.6475   1
   4  -4   5 314.444 15.7895   3
  -5   4  -5 218.089 16.6547   1
  -5   4  -5 186.830 11.6502   2
   5  -4   5 169.966 11.3923   3
   5  -4   5 190.597 16.9010   1
  -6   4  -5 289.376 16.7322   2
  -6   4  -5 299.635 20.8746   1
   6  -4   5 330.873 18.1937   3
  -7   4  -5 52.9158 10.7966   1
  -7   4  -5 52.5917 6.66969   2
   7  -4   5 60.1954 8.61009   3
  -8   4  -5 586.620 35.4347   1
  -8   4  -5 549.573 28.1216   2
   8  -4   5 584.670 31.6381   3
   8   3  -5 13.9860 3.43432   2
   8   3  -5 9.10765 8.06653   3
  -8  -3   5 12.9864 3.26580   2
  -8  -3   5 14.2097 6.93459   1
   7   3  -5 987.387 51.7099   3
   7   3  -5 970.113 43.7763   2
  -7  -3   5 964.468 48.5023   1
  -7  -3   5 978.554 43.8832   2
   6   3  -5 464.801 28.7859   3
   6   3  -5 513.331 23.2926   2
  -6  -3   5 483.162 26.6404   1
  -6  -3   5 473.789 23.1236   2
   5   3  -5 203.098 11.4539   2
   5   3  -5 211.186 15.8847   3
  -5  -3   5 203.402 13.8640   1
  -5  -3   5 222.819 11.6250   2
   4   3  -5 776.418 35.7754   2
   4   3  -5 765.239 38.7519   3
  -4  -3   5 792.205 37.3260   1
  -4  -3   5 785.946 36.8656   2
   3   3  -5 77.2637 7.51446   3
   3   3  -5 72.7823 5.48554   2
  -3  -3   5 85.0735 6.88571   1
  -3  -3   5 77.2331 5.59763   2
   2   3  -5 3761.25 159.695   2
   2   3  -5 3735.07 160.802   3
  -2  -3   5 3735.29 159.667   2
  -2  -3   5 3731.63 160.311   1
   1   3  -5 473.569 22.4594   2
   1   3  -5 488.330 22.4046   3
  -1  -3   5 502.088 22.0594   3
  -1  -3   5 438.886 22.5720   1
   0   3  -5 587.214 25.1717   3
   0   3  -5 537.831 26.4180   2
   0  -3   5 567.704 26.3089   1
   0  -3   5 585.190 24.8500   3
   1  -3   5 208.605 12.4455   1
  -3   3  -5 1515.99 67.5481   3
  -3   3  -5 1649.58 69.1787   2
   3  -3   5 1660.23 67.5789   3
   3  -3   5 1427.24 69.7351   1
  -4   3  -5 744.801 35.0512   2
  -4   3  -5 753.661 37.0757   1
   4  -3   5 753.597 36.9560   1
   4  -3   5 752.231 34.4867   3
  -5   3  -5 21.8761 5.82402   1
  -5   3  -5 15.1743 3.60916   2
   5  -3   5 9.84904 3.59066   3
   5  -3   5 15.7762 5.33548   1
  -6   3  -5 1115.69 53.8901   1
  -6   3  -5 1126.09 49.9572   2
   6  -3   5 1030.34 50.8093   3
  -7   3  -5 164.458 11.1016   2
  -7   3  -5 176.555 15.7902   1
   7  -3   5 152.754 13.0822   3
  -8   3  -5 205.210 13.0309   2
   8  -3   5 195.808 16.0719   3
   9   2  -5 47.9315 11.7870   3
  -9  -2   5 42.0890 10.2814   1
   8   2  -5 1152.09 61.5596   3
  -8  -2   5 1223.02 59.2097   1
   7   2  -5 22.9561 7.79823   3
   7   2  -5 22.2088 3.08678   2
  -7  -2   5 14.9508 6.16340   1
   6   2  -5 261.371 13.2175   2
   6   2  -5 250.157 18.9623   3
  -6  -2   5 260.118 13.2902   2
  -6  -2   5 276.628 17.5115   1
   5   2  -5 5.05396 4.43749   3
   5   2  -5 7.98739 2.27549   2
  -5  -2   5 10.9039 4.44416   1
  -5  -2   5 4.68971 2.13871   2
   4   2  -5 4674.65 196.086   2
   4   2  -5 4642.35 199.902   3
  -4  -2   5 4524.38 198.397   1
  -4  -2   5 4619.08 196.122   2
   3   2  -5 1686.23 74.5737   3
   3   2  -5 1740.88 72.1837   2
  -3  -2   5 1569.74 73.5078   1
   2   2  -5 137.260 8.00678   2
   2   2  -5 146.375 9.15183   3
  -2  -2   5 145.341 8.87821   1
   1   2  -5 555.378 24.8868   3
   1   2  -5 523.174 24.8813   2
  -1  -2   5 535.244 25.2049   1
  -1  -2   5 549.578 24.7804   3
   0   2  -5 16.9823 1.76831   3
   0   2  -5 16.1031 2.86948   2
   0  -2   5 18.3197 2.90138   1
   0  -2   5 14.6797 1.72113   3
  -1   2  -5 2651.31 116.164   2
   1  -2   5 2750.29 115.984   1
  -2   2  -5 104.288 7.80825   2
  -2   2  -5 142.490 5.96997   3
   2  -2   5 121.015 6.21473   3
   2  -2   5 104.217 7.85437   1
  -3   2  -5 205.184 11.1700   2
  -3   2  -5 178.584 9.43177   3
   3  -2   5 194.076 11.8846   1
   3  -2   5 174.864 9.91329   3
  -4   2  -5 57.2974 5.66207   2
  -4   2  -5 47.1207 6.60616   1
   4  -2   5 58.4444 5.64569   3
   4  -2   5 55.8366 6.97113   1
  -5   2  -5 380.451 22.3070   1
  -5   2  -5 392.580 20.1028   2
   5  -2   5 392.773 22.3702   1
   5  -2   5 385.695 20.7642   3
  -6   2  -5 727.533 33.7803   2
  -6   2  -5 733.299 37.2605   1
   6  -2   5 656.223 35.0346   3
  -7   2  -5 216.960 13.8885   2
  -7   2  -5 228.980 17.8684   1
   7  -2   5 235.152 16.5455   3
  -8   2  -5 120.283 14.3444   1
   8  -2   5 98.5264 12.2566   3
   9   1  -5 103.734 16.0696   3
  -9  -1   5 127.749 14.9636   1
   8   1  -5 169.587 17.4424   3
  -8  -1   5 149.703 14.9416   1
   7   1  -5 96.3659 12.5352   3
   6   1  -5 23.7710 3.50931   2
   6   1  -5 28.5645 7.38983   3
   6   1  -5 23.8532 2.75203   2
  -6  -1   5 32.0767 7.01980   1
   5   1  -5 2545.31 109.182   2
   5   1  -5 2495.01 109.353   2
   5   1  -5 2460.63 114.505   3
  -5  -1   5 2769.49 113.775   1
   4   1  -5 1419.98 59.5594   2
   4   1  -5 1402.90 59.2951   2
   4   1  -5 1395.06 63.4710   3
  -4  -1   5 1287.05 62.1233   1
   3   1  -5 6859.73 282.693   2
   3   1  -5 6578.72 285.352   3
   3   1  -5 6623.92 282.812   2
   2   1  -5 74.8014 5.93020   3
   2   1  -5 74.3282 4.77385   2
   2   1  -5 75.8771 4.96570   2
  -2  -1   5 67.3893 4.55694   2
  -2  -1   5 62.2230 6.22233   1
   1   1  -5 3935.42 170.073   2
   1   1  -5 4128.01 170.151   3
  -1  -1   5 3977.98 170.358   1
  -1  -1   5 3946.90 170.155   3
   0   1  -5 10.4867 1.58708   3
   0   1  -5 10.9130 2.43705   2
   0  -1   5 10.8717 1.71589   3
   0  -1   5 12.8112 2.32993   1
  -1   1  -5 2320.28 98.8885   2
   1  -1   5 2252.38 96.9266   3
   1  -1   5 2235.50 96.8990   3
   1  -1   5 2343.21 98.3484   1
  -2   1  -5 436.113 20.5113   2
  -2   1  -5 353.292 18.4749   3
   2  -1   5 456.629 20.6528   1
   2  -1   5 447.837 18.7476   3
   2  -1   5 400.451 19.0853   3
  -3   1  -5 1249.15 53.3452   3
  -3   1  -5 1272.86 55.4279   1
  -3   1  -5 1219.15 54.6691   2
   3  -1   5 1234.49 54.1770   3
   3  -1   5 1146.04 54.9467   1
  -4   1  -5 283.847 14.5276   2
  -4   1  -5 234.514 15.1254   1
   4  -1   5 222.671 14.8136   1
   4  -1   5 299.920 17.0050   3
  -5   1  -5 32.9374 6.56141   1
  -5   1  -5 24.2548 4.64007   2
   5  -1   5 31.1568 5.77957   3
  -6   1  -5 641.416 34.1850   1
  -6   1  -5 643.124 31.4637   2
   6  -1   5 660.893 33.6741   3
  -7   1  -5 92.9735 8.28734   2
  -7   1  -5 71.1615 10.6693   1
   7  -1   5 88.3749 10.9870   3
  -8   1  -5 351.244 19.3449   2
  -8   1  -5 348.849 23.7282   1
   8  -1   5 317.952 22.7762   3
   9   0  -5 364.345 27.7938   3
  -9   0   5 387.243 26.5609   1
   8   0  -5 114.815 14.5035   3
  -8   0   5 129.075 13.8312   1
   7   0  -5 877.273 45.7282   3
  -7   0   5 849.463 44.0957   1
   6   0  -5 90.6820 11.0980   3
  -6   0   5 93.8179 10.0876   1
   5   0  -5 431.294 18.6562   2
   5   0  -5 442.551 24.3479   3
   5   0  -5 410.275 18.4622   2
  -5   0   5 406.214 22.9238   1
   4   0  -5 118.121 6.02010   2
  -4   0   5 91.2749 8.31446   1
   3   0  -5 373.430 16.6416   2
   3   0  -5 357.443 16.6645   2
   3   0  -5 340.448 19.0742   3
  -3   0   5 364.204 16.6018   2
  -3   0   5 361.040 18.7040   1
   2   0  -5 263.113 14.1525   3
   2   0  -5 255.986 12.8555   2
  -2   0   5 296.627 14.1381   1
  -2   0   5 241.119 12.6561   2
   1   0  -5 1594.48 66.1577   3
   1   0  -5 1508.81 65.9495   2
  -1   0   5 1539.24 66.1913   1
  -1   0   5 1441.08 66.1979   3
   0   0  -5 49.5192 4.32173   2
   0   0  -5 51.6834 3.54676   3
   0   0  -5 45.7112 3.77284   1
   0   0   5 47.2597 3.64743   3
  -1   0  -5 1292.62 60.3838   2
   1   0   5 1421.81 59.7848   1
   1   0   5 1319.42 59.1389   3
   1   0   5 1464.08 59.2359   3
  -2   0  -5 5261.37 222.152   2
  -2   0  -5 5201.32 220.737   3
   2   0   5 4873.30 221.520   1
   2   0   5 5353.32 221.314   3
   2   0   5 5384.03 220.829   3
  -3   0  -5 264.928 14.2839   1
  -3   0  -5 255.323 13.9936   2
   3   0   5 262.796 14.1545   1
   3   0   5 245.544 13.7868   3
  -4   0  -5 889.406 42.4744   2
  -4   0  -5 925.928 43.2926   1
   4   0   5 957.934 43.3833   3
   4   0   5 926.760 43.2672   1
  -5   0  -5 400.708 20.9150   2
  -5   0  -5 424.565 22.5333   1
   5   0   5 380.627 22.1824   3
  -6   0  -5 600.682 30.0621   2
  -6   0  -5 626.154 32.4399   1
   6   0   5 607.085 32.5152   3
  -7   0  -5 606.086 32.5355   1
  -7   0  -5 567.579 29.3389   2
   7   0   5 574.537 32.6268   3
  -8   0  -5 4.40888 5.72070   1
  -8   0  -5 5.66910 4.28539   2
   8   0   5 5.52568 5.98513   3
   9  -1  -5 12.2267 8.10641   3
  -9   1   5 1.34618 6.53813   1
   8  -1  -5 1023.19 54.8089   3
  -8   1   5 1082.64 54.0899   1
   7  -1  -5 409.004 26.1570   3
  -7   1   5 417.582 25.2818   1
   6  -1  -5 398.155 24.2710   3
  -6   1   5 402.924 23.4832   1
   5  -1  -5 893.085 43.7294   3
  -5   1   5 876.940 42.7042   1
   4  -1  -5 5214.29 212.748   2
   4  -1  -5 5001.54 217.138   3
  -4   1   5 4898.03 216.328   1
   3  -1  -5 40.1397 3.22932   2
   3  -1  -5 37.7961 5.20161   3
  -3   1   5 43.2108 4.97086   1
  -3   1   5 42.4210 3.19631   2
   2  -1  -5 4039.27 169.897   2
   2  -1  -5 4059.69 172.844   3
  -2   1   5 4136.27 171.048   1
  -2   1   5 3764.69 169.871   2
   1  -1  -5 8.54889 2.21134   1
   1  -1  -5 5.65287 1.83110   2
   1  -1  -5 8.51046 2.20458   3
  -1   1   5 6.77102 1.92725   1
   0  -1  -5 4396.86 169.143   3
   0  -1  -5 3724.92 168.748   1
   0  -1  -5 3926.89 169.517   2
   0   1   5 3842.04 169.212   3
   0   1   5 3991.60 168.728   1
  -1  -1  -5 2376.72 93.5210   2
  -1  -1  -5 2059.99 92.0946   1
   1   1   5 2036.44 92.2900   3
   1   1   5 2206.12 92.5839   3
   1   1   5 2096.01 92.0910   1
  -2  -1  -5 1.36233 1.91252   2
   2   1   5 4.71014 2.06971   1
   2   1   5 10.1384 2.58544   3
  -3  -1  -5 39.7646 4.93705   2
  -3  -1  -5 43.4687 4.71171   1
   3   1   5 36.1808 4.86148   3
   3   1   5 35.9130 5.46749   1
  -4  -1  -5 59.8983 6.23368   2
  -4  -1  -5 49.5662 6.02032   1
   4   1   5 64.3779 7.13954   3
  -5  -1  -5 849.306 41.0425   1
  -5  -1  -5 830.864 40.1256   2
   5   1   5 884.843 42.3196   3
  -6  -1  -5 200.544 19.4444   1
  -6  -1  -5 195.228 13.0683   2
   6   1   5 183.783 15.1211   3
  -7  -1  -5 317.072 20.0122   1
  -7  -1  -5 274.753 17.3323   2
   7   1   5 285.691 20.8981   3
  -8  -1  -5 222.525 15.4647   2
  -8  -1  -5 241.236 18.6984   1
   8   1   5 231.033 19.5173   3
   9  -2  -5 131.928 15.8531   3
  -9   2   5 110.732 14.9821   1
   8  -2  -5 240.994 19.8218   3
  -8   2   5 204.434 18.1022   1
   7  -2  -5 125.785 13.6941   3
  -7   2   5 141.169 13.5594   1
   6  -2  -5 135.048 12.6855   3
  -6   2   5 138.481 12.2220   1
   5  -2  -5 975.972 48.7286   3
  -5   2   5 1049.80 48.5176   1
   4  -2  -5 254.512 11.1699   2
   4  -2  -5 246.581 11.2555   2
   4  -2  -5 259.522 15.5446   3
  -4   2   5 226.630 14.5051   1
  -4   2   5 231.441 11.2373   2
   3  -2  -5 376.577 20.2598   3
   3  -2  -5 401.390 17.6792   2
  -3   2   5 367.668 17.7697   2
  -3   2   5 393.955 19.8806   1
   2  -2  -5 134.603 8.79787   3
   1  -2  -5 1088.90 46.3069   2
   1  -2  -5 993.611 45.8877   1
   1  -2  -5 1018.44 46.4692   3
  -1   2   5 1084.71 45.9969   1
   0  -2  -5 15.0938 2.19537   1
   0  -2  -5 15.5230 2.86080   3
   0  -2  -5 14.9218 2.94247   2
   0   2   5 14.5691 2.10932   1
  -1  -2  -5 385.636 17.7658   2
  -1  -2  -5 366.873 17.2147   3
  -1  -2  -5 338.103 15.9873   1
   1   2   5 309.390 16.8729   3
   1   2   5 349.208 16.0162   1
  -2  -2  -5 894.041 37.9669   1
  -2  -2  -5 808.580 39.3561   2
  -2  -2  -5 962.435 38.4552   1
   2   2   5 819.361 39.2623   3
   2   2   5 820.971 38.0855   1
  -3  -2  -5 1208.23 49.7414   1
  -3  -2  -5 1032.88 50.2005   2
   3   2   5 1088.64 50.8769   3
  -4  -2  -5 381.455 19.8435   2
  -4  -2  -5 364.096 19.3329   1
   4   2   5 375.066 21.0135   3
  -5  -2  -5 271.885 15.6924   1
  -5  -2  -5 240.304 15.1409   2
   5   2   5 253.157 17.2982   3
  -6  -2  -5 116.496 10.7049   1
  -6  -2  -5 130.961 10.5502   2
   6   2   5 135.883 13.4289   3
  -7  -2  -5 3.64465 4.42889   2
  -7  -2  -5 7.02031 5.21800   1
   7   2   5 4.22180 6.29539   3
   8  -3  -5 21.7837 8.39899   3
  -8   3   5 21.7452 7.42496   1
   7  -3  -5 996.390 49.3162   3
  -7   3   5 911.194 48.2329   1
   6  -3  -5 5.23887 5.06917   3
  -6   3   5 -0.4060 4.15188   1
   5  -3  -5 8.48802 4.52428   3
  -5   3   5 5.79731 3.92853   1
   4  -3  -5 386.546 16.8239   2
   4  -3  -5 354.911 20.7419   3
  -4   3   5 375.947 20.3535   1
   3  -3  -5 210.230 13.3795   3
   3  -3  -5 241.498 11.1677   2
  -3   3   5 240.541 13.1993   1
  -3   3   5 204.268 11.7408   2
   2  -3  -5 3990.43 168.843   2
   2  -3  -5 3907.12 170.262   3
  -2   3   5 4007.33 169.602   1
   1  -3  -5 351.253 17.0927   1
   1  -3  -5 387.447 18.3876   3
   1  -3  -5 373.269 17.7447   2
  -1   3   5 344.169 17.0161   1
   0  -3  -5 1330.95 57.0754   3
   0  -3  -5 1242.03 56.8348   2
   0  -3  -5 1259.84 55.3602   1
   0   3   5 1276.33 55.1792   1
   0   3   5 1326.15 56.9865   3
  -1  -3  -5 759.139 35.5050   3
  -1  -3  -5 777.078 33.5690   1
  -1  -3  -5 784.564 35.7176   2
   1   3   5 791.794 35.6313   3
   1   3   5 752.251 33.4321   1
  -2  -3  -5 3224.80 141.628   1
  -2  -3  -5 3287.33 143.638   2
  -2  -3  -5 3247.37 141.371   1
   2   3   5 3574.34 144.167   3
  -3  -3  -5 1670.18 75.8281   1
  -3  -3  -5 1800.72 77.6394   2
   3   3   5 1779.73 78.4545   3
  -4  -3  -5 801.702 39.6414   1
  -4  -3  -5 933.385 41.2011   2
   4   3   5 880.038 42.6760   3
  -5  -3  -5 18.3402 4.73142   2
  -5  -3  -5 20.3906 4.65438   1
   5   3   5 21.6665 6.34219   3
  -6  -3  -5 1160.06 53.7400   1
  -6  -3  -5 1143.85 53.6485   2
   6   3   5 1131.52 57.1830   3
  -7  -3  -5 96.3360 10.3169   1
  -7  -3  -5 75.1045 9.24139   2
   7   3   5 65.5128 11.7787   3
   8  -4  -5 591.447 35.6061   3
  -8   4   5 650.736 36.5097   1
   7  -4  -5 240.754 18.5667   3
  -7   4   5 247.786 18.7155   1
   6  -4  -5 876.087 44.3999   3
  -6   4   5 879.833 44.2786   1
   5  -4  -5 179.583 13.0774   3
  -5   4   5 147.853 12.3428   1
   4  -4  -5 4797.80 190.434   2
   4  -4  -5 4506.63 194.336   3
  -4   4   5 4557.57 193.907   1
  -4   4   5 4121.62 190.536   2
   3  -4  -5 993.595 46.7246   3
   3  -4  -5 1007.13 44.2286   2
  -3   4   5 1019.24 46.1381   1
   2  -4  -5 3330.45 144.778   2
   2  -4  -5 3521.09 146.397   3
  -2   4   5 3319.78 145.224   1
   1  -4  -5 32.6767 4.56576   3
   1  -4  -5 21.5419 3.34862   2
   1  -4  -5 17.8849 2.50685   1
  -1   4   5 21.1077 2.73659   1
   0  -4  -5 5266.21 223.733   1
   0  -4  -5 5340.83 226.340   3
   0  -4  -5 4943.49 225.729   2
   0   4   5 5647.81 223.585   1
   1   4   5 261.173 14.7161   3
  -2  -4  -5 160.810 7.64207   1
  -2  -4  -5 177.945 10.7884   2
  -2  -4  -5 146.515 7.71465   1
  -3  -4  -5 1.83178 1.83830   1
  -3  -4  -5 1.01683 3.01205   2
  -3  -4  -5 2.85900 1.53677   1
   3   4   5 13.3272 4.51072   3
  -4  -4  -5 87.9222 8.35221   2
   4   4   5 78.1254 9.74126   3
  -5  -4  -5 21.3995 5.28368   2
  -5  -4  -5 16.5329 4.06820   1
   5   4   5 22.0713 7.11294   3
  -6  -4  -5 7.69164 4.76162   2
  -6  -4  -5 8.20626 4.39545   1
   6   4   5 5.85117 6.18997   3
  -7  -4  -5 30.7328 6.50349   2
  -7  -4  -5 27.6744 6.51441   1
   7   4   5 30.6707 9.39661   3
   8  -5  -5 225.676 20.4648   3
   7  -5  -5 48.6402 8.94616   3
  -7   5   5 33.0445 8.06503   1
   6  -5  -5 63.3174 9.87755   3
  -6   5   5 68.4385 9.72229   1
   5  -5  -5 278.937 13.3244   2
   5  -5  -5 291.437 18.6400   3
  -5   5   5 294.341 13.9280   2
  -5   5   5 316.486 18.6498   1
   4  -5  -5 411.357 22.9854   3
   4  -5  -5 422.065 19.5642   2
  -4   5   5 433.258 22.8021   1
   3  -5  -5 1689.00 71.7269   2
   3  -5  -5 1609.23 73.9888   3
  -3   5   5 1654.86 73.2774   1
   2  -5  -5 526.743 25.3100   3
   2  -5  -5 496.913 23.6817   2
  -2   5   5 476.987 23.6331   1
   1  -5  -5 2107.35 92.8441   1
   1  -5  -5 2183.88 94.4210   2
   1  -5  -5 2170.39 95.2716   3
  -1   5   5 2141.01 92.8257   1
  -1   5   5 2259.62 92.9443   1
   0  -5  -5 1199.46 56.0319   3
   0  -5  -5 1274.17 55.5164   2
   0   5   5 1238.99 55.9136   3
  -1  -5  -5 1556.55 67.8132   2
   1   5   5 1484.77 68.1911   3
  -2  -5  -5 484.530 24.5898   2
   2   5   5 480.126 25.5241   3
  -3  -5  -5 629.274 27.4634   1
  -3  -5  -5 636.078 31.3256   2
  -3  -5  -5 615.405 27.6169   1
   3   5   5 640.026 32.9379   3
  -4  -5  -5 446.162 21.0793   1
  -4  -5  -5 427.445 23.9014   2
   4   5   5 464.277 26.5145   3
  -5  -5  -5 5.75839 4.56013   2
  -5  -5  -5 8.77968 3.20539   1
   5   5   5 17.9581 7.01307   3
  -6  -5  -5 152.587 10.9663   1
  -6  -5  -5 156.919 12.9677   2
   6   5   5 145.804 16.0176   3
   8  -6  -5 -3.3385 5.53692   3
  -8   6   5 9.71893 6.92314   1
   7  -6  -5 434.743 26.9341   3
  -7   6   5 451.122 27.5050   1
   6  -6  -5 105.599 11.8296   3
  -6   6   5 102.911 11.3483   1
   5  -6  -5 221.420 10.7247   2
   5  -6  -5 264.318 16.3605   3
  -5   6   5 184.239 10.7682   2
  -5   6   5 200.325 14.9642   1
   4  -6  -5 488.870 26.2363   3
  -4   6   5 485.280 25.5047   1
   3  -6  -5 264.125 14.4936   2
   3  -6  -5 307.420 17.3332   3
  -3   6   5 276.195 15.6706   1
   2  -6  -5 83.6279 6.84057   2
   2  -6  -5 93.7137 8.49848   3
  -2   6   5 94.1814 6.61969   1
   1  -6  -5 74.2357 6.58676   2
   1  -6  -5 81.0087 8.01343   3
  -1   6   5 77.7123 7.57565   3
  -1   6   5 72.8572 4.52211   1
  -1   6   5 69.8510 4.38586   1
   0  -6  -5 170.691 12.0729   3
   0  -6  -5 181.770 11.2679   2
   0   6   5 165.890 11.6179   3
  -1  -6  -5 146.978 10.2662   2
   1   6   5 147.301 11.3293   3
  -2  -6  -5 3261.57 140.828   2
   2   6   5 3205.79 142.020   3
  -3  -6  -5 1119.77 51.7494   2
   3   6   5 1083.06 53.5184   3
  -4  -6  -5 272.719 17.3612   2
   4   6   5 289.689 20.2106   3
  -5  -6  -5 21.4687 5.91677   2
  -5  -6  -5 34.3927 5.78713   1
   5   6   5 31.2988 8.50734   3
  -6  -6  -5 341.428 20.7496   2
  -6  -6  -5 310.570 17.1125   1
   6   6   5 315.797 24.5323   3
   7  -7  -5 280.980 20.7031   3
  -7   7   5 273.288 20.3665   1
   6  -7  -5 610.361 33.9085   3
  -6   7   5 648.108 34.2837   1
   5  -7  -5 83.9775 10.2278   3
   5  -7  -5 89.5632 6.17224   2
   4  -7  -5 3398.38 149.554   2
   4  -7  -5 3623.05 153.008   3
  -4   7   5 3464.00 152.052   1
   3  -7  -5 1043.37 46.0291   2
   3  -7  -5 1023.18 48.2332   3
  -3   7   5 986.743 46.6141   1
   2  -7  -5 240.041 14.9826   3
   2  -7  -5 210.354 12.7114   2
  -2   7   5 217.140 11.9646   1
   1  -7  -5 108.440 14.5625   3
   1  -7  -5 100.614 8.24326   2
  -1   7   5 121.812 14.6782   3
   0  -7  -5 130.376 9.72889   2
  -1  -7  -5 386.555 19.9249   2
   1   7   5 324.077 20.2756   3
  -2  -7  -5 136.710 10.8945   2
   2   7   5 143.151 12.8226   3
  -3  -7  -5 327.641 19.4586   2
   3   7   5 319.567 21.6040   3
  -4  -7  -5 10.6677 4.89294   2
   4   7   5 9.26806 6.34593   3
  -5  -7  -5 8.14612 5.42591   2
   5   7   5 16.1423 7.65851   3
   7  -8  -5 17.2536 7.20092   3
  -7   8   5 6.17994 6.50502   1
   6  -8  -5 18.2252 7.07129   3
  -6   8   5 16.3325 6.61760   1
   5  -8  -5 214.317 16.1103   3
   5  -8  -5 228.014 12.3091   2
  -5   8   5 218.422 15.6736   1
   4  -8  -5 27.3761 6.70379   3
   3  -8  -5 1913.35 83.0886   2
   3  -8  -5 1843.44 85.1482   3
  -3   8   5 1907.03 83.3212   1
   2  -8  -5 143.608 11.8163   3
   2  -8  -5 135.795 9.77737   2
  -2   8   5 125.316 8.08390   1
   1  -8  -5 12.7120 5.17584   3
  -1   8   5 14.8949 4.94773   3
   0  -8  -5 1143.00 55.3186   3
   0  -8  -5 1183.95 54.1266   2
   0   8   5 1179.57 55.1239   3
  -1  -8  -5 322.567 18.7640   2
   1   8   5 315.499 19.9720   3
  -2  -8  -5 138.646 11.6307   2
   2   8   5 143.559 13.6952   3
  -3  -8  -5 1138.51 55.1522   2
   3   8   5 1184.91 58.3320   3
  -4  -8  -5 98.2548 10.7800   2
   4   8   5 88.1292 13.2702   3
  -5  -8  -5 22.6694 6.79448   2
   5   8   5 24.7312 9.73543   3
   6  -9  -5 99.1964 12.3998   3
  -6   9   5 105.999 12.0093   1
   5  -9  -5 4.34244 3.45480   2
   5  -9  -5 8.42070 5.79355   3
  -5   9   5 9.67974 5.15200   1
   4  -9  -5 104.010 8.30413   2
   4  -9  -5 101.935 11.6345   3
  -4   9   5 96.1614 9.26183   1
   3  -9  -5 80.9290 8.11607   2
   3  -9  -5 97.3710 11.1909   3
  -3   9   5 95.6108 7.98427   1
   2  -9  -5 109.492 9.07214   2
   2  -9  -5 95.0035 10.5560   3
  -2   9   5 77.1732 9.91297   3
  -2   9   5 104.254 6.53774   1
   1  -9  -5 686.780 34.7008   2
   1  -9  -5 722.318 36.5857   3
  -1   9   5 716.142 36.0228   3
   0  -9  -5 68.1626 9.79302   3
   0  -9  -5 74.3558 8.48593   2
   0   9   5 60.3027 9.43462   3
  -1  -9  -5 394.815 23.4295   2
   1   9   5 454.458 25.8718   3
  -2  -9  -5 706.853 36.9172   2
   2   9   5 752.377 39.6311   3
  -3  -9  -5 452.996 25.9047   2
   3   9   5 441.463 32.6684   3
  -4  -9  -5 294.511 19.6188   2
   4   9   5 287.752 23.5688   3
   6 -10  -5 273.715 20.3413   3
  -6  10   5 299.836 20.0307   1
   5 -10  -5 103.133 12.2559   3
   5 -10  -5 103.277 8.79833   2
  -5  10   5 104.678 10.8049   1
   4 -10  -5 863.116 42.8342   2
   4 -10  -5 895.473 44.3219   3
  -4  10   5 846.666 41.5713   1
   3 -10  -5 669.971 36.1952   3
   3 -10  -5 675.614 33.9512   2
  -3  10   5 675.439 32.7598   1
  -3  10   5 759.455 36.6250   3
   2 -10  -5 912.420 44.6458   3
   2 -10  -5 841.111 44.2478   2
  -2  10   5 913.766 44.2169   3
  -2  10   5 869.915 38.7282   1
   1 -10  -5 21.7515 5.60472   2
   1 -10  -5 16.5775 6.61058   3
  -1  10   5 15.2670 6.23864   3
   0 -10  -5 822.625 41.6280   2
   0  10   5 881.441 43.7093   3
  -1 -10  -5 84.3165 9.83298   2
   1  10   5 74.6897 11.2538   3
  -2 -10  -5 15.0440 6.50283   2
   2  10   5 13.9145 7.47154   3
  -3 -10  -5 7.47332 5.67899   2
   3  10   5 11.3374 8.33912   3
   4 -11  -5 116.322 13.7756   3
   4 -11  -5 136.998 10.8758   2
  -4  11   5 119.257 10.3251   1
   3 -11  -5 39.8255 9.94875   3
   3 -11  -5 37.2141 6.61138   2
  -3  11   5 34.8210 8.56866   3
  -3  11   5 33.8125 5.17211   1
   2 -11  -5 120.930 16.2736   3
   2 -11  -5 132.063 11.2005   2
  -2  11   5 106.255 15.1732   3
   1 -11  -5 515.636 28.1447   2
   1 -11  -5 518.625 31.6921   3
  -1  11   5 533.834 30.8718   3
   0 -11  -5 189.916 14.5651   2
  -1 -11  -5 166.609 14.2430   2
   1  11   5 200.768 17.5697   3
  -2 -11  -5 35.7611 7.79171   2
   2  11   5 44.1339 10.8531   3
   2 -12  -5 144.734 15.1612   3
   2 -12  -5 161.453 13.1605   2
  -2  12   5 157.844 14.5954   3
   1 -12  -5 9.72477 7.59947   3
  -1  12   5 25.0795 8.01912   3
  -2 -14   6 335.917 19.8059   1
   1  14  -6 20.2730 8.39798   3
   1  14  -6 16.6390 7.13555   2
  -1 -14   6 17.3825 6.14368   1
  -1 -14   6 16.5465 7.91498   2
   0  14  -6 485.477 29.3269   2
   0  14  -6 521.213 30.5690   3
   0 -14   6 506.046 27.4903   1
   0 -14   6 491.587 30.0468   2
  -1  14  -6 86.8220 12.4879   2
  -1  14  -6 118.959 12.2139   3
   1 -14   6 83.7349 11.0670   1
   1 -14   6 79.9516 12.9020   2
  -2  14  -6 326.491 22.1974   3
  -2  14  -6 384.346 23.4497   1
   2 -14   6 412.181 24.3134   1
   3 -14   6 11.2152 7.04075   1
   3  13  -6 10.1749 8.60529   3
  -3 -13   6 16.5964 7.16628   2
  -3 -13   6 7.75778 4.80385   1
   2  13  -6 18.3255 8.13863   3
   2  13  -6 12.7594 8.23290   2
  -2 -13   6 15.5475 8.50836   2
  -2 -13   6 21.5297 5.81325   1
   1  13  -6 281.837 19.5399   2
   1  13  -6 307.210 21.4596   3
  -1 -13   6 270.229 19.7790   2
  -1 -13   6 258.685 17.1499   1
   0  13  -6 120.089 12.8446   2
   0  13  -6 153.103 14.3063   3
   0 -13   6 147.805 12.2119   1
   0 -13   6 131.597 13.6007   2
  -1  13  -6 1417.33 68.5363   2
  -1  13  -6 1541.70 68.0510   3
   1 -13   6 1382.01 66.7204   1
   1 -13   6 1410.22 68.6895   2
  -2  13  -6 3.53995 5.04201   2
  -2  13  -6 5.51706 4.79583   3
   2 -13   6 3.91091 5.86044   1
   2 -13   6 8.83915 6.20526   2
  -3  13  -6 418.357 23.0399   3
  -3  13  -6 426.883 25.3473   1
  -3  13  -6 397.728 25.0274   2
   3 -13   6 396.482 25.6897   1
  -4  13  -6 33.6141 6.13389   3
  -4  13  -6 32.2732 8.54821   1
  -4  13  -6 27.4000 7.32795   2
   4 -13   6 25.7386 8.40597   1
   4  12  -6 53.0995 13.6629   3
  -4 -12   6 51.7228 9.69845   2
  -4 -12   6 57.1973 8.33119   1
   3  12  -6 108.211 14.8090   3
  -3 -12   6 83.7462 11.4571   2
  -3 -12   6 96.4970 9.42878   1
   2  12  -6 379.613 25.2583   3
   2  12  -6 358.690 22.4423   2
  -2 -12   6 364.462 23.0807   2
  -2 -12   6 367.722 20.4832   1
   1  12  -6 513.035 29.9938   3
   1  12  -6 489.703 28.3695   2
  -1 -12   6 541.675 26.7534   1
  -1 -12   6 477.902 28.7275   2
   0  12  -6 21.6699 6.68332   3
   0  12  -6 15.1212 5.96801   2
   0 -12   6 42.9495 7.17583   1
   0 -12   6 26.2988 7.31769   2
  -1  12  -6 56.9101 9.17491   2
   1 -12   6 48.9914 9.18998   2
   1 -12   6 56.9806 8.68381   1
  -2  12  -6 243.051 17.3057   2
  -2  12  -6 219.144 15.2686   3
   2 -12   6 258.613 17.7881   2
  -3  12  -6 -5.0176 4.58030   2
  -3  12  -6 2.09754 3.82680   3
  -3  12  -6 4.60118 5.50901   1
   3 -12   6 2.56526 5.63397   1
  -4  12  -6 312.663 21.7953   2
  -4  12  -6 354.078 23.8568   1
  -4  12  -6 403.854 20.4711   3
   4 -12   6 337.066 23.8537   1
   4 -12   6 360.622 20.0830   3
  -5  12  -6 6.23377 5.48305   2
  -5  12  -6 10.9256 8.03670   1
  -5  12  -6 8.57041 4.26618   3
   5 -12   6 10.1108 7.68898   1
   5 -12   6 7.16232 4.80571   3
   5  11  -6 102.039 19.2903   3
  -5 -11   6 118.086 11.2569   1
  -5 -11   6 118.642 12.8757   2
   4  11  -6 250.814 21.9124   3
  -4 -11   6 234.711 15.7178   1
  -4 -11   6 254.521 17.9360   2
   3  11  -6 583.210 34.4891   3
  -3 -11   6 569.147 28.8177   1
  -3 -11   6 569.194 31.3167   2
   2  11  -6 1732.09 79.7446   3
   2  11  -6 1684.10 77.4340   2
  -2 -11   6 1719.08 77.7005   2
  -2 -11   6 1586.31 75.4071   1
   1  11  -6 11.7214 5.60676   2
   1  11  -6 4.60552 5.39080   3
  -1 -11   6 4.48282 4.59363   2
  -1 -11   6 6.22034 4.29673   1
   0  11  -6 146.924 12.3620   3
   0  11  -6 138.739 12.2128   2
   0 -11   6 136.787 12.0230   2
   0 -11   6 142.524 13.7241   1
  -1  11  -6 533.026 27.1579   3
  -1  11  -6 488.123 27.9609   2
   1 -11   6 513.255 27.1694   1
   1 -11   6 515.448 28.3710   2
  -2  11  -6 248.535 17.0773   2
  -2  11  -6 238.115 15.1156   3
   2 -11   6 250.960 17.2238   2
   2 -11   6 275.451 17.5825   1
  -3  11  -6 57.1518 8.84448   2
  -3  11  -6 65.3891 7.19787   3
   3 -11   6 56.6141 9.49956   1
  -4  11  -6 354.912 22.1543   1
  -4  11  -6 320.304 17.5182   3
  -4  11  -6 326.476 20.4335   2
   4 -11   6 292.429 17.5805   3
   4 -11   6 328.813 22.5753   1
  -5  11  -6 4.10554 5.98202   1
  -5  11  -6 6.55998 5.11914   2
  -5  11  -6 3.60763 3.45382   3
   5 -11   6 7.67512 6.59840   1
   5 -11   6 5.70602 4.00739   3
  -6  11  -6 68.6419 9.34216   2
  -6  11  -6 64.1579 12.4643   1
  -6  11  -6 58.5836 7.95825   3
   6 -11   6 87.3294 14.3860   1
   6  10  -6 49.7234 12.8192   3
  -6 -10   6 50.2616 8.91690   2
  -6 -10   6 45.0297 7.96831   1
   5  10  -6 702.908 42.0593   3
  -5 -10   6 709.392 35.3980   1
  -5 -10   6 696.921 36.8538   2
   4  10  -6 82.1365 13.1877   3
  -4 -10   6 87.4529 9.09249   1
  -4 -10   6 75.6945 10.2222   2
   3  10  -6 403.899 25.9788   3
  -3 -10   6 391.578 23.1098   2
  -3 -10   6 396.982 21.4599   1
   2  10  -6 16.3200 5.57153   2
  -2 -10   6 25.9585 6.34281   2
  -2 -10   6 23.8006 5.12537   1
   1  10  -6 53.1353 8.08517   3
   1  10  -6 48.1450 7.53237   2
  -1 -10   6 41.9886 7.17850   2
  -1 -10   6 43.4881 6.33613   1
   0  10  -6 26.4675 5.69740   3
   0  10  -6 27.0056 5.77473   2
   0 -10   6 22.3238 5.74545   2
   0 -10   6 31.1966 5.84511   1
  -1  10  -6 511.564 24.6260   3
  -1  10  -6 447.414 25.4675   2
   1 -10   6 440.448 24.7715   1
   1 -10   6 469.435 25.8433   2
  -2  10  -6 249.773 14.3815   3
  -2  10  -6 242.055 16.3354   2
   2 -10   6 233.973 16.2222   2
   2 -10   6 257.807 16.5929   1
  -3  10  -6 1173.79 51.5584   3
  -3  10  -6 1143.43 54.1970   2
   3 -10   6 1109.93 51.5259   3
   3 -10   6 1140.19 55.1974   1
  -4  10  -6 96.7527 10.2374   2
  -4  10  -6 87.8208 7.37380   3
  -4  10  -6 75.7781 10.7447   1
   4 -10   6 94.1223 7.76585   3
   4 -10   6 87.4120 11.7417   1
  -5  10  -6 414.921 21.5778   3
  -5  10  -6 397.557 26.6573   1
  -5  10  -6 466.752 24.8450   2
   5 -10   6 424.321 21.8720   3
   5 -10   6 448.310 27.8566   1
  -6  10  -6 -1.3928 4.23457   2
  -6  10  -6 3.17217 6.83542   1
   6 -10   6 2.58308 3.89091   3
   6 -10   6 1.07740 6.68623   1
   6   9  -6 268.305 24.5859   3
  -6  -9   6 294.085 18.5800   1
  -6  -9   6 256.324 18.1915   2
   5   9  -6 681.650 40.6736   3
  -5  -9   6 679.434 35.8851   2
  -5  -9   6 731.016 35.4096   1
   4   9  -6 734.392 40.3064   3
  -4  -9   6 709.181 36.5640   2
  -4  -9   6 732.631 37.3055   1
   3   9  -6 3680.18 163.531   3
  -3  -9   6 3679.57 160.880   2
  -3  -9   6 3700.54 159.589   1
   2   9  -6 500.614 26.4541   2
   2   9  -6 470.872 27.6021   3
  -2  -9   6 527.486 25.2708   1
  -2  -9   6 492.513 26.5618   2
   1   9  -6 159.369 12.0537   3
   1   9  -6 157.163 13.1229   2
  -1  -9   6 148.454 13.5026   2
  -1  -9   6 156.163 10.6043   1
   0   9  -6 54.8069 6.77604   3
   0   9  -6 29.2718 5.65736   2
   0  -9   6 52.5381 7.61676   2
   0  -9   6 39.1324 6.01793   1
  -1   9  -6 23.8634 4.40276   3
  -1   9  -6 31.9424 6.14040   2
   1  -9   6 23.5246 5.30109   1
   1  -9   6 21.6518 5.34884   2
  -2   9  -6 109.012 9.54634   2
  -2   9  -6 75.8040 6.79495   3
  -3   9  -6 38.0869 4.85489   3
   3  -9   6 44.3421 8.30466   1
   3  -9   6 39.3363 5.19541   3
  -4   9  -6 156.162 14.3803   1
  -4   9  -6 150.505 12.6745   2
  -4   9  -6 206.229 10.9266   3
   4  -9   6 161.270 14.7948   1
   4  -9   6 191.672 10.9184   3
  -5   9  -6 21.7972 7.36897   1
   5  -9   6 25.3490 7.84580   1
   5  -9   6 38.0782 5.55111   3
  -6   9  -6 657.861 39.0309   1
  -6   9  -6 673.165 34.7607   2
   6  -9   6 743.889 33.0025   3
   6  -9   6 658.132 39.5775   1
  -7   9  -6 1.79095 4.11700   2
  -7   9  -6 1.28270 7.24221   1
   7  -9   6 3.34521 3.91282   3
   7   8  -6 63.8807 13.7813   3
   7   8  -6 69.3676 9.31814   2
  -7  -8   6 64.1999 9.07508   2
  -7  -8   6 61.4703 9.72238   1
   6   8  -6 50.7222 11.4938   3
  -6  -8   6 47.7124 7.77698   2
  -6  -8   6 66.8963 9.75223   1
   5   8  -6 260.650 21.7424   3
  -5  -8   6 304.520 18.2663   1
  -5  -8   6 283.701 17.8681   2
   4   8  -6 294.858 21.0931   3
  -4  -8   6 308.747 18.1045   2
  -4  -8   6 288.893 17.4743   1
   3   8  -6 2064.68 100.857   2
   3   8  -6 2586.64 104.527   3
  -3  -8   6 2366.29 102.039   2
  -3  -8   6 2130.26 100.127   1
   2   8  -6 997.423 48.7656   3
   2   8  -6 1066.49 47.8133   2
  -2  -8   6 1016.40 47.8004   2
  -2  -8   6 987.661 46.6055   1
   1   8  -6 27.7474 5.19344   2
   1   8  -6 28.5571 5.36156   3
  -1  -8   6 22.8104 4.60843   1
  -1  -8   6 21.2941 4.87848   2
   0   8  -6 1965.64 87.0608   3
   0   8  -6 2034.40 88.2169   2
   0  -8   6 1979.34 88.0923   2
   0  -8   6 1935.12 86.9631   1
  -1   8  -6 509.941 25.9191   2
   1  -8   6 496.170 25.1725   1
   1  -8   6 476.487 25.4885   2
  -2   8  -6 599.420 30.2967   3
  -2   8  -6 689.769 33.2197   2
   2  -8   6 720.619 33.4265   1
  -3   8  -6 237.770 12.4642   3
  -3   8  -6 232.414 15.2205   2
   3  -8   6 238.001 12.6059   3
   3  -8   6 258.040 18.2833   1
  -4   8  -6 226.809 14.9098   2
  -4   8  -6 262.384 17.3533   1
   4  -8   6 200.660 12.1563   3
   4  -8   6 253.287 17.5340   1
  -5   8  -6 36.8535 6.67502   2
  -5   8  -6 48.2687 9.50647   1
   5  -8   6 33.6816 8.62543   1
   5  -8   6 30.4208 4.56878   3
  -6   8  -6 190.305 13.3086   2
  -6   8  -6 170.409 16.5381   1
   6  -8   6 168.894 11.1373   3
   6  -8   6 154.921 16.4060   1
  -7   8  -6 346.411 26.8398   1
   7  -8   6 409.257 20.9859   3
   7   7  -6 17.3502 5.35734   2
  -7  -7   6 9.19302 6.00250   1
  -7  -7   6 6.90535 4.80415   2
   6   7  -6 347.291 26.1725   3
   6   7  -6 382.984 21.2257   2
  -6  -7   6 367.753 22.1030   1
  -6  -7   6 393.160 21.4741   2
   5   7  -6 -0.3881 5.41944   3
   5   7  -6 4.48599 4.33311   2
  -5  -7   6 6.31610 4.92059   2
  -5  -7   6 3.36674 4.42485   1
   4   7  -6 551.229 28.6406   2
   4   7  -6 528.221 37.8402   3
  -4  -7   6 601.113 29.0107   2
  -4  -7   6 590.398 29.1929   1
   3   7  -6 590.774 28.8556   2
   3   7  -6 570.466 30.8955   3
  -3  -7   6 590.889 28.7697   1
  -3  -7   6 559.551 28.8171   2
   2   7  -6 377.285 19.7893   2
   2   7  -6 381.442 20.9472   3
  -2  -7   6 350.563 19.7902   2
  -2  -7   6 361.686 19.3503   1
   1   7  -6 17.7189 4.10810   3
   1   7  -6 17.6569 4.04738   2
  -1  -7   6 19.5133 4.56986   2
  -1  -7   6 25.7450 4.64592   1
   0   7  -6 1499.94 67.3032   2
   0   7  -6 1564.96 66.2471   3
   0  -7   6 1421.51 66.2862   1
  -1   7  -6 3910.29 163.359   3
  -1   7  -6 3831.27 165.472   2
   1  -7   6 3740.71 164.880   1
  -2   7  -6 544.350 25.8255   3
  -2   7  -6 520.811 26.2393   3
  -2   7  -6 590.319 28.7394   2
   2  -7   6 643.709 29.2559   1
  -3   7  -6 1062.83 49.0137   3
  -3   7  -6 1161.34 52.1801   2
   3  -7   6 1179.15 53.3859   1
   3  -7   6 1108.82 49.1515   3
  -4   7  -6 605.164 31.0677   2
  -4   7  -6 559.907 32.5971   1
   4  -7   6 682.240 28.4909   3
   4  -7   6 624.700 33.4482   1
  -5   7  -6 2606.87 107.963   2
  -5   7  -6 2391.60 110.995   1
   5  -7   6 2311.25 105.137   3
   5  -7   6 2458.69 111.431   1
  -6   7  -6 4.86304 6.19891   1
  -6   7  -6 1.68802 3.70502   2
   6  -7   6 0.98033 5.78621   1
   6  -7   6 3.94005 3.33854   3
  -7   7  -6 147.211 11.5252   2
  -7   7  -6 183.954 19.6033   1
   7  -7   6 154.416 11.4461   3
   8   6  -6 9.64556 8.26995   3
   8   6  -6 7.23469 4.66583   2
  -8  -6   6 8.12922 4.51542   2
   7   6  -6 417.398 23.5883   2
   7   6  -6 422.469 29.6395   3
  -7  -6   6 437.278 25.6233   1
   6   6  -6 638.773 31.6871   2
   6   6  -6 651.153 37.9005   3
  -6  -6   6 633.933 33.6584   1
  -6  -6   6 650.086 31.9775   2
   5   6  -6 4268.38 188.753   3
   5   6  -6 4388.29 183.758   2
  -5  -6   6 4217.63 183.776   2
  -5  -6   6 4188.19 184.931   1
   4   6  -6 132.261 9.96938   2
   4   6  -6 148.362 13.1361   3
  -4  -6   6 148.419 10.9338   1
  -4  -6   6 141.616 10.3121   2
   3   6  -6 1428.67 61.7202   2
   3   6  -6 1359.22 63.7788   3
  -3  -6   6 1339.09 61.8740   1
  -3  -6   6 1358.55 61.7427   2
   2   6  -6 1743.14 79.5300   3
   2   6  -6 1827.93 78.8133   2
  -2  -6   6 1815.52 78.6040   1
  -2  -6   6 1726.58 78.5782   2
   1   6  -6 3936.30 171.783   3
   1   6  -6 4152.78 172.234   2
  -1  -6   6 4080.08 171.656   1
  -1  -6   6 3833.68 171.996   2
   0   6  -6 853.024 40.2185   2
   0   6  -6 869.620 38.8475   3
   0  -6   6 838.970 40.1368   2
   0  -6   6 880.861 39.6405   1
  -1   6  -6 640.843 30.3202   2
  -1   6  -6 616.295 27.9050   3
  -1   6  -6 570.101 27.5217   3
   1  -6   6 669.423 30.1529   1
  -2   6  -6 2149.08 97.9450   3
  -2   6  -6 2261.35 100.903   2
   2  -6   6 2502.24 101.587   1
  -3   6  -6 154.313 8.98930   3
  -3   6  -6 172.555 11.3131   2
   3  -6   6 168.432 12.1580   1
   3  -6   6 157.596 8.27917   3
  -4   6  -6 13.5855 4.29002   2
  -4   6  -6 4.04724 4.34217   1
   4  -6   6 14.5706 2.64920   3
   4  -6   6 13.2033 5.48840   1
  -5   6  -6 92.6334 10.8482   1
  -5   6  -6 103.691 9.30301   2
   5  -6   6 111.682 7.59171   3
   5  -6   6 95.2092 11.3931   1
  -6   6  -6 310.058 18.5033   2
  -6   6  -6 303.650 22.1888   1
   6  -6   6 373.496 18.1234   3
   6  -6   6 310.221 22.7768   1
  -7   6  -6 5.38233 6.53353   1
  -7   6  -6 12.5283 4.56798   2
   7  -6   6 14.1199 5.02741   3
   8   5  -6 3.21473 3.99329   2
  -8  -5   6 4.57785 4.06172   2
  -8  -5   6 4.11688 6.28087   1
   7   5  -6 172.529 17.7215   3
   7   5  -6 180.964 12.0097   2
  -7  -5   6 176.243 14.9982   1
  -7  -5   6 181.586 12.0340   2
   6   5  -6 1277.77 65.1155   3
   6   5  -6 1328.72 59.1289   2
  -6  -5   6 1301.00 61.6872   1
  -6  -5   6 1326.06 59.2326   2
   5   5  -6 65.4029 10.2241   3
   5   5  -6 70.6000 6.86271   2
  -5  -5   6 70.2261 6.88557   2
   4   5  -6 2663.78 119.247   3
   4   5  -6 2663.79 115.635   2
  -4  -5   6 2679.45 116.893   1
  -4  -5   6 2650.26 115.683   2
   3   5  -6 126.336 9.36812   2
   3   5  -6 159.351 11.7504   3
  -3  -5   6 148.096 10.3360   1
  -3  -5   6 153.725 9.66336   2
   2   5  -6 1599.02 70.4421   3
   2   5  -6 1652.60 69.6487   2
  -2  -5   6 1506.53 69.4878   1
  -2  -5   6 1523.33 69.4362   2
   1   5  -6 462.017 22.1143   2
   1   5  -6 445.339 21.5903   3
  -1  -5   6 448.371 21.9766   2
  -1  -5   6 400.826 21.4110   1
   0   5  -6 3222.69 131.704   3
   0   5  -6 3052.83 133.176   2
   0   5  -6 2863.47 130.742   3
   0  -5   6 3096.39 130.845   3
   0  -5   6 3179.37 132.815   1
  -1   5  -6 1131.84 47.8933   3
  -1   5  -6 1056.83 50.3453   2
  -1   5  -6 1124.53 47.7055   3
   1  -5   6 1134.21 50.3477   1
  -2   5  -6 1410.27 64.8404   2
   2  -5   6 1490.86 65.3154   1
  -3   5  -6 192.776 10.0265   3
  -3   5  -6 204.768 12.5477   2
   3  -5   6 209.872 9.60856   3
   3  -5   6 195.787 13.3175   1
  -4   5  -6 58.6735 8.03600   1
  -4   5  -6 34.6754 4.31305   3
  -4   5  -6 34.4708 5.54908   2
   4  -5   6 29.9320 3.61270   3
   4  -5   6 45.9370 7.74972   1
  -5   5  -6 223.939 17.2541   1
  -5   5  -6 274.779 15.4060   2
   5  -5   6 245.618 17.7104   1
  -6   5  -6 264.099 16.0386   2
  -6   5  -6 283.993 20.4038   1
   6  -5   6 283.625 15.7593   3
   6  -5   6 249.224 19.7915   1
  -7   5  -6 92.3055 8.69726   2
  -7   5  -6 84.4941 13.2788   1
   7  -5   6 95.6641 9.61697   3
   8  -5   6 11.0596 5.63245   3
   8   4  -6 515.686 36.0287   3
   8   4  -6 541.009 25.8949   2
  -8  -4   6 517.279 30.8715   1
  -8  -4   6 533.857 25.9057   2
   7   4  -6 244.539 20.3473   3
   7   4  -6 232.804 13.5614   2
  -7  -4   6 254.665 17.7085   1
  -7  -4   6 217.147 13.4526   2
   6   4  -6 1874.15 90.5944   3
   6   4  -6 1966.89 84.5806   2
  -6  -4   6 1998.48 84.6953   2
  -6  -4   6 1868.38 87.6119   1
   5   4  -6 164.329 10.2755   2
   5   4  -6 154.293 14.1766   3
  -5  -4   6 162.000 10.2256   2
  -5  -4   6 169.413 12.3903   1
   4   4  -6 580.673 32.2933   3
   4   4  -6 621.488 29.3050   2
  -4  -4   6 623.255 30.8762   1
  -4  -4   6 654.248 29.4983   2
   3   4  -6 23.1793 5.13085   3
   3   4  -6 11.5490 3.09055   2
  -3  -4   6 12.9104 3.15014   2
  -3  -4   6 11.2743 3.36647   1
   2   4  -6 112.542 9.95931   3
   2   4  -6 126.296 8.25439   2
  -2  -4   6 124.311 8.70623   1
  -2  -4   6 132.947 8.38452   2
   1   4  -6 920.841 41.4690   2
   1   4  -6 927.220 41.0506   3
  -1  -4   6 870.582 41.2779   1
  -1  -4   6 921.761 40.3682   3
   0  -4   6 1547.10 67.3158   3
   0  -4   6 1612.56 69.3852   1
  -1   4  -6 5600.40 236.365   2
   1  -4   6 5479.91 236.055   1
  -2   4  -6 520.770 26.0899   2
   2  -4   6 547.239 26.4393   1
  -3   4  -6 1610.70 71.9978   2
  -3   4  -6 1591.56 69.2169   3
   3  -4   6 1658.50 72.9890   1
  -4   4  -6 32.4748 6.40443   1
  -4   4  -6 28.4078 5.04252   2
  -4   4  -6 19.8272 3.02577   3
   4  -4   6 20.4613 5.32810   1
   4  -4   6 22.4394 3.32270   3
  -5   4  -6 1818.99 78.7944   1
  -5   4  -6 1843.25 75.6337   2
   5  -4   6 1463.09 77.2795   3
   5  -4   6 1619.97 77.8686   1
  -6   4  -6 189.358 16.0178   1
  -6   4  -6 170.009 12.0982   2
   6  -4   6 183.859 12.2734   3
   6  -4   6 186.299 15.8715   1
  -7   4  -6 148.654 15.4283   1
  -7   4  -6 156.301 11.0234   2
   7  -4   6 134.635 11.7191   3
  -8   4  -6 21.0183 5.29414   2
  -8   4  -6 17.3040 8.17788   1
   8  -4   6 22.3655 6.73174   3
   8   3  -6 10.5916 8.15503   3
  -8  -3   6 23.9847 7.86227   1
   7   3  -6 529.788 33.6033   3
   7   3  -6 585.566 26.6656   2
  -7  -3   6 565.257 31.4633   1
   6   3  -6 160.220 14.5450   3
   6   3  -6 134.264 8.86472   2
  -6  -3   6 145.089 9.04458   2
  -6  -3   6 132.746 12.0093   1
   5   3  -6 4115.80 175.033   2
   5   3  -6 3999.61 179.815   3
  -5  -3   6 4123.06 175.106   2
  -5  -3   6 4146.34 178.009   1
   4   3  -6 229.792 15.7960   3
   4   3  -6 235.126 12.8133   2
  -4  -3   6 240.392 13.0015   2
  -4  -3   6 253.347 14.9435   1
   3   3  -6 554.999 26.3692   3
   3   3  -6 493.545 23.8690   2
  -3  -3   6 463.210 24.7952   1
   2   3  -6 219.695 13.0414   3
   2   3  -6 233.700 12.4188   2
  -2  -3   6 235.605 13.1296   1
   1   3  -6 4005.71 169.791   2
   1   3  -6 4047.65 169.344   3
  -1  -3   6 3858.37 168.941   3
   0   3  -6 1315.69 58.2541   2
   0   3  -6 1320.89 56.2729   3
   0  -3   6 1249.09 57.7966   1
   0  -3   6 1362.65 56.1427   3
  -1   3  -6 4139.73 175.199   2
   1  -3   6 4036.78 174.768   1
  -2   3  -6 51.5271 5.35805   2
   2  -3   6 55.6684 5.62350   1
  -3   3  -6 26.4930 4.50918   2
  -3   3  -6 21.9116 2.30910   3
   3  -3   6 32.0258 5.49596   1
   3  -3   6 23.9488 2.71689   3
  -4   3  -6 493.543 24.2639   2
  -4   3  -6 445.133 25.4050   1
   4  -3   6 512.435 22.8808   3
   4  -3   6 451.660 25.4617   1
  -5   3  -6 59.4602 8.83367   1
  -5   3  -6 72.4184 7.16827   2
   5  -3   6 63.2009 6.46275   3
   5  -3   6 58.7629 9.53629   1
  -6   3  -6 75.3727 11.0370   1
  -6   3  -6 89.2978 8.64089   2
   6  -3   6 88.8971 8.61254   3
  -7   3  -6 5.69196 6.06243   1
   7  -3   6 5.22933 7.64939   3
  -8   3  -6 510.401 27.4295   2
  -8   3  -6 551.417 33.4487   1
   8  -3   6 551.906 30.2384   3
  -8  -2   6 4.18314 6.21228   1
   7   2  -6 108.606 6.92405   2
   7   2  -6 127.385 14.2381   3
  -7  -2   6 120.515 12.3089   1
   6   2  -6 234.463 12.2950   2
   6   2  -6 234.979 18.2196   3
  -6  -2   6 246.270 16.5435   1
   5   2  -6 452.154 27.3238   3
   5   2  -6 506.205 23.1814   2
  -5  -2   6 522.264 26.6371   1
   4   2  -6 2013.32 82.5824   2
   4   2  -6 1864.99 85.9374   3
  -4  -2   6 1835.10 84.7328   1
   3   2  -6 750.947 32.4876   2
   3   2  -6 798.388 35.0429   3
  -3  -2   6 594.966 33.3358   1
   2   2  -6 2879.59 121.934   2
   2   2  -6 3020.52 123.027   3
  -2  -2   6 2622.03 122.468   1
   1   2  -6 547.129 27.0720   2
   1   2  -6 531.729 25.1418   3
  -1  -2   6 604.455 26.0082   1
  -1  -2   6 505.023 25.0465   3
   0   2  -6 1879.66 79.2424   3
   0   2  -6 1879.57 81.1810   2
   0  -2   6 1946.48 79.5118   3
   0  -2   6 1728.16 84.3579   1
  -1   2  -6 2344.09 102.683   2
   1  -2   6 2393.41 102.343   1
  -3   2  -6 23.6696 4.26955   2
  -3   2  -6 27.7411 2.59342   3
   3  -2   6 28.4242 5.14167   1
   3  -2   6 22.3748 3.20378   3
  -4   2  -6 522.275 25.8501   1
  -4   2  -6 481.126 24.0756   2
   4  -2   6 434.075 23.0436   3
   4  -2   6 485.191 25.3665   1
  -5   2  -6 89.3054 7.99347   2
  -5   2  -6 87.7431 9.61861   1
   5  -2   6 77.2926 9.23975   1
   5  -2   6 87.8527 7.87782   3
  -6   2  -6 35.8934 5.91897   2
  -6   2  -6 48.6061 9.03753   1
   6  -2   6 25.8427 5.87683   3
  -7   2  -6 101.797 9.34461   2
  -7   2  -6 105.632 12.7516   1
   7  -2   6 106.461 10.9666   3
  -8   2  -6 62.9636 17.9059   1
  -8   2  -6 57.8049 7.54636   2
   8  -2   6 44.7180 8.78805   3
   8   1  -6 740.407 41.9630   3
  -8  -1   6 713.910 39.7555   1
   7   1  -6 20.0426 7.50336   3
  -7  -1   6 15.8753 6.57835   1
   6   1  -6 903.482 39.2583   2
   6   1  -6 854.653 38.9784   2
   6   1  -6 884.815 45.9618   3
  -6  -1   6 960.137 44.9767   1
   5   1  -6 50.8736 4.21470   2
   5   1  -6 68.8525 8.71855   3
   5   1  -6 49.9628 3.79420   2
  -5  -1   6 50.3312 6.85378   1
   4   1  -6 2147.06 88.6785   2
   4   1  -6 2045.54 92.2541   3
  -4  -1   6 1984.76 91.2256   1
   3   1  -6 480.387 21.9647   2
   3   1  -6 449.690 23.9742   3
  -3  -1   6 476.499 23.6240   1
   2   1  -6 375.037 17.8882   2
   2   1  -6 373.837 18.8544   3
  -2  -1   6 358.908 18.6127   1
   1   1  -6 104.892 6.43720   2
   1   1  -6 86.9593 5.91100   3
  -1  -1   6 77.1551 5.79497   3
   0   1  -6 182.483 10.5064   2
  -2   1  -6 277.867 15.7921   2
   2  -1   6 313.023 14.3560   3
   2  -1   6 302.363 15.6474   1
  -3   1  -6 908.622 39.9208   3
  -3   1  -6 875.553 41.8264   2
   3  -1   6 879.837 42.0702   1
   3  -1   6 920.513 40.8987   3
   3  -1   6 954.223 40.1744   3
  -4   1  -6 206.708 12.6043   2
  -4   1  -6 177.335 12.9012   1
   4  -1   6 222.505 12.8365   3
   4  -1   6 200.069 13.1133   1
  -5   1  -6 1477.78 70.6523   1
  -5   1  -6 1597.28 69.3407   2
   5  -1   6 1544.45 69.7305   3
  -6   1  -6 25.6052 8.31625   2
  -6   1  -6 38.6802 7.67784   1
   6  -1   6 38.9289 7.10343   3
  -7   1  -6 287.802 17.2857   2
  -7   1  -6 294.958 20.5187   1
   7  -1   6 283.352 21.6057   3
   9   0  -6 394.316 28.4605   3
  -9   0   6 355.488 26.0168   1
   8   0  -6 17.6724 8.33444   3
  -8   0   6 34.4713 8.87893   1
   7   0  -6 403.090 26.3263   3
  -7   0   6 413.383 25.1459   1
   6   0  -6 335.165 21.3518   3
  -6   0   6 301.660 19.8182   1
   5   0  -6 2629.48 117.676   3
   5   0  -6 2688.96 112.078   2
  -5   0   6 2587.75 116.548   1
   4   0  -6 167.611 9.00524   2
   4   0  -6 172.440 8.81628   2
   4   0  -6 175.507 12.4963   3
  -4   0   6 176.685 11.8994   1
   3   0  -6 2734.70 118.690   3
   3   0  -6 2748.27 116.194   2
  -3   0   6 2667.16 118.084   1
   2   0  -6 922.991 52.0720   3
   2   0  -6 1109.84 46.3668   2
  -2   0   6 1091.41 47.2640   1
   1   0  -6 3656.61 156.236   2
   1   0  -6 3466.72 155.923   3
  -1   0   6 3847.86 156.420   1
   0   0  -6 390.250 17.9754   3
   0   0   6 391.793 18.4625   1
   0   0   6 381.293 18.3129   3
  -1   0  -6 2240.88 101.650   2
   1   0   6 2361.90 100.179   3
   1   0   6 2571.44 101.080   1
   1   0   6 2210.02 100.208   3
  -2   0  -6 840.718 40.0637   2
   2   0   6 870.208 38.5412   3
   2   0   6 909.590 39.0377   3
  -3   0  -6 86.2087 7.36309   1
  -3   0  -6 69.1641 6.77032   2
   3   0   6 81.5898 6.96455   1
   3   0   6 89.1133 6.76206   3
  -4   0  -6 16.9446 4.32565   1
  -4   0  -6 27.0934 4.89634   2
   4   0   6 30.3809 5.33764   1
   4   0   6 28.5704 5.20186   3
  -5   0  -6 427.454 21.5090   2
  -5   0  -6 391.875 22.1209   1
   5   0   6 372.810 21.9546   3
  -6   0  -6 373.209 22.5734   1
  -6   0  -6 395.503 21.1403   2
   6   0   6 364.819 22.4780   3
  -7   0  -6 56.9247 7.69586   2
  -7   0  -6 61.7056 9.90856   1
   7   0   6 65.4836 10.1613   3
   9  -1  -6 271.110 23.5765   3
  -8   1   6 4.69511 6.67213   1
   7  -1  -6 1.72581 6.04746   3
  -7   1   6 8.83329 5.84811   1
   6  -1  -6 52.0550 8.76019   3
  -6   1   6 43.6409 7.81952   1
   5  -1  -6 304.389 19.5295   3
  -5   1   6 319.201 18.8946   1
   4  -1  -6 1602.04 73.3638   3
   4  -1  -6 1607.99 69.2853   2
   4  -1  -6 1633.88 69.2656   2
  -4   1   6 1585.00 72.6029   1
  -4   1   6 1635.13 69.3405   2
   3  -1  -6 357.943 16.5263   2
   3  -1  -6 369.041 19.1227   3
  -3   1   6 312.506 18.0517   1
   2  -1  -6 2227.01 99.2962   3
   2  -1  -6 2283.64 98.2108   2
  -2   1   6 2338.39 99.1717   1
   1  -1  -6 227.085 11.4786   3
   1  -1  -6 186.768 11.5103   2
  -1   1   6 206.866 11.1570   1
   0  -1  -6 7887.82 334.417   2
  -1  -1  -6 243.611 11.5712   3
  -1  -1  -6 183.249 11.8932   2
   1   1   6 241.301 11.5706   3
   1   1   6 203.524 11.1058   1
  -2  -1  -6 1764.46 80.9804   2
   2   1   6 1814.89 80.2151   3
   2   1   6 1947.56 80.0619   1
  -3  -1  -6 26.2716 4.20432   1
  -3  -1  -6 20.6498 4.44783   2
   3   1   6 24.1347 4.54496   3
   3   1   6 22.0969 3.90200   1
  -4  -1  -6 57.3205 6.77921   2
  -4  -1  -6 78.7950 7.09268   1
   4   1   6 58.3911 7.27876   3
  -5  -1  -6 14.3443 4.74160   2
  -5  -1  -6 9.84631 4.23206   1
   5   1   6 16.8996 5.43244   3
  -6  -1  -6 84.0232 9.11419   2
  -6  -1  -6 98.6951 10.0560   1
   6   1   6 85.7809 10.6931   3
  -7  -1  -6 46.1087 8.61824   1
  -7  -1  -6 53.4173 7.57030   2
   7   1   6 59.7497 10.3777   3
   8  -2  -6 626.492 37.7649   3
  -8   2   6 674.852 37.3381   1
   7  -2  -6 4.91719 6.15840   3
  -7   2   6 9.71437 6.00295   1
   6  -2  -6 471.287 27.2653   3
  -6   2   6 454.335 26.3854   1
   5  -2  -6 718.432 36.1848   3
  -5   2   6 677.644 35.1116   1
   4  -2  -6 1125.39 49.0700   2
   4  -2  -6 1126.84 53.1870   3
  -4   2   6 1108.88 49.2600   2
  -4   2   6 1179.98 52.7077   1
   3  -2  -6 8.43371 3.30311   3
   3  -2  -6 10.4886 2.26701   2
  -3   2   6 13.6206 3.52624   1
   2  -2  -6 4.50241 2.62356   3
   2  -2  -6 3.95240 1.91792   2
   1  -2  -6 793.327 35.8406   2
   1  -2  -6 823.565 36.0663   3
  -1   2   6 746.673 35.2768   1
  -1  -2  -6 3397.66 152.047   1
  -1  -2  -6 3450.01 153.699   2
  -1  -2  -6 3890.84 153.418   3
   1   2   6 3700.62 152.065   1
   1   2   6 3444.59 153.388   3
  -2  -2  -6 2428.73 105.206   1
  -2  -2  -6 2523.01 106.830   2
   2   2   6 2481.84 105.112   1
   2   2   6 2362.35 106.184   3
  -3  -2  -6 1057.87 48.0664   2
   3   2   6 1026.18 48.1138   3
  -4  -2  -6 431.926 21.0561   1
  -4  -2  -6 386.561 21.5064   2
   4   2   6 391.759 22.3654   3
  -5  -2  -6 2608.90 119.139   1
  -5  -2  -6 2791.34 119.660   2
   5   2   6 2771.28 121.592   3
  -6  -2  -6 2.16876 4.19258   1
  -6  -2  -6 1.41273 4.01380   2
   6   2   6 1.00521 5.00342   3
  -7  -2  -6 722.773 37.0550   1
  -7  -2  -6 687.874 35.8273   2
   7   2   6 709.665 39.6388   3
   8  -3  -6 9.92592 7.84355   3
  -8   3   6 17.9694 7.96299   1
   7  -3  -6 182.281 16.5819   3
  -7   3   6 222.893 17.0474   1
   6  -3  -6 1309.86 61.5813   3
  -6   3   6 1239.88 60.7021   1
   5  -3  -6 140.730 12.2686   3
  -5   3   6 140.597 11.5036   1
   4  -3  -6 173.648 12.4937   3
   4  -3  -6 178.212 8.85923   2
  -4   3   6 175.146 11.9798   1
  -4   3   6 163.768 9.07779   2
   3  -3  -6 425.945 20.2101   2
   3  -3  -6 448.940 22.8156   3
  -3   3   6 423.057 22.0097   1
   2  -3  -6 8.81165 3.38187   3
   2  -3  -6 4.79061 2.23416   2
  -2   3   6 3.46118 2.32612   1
   1  -3  -6 5073.08 219.650   3
   1  -3  -6 5012.53 219.237   2
  -1   3   6 5360.34 218.642   1
   0  -3  -6 1719.32 72.9004   2
   0  -3  -6 1618.75 72.6434   3
   0  -3  -6 1662.32 71.2019   1
   0   3   6 1660.71 70.9074   1
   0   3   6 1609.13 72.5223   3
  -1  -3  -6 537.713 22.4043   1
  -1  -3  -6 452.668 23.9452   3
  -1  -3  -6 496.736 24.4951   2
   1   3   6 457.987 23.9521   3
   1   3   6 523.426 22.2447   1
  -2  -3  -6 529.478 26.0531   2
  -2  -3  -6 533.265 23.7012   1
  -2  -3  -6 522.024 23.8964   1
   2   3   6 512.829 26.0149   3
  -3  -3  -6 284.173 16.7673   2
  -3  -3  -6 320.267 15.2275   1
   3   3   6 278.381 17.3111   3
  -4  -3  -6 353.719 19.7536   2
  -4  -3  -6 337.823 18.2283   1
   4   3   6 373.410 21.2838   3
  -5  -3  -6 28.7513 6.00315   2
  -5  -3  -6 31.7916 5.36075   1
  -6  -3  -6 500.499 27.0468   1
  -6  -3  -6 501.615 27.5797   2
   6   3   6 540.670 31.0550   3
  -7  -3  -6 191.743 14.5279   2
  -7  -3  -6 196.605 14.7305   1
   7   3   6 170.618 17.5232   3
   7  -4  -6 350.946 23.5229   3
  -7   4   6 363.313 23.6551   1
   6  -4  -6 606.214 33.0615   3
  -6   4   6 604.616 32.7838   1
   5  -4  -6 42.0262 3.06055   2
   5  -4  -6 42.1175 7.46017   3
  -5   4   6 49.0683 7.48079   1
  -5   4   6 41.7771 3.91721   2
   4  -4  -6 17.4697 2.62110   2
   4  -4  -6 14.1346 4.87182   3
  -4   4   6 19.7331 4.97734   1
   3  -4  -6 748.119 36.9180   3
   3  -4  -6 778.308 34.5847   2
  -3   4   6 777.471 36.2848   1
   2  -4  -6 2050.73 91.5182   3
   2  -4  -6 2099.95 90.2433   2
  -2   4   6 2094.21 90.4712   1
   1  -4  -6 442.200 22.7782   3
   1  -4  -6 443.248 21.0581   1
   1  -4  -6 443.899 22.1523   2
  -1   4   6 484.976 21.1455   1
   0  -4  -6 4216.82 175.462   2
   0  -4  -6 4183.72 175.687   3
   0  -4  -6 4021.18 173.092   1
   0   4   6 3842.91 172.732   1
   0   4   6 4181.68 175.516   3
  -1  -4  -6 242.083 12.0002   1
  -1  -4  -6 264.853 15.0763   2
  -1  -4  -6 282.287 15.3787   3
  -1  -4  -6 239.877 11.9138   1
   1   4   6 315.694 15.6724   3
  -2  -4  -6 787.898 35.3845   1
  -2  -4  -6 841.733 35.3839   1
  -2  -4  -6 850.452 38.7151   2
   2   4   6 772.845 38.7211   3
  -3  -4  -6 40.3352 3.59338   1
  -3  -4  -6 29.8094 5.31286   2
  -3  -4  -6 35.1350 3.84567   1
   3   4   6 43.8651 7.12460   3
  -4  -4  -6 97.2026 9.37272   2
   4   4   6 105.300 11.0699   3
  -5  -4  -6 41.9467 5.88773   1
  -5  -4  -6 39.2230 6.89206   2
   5   4   6 47.8293 9.01693   3
  -6  -4  -6 512.798 26.0394   1
  -6  -4  -6 501.015 27.4541   2
   6   4   6 479.765 30.5179   3
   8  -5  -6 401.449 27.0384   3
  -8   5   6 438.496 28.1167   1
   7  -5  -6 104.951 12.9277   3
  -7   5   6 112.526 12.6897   1
   6  -5  -6 873.108 43.3340   3
  -6   5   6 810.008 42.6411   1
   5  -5  -6 516.408 27.2087   3
   5  -5  -6 502.860 21.6774   2
  -5   5   6 412.242 21.7184   2
  -5   5   6 499.352 26.4821   1
   4  -5  -6 630.787 32.2720   3
   4  -5  -6 645.964 28.9928   2
  -4   5   6 612.615 31.4598   1
   3  -5  -6 219.991 14.0276   3
   3  -5  -6 210.661 11.3741   2
  -3   5   6 186.649 12.2561   1
   2  -5  -6 606.797 28.0685   2
   2  -5  -6 601.233 29.4783   3
  -2   5   6 575.176 27.7502   1
   1  -5  -6 18.9379 2.55924   1
   1  -5  -6 24.2354 4.19565   2
   1  -5  -6 11.0719 4.06757   3
  -1   5   6 20.1340 2.74933   1
  -1  -5  -6 837.234 40.9375   2
   1   5   6 913.636 41.7058   3
  -2  -5  -6 459.432 23.6893   2
   2   5   6 441.074 24.3641   3
  -3  -5  -6 1001.65 45.7721   1
  -3  -5  -6 1097.39 50.1275   2
   3   5   6 1108.79 52.0955   3
  -4  -5  -6 4.49185 4.36072   2
  -4  -5  -6 5.66840 2.30346   1
   4   5   6 -0.5435 4.78898   3
  -5  -5  -6 400.297 23.3301   2
  -5  -5  -6 407.057 20.2338   1
   5   5   6 404.038 26.1251   3
  -6  -5  -6 14.1878 4.35780   1
  -6  -5  -6 12.4321 5.63477   2
   6   5   6 20.5356 8.31208   3
   8  -6  -6 -1.7715 5.96450   3
  -8   6   6 -0.0151 5.97796   1
   7  -6  -6 15.3578 7.04157   3
  -7   6   6 21.7832 7.48609   1
   6  -6  -6 27.3362 7.27207   3
  -6   6   6 51.1674 8.70310   1
   5  -6  -6 984.048 43.1940   2
   5  -6  -6 1020.23 48.3534   3
  -5   6   6 937.712 51.7254   1
   4  -6  -6 84.7788 9.35178   3
   4  -6  -6 77.9186 6.18386   2
  -4   6   6 79.9220 8.42761   1
   3  -6  -6 5604.80 235.828   3
   3  -6  -6 5471.25 233.384   2
  -3   6   6 5367.67 234.274   1
   2  -6  -6 46.8669 6.97838   3
   2  -6  -6 55.2548 5.68485   2
  -2   6   6 56.3703 5.20227   1
   1  -6  -6 265.457 15.1157   2
   1  -6  -6 256.130 16.1415   3
  -1   6   6 262.041 15.9408   3
  -1   6   6 286.038 12.7017   1
   0  -6  -6 44.7028 6.96724   3
   0  -6  -6 29.2143 5.19144   2
   0   6   6 46.7058 6.63611   3
  -1  -6  -6 227.472 14.4417   2
   1   6   6 236.141 15.1323   3
  -2  -6  -6 111.789 9.49817   2
   2   6   6 83.7335 10.0004   3
  -3  -6  -6 605.858 31.2749   2
   3   6   6 606.840 33.1013   3
  -4  -6  -6 0.69525 4.30546   2
   4   6   6 9.81786 6.05967   3
  -5  -6  -6 52.9818 8.39656   2
   5   6   6 59.9096 11.3052   3
   7  -7  -6 238.279 18.9566   3
  -7   7   6 220.511 18.1919   1
   6  -7  -6 41.5120 8.96350   3
  -6   7   6 50.3225 8.84660   1
   5  -7  -6 163.262 9.41053   2
   5  -7  -6 154.762 13.5555   3
  -5   7   6 165.721 13.2045   1
   4  -7  -6 717.425 36.0420   3
   4  -7  -6 672.365 32.6014   2
  -4   7   6 730.391 35.0594   1
   3  -7  -6 1944.48 90.1170   3
   3  -7  -6 2046.02 88.0737   2
  -3   7   6 2041.63 88.5223   1
   2  -7  -6 697.273 32.8348   2
   2  -7  -6 683.594 34.4505   3
  -2   7   6 679.267 31.3566   1
   1  -7  -6 4.27305 3.38341   2
   1  -7  -6 7.49703 4.42430   3
  -1   7   6 3.65886 3.93229   3
   0  -7  -6 112.273 10.6608   3
   0  -7  -6 114.069 9.65987   2
   0   7   6 127.449 10.7864   3
  -1  -7  -6 28.4325 5.76131   2
   1   7   6 23.0190 6.12609   3
  -2  -7  -6 590.113 30.3104   2
   2   7   6 576.152 31.7309   3
  -3  -7  -6 30.1089 6.16731   2
   3   7   6 47.6545 9.42312   3
  -4  -7  -6 140.937 12.2367   2
   4   7   6 118.640 14.3806   3
  -5  -7  -6 2.02981 4.94643   2
   5   7   6 3.45288 6.77221   3
   7  -8  -6 39.4477 9.39887   3
  -7   8   6 48.0386 9.50693   1
   6  -8  -6 87.6968 19.1196   3
  -6   8   6 94.7028 11.3479   1
   5  -8  -6 8.07359 3.19195   2
   5  -8  -6 11.0831 6.09321   3
  -5   8   6 8.06641 5.03728   1
   4  -8  -6 666.493 34.6093   3
   4  -8  -6 656.008 31.4892   2
  -4   8   6 671.699 33.1803   1
   3  -8  -6 114.909 11.8058   3
   3  -8  -6 141.300 9.90008   2
  -3   8   6 145.169 9.76316   1
   2  -8  -6 49.4232 10.3737   2
   2  -8  -6 52.6969 8.37056   3
  -2   8   6 48.6298 4.58242   1
  -2   8   6 51.6876 7.93619   3
   1  -8  -6 72.1323 7.97352   2
   1  -8  -6 61.8095 9.34452   3
  -1   8   6 64.4004 8.58074   3
   0  -8  -6 70.1640 10.0501   3
   0  -8  -6 68.2577 8.06178   2
   0   8   6 74.0159 9.33621   3
  -1  -8  -6 578.848 30.7053   2
   1   8   6 617.182 32.4658   3
  -2  -8  -6 695.990 34.9804   2
   2   8   6 665.255 36.7339   3
  -3  -8  -6 103.688 11.2510   2
   3   8   6 108.816 13.5375   3
  -4  -8  -6 1.81180 5.15784   2
   4   8   6 2.58372 6.73747   3
   6  -9  -6 45.8508 9.38750   3
  -6   9   6 66.1147 9.90384   1
   5  -9  -6 1117.17 51.6155   2
   5  -9  -6 1179.61 59.1596   3
  -5   9   6 1139.24 54.5592   1
   4  -9  -6 24.5481 7.30672   3
   4  -9  -6 33.2107 5.36621   2
  -4   9   6 28.0789 5.80757   1
   3  -9  -6 718.357 33.8940   2
   3  -9  -6 691.612 36.3415   3
  -3   9   6 681.151 32.7945   1
   2  -9  -6 248.477 15.3545   2
   2  -9  -6 259.114 17.4344   3
  -2   9   6 233.161 11.9313   1
  -2   9   6 251.005 17.0874   3
   1  -9  -6 1323.16 63.8190   3
   1  -9  -6 1328.33 62.0987   2
  -1   9   6 1403.67 63.6533   3
   0  -9  -6 12.1001 6.46544   3
   0  -9  -6 21.1161 5.82020   2
   0   9   6 26.6911 7.21330   3
  -1  -9  -6 361.593 21.9292   2
   1   9   6 383.794 23.8315   3
  -2  -9  -6 49.9398 8.16458   2
   2   9   6 50.2138 10.1071   3
  -3  -9  -6 51.7599 8.57670   2
   3   9   6 63.8427 12.2943   3
   5 -10  -6 12.2567 7.22145   3
   5 -10  -6 9.01826 4.42314   2
  -5  10   6 17.6650 5.83911   1
   4 -10  -6 48.6424 9.74715   3
   4 -10  -6 35.7983 5.96409   2
  -4  10   6 42.2912 6.52699   1
   3 -10  -6 43.6626 9.00580   3
   3 -10  -6 51.3785 7.18136   2
  -3  10   6 61.8512 9.64491   3
  -3  10   6 54.6987 5.70373   1
   2 -10  -6 272.649 16.8461   2
   2 -10  -6 277.461 19.2186   3
  -2  10   6 257.051 18.3777   3
   1 -10  -6 5.08018 4.56818   2
   1 -10  -6 3.73509 5.78761   3
  -1  10   6 5.13108 5.72095   3
   0 -10  -6 271.477 18.2558   2
   0  10   6 302.639 20.1445   3
  -1 -10  -6 20.2168 6.30556   2
   1  10   6 30.2394 8.56833   3
  -2 -10  -6 784.727 40.5358   2
   2  10   6 787.625 43.2751   3
   4 -11  -6 243.271 19.3122   3
  -4  11   6 252.213 15.8471   1
   3 -11  -6 32.1461 8.92622   3
   3 -11  -6 45.3515 7.39958   2
  -3  11   6 39.4048 8.70180   3
   2 -11  -6 94.2517 12.9174   3
   2 -11  -6 89.3632 10.2385   2
  -2  11   6 114.714 12.6378   3
   1 -11  -6 1.89871 6.49851   3
   1 -11  -6 -4.9595 4.03313   2
  -1  11   6 -2.0547 5.38953   3
   0 -11  -6 16.6483 6.83473   2
   0  11   6 27.9157 8.14972   3
  -1 -11  -6 156.703 14.3044   2
   1  11   6 190.939 17.2752   3
   1  14  -7 385.856 25.0105   2
   1  14  -7 392.165 26.3164   3
  -1 -14   7 399.194 25.4413   2
  -1 -14   7 351.562 21.9878   1
   0  14  -7 56.7338 10.5460   2
   0  14  -7 77.1144 11.4527   3
   0 -14   7 49.8477 8.77789   1
   0 -14   7 53.0339 10.4172   2
  -1  14  -7 29.0446 7.40237   3
  -1  14  -7 12.4208 6.68216   2
   1 -14   7 14.7806 7.47940   2
   1 -14   7 17.8034 6.82104   1
  -2  14  -7 39.9107 8.03272   3
  -2  14  -7 18.2269 7.59741   2
   2 -14   7 38.2579 9.24005   1
   2 -14   7 32.5358 9.30533   2
   3  13  -7 208.007 20.6804   3
   3  13  -7 227.497 17.8066   2
  -3 -13   7 246.155 15.7967   1
  -3 -13   7 227.079 18.6758   2
   2  13  -7 24.6275 7.38583   2
   2  13  -7 11.0640 7.46988   3
  -2 -13   7 26.6179 8.15383   2
  -2 -13   7 32.7751 6.91181   1
   1  13  -7 147.074 14.7702   2
   1  13  -7 148.468 15.3377   3
  -1 -13   7 149.072 12.7684   1
  -1 -13   7 170.199 15.1895   2
   0  13  -7 22.0601 7.24193   2
   0  13  -7 33.2103 8.20396   3
   0 -13   7 25.2185 7.96966   2
   0 -13   7 29.4314 7.17722   1
  -1  13  -7 233.486 17.9094   3
  -1  13  -7 269.569 19.8810   2
   1 -13   7 293.629 20.6175   2
   1 -13   7 316.480 19.5369   1
  -2  13  -7 27.3290 7.82882   2
  -2  13  -7 29.5211 6.48586   3
   2 -13   7 40.6064 8.95438   2
   2 -13   7 32.6839 8.20118   1
  -3  13  -7 39.7976 6.70078   3
  -3  13  -7 12.4920 6.64331   2
  -3  13  -7 31.1330 8.20738   1
   3 -13   7 20.2422 7.85298   1
  -4  13  -7 23.4821 8.28742   1
  -4  13  -7 34.0874 5.96164   3
  -4  13  -7 17.2736 6.98497   2
   4 -13   7 26.3084 9.00912   1
   4  12  -7 227.668 17.2029   2
   4  12  -7 212.558 21.0181   3
  -4 -12   7 216.467 17.6931   2
  -4 -12   7 221.138 15.3486   1
   3  12  -7 401.207 24.7616   2
   3  12  -7 409.299 28.1222   3
  -3 -12   7 394.529 22.4568   1
  -3 -12   7 425.154 25.6918   2
   2  12  -7 51.1809 8.73487   2
   2  12  -7 66.6198 11.0419   3
  -2 -12   7 52.9389 8.22357   1
  -2 -12   7 54.0169 9.84129   2
   1  12  -7 590.183 31.9173   2
   1  12  -7 576.883 32.5454   3
  -1 -12   7 546.978 29.5246   1
  -1 -12   7 590.760 32.0461   2
   0  12  -7 1644.09 78.8418   3
   0  12  -7 1721.14 78.6282   2
   0 -12   7 1637.09 78.5098   2
   0 -12   7 1721.87 76.7171   1
  -1  12  -7 1046.94 51.6784   3
  -1  12  -7 1082.54 53.4430   2
   1 -12   7 1065.60 51.9438   1
   1 -12   7 1170.68 54.1902   2
  -2  12  -7 717.265 38.2008   2
  -2  12  -7 723.568 35.8397   3
   2 -12   7 741.622 38.0551   1
  -3  12  -7 1.33253 3.50471   3
  -3  12  -7 4.09574 5.42889   2
   3 -12   7 5.39860 6.15663   1
  -4  12  -7 162.645 14.0911   2
  -4  12  -7 120.950 10.2400   3
  -4  12  -7 148.926 14.8132   1
   4 -12   7 171.094 16.1703   1
  -5  12  -7 28.3263 7.29399   2
  -5  12  -7 23.7387 4.92271   3
  -5  12  -7 15.9006 7.47433   1
   5 -12   7 15.2295 8.38238   1
   5 -12   7 17.8019 5.01050   3
   5  11  -7 310.688 20.3641   2
   5  11  -7 277.148 34.4198   3
  -5 -11   7 293.471 22.1536   2
  -5 -11   7 283.867 18.7336   1
   4  11  -7 348.236 21.9411   2
   4  11  -7 364.567 26.3654   3
  -4 -11   7 341.113 20.4243   1
  -4 -11   7 344.465 22.2892   2
   3  11  -7 6.36094 6.82891   3
   3  11  -7 14.0290 5.87072   2
  -3 -11   7 4.55182 5.65801   2
  -3 -11   7 11.5040 5.05683   1
   2  11  -7 134.066 12.2900   2
   1  11  -7 51.7093 8.52091   2
   1  11  -7 58.8376 9.22189   3
  -1 -11   7 39.0003 6.76006   1
  -1 -11   7 51.4750 8.41692   2
   0  11  -7 78.1179 9.35871   3
   0  11  -7 71.7057 9.77705   2
   0 -11   7 61.4539 8.87072   1
   0 -11   7 64.7120 9.33168   2
  -1  11  -7 140.505 13.0519   2
  -1  11  -7 150.916 11.7568   3
   1 -11   7 157.472 13.5024   2
   1 -11   7 159.624 12.9714   1
  -2  11  -7 134.181 10.1077   3
  -2  11  -7 137.483 12.5389   2
   2 -11   7 115.740 12.2140   1
  -3  11  -7 177.586 14.9063   2
  -3  11  -7 184.943 11.9377   3
   3 -11   7 208.141 16.0973   1
  -4  11  -7 622.084 29.8041   3
  -4  11  -7 622.370 33.5474   2
  -4  11  -7 601.593 34.7537   1
   4 -11   7 645.738 35.6229   1
  -5  11  -7 83.2366 11.0264   2
  -5  11  -7 87.2524 7.67589   3
   5 -11   7 88.8310 8.12512   3
   6  10  -7 132.272 18.5881   3
   6  10  -7 157.468 14.0200   2
  -6 -10   7 152.940 13.4614   1
  -6 -10   7 167.373 14.2379   2
   5  10  -7 355.171 21.2701   2
   5  10  -7 323.855 25.7108   3
  -5 -10   7 337.535 21.5944   2
  -5 -10   7 328.029 20.3239   1
   4  10  -7 103.370 10.6336   2
   4  10  -7 97.2533 13.9565   3
  -4 -10   7 89.9571 10.0640   1
  -4 -10   7 95.0255 10.5589   2
   3  10  -7 653.573 34.5695   2
   3  10  -7 642.439 37.0803   3
  -3 -10   7 717.250 35.4918   2
  -3 -10   7 671.501 33.3001   1
   2  10  -7 1823.27 80.7250   2
   2  10  -7 1775.98 82.0238   3
  -2 -10   7 1741.92 80.6289   1
  -2 -10   7 1715.23 80.6840   2
   1  10  -7 672.692 34.3026   3
   1  10  -7 669.629 34.1031   2
  -1 -10   7 598.501 37.5816   1
  -1 -10   7 694.043 34.5109   2
   0  10  -7 255.563 16.4297   2
   0  10  -7 230.559 15.1362   3
   0 -10   7 249.918 19.7045   1
   0 -10   7 220.105 16.1593   2
  -1  10  -7 669.849 34.6675   2
  -1  10  -7 598.101 32.1734   3
   1 -10   7 754.013 35.3093   2
   1 -10   7 674.739 33.6670   1
  -2  10  -7 194.572 12.0602   3
  -2  10  -7 203.894 14.8186   2
   2 -10   7 198.837 14.8852   1
  -3  10  -7 17.7368 3.81296   3
  -3  10  -7 29.3113 6.89627   2
   3 -10   7 21.7349 7.25303   1
  -4  10  -7 889.591 40.3145   3
  -4  10  -7 915.212 44.3342   2
  -4  10  -7 829.993 45.4343   1
   4 -10   7 909.560 46.3420   1
   4 -10   7 895.433 40.4890   3
  -5  10  -7 39.5209 7.70219   2
  -5  10  -7 33.1080 4.76435   3
  -5  10  -7 46.1843 9.99210   1
   5 -10   7 37.2515 5.27785   3
   5 -10   7 43.2779 9.87512   1
  -6  10  -7 49.7221 11.0897   1
  -6  10  -7 55.4114 8.73158   2
   6 -10   7 67.4172 7.13952   3
   6 -10   7 49.5084 11.3713   1
   6   9  -7 54.4893 8.60508   2
   6   9  -7 31.2102 11.2304   3
  -6  -9   7 44.3056 8.47758   1
  -6  -9   7 62.9240 9.31649   2
   5   9  -7 42.1012 10.6325   3
   5   9  -7 50.2593 7.82579   2
  -5  -9   7 43.3176 7.78717   1
  -5  -9   7 60.0620 8.99955   2
   4   9  -7 16.1928 7.03985   3
   4   9  -7 13.4475 5.34598   2
  -4  -9   7 18.3825 5.41771   1
  -4  -9   7 18.3873 5.90270   2
   3   9  -7 494.207 25.6894   2
   3   9  -7 465.299 31.0663   3
  -3  -9   7 451.432 28.3398   1
  -3  -9   7 450.940 25.7385   2
   2   9  -7 1273.14 58.9942   2
   2   9  -7 1248.99 59.9861   3
  -2  -9   7 1245.03 57.5896   1
  -2  -9   7 1290.28 59.1287   2
   1   9  -7 22.8720 5.25278   2
   1   9  -7 25.8567 5.64615   3
  -1  -9   7 20.7457 5.66626   2
  -1  -9   7 17.0743 4.60099   1
   0   9  -7 2287.11 99.0371   2
   0   9  -7 2144.77 97.4817   3
   0  -9   7 2220.27 98.9433   2
   0  -9   7 2205.87 97.5987   1
  -1   9  -7 1391.07 65.4910   2
  -1   9  -7 1382.59 63.0583   3
   1  -9   7 1474.91 65.0694   1
   1  -9   7 1408.87 65.6808   2
  -2   9  -7 146.253 11.8349   2
   2  -9   7 134.996 11.6472   1
  -3   9  -7 6.24253 3.99979   3
  -3   9  -7 -1.3839 3.86189   2
   3  -9   7 5.09178 5.12081   1
  -4   9  -7 490.925 25.6597   3
  -4   9  -7 541.883 31.3041   1
  -4   9  -7 589.840 30.0738   2
   4  -9   7 581.151 27.4681   3
   4  -9   7 598.040 32.2625   1
  -5   9  -7 46.5759 7.95277   2
  -5   9  -7 41.9991 4.98501   3
  -5   9  -7 60.1643 10.3656   1
   5  -9   7 35.1351 5.07980   3
   5  -9   7 34.7675 8.93897   1
  -6   9  -7 7.90812 5.31432   2
  -6   9  -7 13.8827 11.8093   1
   6  -9   7 10.5404 8.45339   1
   6  -9   7 8.15540 3.56376   3
   7   8  -7 17.4059 9.68187   3
   7   8  -7 2.63681 5.02515   2
  -7  -8   7 20.3685 6.85228   1
  -7  -8   7 11.7538 5.38582   2
   6   8  -7 668.261 39.3203   3
   6   8  -7 649.343 33.0871   2
  -6  -8   7 632.919 33.9692   1
  -6  -8   7 621.141 33.3287   2
   5   8  -7 524.766 32.6244   3
   5   8  -7 547.841 28.1892   2
  -5  -8   7 536.599 28.7024   1
  -5  -8   7 523.710 28.4174   2
   4   8  -7 18.8879 5.26798   2
   4   8  -7 12.2600 6.47580   3
  -4  -8   7 11.8117 4.86085   2
  -4  -8   7 15.5081 5.11211   1
   3   8  -7 1.30683 3.86480   2
   3   8  -7 5.86200 5.02446   3
  -3  -8   7 4.34552 3.90436   1
  -3  -8   7 0.63225 3.52370   2
   1   8  -7 36.9909 5.93310   3
   1   8  -7 35.1100 6.23851   2
  -1  -8   7 39.7039 6.61679   2
  -1  -8   7 36.9645 5.77518   1
   0   8  -7 433.730 24.4118   2
   0   8  -7 463.536 23.1641   3
   0  -8   7 466.459 24.5188   2
   0  -8   7 467.583 23.6900   1
  -1   8  -7 544.444 25.8128   3
  -1   8  -7 537.073 28.2426   2
   1  -8   7 549.478 27.6766   1
  -2   8  -7 768.057 38.7199   2
  -2   8  -7 804.307 35.6835   3
   2  -8   7 807.060 39.3120   1
  -3   8  -7 18.9982 5.43032   2
  -3   8  -7 35.5826 3.72389   3
   3  -8   7 28.3204 6.81894   1
  -4   8  -7 1146.15 59.0910   2
  -4   8  -7 1183.87 52.7561   3
  -4   8  -7 1240.54 58.9709   1
   4  -8   7 1259.56 59.2759   1
   4  -8   7 1214.34 52.9027   3
  -5   8  -7 610.593 34.8951   1
  -5   8  -7 604.388 31.9550   2
   5  -8   7 632.591 29.9715   3
   5  -8   7 614.926 35.2374   1
  -6   8  -7 175.543 13.4805   2
  -6   8  -7 165.232 17.0344   1
   6  -8   7 198.119 11.1226   3
   6  -8   7 176.448 17.5462   1
  -7   8  -7 445.278 24.9883   2
  -7   8  -7 408.501 30.1325   1
   7  -8   7 488.761 23.1592   3
   7   7  -7 76.7202 9.38923   2
  -7  -7   7 83.3664 11.1513   1
  -7  -7   7 73.6880 9.32483   2
   6   7  -7 166.641 17.2890   3
   6   7  -7 160.427 12.2501   2
  -6  -7   7 187.432 12.9509   2
  -6  -7   7 136.488 13.0602   1
   5   7  -7 695.624 43.7743   2
   5   7  -7 769.027 41.1811   3
  -5  -7   7 685.189 38.4509   2
  -5  -7   7 777.800 37.5268   1
   4   7  -7 245.286 15.4879   2
   4   7  -7 235.387 25.2900   3
  -4  -7   7 265.999 15.9204   2
   3   7  -7 517.568 28.6599   3
   3   7  -7 536.662 26.8988   2
  -3  -7   7 552.211 27.0832   2
  -3  -7   7 492.934 26.5154   1
   2   7  -7 2381.96 108.135   3
   2   7  -7 2469.01 107.595   2
  -2  -7   7 2451.64 107.175   1
  -2  -7   7 2480.18 107.711   2
   1   7  -7 1212.77 54.2283   2
   1   7  -7 1159.05 53.4543   3
  -1  -7   7 1216.37 53.3863   1
  -1  -7   7 1098.52 53.7768   2
   0   7  -7 704.642 33.4396   3
   0   7  -7 725.465 35.2862   2
   0  -7   7 738.601 34.4376   1
  -1   7  -7 3777.19 156.528   3
  -1   7  -7 3789.93 159.428   2
  -1   7  -7 3324.93 155.868   3
   1  -7   7 3800.28 158.882   1
  -2   7  -7 3.88274 3.55606   2
  -2   7  -7 12.6169 2.20224   3
   2  -7   7 10.5803 4.65709   1
  -3   7  -7 229.360 10.3392   3
  -3   7  -7 180.516 11.4912   3
  -3   7  -7 212.297 14.0325   2
   3  -7   7 217.506 15.3292   1
  -4   7  -7 122.978 12.1042   1
  -4   7  -7 129.968 8.18605   3
  -4   7  -7 141.991 11.2837   2
   4  -7   7 131.437 7.31389   3
   4  -7   7 117.853 12.3732   1
  -5   7  -7 7.91046 4.93499   2
  -5   7  -7 8.29360 6.25707   1
   5  -7   7 12.5453 2.94759   3
   5  -7   7 0.33576 5.69160   1
  -6   7  -7 456.475 25.3416   2
  -6   7  -7 416.859 28.9544   1
   6  -7   7 495.041 30.2247   1
   6  -7   7 489.816 22.7492   3
  -7   7  -7 8.12186 4.37262   2
  -7   7  -7 -3.5813 6.67045   1
   7  -7   7 0.43627 3.58201   3
   7   6  -7 7.64116 7.50832   3
   7   6  -7 6.78431 5.01676   2
  -7  -6   7 2.80722 5.67961   1
   6   6  -7 253.777 15.6164   2
   6   6  -7 251.583 20.9200   3
  -6  -6   7 260.768 17.7126   1
  -6  -6   7 248.668 15.7050   2
   5   6  -7 670.428 33.6515   2
  -5  -6   7 758.919 35.7471   1
  -5  -6   7 645.064 33.5967   2
   4   6  -7 2.98309 4.69987   3
   4   6  -7 -0.1666 3.04448   2
  -4  -6   7 5.10474 4.16533   1
  -4  -6   7 4.91661 3.67402   2
   3   6  -7 787.151 36.5340   2
   3   6  -7 773.313 38.4170   3
  -3  -6   7 749.064 36.5055   2
  -3  -6   7 746.940 36.7229   1
   2   6  -7 54.5235 6.15204   2
   2   6  -7 47.7393 6.35876   3
  -2  -6   7 30.3050 5.34683   2
  -2  -6   7 50.4697 5.81308   1
   1   6  -7 2435.49 105.834   2
   1   6  -7 2459.36 105.162   3
  -1  -6   7 2386.88 105.220   1
  -1  -6   7 2370.62 105.785   2
   0   6  -7 4340.33 192.069   2
   0   6  -7 4582.26 190.292   3
   0   6  -7 4566.87 189.287   3
   0  -6   7 4441.07 189.264   3
   0  -6   7 4398.57 191.434   1
  -1   6  -7 3388.40 150.306   3
  -1   6  -7 3812.23 150.764   3
  -1   6  -7 3628.17 153.870   2
   1  -6   7 3372.99 153.177   1
  -2   6  -7 72.2052 7.42518   2
   2  -6   7 68.9079 7.68469   1
  -3   6  -7 415.438 22.2816   2
   3  -6   7 405.349 22.9527   1
  -4   6  -7 239.671 11.8594   3
  -4   6  -7 229.450 16.5850   1
  -4   6  -7 274.986 15.5282   2
   4  -6   7 226.113 16.4368   1
   4  -6   7 217.642 11.1907   3
  -5   6  -7 712.912 37.9598   1
  -5   6  -7 686.258 34.6588   2
   5  -6   7 686.010 31.5267   3
   5  -6   7 715.670 37.9748   1
  -6   6  -7 24.9458 5.56709   2
  -6   6  -7 22.9890 8.11045   1
   6  -6   7 15.5859 7.45924   1
   6  -6   7 14.9519 3.71718   3
  -7   6  -7 36.5873 10.6528   1
  -7   6  -7 21.3736 5.83253   2
   7  -6   7 30.8449 5.41489   3
   8   5  -7 122.941 17.2263   3
   8   5  -7 105.781 9.63941   2
  -8  -5   7 130.577 14.5464   1
   7   5  -7 41.3628 10.7158   3
   7   5  -7 17.2262 4.78962   2
  -7  -5   7 20.9949 4.82255   2
  -7  -5   7 17.7270 6.60704   1
   6   5  -7 1444.59 74.7087   3
   6   5  -7 1603.44 69.3103   2
  -6  -5   7 1567.01 72.0367   1
  -6  -5   7 1557.53 69.3110   2
   5   5  -7 234.471 18.2209   3
   5   5  -7 244.482 14.2944   2
  -5  -5   7 246.919 14.4796   2
  -5  -5   7 238.407 16.0070   1
   4   5  -7 799.678 41.0303   3
   4   5  -7 822.189 37.9947   2
  -4  -5   7 809.268 39.1948   1
  -4  -5   7 802.022 37.9296   2
   3   5  -7 280.840 15.9050   2
   3   5  -7 295.467 17.7635   3
  -3  -5   7 297.160 16.8074   1
  -3  -5   7 278.967 15.8580   2
   2   5  -7 413.831 21.9732   3
   2   5  -7 420.875 21.5717   2
  -2  -5   7 429.141 21.7821   1
   1   5  -7 1634.71 71.5082   3
   1   5  -7 1610.79 72.2337   2
  -1  -5   7 1628.66 72.0194   1
   0   5  -7 574.785 29.8171   2
   0   5  -7 672.929 27.9291   3
   0   5  -7 625.640 27.9834   3
   0  -5   7 595.690 29.4973   1
  -1   5  -7 1304.19 59.7957   2
   1  -5   7 1341.67 59.5406   1
  -2   5  -7 141.598 10.7584   2
   2  -5   7 173.669 11.4104   1
  -3   5  -7 74.2591 7.49460   2
   3  -5   7 75.2324 8.38682   1
  -4   5  -7 698.949 32.7044   2
  -4   5  -7 668.426 34.3613   1
   4  -5   7 627.940 33.9559   1
   4  -5   7 618.352 28.5792   3
  -5   5  -7 347.368 21.3926   1
  -5   5  -7 318.901 18.2338   2
   5  -5   7 304.383 20.7348   1
   5  -5   7 283.209 15.3494   3
  -6   5  -7 372.520 26.3134   2
  -6   5  -7 440.914 27.2134   1
   6  -5   7 455.680 21.6876   3
   6  -5   7 403.060 26.7110   1
  -7   5  -7 203.744 18.3732   1
  -7   5  -7 196.072 13.8400   2
   7  -5   7 192.918 13.1988   3
   8   4  -7 53.2587 12.4827   3
   8   4  -7 38.4881 5.30054   2
   7   4  -7 72.6519 12.7153   3
   7   4  -7 101.493 8.03236   2
  -7  -4   7 92.4240 11.4494   1
   6   4  -7 421.143 20.7283   2
   6   4  -7 389.716 26.0532   3
  -6  -4   7 386.216 23.5903   1
   5   4  -7 1076.40 49.5444   2
  -5  -4   7 1090.86 49.6522   2
  -5  -4   7 1115.25 52.1406   1
   4   4  -7 1404.22 63.6589   2
   4   4  -7 1430.83 66.9344   3
  -4  -4   7 1460.17 65.4183   1
   3   4  -7 1936.19 83.3345   2
   3   4  -7 1928.53 85.2181   3
  -3  -4   7 1827.20 84.1276   1
   2   4  -7 140.616 11.9235   3
   2   4  -7 168.320 10.2435   2
  -2  -4   7 169.148 10.6925   1
   1   4  -7 1859.63 78.9653   3
   1   4  -7 1822.62 79.7613   2
  -1  -4   7 1777.80 78.2842   3
  -1  -4   7 1784.82 79.6460   1
   0   4  -7 733.454 35.0421   2
   0   4  -7 751.375 32.6968   3
   0  -4   7 786.173 34.8647   1
   0  -4   7 714.710 32.2448   3
   1  -4   7 2037.18 89.2240   1
  -2   4  -7 579.122 28.6295   2
   2  -4   7 584.121 28.6942   1
  -3   4  -7 25.6895 5.10787   2
   3  -4   7 17.5457 4.78699   1
  -4   4  -7 35.2361 3.19283   3
  -4   4  -7 34.5373 6.79859   1
  -4   4  -7 49.7604 6.56823   2
   4  -4   7 39.9443 3.66798   3
   4  -4   7 36.3550 7.01234   1
  -5   4  -7 290.784 20.2161   1
  -5   4  -7 310.537 18.1870   2
   5  -4   7 334.648 16.4502   3
   5  -4   7 323.124 20.7672   1
  -6   4  -7 436.200 26.4555   1
  -6   4  -7 400.408 22.9773   2
   6  -4   7 406.227 26.0445   1
   6  -4   7 419.577 21.7038   3
  -7   4  -7 -1.6994 5.60771   1
  -7   4  -7 3.52842 3.82889   2
   7  -4   7 4.68029 4.23565   3
   8   3  -7 43.7857 16.5396   3
  -8  -3   7 55.9724 13.0511   1
   7   3  -7 139.545 15.4663   3
   7   3  -7 139.981 8.85433   2
  -7  -3   7 117.956 12.3823   1
   6   3  -7 8.59783 6.16542   3
   6   3  -7 9.94169 3.22101   2
  -6  -3   7 9.63157 5.18489   1
   5   3  -7 339.275 16.8209   2
  -5  -3   7 296.270 22.9181   1
   4   3  -7 2614.17 114.386   2
   4   3  -7 2716.33 117.961   3
  -4  -3   7 2616.40 116.400   1
   3   3  -7 345.375 18.9921   3
   3   3  -7 328.210 17.1086   2
  -3  -3   7 325.775 18.1951   1
   2   3  -7 79.8380 6.76664   3
   2   3  -7 74.0294 6.25443   2
   1   3  -7 1698.74 74.3849   3
   1   3  -7 1746.21 75.3762   2
  -1  -3   7 1723.42 74.2625   3
  -1  -3   7 1678.10 75.2558   1
   0   3  -7 1051.43 43.4249   3
   0   3  -7 943.107 45.7104   2
   0  -3   7 995.932 45.3853   1
   0  -3   7 1028.29 43.4303   3
  -1   3  -7 254.182 14.4724   2
   1  -3   7 264.196 14.2949   1
  -2   3  -7 1801.21 80.3495   2
   2  -3   7 1829.32 80.3094   1
  -3   3  -7 1010.21 47.5683   2
   3  -3   7 1048.11 48.1945   1
  -4   3  -7 1011.90 48.9142   1
  -4   3  -7 1087.36 47.7453   2
  -4   3  -7 952.160 44.3164   3
   4  -3   7 1031.55 48.8202   1
   4  -3   7 1016.74 45.0600   3
  -5   3  -7 908.259 42.8400   1
  -5   3  -7 809.472 39.8566   2
   5  -3   7 787.467 41.8760   1
  -6   3  -7 7.84001 6.27315   1
  -6   3  -7 -1.3219 3.68911   2
   6  -3   7 2.33287 3.39825   3
  -7   3  -7 36.0722 6.52068   2
  -7   3  -7 36.3375 8.97665   1
   7  -3   7 41.2257 7.09676   3
   8   2  -7 83.2901 15.8507   3
  -8  -2   7 95.2040 12.7869   1
   7   2  -7 254.772 12.3332   2
   7   2  -7 267.900 20.6337   3
  -7  -2   7 191.141 16.5684   1
   6   2  -7 500.003 29.7805   3
   6   2  -7 497.267 23.5085   2
  -6  -2   7 505.819 27.9729   1
   5   2  -7 582.435 32.5154   3
   5   2  -7 615.849 28.4436   2
  -5  -2   7 621.312 35.1630   1
   4   2  -7 2451.83 108.379   3
   4   2  -7 2314.05 106.251   2
  -4  -2   7 2527.48 107.520   1
   3   2  -7 893.401 39.4704   2
   3   2  -7 874.408 41.3444   3
  -3  -2   7 840.835 40.7267   1
   2   2  -7 2053.65 87.6771   2
   2   2  -7 1966.63 88.1014   3
  -2  -2   7 2018.77 88.3631   1
   1   2  -7 1021.12 45.9446   2
   1   2  -7 1033.16 45.1855   3
  -1  -2   7 1028.37 45.9664   1
  -1  -2   7 985.191 45.1883   3
   0   2  -7 464.554 24.9962   2
   0   2  -7 587.070 23.2203   3
   0  -2   7 502.245 24.7382   1
   0  -2   7 520.636 23.4572   3
  -1   2  -7 8332.60 353.970   2
  -2   2  -7 811.298 37.8261   2
   2  -2   7 801.766 37.5726   1
  -3   2  -7 628.201 30.5155   2
   3  -2   7 679.352 27.9338   3
   3  -2   7 615.727 28.0748   3
   3  -2   7 560.489 30.2482   1
  -4   2  -7 1138.68 49.4475   2
  -4   2  -7 1110.67 50.6010   1
   4  -2   7 949.358 49.6577   1
   4  -2   7 1050.61 47.5698   3
  -5   2  -7 742.035 37.7197   2
  -5   2  -7 801.374 40.0229   1
   5  -2   7 784.404 37.1745   3
   5  -2   7 814.167 39.8695   1
  -6   2  -7 389.795 24.0756   1
  -6   2  -7 383.174 21.2222   2
   6  -2   7 371.399 21.2284   3
  -7   2  -7 9.06126 4.67142   2
  -7   2  -7 17.1120 6.91268   1
   7  -2   7 6.48866 5.04939   3
   8   1  -7 1.38206 6.20092   3
  -8  -1   7 4.59819 6.45887   1
   7   1  -7 1780.06 85.2272   3
  -7  -1   7 1791.46 83.4009   1
   6   1  -7 164.091 8.55408   2
   6   1  -7 170.860 14.9524   3
   6   1  -7 163.363 8.79729   2
  -6  -1   7 162.550 13.2196   1
   5   1  -7 340.424 16.5986   2
   5   1  -7 343.209 21.3963   3
  -5  -1   7 345.937 20.3514   1
   4   1  -7 1876.73 80.7609   2
   4   1  -7 1922.22 84.4707   3
  -4  -1   7 1794.02 83.3165   1
   3   1  -7 6857.72 284.476   3
   3   1  -7 6622.80 282.213   2
  -3  -1   7 6476.68 283.789   1
   2   1  -7 4109.77 178.903   3
   2   1  -7 4072.86 175.963   2
  -2  -1   7 4177.27 176.860   1
   1   1  -7 2450.48 104.643   2
   1   1  -7 2362.51 103.871   3
  -1  -1   7 2433.75 104.598   1
   0   1  -7 85.3107 6.43070   2
   0   1  -7 74.1489 4.83458   3
   0  -1   7 77.0538 5.14859   3
  -1   1  -7 143.310 8.97562   2
   1  -1   7 99.6134 6.13895   3
   1  -1   7 122.998 7.89296   1
   1  -1   7 126.649 6.62976   3
  -2   1  -7 825.682 37.3591   2
   2  -1   7 802.770 35.0533   3
   2  -1   7 727.603 34.5535   3
   2  -1   7 818.768 36.7428   1
  -3   1  -7 104.705 8.31458   2
  -3   1  -7 88.0740 5.90047   3
   3  -1   7 100.476 6.82129   3
   3  -1   7 100.874 8.18015   1
  -4   1  -7 51.4099 6.53881   2
  -4   1  -7 70.8462 7.83718   1
   4  -1   7 57.4842 6.10647   3
   4  -1   7 52.8355 7.27689   1
  -5   1  -7 -3.7320 3.56311   2
  -5   1  -7 2.64556 4.49329   1
   5  -1   7 5.30043 4.57241   1
   5  -1   7 4.08450 3.62327   3
  -6   1  -7 697.663 36.7012   1
  -6   1  -7 710.396 34.6035   2
   6  -1   7 677.026 35.1810   3
  -7   1  -7 189.856 13.5264   2
  -7   1  -7 174.182 15.7439   1
   8   0  -7 172.484 17.4443   3
  -8   0   7 163.562 16.0094   1
   7   0  -7 798.781 43.3503   3
   6   0  -7 66.5794 10.2962   3
  -6   0   7 58.5299 9.02981   1
   5   0  -7 29.2981 3.01491   2
   5   0  -7 29.7802 3.32726   2
  -5   0   7 39.7285 6.83706   1
   4   0  -7 2356.84 99.8830   2
   4   0  -7 2290.09 103.516   3
  -4   0   7 2327.43 102.888   1
   3   0  -7 950.982 43.2922   2
   3   0  -7 999.467 45.6783   3
  -3   0   7 969.968 45.1377   1
   2   0  -7 45.5946 5.05820   3
   2   0  -7 43.3387 4.51050   2
  -2   0   7 30.6945 4.59928   1
   1   0  -7 1261.29 58.0444   2
   1   0  -7 1272.16 57.6027   3
  -1   0   7 1400.23 58.1522   1
   0   0  -7 1900.81 85.1203   2
   0   0  -7 1971.91 83.7676   3
   0   0   7 1967.97 85.6033   1
  -1   0  -7 3971.42 161.683   2
   1   0   7 3432.52 161.595   1
   1   0   7 3717.59 159.539   3
   1   0   7 3895.97 159.884   3
  -2   0  -7 688.317 33.3491   2
   2   0   7 686.989 31.8122   3
   2   0   7 728.036 32.6818   1
  -3   0  -7 47.0257 6.21300   2
  -3   0  -7 64.4715 6.47402   1
   3   0   7 52.4394 6.11150   1
   3   0   7 60.9567 5.71064   3
  -4   0  -7 402.287 21.7691   1
  -4   0  -7 428.412 21.8672   2
   4   0   7 398.242 21.2472   3
   4   0   7 385.748 21.4784   1
  -5   0  -7 769.396 37.7014   2
  -5   0  -7 813.186 38.6958   1
   5   0   7 739.721 37.9292   3
  -6   0  -7 13.3760 5.01074   2
  -6   0  -7 19.2129 6.02101   1
   6   0   7 17.4460 6.07030   3
  -7   0  -7 18.8466 5.51031   2
  -7   0  -7 14.6678 6.65681   1
   7   0   7 15.2936 6.59811   3
   8  -1  -7 113.506 16.7461   3
  -8   1   7 120.548 14.1989   1
   7  -1  -7 556.632 32.6699   3
  -7   1   7 542.545 31.3352   1
   6  -1  -7 958.814 48.4748   3
  -6   1   7 957.974 47.5485   1
   5  -1  -7 2400.84 110.861   3
   5  -1  -7 2293.09 101.543   2
   5  -1  -7 2413.12 101.652   2
  -5   1   7 2442.48 106.592   1
   4  -1  -7 1913.26 80.6932   2
   4  -1  -7 1931.28 84.6962   3
  -4   1   7 1773.04 83.5921   1
   3  -1  -7 40.2005 4.19910   2
   3  -1  -7 42.3111 6.15003   3
  -3   1   7 42.2368 5.53233   1
   2  -1  -7 107.942 7.17606   2
   2  -1  -7 108.127 8.02689   3
   1  -1  -7 1417.21 64.4218   3
   1  -1  -7 1485.51 64.7786   2
  -1   1   7 1504.63 66.1329   1
   0  -1  -7 9.75512 2.56179   3
   0  -1  -7 0.87347 2.23938   2
   0   1   7 6.66678 2.38916   1
  -1  -1  -7 883.395 37.7880   2
  -1  -1  -7 844.823 36.2467   3
   1   1   7 729.415 35.8715   1
   1   1   7 764.707 36.0273   3
  -2  -1  -7 202.202 12.6170   2
   2   1   7 187.482 12.4947   1
   2   1   7 219.993 12.0764   3
  -3  -1  -7 242.122 14.8255   2
  -3  -1  -7 266.327 14.2102   1
   3   1   7 241.149 14.2544   3
   3   1   7 237.151 13.7720   1
  -4  -1  -7 475.657 24.3778   1
  -4  -1  -7 440.983 24.9483   2
   4   1   7 489.641 24.4124   1
   4   1   7 478.266 24.8977   3
  -5  -1  -7 451.301 25.2113   1
  -5  -1  -7 486.599 25.4513   2
   5   1   7 489.978 26.4894   3
  -6  -1  -7 399.389 23.3604   1
  -6  -1  -7 421.989 23.0030   2
   6   1   7 383.859 25.0997   3
  -7  -1  -7 -0.1428 4.18544   2
  -7  -1  -7 9.29213 5.58615   1
   7   1   7 11.8605 6.39674   3
  -8   2   7 24.1662 12.4715   1
   7  -2  -7 179.556 16.6933   3
  -7   2   7 204.752 16.5139   1
   6  -2  -7 1211.37 60.6050   3
  -6   2   7 1294.61 60.2276   1
   5  -2  -7 1536.16 65.3821   2
   5  -2  -7 1512.32 70.8500   3
   5  -2  -7 1511.34 65.1110   2
  -5   2   7 1526.43 70.1946   1
   4  -2  -7 1169.27 55.2449   3
   4  -2  -7 1196.10 51.4701   2
  -4   2   7 1168.58 54.6062   1
   3  -2  -7 337.599 18.3564   3
   3  -2  -7 281.465 18.8396   2
  -3   2   7 343.513 17.9011   1
   2  -2  -7 901.065 43.1139   3
   2  -2  -7 950.717 42.3403   2
  -2   2   7 964.836 42.8410   1
   1  -2  -7 1733.45 77.0351   3
   1  -2  -7 1748.11 77.1388   2
  -1   2   7 1795.12 76.5311   1
   0  -2  -7 1546.18 68.7282   3
   0  -2  -7 1587.16 69.4374   2
   0   2   7 1508.63 68.5760   3
   0   2   7 1622.22 67.8971   1
  -1  -2  -7 3396.91 144.001   3
  -1  -2  -7 3561.94 145.180   2
   1   2   7 3106.28 143.742   3
   1   2   7 3357.07 142.950   1
  -2  -2  -7 29.3616 5.29409   2
   2   2   7 28.5269 3.94087   1
   2   2   7 32.3207 4.84012   3
  -3  -2  -7 391.190 20.3907   1
  -3  -2  -7 386.139 21.7257   2
   3   2   7 469.356 20.8235   1
   3   2   7 393.328 21.7172   3
  -4  -2  -7 152.306 11.5084   2
  -4  -2  -7 147.673 10.3382   1
   4   2   7 159.163 12.1409   3
  -5  -2  -7 95.7127 9.24801   1
  -5  -2  -7 113.378 10.2047   2
   5   2   7 107.340 11.2666   3
  -6  -2  -7 254.843 16.5449   2
  -6  -2  -7 245.846 16.5070   1
   6   2   7 233.943 18.3085   3
  -7  -2  -7 323.589 20.9672   1
  -7  -2  -7 317.045 20.1982   2
   7   2   7 340.023 23.4852   3
   8  -3  -7 123.593 15.1967   3
  -8   3   7 132.197 18.7416   1
   7  -3  -7 50.2378 9.61112   3
  -7   3   7 67.4157 10.8257   1
   6  -3  -7 1170.64 58.5818   3
  -6   3   7 1240.98 58.3423   1
   5  -3  -7 180.098 14.2542   3
   5  -3  -7 189.394 8.93661   2
   5  -3  -7 172.570 9.04786   2
  -5   3   7 168.739 9.05642   2
  -5   3   7 181.765 13.7762   1
   4  -3  -7 657.574 29.9394   2
   4  -3  -7 671.661 33.7477   3
  -4   3   7 667.387 33.0926   1
   3  -3  -7 811.577 40.3030   3
   3  -3  -7 871.287 38.2996   2
  -3   3   7 863.321 39.9073   1
   2  -3  -7 149.101 9.37417   2
   2  -3  -7 142.302 10.2347   3
  -2   3   7 166.098 9.74828   1
   1  -3  -7 296.413 16.3837   3
   1  -3  -7 304.566 16.1561   2
  -1   3   7 311.409 15.2248   1
   0  -3  -7 3368.38 145.948   2
   0  -3  -7 3329.12 145.662   3
   0  -3  -7 3225.53 144.197   1
   0   3   7 3554.72 145.754   3
   0   3   7 3440.95 143.946   1
  -1  -3  -7 6395.40 268.582   1
  -1  -3  -7 6438.92 270.934   2
  -1  -3  -7 5832.57 270.076   3
   1   3   7 7002.84 268.469   1
   1   3   7 6053.14 270.178   3
  -2  -3  -7 602.423 29.3091   2
  -2  -3  -7 541.606 26.6184   1
   2   3   7 583.793 26.6884   1
   2   3   7 623.585 29.1965   3
  -3  -3  -7 27.7348 5.57881   2
  -3  -3  -7 26.3606 4.01707   1
   3   3   7 25.3504 5.58005   3
  -4  -3  -7 984.918 46.0543   2
  -4  -3  -7 942.346 43.9490   1
   4   3   7 961.299 46.9709   3
  -5  -3  -7 272.972 17.2723   2
  -5  -3  -7 293.580 16.2503   1
   5   3   7 249.787 18.7133   3
  -6  -3  -7 2.47940 4.28147   1
  -6  -3  -7 -0.7274 4.30433   2
   6   3   7 1.51971 5.94349   3
   8  -4  -7 94.0937 13.5366   3
  -8   4   7 97.8951 13.1970   1
   7  -4  -7 140.078 14.5008   3
  -7   4   7 131.389 13.6230   1
   6  -4  -7 1158.13 56.4529   3
  -6   4   7 1150.67 56.1692   1
   5  -4  -7 3684.85 159.046   2
   5  -4  -7 3678.77 164.367   3
  -5   4   7 3595.17 159.995   2
  -5   4   7 4071.35 172.784   1
   4  -4  -7 6.14487 4.28752   3
  -4   4   7 5.06993 3.86859   1
   3  -4  -7 5.10506 3.78312   3
   3  -4  -7 3.86022 2.39612   2
  -3   4   7 5.37166 3.20700   1
   2  -4  -7 2133.14 90.7517   2
   2  -4  -7 2067.06 91.8570   3
  -2   4   7 2046.78 90.5396   1
   1  -4  -7 24.9853 4.46205   2
   1  -4  -7 37.8465 5.69683   3
  -1   4   7 28.6091 3.53198   1
   0  -4  -7 38.7982 5.77471   3
   0  -4  -7 23.9946 4.72920   2
   0  -4  -7 22.7737 2.89273   1
   0   4   7 35.4986 5.43108   3
   0   4   7 27.7043 2.91318   1
  -1  -4  -7 331.433 17.1227   2
  -1  -4  -7 292.753 13.8823   1
   1   4   7 281.120 16.4759   3
   1   4   7 276.118 13.3805   1
  -2  -4  -7 17.3980 4.60999   2
  -2  -4  -7 15.1484 3.17756   1
  -2  -4  -7 16.8355 2.43889   1
   2   4   7 17.6640 4.99490   3
  -3  -4  -7 50.6869 4.53300   1
  -3  -4  -7 44.0923 6.62434   2
   3   4   7 68.3413 8.45764   3
  -4  -4  -7 777.495 38.0144   2
  -4  -4  -7 765.217 35.7811   1
   4   4   7 744.413 39.3528   3
  -5  -4  -7 63.9626 8.53203   2
  -5  -4  -7 63.3766 6.91966   1
   5   4   7 76.0848 10.8697   3
  -6  -4  -7 75.3426 8.24747   1
  -6  -4  -7 83.4427 10.5473   2
   6   4   7 78.9029 12.3357   3
   8  -5  -7 24.6624 8.37601   3
  -8   5   7 28.0607 8.94932   1
   7  -5  -7 37.6492 8.73429   3
  -7   5   7 68.9645 10.9392   1
   6  -5  -7 771.657 41.2576   3
  -6   5   7 818.197 41.2401   1
   5  -5  -7 512.121 26.4983   3
   5  -5  -7 418.160 20.4986   2
  -5   5   7 413.451 28.8580   1
   4  -5  -7 724.100 36.5732   3
   4  -5  -7 729.426 32.9973   2
  -4   5   7 718.536 35.6525   1
   3  -5  -7 494.266 28.1401   3
   3  -5  -7 500.906 23.8856   2
  -3   5   7 485.281 24.7734   1
   2  -5  -7 1531.70 70.1772   3
   2  -5  -7 1581.79 68.9006   2
   1  -5  -7 11.2788 4.33201   3
   1  -5  -7 8.26938 3.31132   2
   1  -5  -7 10.2294 2.24097   1
  -1   5   7 5.79966 2.05966   1
   0  -5  -7 1004.29 41.5763   1
   0  -5  -7 959.349 45.3331   3
   0  -5  -7 935.689 44.7044   2
   0   5   7 949.842 44.9976   3
  -1  -5  -7 1379.90 62.0974   2
   1   5   7 1345.62 62.2426   3
  -2  -5  -7 577.614 28.8436   2
   2   5   7 541.701 29.2176   3
  -3  -5  -7 113.721 10.1739   2
   3   5   7 101.389 11.1456   3
  -4  -5  -7 787.899 40.0274   2
  -4  -5  -7 794.438 35.8540   1
   4   5   7 833.818 42.4003   3
  -5  -5  -7 62.9560 6.02921   1
  -5  -5  -7 81.5292 10.2661   2
   5   5   7 74.2942 11.5530   3
   7  -6  -7 23.9177 7.69555   3
  -7   6   7 16.0391 7.00319   1
   6  -6  -7 40.4558 8.44907   3
  -6   6   7 39.0171 7.97271   1
  -5   6   7 28.6518 6.65511   1
   4  -6  -7 1.50817 4.66701   3
   4  -6  -7 2.92011 2.72573   2
  -4   6   7 1.35488 3.72741   1
   3  -6  -7 493.704 23.4520   2
   3  -6  -7 456.384 25.6384   3
  -3   6   7 465.581 23.8930   1
   2  -6  -7 295.544 15.7955   2
   2  -6  -7 292.739 17.3300   3
  -2   6   7 257.320 14.3300   1
   1  -6  -7 719.582 34.8014   2
   1  -6  -7 725.483 36.1430   3
  -1   6   7 693.211 31.7628   1
  -1   6   7 770.771 36.5201   3
   0  -6  -7 1396.92 66.5560   3
   0  -6  -7 1455.40 65.1589   2
   0   6   7 1455.28 67.7883   3
  -1  -6  -7 1826.14 81.7679   2
   1   6   7 1815.36 82.3484   3
  -2  -6  -7 764.540 38.8624   2
   2   6   7 817.890 40.2300   3
  -3  -6  -7 585.879 30.8128   2
   3   6   7 584.019 32.4633   3
  -4  -6  -7 449.023 26.2889   2
   4   6   7 485.936 28.9981   3
  -5  -6  -7 0.46626 4.86859   2
   5   6   7 4.47892 6.52399   3
   7  -7  -7 64.6859 11.2882   3
  -7   7   7 75.3067 11.4733   1
   6  -7  -7 111.562 12.9422   3
  -6   7   7 93.6854 11.4879   1
   5  -7  -7 91.7531 6.87527   2
   5  -7  -7 88.9358 11.5232   3
  -5   7   7 94.6655 10.2085   1
   4  -7  -7 39.1455 7.62539   3
   4  -7  -7 40.5479 5.37940   2
  -4   7   7 40.3084 6.63728   1
   3  -7  -7 328.308 20.4775   3
   3  -7  -7 343.875 18.3409   2
  -3   7   7 351.894 18.3870   1
   2  -7  -7 780.294 35.7523   2
   2  -7  -7 738.766 37.2806   3
  -2   7   7 720.635 33.6565   1
   1  -7  -7 9.47751 5.20205   3
   1  -7  -7 8.32292 4.09297   2
  -1   7   7 10.2066 4.77524   3
   0  -7  -7 174.019 13.4073   3
   0  -7  -7 149.491 11.9304   2
   0   7   7 169.445 13.0824   3
  -1  -7  -7 154.436 12.3329   2
   1   7   7 171.501 13.6460   3
  -2  -7  -7 329.890 20.3241   2
   2   7   7 364.278 22.4232   3
  -3  -7  -7 91.5894 10.4031   2
   3   7   7 98.6539 12.2317   3
  -4  -7  -7 147.045 13.7654   2
   4   7   7 155.666 15.8935   3
   6  -8  -7 116.772 13.4036   3
  -6   8   7 118.484 12.3669   1
   5  -8  -7 1.03553 2.97120   2
   5  -8  -7 11.5685 6.07643   3
  -5   8   7 1.28087 4.12336   1
   4  -8  -7 132.775 9.59180   2
   4  -8  -7 123.184 12.5741   3
  -4   8   7 142.718 10.8700   1
   3  -8  -7 372.531 21.8888   3
   3  -8  -7 352.349 20.1127   2
  -3   8   7 339.636 18.4770   1
   2  -8  -7 729.450 34.7647   2
   2  -8  -7 694.664 36.3954   3
  -2   8   7 715.709 31.7599   1
  -2   8   7 697.867 36.0011   3
   1  -8  -7 29.6221 7.18668   3
   1  -8  -7 22.0745 5.44112   2
  -1   8   7 23.5102 6.45610   3
   0  -8  -7 877.337 43.7712   3
   0  -8  -7 840.306 42.1002   2
   0   8   7 888.131 43.3497   3
  -1  -8  -7 818.536 40.8911   2
   1   8   7 834.229 42.2309   3
  -2  -8  -7 514.270 29.3095   2
   2   8   7 576.301 31.7900   3
  -3  -8  -7 1.56482 5.16980   2
   3   8   7 4.23656 6.38158   3
   4   8   7 6.33393 8.03104   3
   5  -9  -7 51.8325 9.75778   3
   5  -9  -7 34.8007 5.54515   2
  -5   9   7 56.8704 8.55845   1
   4  -9  -7 272.408 18.9156   2
   4  -9  -7 317.567 20.7153   3
  -4   9   7 303.333 17.5899   1
   3  -9  -7 166.773 12.0176   2
   3  -9  -7 158.699 14.7140   3
  -3   9   7 156.356 10.1351   1
   2  -9  -7 106.639 11.8344   3
   2  -9  -7 107.386 9.93945   2
  -2   9   7 98.0735 11.0594   3
   1  -9  -7 126.037 11.2475   2
   1  -9  -7 144.818 13.7402   3
  -1   9   7 144.725 12.9218   3
   0  -9  -7 550.649 29.5340   2
   0  -9  -7 522.023 30.9412   3
   0   9   7 587.596 31.1474   3
  -1  -9  -7 909.015 44.5141   2
   1   9   7 874.432 45.8768   3
  -2  -9  -7 1.48202 4.58955   2
   2   9   7 -2.1856 5.75358   3
  -3  -9  -7 34.6763 8.27645   2
   3   9   7 37.0923 10.2967   3
   4 -10  -7 233.895 14.8513   2
   4 -10  -7 223.678 18.4235   3
  -4  10   7 235.228 14.5779   1
   3 -10  -7 7.20611 6.51952   3
   3 -10  -7 4.22706 4.51137   2
  -3  10   7 5.89998 5.85263   3
   2 -10  -7 107.297 18.2652   3
   2 -10  -7 117.105 10.8458   2
  -2  10   7 115.727 16.3263   3
   1 -10  -7 250.306 16.6952   2
   1 -10  -7 242.661 28.1780   3
  -1  10   7 254.336 26.5104   3
   0 -10  -7 147.988 12.9909   2
   0  10   7 139.324 19.9506   3
  -1 -10  -7 37.9063 7.82999   2
   1  10   7 49.2832 10.4557   3
   1  14  -8 82.2809 12.7386   3
   1  14  -8 62.8416 11.0661   2
  -1 -14   8 86.3309 11.0772   1
  -1 -14   8 83.1320 12.9753   2
   0  14  -8 716.289 39.3185   3
   0  14  -8 737.472 40.0310   2
   0 -14   8 773.122 37.9340   1
   0 -14   8 663.058 39.7141   2
  -1  14  -8 -2.8764 5.80500   2
  -1  14  -8 2.25936 5.20227   3
   1 -14   8 2.49974 6.60225   2
   1 -14   8 9.22847 6.70947   1
   3  13  -8 61.2708 10.3279   2
   3  13  -8 110.446 14.9653   3
  -3 -13   8 62.1512 9.69717   1
  -3 -13   8 102.943 12.8981   2
   2  13  -8 51.8925 10.9790   3
   2  13  -8 42.8634 8.89179   2
  -2 -13   8 48.7695 10.0226   2
  -2 -13   8 45.8366 8.07960   1
   1  13  -8 412.761 26.3770   3
   1  13  -8 401.120 32.3226   2
  -1 -13   8 436.078 24.0695   1
  -1 -13   8 365.374 31.6749   2
   0  13  -8 8.12965 5.63849   3
   0  13  -8 -0.1875 5.26106   2
   0 -13   8 4.58810 5.57992   1
   0 -13   8 2.21627 5.70675   2
  -1  13  -8 468.039 26.7926   3
  -1  13  -8 480.414 28.9081   2
   1 -13   8 471.220 28.9618   2
   1 -13   8 479.326 27.3515   1
  -2  13  -8 8.18421 6.45607   2
  -2  13  -8 10.5865 5.23311   3
   2 -13   8 20.1564 7.48160   1
  -3  13  -8 648.306 31.4989   3
  -3  13  -8 620.856 35.1051   2
   3 -13   8 585.562 37.9429   1
   4  12  -8 17.3231 7.03082   2
   4  12  -8 15.6032 8.94086   3
  -4 -12   8 26.7502 6.90990   1
  -4 -12   8 14.4360 7.22205   2
   3  12  -8 554.038 32.4152   3
   3  12  -8 450.338 28.7539   2
  -3 -12   8 510.035 26.8725   1
  -3 -12   8 442.334 29.4485   2
   2  12  -8 14.1972 6.64062   2
   2  12  -8 7.99000 6.47228   3
  -2 -12   8 3.53248 5.17832   1
  -2 -12   8 8.04648 6.26587   2
   1  12  -8 61.4421 9.87869   2
   1  12  -8 62.3270 10.1726   3
  -1 -12   8 95.0814 11.7221   2
  -1 -12   8 64.1820 9.90092   1
   0  12  -8 113.462 12.5111   2
   0 -12   8 128.007 11.6745   1
   0 -12   8 99.1538 12.2897   2
  -1  12  -8 79.1703 11.2615   2
  -1  12  -8 63.7134 8.81827   3
   1 -12   8 63.3377 10.2602   2
   1 -12   8 85.4777 10.5398   1
  -2  12  -8 396.748 24.5370   2
  -2  12  -8 386.696 21.3186   3
   2 -12   8 371.388 23.7071   1
  -3  12  -8 15.6049 4.50244   3
  -3  12  -8 8.74977 6.40305   2
   3 -12   8 15.2878 7.56851   1
  -4  12  -8 881.006 45.2796   2
  -4  12  -8 897.856 40.9311   3
   4 -12   8 851.311 51.9327   1
  -5 -11   8 13.2361 6.30547   1
   4  11  -8 785.902 44.4014   3
   4  11  -8 791.650 40.6385   2
  -4 -11   8 736.748 38.7213   1
  -4 -11   8 813.268 41.1757   2
   3  11  -8 28.6625 7.15984   2
   3  11  -8 45.3058 9.80771   3
  -3 -11   8 32.9038 6.98731   1
  -3 -11   8 40.6161 8.16662   2
   2  11  -8 1769.58 82.2658   2
   2  11  -8 1766.89 83.3834   3
  -2 -11   8 1745.46 82.3915   2
  -2 -11   8 1825.13 80.2364   1
   1  11  -8 37.3740 7.77389   3
   1  11  -8 42.1910 8.31055   2
  -1 -11   8 45.7815 8.57345   2
  -1 -11   8 45.7150 7.54390   1
   0  11  -8 349.285 21.6131   2
   0  11  -8 320.765 19.9208   3
   0 -11   8 340.019 20.2341   1
   0 -11   8 327.044 21.4231   2
  -1  11  -8 79.4561 8.49511   3
  -1  11  -8 86.5922 10.8576   2
   1 -11   8 91.0676 10.5185   1
  -2  11  -8 149.793 10.8659   3
  -2  11  -8 176.492 14.2038   2
   2 -11   8 159.370 13.8156   1
  -3  11  -8 92.3886 11.8296   2
  -3  11  -8 79.0441 7.20803   3
   3 -11   8 87.8141 11.6333   1
  -4  11  -8 459.393 27.7912   1
  -4  11  -8 406.944 21.2639   3
  -4  11  -8 425.678 25.7892   2
   4 -11   8 449.401 28.1444   1
  -5  11  -8 273.068 19.5534   2
  -5  11  -8 241.597 20.9902   1
   5 -11   8 321.241 23.3031   1
   6  10  -8 117.880 17.6369   3
  -6 -10   8 120.764 12.6645   1
   5  10  -8 10.8881 8.56533   3
   5  10  -8 14.2171 5.87290   2
  -5 -10   8 6.12736 5.60169   1
  -5 -10   8 6.12871 5.95762   2
   4  10  -8 143.509 15.5141   3
   4  10  -8 119.525 12.2888   2
  -4 -10   8 135.202 11.9734   1
  -4 -10   8 149.660 12.9427   2
   3  10  -8 72.6995 11.2370   3
   3  10  -8 46.0978 8.04097   2
  -3 -10   8 41.3871 7.12146   1
  -3 -10   8 52.2121 8.56423   2
   2  10  -8 16.5725 5.91304   2
   2  10  -8 12.7252 5.83900   3
  -2 -10   8 14.8337 5.48482   1
  -2 -10   8 16.4276 6.19315   2
   1  10  -8 768.992 39.2980   2
   1  10  -8 784.591 39.0132   3
  -1 -10   8 785.334 37.7776   1
  -1 -10   8 760.428 39.4021   2
   0  10  -8 14.2463 4.66135   3
   0  10  -8 6.94636 5.15645   2
   0 -10   8 6.49638 4.69182   2
   0 -10   8 10.0015 5.04406   1
  -1  10  -8 655.377 32.1096   3
  -1  10  -8 674.842 35.0029   2
   1 -10   8 665.090 33.7895   1
  -2  10  -8 124.219 9.03388   3
  -2  10  -8 134.220 12.3346   2
   2 -10   8 151.032 12.5888   1
  -3  10  -8 868.683 44.5755   2
   3 -10   8 919.630 45.5319   1
  -4  10  -8 3.79846 5.18058   2
  -4  10  -8 4.09155 5.83260   1
   4 -10   8 2.23108 6.32950   1
  -5  10  -8 424.007 22.7504   3
  -5  10  -8 511.118 28.0790   2
  -5  10  -8 468.028 39.1859   1
   5 -10   8 502.939 25.2384   3
   5 -10   8 560.460 43.5819   1
  -6  10  -8 101.193 14.5770   1
   6 -10   8 103.639 15.1537   1
   6   9  -8 20.6587 9.84154   3
   6   9  -8 6.48230 5.48835   2
  -6  -9   8 19.9195 6.62526   2
  -6  -9   8 13.0488 6.26983   1
   5   9  -8 285.627 23.1071   3
   5   9  -8 307.603 19.2498   2
  -5  -9   8 305.306 19.5200   2
  -5  -9   8 274.523 18.7162   1
   4   9  -8 1.54437 4.49285   2
   4   9  -8 6.02334 6.44125   3
  -4  -9   8 6.50970 5.02396   1
  -4  -9   8 1.49183 4.69551   2
   3   9  -8 618.696 32.9174   2
  -3  -9   8 609.940 32.1090   1
  -3  -9   8 686.175 33.6752   2
   2   9  -8 983.637 47.8217   3
   2   9  -8 988.523 47.2411   2
  -2  -9   8 913.737 47.0193   2
  -2  -9   8 1006.92 46.1137   1
   1   9  -8 306.343 19.0036   2
   1   9  -8 304.942 18.2140   3
  -1  -9   8 318.792 18.7910   1
  -1  -9   8 294.255 18.8725   2
   0   9  -8 28.2225 5.17180   3
   0   9  -8 27.9735 6.02534   2
   0  -9   8 23.9920 5.86377   1
   0  -9   8 26.3567 5.74857   2
  -1   9  -8 104.517 10.1985   2
  -1   9  -8 88.1621 7.35452   3
   1  -9   8 93.5401 9.75881   1
  -2   9  -8 873.367 42.9377   2
  -2   9  -8 848.946 39.0157   3
   2  -9   8 882.742 42.7831   1
  -3   9  -8 55.2368 8.51098   2
  -3   9  -8 44.6300 4.32344   3
   3  -9   8 34.2458 7.56993   1
  -4   9  -8 621.726 27.9565   3
  -4   9  -8 602.702 32.9211   2
   4  -9   8 633.499 35.1591   1
  -5   9  -8 46.8439 4.46160   3
  -5   9  -8 57.1733 8.67105   2
  -5   9  -8 28.6129 8.71611   1
   5  -9   8 60.3440 11.6666   1
   5  -9   8 49.5883 4.79182   3
  -6   9  -8 44.7247 8.36992   2
  -6   9  -8 27.9460 9.21019   1
   6  -9   8 29.7556 9.21078   1
   7   8  -8 15.5492 9.31562   3
   7   8  -8 4.94750 5.44564   2
  -7  -8   8 14.3304 6.26096   2
   6   8  -8 173.684 13.9125   2
   6   8  -8 184.352 19.0640   3
  -6  -8   8 195.051 14.5896   2
  -6  -8   8 167.570 14.9683   1
   5   8  -8 108.365 14.2872   3
   5   8  -8 111.993 10.6195   2
  -5  -8   8 109.722 11.4362   1
  -5  -8   8 110.292 10.8574   2
   4   8  -8 1177.14 55.4087   2
   4   8  -8 1166.06 58.5443   3
  -4  -8   8 1203.12 55.4248   1
  -4  -8   8 1165.70 55.5490   2
   3   8  -8 36.6806 7.68985   3
   3   8  -8 33.5420 6.44007   2
  -3  -8   8 44.3067 7.40545   2
  -3  -8   8 33.2007 6.30539   1
   2   8  -8 1270.82 59.8584   3
   2   8  -8 1303.88 59.6599   2
  -2  -8   8 1260.68 58.7737   1
  -2  -8   8 1287.54 59.5634   2
   1   8  -8 201.068 13.2551   3
  -1  -8   8 211.962 13.4533   1
   0   8  -8 2528.41 109.865   3
   0   8  -8 2476.56 114.370   2
   0  -8   8 2571.47 110.956   1
  -1   8  -8 273.233 14.0970   3
  -1   8  -8 261.767 24.1472   2
  -1   8  -8 281.680 14.2018   3
   1  -8   8 263.790 22.3247   1
  -2   8  -8 222.727 15.4738   2
  -2   8  -8 192.119 10.4243   3
   2  -8   8 219.975 14.9392   1
  -3   8  -8 0.22901 4.10549   2
   3  -8   8 -0.6454 4.84830   1
  -4   8  -8 114.288 11.6111   2
   4  -8   8 146.340 13.8874   1
  -5   8  -8 417.671 27.7897   1
  -5   8  -8 442.968 20.5890   3
  -5   8  -8 465.297 25.7593   2
   5  -8   8 489.421 29.1990   1
  -6   8  -8 14.2770 8.92941   1
  -6   8  -8 23.1370 6.62906   2
   6  -8   8 18.6110 9.30597   1
   7   7  -8 -2.8869 4.31787   2
   7   7  -8 3.99357 7.55992   3
  -7  -7   8 6.00373 4.76157   2
  -7  -7   8 3.72768 5.96187   1
   6   7  -8 454.373 25.2034   2
   6   7  -8 458.464 30.6344   3
  -6  -7   8 478.533 27.0902   1
  -6  -7   8 472.259 25.5933   2
   5   7  -8 323.721 23.0889   3
   5   7  -8 314.058 18.8848   2
  -5  -7   8 307.243 20.0420   1
  -5  -7   8 329.916 19.2978   2
   4   7  -8 24.1931 5.72999   2
  -4  -7   8 19.0196 5.86038   1
  -4  -7   8 20.9019 6.52496   2
   3   7  -8 429.459 24.2459   3
   3   7  -8 420.525 22.5140   2
  -3  -7   8 443.375 22.8642   2
  -3  -7   8 358.365 24.0922   1
   2   7  -8 10.1346 4.09962   2
   2   7  -8 14.4547 4.73561   3
  -2  -7   8 13.1702 4.57935   2
  -2  -7   8 17.4537 4.70052   1
   1   7  -8 3135.23 135.280   3
   1   7  -8 3186.68 136.486   2
  -1  -7   8 3036.01 135.385   1
   0   7  -8 894.141 39.6543   3
   0   7  -8 826.842 41.6076   2
   0  -7   8 889.682 41.1310   1
  -1   7  -8 3113.79 132.698   3
  -1   7  -8 3114.63 132.474   3
  -1   7  -8 3005.31 136.212   2
   1  -7   8 3228.80 135.980   1
  -2   7  -8 60.3710 7.80813   2
  -3   7  -8 617.466 32.7847   2
   3  -7   8 651.890 33.4836   1
  -4   7  -8 144.827 12.0294   2
   4  -7   8 131.365 13.4058   1
  -5   7  -8 325.975 19.8026   2
  -5   7  -8 283.895 21.4972   1
   5  -7   8 332.928 22.6342   1
  -6   7  -8 129.460 15.3247   1
  -6   7  -8 134.114 12.1576   2
   6  -7   8 150.591 15.8609   1
   6  -7   8 143.869 8.71661   3
  -7   7  -8 31.2769 10.1997   1
  -7   7  -8 27.0093 6.15662   2
   7  -7   8 27.9257 9.58378   1
   7   6  -8 527.313 34.3240   3
   7   6  -8 500.731 34.6320   2
  -7  -6   8 565.966 30.8481   1
  -7  -6   8 515.901 28.1653   2
   6   6  -8 156.060 16.7069   3
   6   6  -8 170.510 12.1983   2
  -6  -6   8 161.634 13.9016   1
  -6  -6   8 159.081 11.9948   2
   5   6  -8 2247.88 98.9337   2
   5   6  -8 2185.73 103.144   3
  -5  -6   8 2194.84 98.7992   2
  -5  -6   8 2302.90 100.559   1
   4   6  -8 822.805 42.7112   3
   4   6  -8 848.474 40.1278   2
  -4  -6   8 843.362 40.9869   1
  -4  -6   8 831.237 40.0414   2
   3   6  -8 1303.20 59.3762   3
   3   6  -8 1252.83 57.5427   2
  -3  -6   8 1272.89 57.7058   2
  -3  -6   8 1200.21 57.6515   1
   2   6  -8 142.367 10.6087   3
   2   6  -8 144.181 10.6593   2
  -2  -6   8 141.344 10.5563   1
   1   6  -8 733.842 34.4798   2
   1   6  -8 680.655 33.0088   3
  -1  -6   8 695.223 33.7393   1
   0   6  -8 391.671 20.3252   2
   0   6  -8 365.052 17.5156   3
   0   6  -8 361.126 16.5332   3
   0  -6   8 367.282 16.5860   3
   0  -6   8 324.719 18.9483   1
  -1   6  -8 55.6242 7.06415   2
   1  -6   8 54.5086 6.65211   1
  -2   6  -8 267.148 16.3543   2
   2  -6   8 264.770 16.4003   1
  -3   6  -8 7.38694 4.16210   2
   3  -6   8 20.0139 5.96302   1
  -4   6  -8 512.665 34.4478   2
   4  -6   8 544.852 30.0777   1
  -5   6  -8 20.0373 5.79019   2
  -5   6  -8 20.0544 6.86525   1
   5  -6   8 17.7409 7.00957   1
  -6   6  -8 628.557 32.9179   2
  -6   6  -8 618.307 36.7517   1
   6  -6   8 614.041 36.6542   1
   6  -6   8 672.804 29.6847   3
  -7   6  -8 67.9795 9.26641   2
  -7   6  -8 94.2456 14.2871   1
   8   5  -8 17.8907 4.92162   2
   8   5  -8 5.90078 8.33700   3
  -8  -5   8 22.7153 8.42735   1
   7   5  -8 -0.1830 3.63356   2
   7   5  -8 0.66455 6.96236   3
  -7  -5   8 -0.2883 5.30922   1
   6   5  -8 839.036 40.5398   2
   6   5  -8 855.801 46.2408   3
  -6  -5   8 877.363 43.4257   1
   5   5  -8 15.2918 6.82889   3
   5   5  -8 13.2008 4.56458   2
  -5  -5   8 17.2082 5.79118   1
   4   5  -8 747.211 35.9204   2
   4   5  -8 752.940 38.7666   3
   3   5  -8 466.401 26.1796   3
   3   5  -8 514.846 25.1086   2
  -3  -5   8 496.779 25.6345   1
   2   5  -8 227.954 13.9061   2
   2   5  -8 236.572 14.1515   3
  -2  -5   8 229.273 14.1157   1
   1   5  -8 238.396 13.2681   3
   1   5  -8 238.513 14.2786   2
  -1  -5   8 250.203 14.3895   1
   0   5  -8 2952.79 128.631   3
   0   5  -8 3256.04 132.571   2
   0   5  -8 3059.70 129.309   3
   0  -5   8 3028.62 131.627   1
   0  -5   8 2907.68 128.642   3
  -1   5  -8 478.977 25.0403   2
   1  -5   8 488.418 24.6472   1
  -2   5  -8 448.173 24.9296   2
   2  -5   8 515.905 25.5051   1
  -3   5  -8 153.593 11.7250   2
   3  -5   8 169.478 12.7857   1
  -4   5  -8 104.094 9.73360   2
   4  -5   8 98.6100 11.1410   1
  -5   5  -8 432.222 23.5568   2
  -5   5  -8 398.064 25.4153   1
   5  -5   8 419.318 25.8143   1
  -6   5  -8 17.2855 5.50295   2
  -6   5  -8 26.3710 8.27480   1
   6  -5   8 13.9245 6.82642   1
  -7   5  -8 12.5118 7.98138   1
  -7   5  -8 9.47098 5.14365   2
   7  -5   8 14.8622 4.39322   3
   8   4  -8 247.872 22.6845   3
   8   4  -8 258.016 14.7362   2
  -8  -4   8 281.825 20.6689   1
   7   4  -8 11.8114 8.06948   3
   7   4  -8 10.7225 4.02914   2
  -7  -4   8 20.3111 7.41745   1
   6   4  -8 1611.21 71.4635   2
   6   4  -8 1624.78 77.6131   3
  -6  -4   8 1588.21 74.8305   1
   5   4  -8 344.396 18.1936   2
   5   4  -8 321.655 21.8556   3
  -5  -4   8 342.780 20.4736   1
   4   4  -8 181.807 14.1104   3
   4   4  -8 185.630 11.6380   2
  -4  -4   8 181.823 12.8586   1
   3   4  -8 172.783 10.7546   2
   3   4  -8 177.579 12.1899   3
  -3  -4   8 136.864 11.1071   1
   2   4  -8 99.2612 8.23104   2
   2   4  -8 98.1876 8.19510   3
  -2  -4   8 111.972 8.68358   1
   1   4  -8 3354.85 143.302   2
   1   4  -8 3362.13 141.929   3
  -1  -4   8 3176.78 142.961   1
  -1  -4   8 3348.73 142.430   3
   0   4  -8 397.197 20.9901   2
   0  -4   8 406.181 17.7026   3
   0  -4   8 390.113 20.5019   1
  -1   4  -8 163.941 11.1563   2
   1  -4   8 158.761 10.4928   1
  -2   4  -8 229.844 14.7209   2
   2  -4   8 258.870 15.0715   1
  -3   4  -8 905.010 42.2473   2
   3  -4   8 856.917 42.4740   1
  -4   4  -8 357.550 20.8810   1
  -4   4  -8 322.024 18.8769   2
   4  -4   8 292.076 19.8281   1
  -5   4  -8 352.290 20.6876   2
  -5   4  -8 416.019 23.7955   1
   5  -4   8 318.130 22.3263   1
   5  -4   8 361.993 17.5476   3
  -6   4  -8 56.7871 8.01204   2
  -6   4  -8 61.4085 10.6498   1
   6  -4   8 47.0708 5.79587   3
   6  -4   8 42.7001 9.13261   1
  -7   4  -8 95.5201 9.77333   2
  -7   4  -8 97.0415 15.4435   1
   7  -4   8 81.2629 8.64982   3
   8   3  -8 39.5333 10.8870   3
  -8  -3   8 38.6051 9.42132   1
   7   3  -8 1081.84 57.2360   3
   7   3  -8 1107.63 49.5265   2
  -7  -3   8 1123.35 55.0266   1
   6   3  -8 140.072 14.1474   3
   6   3  -8 122.581 8.48704   2
  -6  -3   8 95.8807 11.2292   1
   5   3  -8 353.298 18.1840   2
  -5  -3   8 346.960 20.8536   1
   4   3  -8 160.493 12.8813   3
   4   3  -8 162.337 10.3775   2
  -4  -3   8 172.238 12.3763   1
   3   3  -8 1715.26 73.2825   2
   3   3  -8 1721.99 74.9571   3
  -3  -3   8 1533.26 74.1265   1
   2   3  -8 1156.66 52.8022   3
   2   3  -8 1161.26 52.6173   2
  -2  -3   8 1173.64 53.1583   1
   1   3  -8 60.9673 6.30159   2
   1   3  -8 66.3506 5.20125   3
  -1  -3   8 67.5601 6.41953   1
  -1  -3   8 51.0271 4.78293   3
   0   3  -8 564.675 23.1579   3
   0   3  -8 504.203 25.9097   2
   0  -3   8 505.783 23.2542   3
   0  -3   8 513.769 25.4776   1
  -1   3  -8 266.463 15.5928   2
   1  -3   8 276.974 15.2170   1
  -2   3  -8 354.358 19.1987   2
   2  -3   8 337.419 18.7787   1
  -3   3  -8 55.1059 7.37435   2
   3  -3   8 52.6679 7.23449   1
  -4   3  -8 367.873 25.9681   1
  -4   3  -8 438.702 20.3390   3
  -4   3  -8 456.516 23.6841   2
   4  -3   8 418.889 25.1110   1
   4  -3   8 428.738 20.1950   3
   4  -3   8 478.940 19.9304   3
  -5   3  -8 -0.6868 4.56233   1
  -5   3  -8 3.86966 4.16076   2
   5  -3   8 0.66250 4.71969   1
   5  -3   8 1.15702 2.66529   3
  -6   3  -8 543.810 31.1755   1
  -6   3  -8 545.015 28.4645   2
   6  -3   8 508.109 30.7788   1
   6  -3   8 530.465 26.6993   3
  -7   3  -8 112.588 13.4712   1
  -7   3  -8 90.2346 9.94697   2
   7  -3   8 97.4002 9.72831   3
   8   2  -8 66.2812 12.7352   3
  -8  -2   8 59.6725 10.8073   1
   7   2  -8 12.4121 7.50476   3
   7   2  -8 6.19193 2.62085   2
  -7  -2   8 8.37243 6.14980   1
   6   2  -8 287.521 20.0288   3
   6   2  -8 231.596 16.7301   2
  -6  -2   8 278.389 18.2200   1
   5   2  -8 -1.0100 5.03564   3
   5   2  -8 -1.6634 2.13500   2
  -5  -2   8 2.73198 3.74124   1
   4   2  -8 2061.65 92.5639   3
   4   2  -8 2008.71 89.3929   2
  -4  -2   8 2087.30 91.7714   1
   3   2  -8 1848.41 84.2088   3
   3   2  -8 1890.72 82.6559   2
  -3  -2   8 1922.56 84.1177   1
   2   2  -8 3776.21 159.241   2
   2   2  -8 3657.33 159.432   3
  -2  -2   8 3680.26 159.828   1
   1   2  -8 2.21364 1.95857   3
   1   2  -8 1.49321 2.61523   2
  -1  -2   8 2.25799 2.53871   1
   0   2  -8 9724.72 412.697   2
  -1   2  -8 68.3015 6.94171   2
   1  -2   8 72.7141 6.52719   1
  -2   2  -8 99.4498 8.22971   2
   2  -2   8 67.0724 7.19184   1
  -3   2  -8 31.2641 5.65435   2
   3  -2   8 30.0475 3.41139   3
   3  -2   8 37.2641 6.20101   1
  -4   2  -8 275.635 20.0142   2
  -4   2  -8 379.257 20.4268   1
   4  -2   8 298.188 16.4828   3
   4  -2   8 368.704 20.1584   1
  -5   2  -8 313.552 18.1752   2
  -5   2  -8 280.314 19.1519   1
   5  -2   8 292.851 16.3889   3
   5  -2   8 306.264 19.3159   1
  -6   2  -8 5.57561 4.54611   2
  -6   2  -8 2.85665 5.53736   1
   6  -2   8 3.14621 3.68997   3
  -7   2  -8 38.5549 9.09335   1
  -7   2  -8 24.6106 6.13163   2
   7  -2   8 44.6678 7.39935   3
   8   1  -8 293.652 26.9295   3
  -8  -1   8 297.094 22.9393   1
   7   1  -8 107.588 14.2507   3
  -7  -1   8 112.542 12.6509   1
   6   1  -8 1765.03 83.2621   3
   6   1  -8 1829.42 76.4992   2
  -6  -1   8 1709.85 81.6094   1
   5   1  -8 4.21132 2.52085   2
  -5  -1   8 3.20106 4.33961   1
   4   1  -8 41.7234 7.14014   3
   4   1  -8 36.9435 4.74425   2
  -4  -1   8 49.0051 7.06561   1
   3   1  -8 723.873 32.2141   2
   3   1  -8 656.687 33.6962   3
   2   1  -8 465.670 23.7069   3
   2   1  -8 476.785 23.4568   2
  -2  -1   8 490.734 24.1636   1
   1   1  -8 1659.49 78.7594   2
   1   1  -8 1850.38 78.0854   3
  -1  -1   8 1870.62 79.0074   1
   0   1  -8 45.2551 5.73272   2
   0   1  -8 64.0640 4.40252   3
   0  -1   8 48.6144 4.41164   3
   0  -1   8 56.9146 5.46591   1
  -1   1  -8 33.3177 5.22882   2
   1  -1   8 38.8800 3.28264   3
   1  -1   8 36.5428 4.63837   1
   1  -1   8 34.8060 3.39595   3
  -2   1  -8 481.224 24.2435   2
   2  -1   8 473.218 21.3177   3
   2  -1   8 433.793 21.4408   3
   2  -1   8 489.077 23.4592   1
  -3   1  -8 574.428 29.1111   2
   3  -1   8 582.656 28.9728   1
   3  -1   8 586.568 27.2046   3
  -4   1  -8 96.7924 9.43124   1
  -4   1  -8 83.7064 8.62447   2
   4  -1   8 89.4030 9.24468   1
   4  -1   8 90.0499 7.56875   3
  -5   1  -8 488.321 25.6559   2
  -5   1  -8 483.248 26.7289   1
   5  -1   8 477.743 24.7334   3
   5  -1   8 444.280 26.2075   1
  -6   1  -8 127.493 12.8384   1
  -6   1  -8 137.085 11.6102   2
   6  -1   8 126.821 11.1251   3
  -7   1  -8 141.355 13.8397   1
  -7   1  -8 123.563 11.7531   2
   7  -1   8 118.529 15.8219   3
   8   0  -8 7.29839 6.92957   3
  -8   0   8 2.90000 5.96163   1
   7   0  -8 1329.72 67.5691   3
  -7   0   8 1418.38 66.6655   1
   6   0  -8 111.083 12.5202   3
   6   0  -8 106.470 6.08482   2
  -6   0   8 98.4090 11.2416   1
   5   0  -8 664.510 35.5911   3
   5   0  -8 672.512 30.4480   2
  -5   0   8 677.766 34.6091   1
   4   0  -8 465.482 26.3318   3
  -4   0   8 512.268 26.1588   1
   3   0  -8 1774.47 74.7591   2
   3   0  -8 1691.15 76.5380   3
  -3   0   8 1650.67 76.1055   1
   2   0  -8 -0.4168 2.15957   2
   2   0  -8 5.45618 2.86814   3
  -2   0   8 4.30084 2.90651   1
   1   0  -8 781.731 40.4541   3
   1   0  -8 843.537 38.8805   2
  -1   0   8 893.716 38.7574   1
   0   0  -8 306.496 16.7063   2
   0   0  -8 296.539 15.0897   3
   0   0   8 320.531 15.9211   1
  -1   0  -8 351.224 19.3959   2
   1   0   8 354.713 17.4320   3
   1   0   8 393.736 18.5996   1
  -2   0  -8 774.700 36.9445   2
   2   0   8 780.164 35.8663   1
   2   0   8 761.423 34.9923   3
  -3   0  -8 1.50651 3.29355   2
   3   0   8 1.15346 3.10305   1
   3   0   8 0.10548 2.45469   3
  -4   0  -8 164.722 12.1477   1
  -4   0  -8 156.836 12.0691   2
   4   0   8 167.271 12.0820   1
   4   0   8 185.223 11.8853   3
  -5   0  -8 10.1281 5.05287   2
  -5   0  -8 10.6832 7.47429   1
   5   0   8 9.74186 4.59730   3
  -6   0  -8 581.215 32.0102   1
  -6   0  -8 585.493 31.0678   2
   6   0   8 614.655 31.8986   3
  -7   0  -8 9.25531 5.13194   2
  -7   0  -8 26.9808 7.52122   1
   7   0   8 15.6511 6.66750   3
   8  -1  -8 15.2884 8.52217   3
  -8   1   8 17.8192 7.79419   1
   7  -1  -8 1.13697 5.94310   3
  -7   1   8 4.49222 5.86977   1
   6  -1  -8 528.625 30.2816   3
  -6   1   8 503.920 28.7702   1
   5  -1  -8 5.18308 5.06888   3
   5  -1  -8 4.33004 2.15132   2
  -5   1   8 4.57400 4.53001   1
   4  -1  -8 2269.84 101.496   3
   4  -1  -8 2186.69 100.566   2
  -4   1   8 2356.23 101.155   1
   3  -1  -8 401.048 19.8661   2
   3  -1  -8 394.179 21.7228   3
  -3   1   8 419.970 21.5705   1
   2  -1  -8 115.566 8.00678   2
   2  -1  -8 132.173 8.95195   3
  -2   1   8 108.793 8.37793   1
   1  -1  -8 59.7066 5.62271   3
   1  -1  -8 44.1717 5.32354   2
  -1   1   8 47.0453 5.18465   1
   0  -1  -8 3340.94 137.149   2
   0  -1  -8 2957.64 135.647   3
   0   1   8 3204.23 135.696   1
  -1  -1  -8 26.1097 4.56075   2
   1   1   8 27.3335 3.92032   1
  -2  -1  -8 24.0715 4.73984   2
  -3  -1  -8 43.5672 5.68738   1
  -3  -1  -8 52.6442 7.25537   2
   3   1   8 37.1213 5.66818   3
   3   1   8 41.5624 5.66648   1
  -4  -1  -8 190.480 13.5837   2
  -4  -1  -8 217.759 13.2236   1
   4   1   8 184.574 12.8472   1
   4   1   8 182.714 13.0810   3
  -5  -1  -8 419.496 23.2731   2
  -5  -1  -8 395.159 22.7548   1
   5   1   8 419.154 23.8203   3
  -6  -1  -8 71.2985 9.13242   1
  -6  -1  -8 45.0220 7.83764   2
   6   1   8 55.9943 14.9299   3
   8  -2  -8 255.226 21.5801   3
  -8   2   8 284.604 21.3924   1
   7  -2  -8 -1.8778 5.57137   3
  -7   2   8 -0.7504 5.25006   1
   6  -2  -8 1671.71 76.6130   3
  -6   2   8 1563.54 75.3464   1
   5  -2  -8 121.420 7.23666   2
   5  -2  -8 115.445 11.8623   3
  -5   2   8 147.116 11.8991   1
   4  -2  -8 20.2330 5.59561   3
   4  -2  -8 18.3440 3.38877   2
  -4   2   8 20.7651 5.18434   1
   3  -2  -8 192.473 13.3800   3
   3  -2  -8 222.176 11.9425   2
  -3   2   8 214.428 13.1949   1
   2  -2  -8 53.7843 5.61170   2
   2  -2  -8 65.5854 6.65645   3
  -2   2   8 45.1673 5.61872   1
   1  -2  -8 3740.56 156.399   3
   1  -2  -8 3565.68 156.541   2
  -1   2   8 3604.90 155.702   1
   0  -2  -8 255.010 14.3498   2
   0  -2  -8 255.770 13.6713   3
   0   2   8 244.953 13.3682   3
   0   2   8 213.771 12.3604   1
  -1  -2  -8 1311.62 60.5119   3
  -1  -2  -8 1347.88 61.7319   2
   1   2   8 1440.00 59.7689   1
   1   2   8 1353.14 60.5796   3
  -2  -2  -8 169.425 12.0970   2
   2   2   8 180.331 11.3607   3
   2   2   8 173.148 12.7721   1
  -3  -2  -8 567.111 28.5104   2
  -3  -2  -8 535.391 26.6073   1
   3   2   8 578.679 28.2500   3
   3   2   8 530.336 26.5084   1
  -4  -2  -8 268.310 16.6822   2
  -4  -2  -8 257.088 15.0726   1
   4   2   8 241.974 16.4840   3
  -5  -2  -8 442.067 24.7560   2
  -5  -2  -8 418.409 23.6081   1
   5   2   8 467.317 26.1281   3
  -6  -2  -8 0.51829 4.42087   2
  -6  -2  -8 0.15874 4.16888   1
   6   2   8 3.40216 5.61358   3
   8  -3  -8 7.11905 7.11721   3
  -8   3   8 2.24191 6.63692   1
   7  -3  -8 332.638 23.1666   3
  -7   3   8 334.637 22.6729   1
   6  -3  -8 193.050 15.8514   3
  -6   3   8 162.690 14.3993   1
   5  -3  -8 1269.49 59.4233   2
   5  -3  -8 1440.04 65.1897   3
  -5   3   8 1428.53 64.5755   1
   4  -3  -8 58.2335 5.09467   2
   4  -3  -8 58.9669 8.60721   3
  -4   3   8 52.8915 7.40925   1
   3  -3  -8 1833.38 79.7348   2
   3  -3  -8 1808.87 81.8186   3
  -3   3   8 1832.84 81.1896   1
   2  -3  -8 295.985 16.8683   3
   2  -3  -8 295.682 15.9617   2
  -2   3   8 304.671 16.1144   1
   1  -3  -8 586.314 30.0549   2
   1  -3  -8 656.270 30.5708   3
  -1   3   8 642.098 31.0439   1
   0  -3  -8 35.0658 5.36127   2
  -1  -3  -8 876.637 41.6860   2
   1   3   8 880.523 39.0081   1
   1   3   8 887.156 41.0300   3
  -2  -3  -8 178.573 11.8418   2
  -2  -3  -8 147.593 8.81915   1
   2   3   8 139.039 8.63607   1
   2   3   8 146.770 10.9372   3
  -3  -3  -8 73.6162 6.40419   1
  -3  -3  -8 76.6301 8.72171   2
   3   3   8 99.0041 9.42438   3
  -4  -3  -8 236.321 13.9113   1
  -4  -3  -8 238.258 16.0723   2
   4   3   8 251.922 17.0119   3
  -5  -3  -8 125.829 11.2971   2
  -5  -3  -8 102.449 9.33827   1
   5   3   8 117.992 12.6210   3
  -6  -3  -8 42.4964 11.3086   1
  -6  -3  -8 64.3072 10.5107   2
   6   3   8 60.9654 10.5621   3
   8  -4  -8 43.1643 10.7875   3
  -8   4   8 34.6672 9.13033   1
   7  -4  -8 2.20042 5.87555   3
  -7   4   8 0.24452 5.46283   1
   6  -4  -8 129.611 13.2503   3
  -6   4   8 137.031 12.8918   1
   5  -4  -8 14.5873 2.78818   2
   5  -4  -8 21.9981 6.58193   3
  -5   4   8 15.6231 5.77180   1
   4  -4  -8 973.851 46.7681   3
   4  -4  -8 957.945 43.1584   2
  -4   4   8 961.565 45.9747   1
   3  -4  -8 885.604 40.9427   2
   3  -4  -8 881.323 44.7296   3
  -3   4   8 928.812 42.2744   1
   2  -4  -8 1084.76 48.2890   2
   2  -4  -8 1094.10 49.3982   3
  -2   4   8 1003.75 47.7154   1
   1  -4  -8 142.604 10.7881   3
   1  -4  -8 146.693 10.2014   2
  -1   4   8 145.721 8.56352   1
   0  -4  -8 2679.30 109.330   2
   0  -4  -8 2338.84 106.442   1
   0  -4  -8 2457.94 108.906   3
   0   4   8 2451.52 106.036   1
   0   4   8 2512.47 108.730   3
  -1  -4  -8 349.644 16.0350   1
  -1  -4  -8 321.894 18.8402   2
   1   4   8 349.956 15.7557   1
   1   4   8 324.905 18.7834   3
  -2  -4  -8 563.858 27.5837   2
  -2  -4  -8 510.354 23.5755   1
  -2  -4  -8 512.778 23.6030   1
   2   4   8 501.604 27.0720   3
  -3  -4  -8 86.0911 6.01508   1
  -3  -4  -8 75.3922 8.94374   2
   3   4   8 83.7111 9.56871   3
  -4  -4  -8 244.515 16.5931   2
  -4  -4  -8 252.665 13.7186   1
   4   4   8 252.184 18.0484   3
  -5  -4  -8 411.319 23.8668   2
  -5  -4  -8 408.734 21.0486   1
   5   4   8 394.663 25.7016   3
   7  -5  -8 16.3172 7.45847   3
  -7   5   8 11.2044 6.74263   1
   6  -5  -8 593.546 32.8300   3
  -6   5   8 575.177 32.1766   1
   5  -5  -8 152.703 13.4960   3
   5  -5  -8 150.527 8.78409   2
  -5   5   8 141.529 12.3373   1
   4  -5  -8 251.010 16.7427   3
   4  -5  -8 229.914 12.8544   2
  -4   5   8 223.667 15.0791   1
   3  -5  -8 22.3248 4.36052   2
   3  -5  -8 21.4956 5.89456   3
  -3   5   8 26.7086 5.02013   1
   2  -5  -8 168.558 10.9492   2
   2  -5  -8 159.134 12.6472   3
  -2   5   8 165.458 10.1115   1
   1  -5  -8 563.476 28.0732   2
   1  -5  -8 583.064 29.0598   3
  -1   5   8 565.698 28.5908   3
  -1   5   8 546.798 25.6177   1
   0  -5  -8 173.971 12.0779   2
   0  -5  -8 178.110 12.7950   3
   0   5   8 185.359 12.4410   3
   0   5   8 170.827 8.47034   1
  -1  -5  -8 225.255 15.0477   2
   1   5   8 267.770 16.0252   3
  -2  -5  -8 43.5329 6.73187   2
   2   5   8 52.5092 8.10920   3
  -3  -5  -8 607.487 32.3138   2
   3   5   8 636.716 33.7175   3
  -4  -5  -8 271.581 17.9767   2
  -4  -5  -8 274.441 13.4785   1
   4   5   8 250.605 19.4586   3
  -5  -5  -8 232.371 16.8734   2
   5   5   8 224.693 18.8892   3
   7  -6  -8 123.789 14.6185   3
  -7   6   8 140.470 14.4641   1
   6  -6  -8 252.732 19.2423   3
  -6   6   8 254.919 18.3148   1
   5  -6  -8 1116.77 49.1134   2
   5  -6  -8 1101.50 53.8710   3
  -5   6   8 1097.94 52.9986   1
   4  -6  -8 10.7597 5.57175   3
   4  -6  -8 13.0557 3.72624   2
  -4   6   8 22.7621 5.61947   1
   3  -6  -8 1801.60 83.1791   3
   3  -6  -8 1852.00 80.8762   2
  -3   6   8 1839.31 81.0601   1
   2  -6  -8 236.376 16.7043   3
   2  -6  -8 279.641 15.3871   2
   1  -6  -8 9.65411 4.98103   3
  -1   6   8 4.56027 4.23382   3
  -1   6   8 4.48124 1.76807   1
   0  -6  -8 3.38844 4.52980   3
   0  -6  -8 5.97545 3.84197   2
   0   6   8 4.05735 4.30061   3
  -1  -6  -8 18.6470 5.48157   2
   1   6   8 17.4813 5.83387   3
  -2  -6  -8 38.9349 6.89640   2
   2   6   8 29.0550 7.01626   3
  -3  -6  -8 3.68443 4.70260   2
   3   6   8 -0.1671 5.29226   3
  -4  -6  -8 484.835 30.5806   2
   4   6   8 499.170 30.2942   3
   6  -7  -8 74.0974 11.3931   3
  -6   7   8 70.5157 10.4615   1
   5  -7  -8 75.0301 11.5142   3
   5  -7  -8 87.7718 7.03238   2
  -5   7   8 84.5634 9.95675   1
   4  -7  -8 246.518 17.6051   3
   4  -7  -8 260.703 14.5521   2
  -4   7   8 251.654 15.8563   1
   3  -7  -8 181.387 14.4093   3
   3  -7  -8 194.293 12.3625   2
  -3   7   8 190.737 11.8816   1
   2  -7  -8 1284.33 58.5839   3
   2  -7  -8 1220.19 56.6112   2
  -2   7   8 1202.53 54.1273   1
   1  -7  -8 17.7934 6.00549   3
   1  -7  -8 16.9148 5.03063   2
  -1   7   8 19.3481 5.94794   3
   0  -7  -8 278.910 18.1432   3
   0  -7  -8 256.996 16.6138   2
   0   7   8 249.801 17.1060   3
  -1  -7  -8 481.764 26.7192   2
   1   7   8 497.308 27.7200   3
  -2  -7  -8 77.6311 9.96250   2
   2   7   8 82.5787 11.3856   3
   3   7   8 36.8513 9.17261   3
  -4  -7  -8 370.709 23.4807   2
   4   7   8 387.181 26.4460   3
   6  -8  -8 274.272 21.1145   3
  -6   8   8 316.876 20.5100   1
   5  -8  -8 252.341 18.8724   3
   5  -8  -8 243.252 13.9350   2
  -5   8   8 234.928 16.4706   1
   4  -8  -8 2.71320 3.65008   2
   4  -8  -8 9.05289 6.51071   3
  -4   8   8 3.12482 4.11090   1
   3  -8  -8 28.1758 5.45510   2
   3  -8  -8 30.1712 7.73583   3
  -3   8   8 23.4478 4.42501   1
   2  -8  -8 91.6992 9.19962   2
   2  -8  -8 91.8193 11.4418   3
  -2   8   8 99.8422 10.9502   3
  -2   8   8 101.973 6.07862   1
   1  -8  -8 134.165 13.5029   3
   1  -8  -8 132.734 11.2338   2
  -1   8   8 144.710 12.7510   3
   0  -8  -8 519.356 27.9207   2
   0  -8  -8 530.269 29.6740   3
   0   8   8 506.429 28.9550   3
  -1  -8  -8 181.732 14.4742   2
   1   8   8 202.503 15.9043   3
  -2  -8  -8 82.5134 15.8921   2
   2   8   8 89.0272 12.2868   3
  -3  -8  -8 247.947 18.4662   2
   3   8   8 287.462 23.5413   3
   5  -9  -8 448.521 23.3839   2
   5  -9  -8 445.686 28.0560   3
  -5   9   8 481.603 25.7691   1
   4  -9  -8 11.7039 7.06056   3
   4  -9  -8 4.99681 4.29517   2
  -4   9   8 15.3945 4.74739   1
   3  -9  -8 613.865 30.8350   2
  -3   9   8 615.467 28.6444   1
  -3   9   8 578.789 42.5451   3
   2  -9  -8 90.4288 9.58011   2
   2  -9  -8 99.9474 12.0441   3
  -2   9   8 94.3398 11.4265   3
   1  -9  -8 133.029 14.0076   3
   1  -9  -8 130.753 11.5409   2
  -1   9   8 111.824 12.5435   3
   0  -9  -8 54.8083 8.50362   2
   0   9   8 48.1586 9.19166   3
  -1  -9  -8 196.201 15.4482   2
   1   9   8 202.503 18.5160   3
  -2  -9  -8 24.3658 7.47591   2
   2   9   8 27.9314 8.88032   3
   3 -10  -8 214.020 14.8694   2
   3 -10  -8 216.686 18.1414   3
  -3  10   8 220.233 17.4088   3
   2 -10  -8 36.5071 9.16935   3
   2 -10  -8 26.5596 6.63210   2
  -2  10   8 36.2441 8.26681   3
   1 -10  -8 31.9654 9.28386   3
   1 -10  -8 38.3379 8.20280   2
  -1  10   8 43.5258 9.22235   3
   0 -10  -8 785.390 40.6381   2
   0  10   8 799.779 42.2992   3
   2  13  -9 43.0212 9.67535   3
   2  13  -9 20.7222 7.48286   2
  -2 -13   9 25.5399 7.21154   1
  -2 -13   9 37.2838 9.51560   2
   1  13  -9 46.7540 9.38461   2
   1  13  -9 54.5780 10.0536   3
  -1 -13   9 50.4080 10.4277   2
  -1 -13   9 67.9223 9.82224   1
   0  13  -9 2.91831 5.02239   3
   0  13  -9 2.94182 6.34045   2
   0 -13   9 14.5882 6.61057   1
   0 -13   9 1.29171 6.08797   2
  -1  13  -9 50.1734 12.1350   2
  -1  13  -9 68.4862 9.27381   3
   1 -13   9 64.9146 10.4941   1
  -2  13  -9 12.2354 4.96749   3
  -2  13  -9 1.79658 10.1356   2
   2 -13   9 15.6249 7.71766   1
  -3  13  -9 1.93824 6.51520   2
  -3  13  -9 10.6494 7.42401   3
   3 -13   9 7.50207 7.09107   1
   4  12  -9 5.21638 7.21900   3
   4  12  -9 6.71202 6.20304   2
  -4 -12   9 -7.4839 5.35883   2
  -4 -12   9 5.41219 5.62822   1
   3  12  -9 355.054 28.8035   2
   3  12  -9 347.705 24.7913   3
  -3 -12   9 326.499 24.9322   2
  -3 -12   9 343.951 21.1234   1
   2  12  -9 792.607 43.0757   2
   2  12  -9 842.578 44.4003   3
  -2 -12   9 871.996 44.0655   2
  -2 -12   9 821.235 41.1307   1
   1  12  -9 1575.90 75.1062   3
   1  12  -9 1598.33 75.9540   2
  -1 -12   9 1578.60 76.0125   2
  -1 -12   9 1641.52 73.6942   1
   0  12  -9 10.5787 5.45725   3
   0  12  -9 11.0225 6.17668   2
   0 -12   9 10.3870 6.10252   1
   0 -12   9 16.9103 7.17695   2
  -1  12  -9 9.90311 6.49360   2
  -1  12  -9 14.8778 5.00375   3
   1 -12   9 19.0309 7.16357   1
  -2  12  -9 154.580 11.5202   3
  -2  12  -9 167.974 15.3350   2
   2 -12   9 177.527 15.3526   1
  -3  12  -9 50.9836 6.43698   3
  -3  12  -9 60.6696 10.5178   2
   3 -12   9 51.3692 10.6459   1
  -4  12  -9 0.32785 6.52033   1
  -4  12  -9 8.69206 6.58990   2
   4 -12   9 11.4770 8.29846   1
   5  11  -9 8.89932 6.65623   2
  -5 -11   9 7.76202 6.78128   2
  -5 -11   9 20.9291 6.96963   1
   4  11  -9 507.849 29.3567   2
   4  11  -9 511.596 32.6935   3
  -4 -11   9 487.183 29.5724   2
  -4 -11   9 513.578 28.0255   1
   3  11  -9 74.5525 11.9395   3
   3  11  -9 86.4185 11.3292   2
  -3 -11   9 82.6904 10.1388   1
  -3 -11   9 64.7574 10.5809   2
   2  11  -9 281.397 19.6836   2
   2  11  -9 275.828 20.0622   3
  -2 -11   9 277.988 18.0545   1
  -2 -11   9 303.191 20.2611   2
   1  11  -9 219.954 17.0520   2
   1  11  -9 235.773 16.8404   3
  -1 -11   9 246.617 16.5730   1
  -1 -11   9 256.988 18.1218   2
   0  11  -9 116.999 10.4302   3
   0  11  -9 103.812 11.8920   2
   0 -11   9 106.730 11.1068   1
  -1  11  -9 11.8674 5.95916   2
  -1  11  -9 19.6157 4.80367   3
   1 -11   9 16.3268 6.42443   1
  -2  11  -9 30.3332 4.86176   3
  -2  11  -9 20.4122 6.95028   2
   2 -11   9 15.8902 6.78672   1
  -3  11  -9 34.4367 8.14468   2
  -3  11  -9 30.0738 5.05009   3
   3 -11   9 24.2986 8.06318   1
  -4  11  -9 394.959 25.0717   2
  -5  11  -9 89.3407 13.9408   1
  -5  11  -9 72.5649 10.8116   2
   5 -11   9 99.7691 15.0530   1
   5  10  -9 474.308 32.1875   3
   5  10  -9 492.809 27.8262   2
  -5 -10   9 478.499 27.3371   1
  -5 -10   9 480.962 28.2569   2
   4  10  -9 126.764 14.9471   3
   4  10  -9 118.916 12.2919   2
  -4 -10   9 134.897 13.3445   2
  -4 -10   9 140.363 12.7079   1
   3  10  -9 275.861 19.0768   2
   3  10  -9 299.489 21.1494   3
  -3 -10   9 296.310 18.4110   1
  -3 -10   9 288.653 19.6979   2
   2  10  -9 1654.39 80.2583   3
   2  10  -9 1751.77 80.4760   2
  -2 -10   9 1753.99 80.5615   2
  -2 -10   9 1792.98 78.9024   1
   1  10  -9 284.860 19.1537   2
   1  10  -9 270.599 17.8879   3
  -1 -10   9 266.410 19.1771   2
  -1 -10   9 313.205 18.0627   1
   0  10  -9 5.70668 3.67394   3
   0  10  -9 7.78378 5.42993   2
   0 -10   9 9.59145 5.35925   1
  -1  10  -9 89.2789 7.50246   3
  -1  10  -9 83.0113 10.4543   2
   1 -10   9 79.7169 10.2288   1
  -2  10  -9 48.2519 5.28517   3
  -2  10  -9 62.5149 9.55575   2
   2 -10   9 56.8386 9.52173   1
  -3  10  -9 149.686 13.6650   2
   3 -10   9 117.567 12.6490   1
  -4  10  -9 253.238 17.5484   2
   4 -10   9 185.148 17.3082   1
  -5  10  -9 267.743 21.3332   1
  -5  10  -9 263.518 18.9515   2
   5 -10   9 266.962 22.1800   1
   6   9  -9 239.335 16.8051   2
   6   9  -9 208.175 30.4017   3
  -6  -9   9 210.558 16.9089   1
  -6  -9   9 196.324 16.2399   2
   5   9  -9 102.295 11.1422   2
   5   9  -9 112.306 15.0243   3
  -5  -9   9 118.356 11.9642   2
  -5  -9   9 112.992 11.7378   1
   4   9  -9 -1.9710 4.45206   2
   4   9  -9 -4.2900 5.17472   3
  -4  -9   9 -0.0241 4.37586   1
  -4  -9   9 -0.2498 4.57622   2
   3   9  -9 244.860 25.5314   3
   3   9  -9 264.904 17.3705   2
  -3  -9   9 238.355 16.6289   1
  -3  -9   9 262.648 17.3679   2
   2   9  -9 1551.18 73.5691   2
   2   9  -9 1694.13 74.1765   3
  -2  -9   9 1523.81 72.2522   1
  -2  -9   9 1608.89 73.8919   2
   1   9  -9 988.465 49.2407   2
   1   9  -9 1012.44 47.9872   3
  -1  -9   9 1039.08 48.0860   1
   0   9  -9 145.607 10.1860   3
   0   9  -9 142.522 12.2611   2
   0  -9   9 149.434 11.8058   1
  -1   9  -9 292.248 16.2550   3
  -1   9  -9 357.234 20.7019   2
   1  -9   9 333.613 19.7056   1
  -2   9  -9 53.6802 8.72728   2
   2  -9   9 48.1572 8.45735   1
  -3   9  -9 413.006 24.5847   2
   3  -9   9 410.414 25.1483   1
  -4   9  -9 44.2938 8.33092   2
   4  -9   9 43.7271 9.80875   1
  -5   9  -9 157.063 22.8135   1
  -5   9  -9 138.933 13.5402   2
   5  -9   9 162.698 24.7712   1
  -6   9  -9 40.1436 10.3810   1
  -6   9  -9 31.5962 7.86544   2
   6  -9   9 24.2389 8.92792   1
   6   8  -9 15.0748 6.07331   2
   6   8  -9 17.9873 8.86451   3
  -6  -8   9 21.0032 7.27394   1
  -6  -8   9 15.6371 6.10809   2
   5   8  -9 331.635 20.2529   2
   5   8  -9 312.258 23.7529   3
  -5  -8   9 328.674 20.3710   2
  -5  -8   9 330.645 20.7513   1
   4   8  -9 4.12222 5.86402   3
   4   8  -9 7.54259 4.92109   2
  -4  -8   9 3.56491 4.89668   1
  -4  -8   9 4.67202 4.90887   2
   3   8  -9 513.827 28.7098   3
   3   8  -9 519.441 27.5662   2
  -3  -8   9 484.869 27.3189   2
  -3  -8   9 507.689 27.1371   1
   2   8  -9 500.102 27.1218   3
   2   8  -9 499.342 27.2294   2
  -2  -8   9 508.882 26.6108   1
   1   8  -9 65.3590 7.33915   3
   1   8  -9 71.0838 9.29530   2
  -1  -8   9 70.4515 8.34688   1
   0   8  -9 7.30220 3.08287   3
   0   8  -9 6.47899 4.73393   2
   0  -8   9 6.48167 4.70952   1
  -1   8  -9 636.865 31.4036   2
   1  -8   9 544.538 29.8430   1
  -2   8  -9 616.005 32.4096   2
   2  -8   9 608.124 32.0630   1
  -3   8  -9 22.1954 6.31694   2
   3  -8   9 16.4562 6.07035   1
  -4   8  -9 343.485 21.7443   2
   4  -8   9 362.857 23.6238   1
  -5   8  -9 341.122 21.3530   2
  -5   8  -9 327.612 23.5277   1
   5  -8   9 333.786 23.9681   1
  -6   8  -9 277.964 18.9330   2
  -6   8  -9 271.280 22.3571   1
   6  -8   9 286.991 22.7205   1
   7   7  -9 110.484 16.0898   3
   7   7  -9 109.180 11.0579   2
  -7  -7   9 121.747 13.6521   1
   6   7  -9 440.494 24.4612   2
   6   7  -9 418.323 29.2043   3
  -6  -7   9 450.117 26.3596   1
   5   7  -9 727.586 36.2970   2
   5   7  -9 718.052 40.1850   3
  -5  -7   9 761.993 37.8222   1
  -5  -7   9 679.004 36.1315   2
   4   7  -9 2365.75 102.644   2
   4   7  -9 2167.66 108.697   3
  -4  -7   9 2299.03 102.684   2
  -4  -7   9 2372.05 103.180   1
   3   7  -9 125.149 11.7650   3
   3   7  -9 115.115 14.0172   2
  -3  -7   9 119.942 10.6035   1
   2   7  -9 211.448 14.0002   3
   2   7  -9 211.465 16.0364   2
  -2  -7   9 194.227 14.9322   1
   1   7  -9 1005.88 47.4905   2
  -1  -7   9 968.109 46.6484   1
   0   7  -9 368.631 19.6707   3
   0   7  -9 492.944 26.8532   2
   0   7  -9 431.332 20.9437   3
   0  -7   9 497.545 24.2424   1
  -1   7  -9 76.5664 9.58105   2
   1  -7   9 50.6886 7.85803   1
  -2   7  -9 9.06982 4.86988   2
   2  -7   9 24.1740 6.29748   1
  -3   7  -9 38.2363 7.27646   2
   3  -7   9 46.4782 8.20690   1
  -4   7  -9 302.787 18.7406   2
   4  -7   9 266.624 19.8058   1
  -5   7  -9 113.919 11.1531   2
  -5   7  -9 83.4591 12.4238   1
   5  -7   9 99.3554 12.8479   1
  -6   7  -9 -1.0742 4.74140   2
  -6   7  -9 0.97065 6.36512   1
   6  -7   9 -1.1846 6.19645   1
  -7  -6   9 42.7978 10.7404   1
   6   6  -9 286.338 22.3166   3
  -6  -6   9 305.966 20.1555   1
   5   6  -9 1963.18 93.2128   3
   5   6  -9 2014.45 89.1872   2
  -5  -6   9 2004.14 90.8190   1
   4   6  -9 103.721 9.27170   2
   4   6  -9 83.9172 10.8041   3
  -4  -6   9 102.964 10.5685   1
   3   6  -9 1767.52 78.5335   2
   3   6  -9 1786.88 79.8407   3
  -3  -6   9 1679.40 78.6169   1
   2   6  -9 222.551 14.2291   2
   2   6  -9 209.221 13.7912   3
  -2  -6   9 214.682 14.0867   1
   1   6  -9 2120.88 93.6945   2
   1   6  -9 2065.60 91.8186   3
  -1  -6   9 2123.87 93.1055   1
   0   6  -9 603.025 26.3642   3
   0   6  -9 565.954 29.5783   2
   0   6  -9 551.656 26.0926   3
   0  -6   9 593.813 29.0788   1
  -1   6  -9 936.412 45.4728   2
   1  -6   9 960.232 44.9401   1
  -2   6  -9 285.445 19.5628   2
   2  -6   9 267.720 17.2849   1
  -3   6  -9 939.192 45.8255   2
   3  -6   9 947.619 46.3409   1
  -4   6  -9 25.8916 6.35188   2
   4  -6   9 10.3963 6.09895   1
  -5   6  -9 14.7664 5.73434   2
  -5   6  -9 13.9020 6.62831   1
   5  -6   9 4.22866 6.41612   1
  -6   6  -9 7.04552 5.21380   2
  -6   6  -9 4.14669 6.77355   1
   6  -6   9 8.21024 6.78227   1
   7   5  -9 693.195 33.5281   2
   7   5  -9 680.320 40.6747   3
  -7  -5   9 672.390 37.2088   1
   6   5  -9 120.834 10.3194   2
   6   5  -9 138.692 15.2089   3
  -6  -5   9 128.385 12.7410   1
   5   5  -9 1919.59 88.9368   3
   5   5  -9 1895.26 84.6151   2
  -5  -5   9 1887.82 86.6501   1
   4   5  -9 64.5967 7.35797   2
   4   5  -9 85.9982 10.0960   3
  -4  -5   9 63.6984 8.28844   1
   3   5  -9 659.212 32.0622   2
   3   5  -9 645.315 33.0449   3
  -3  -5   9 640.412 32.8744   1
   2   5  -9 135.218 10.1142   2
   2   5  -9 130.670 9.79668   3
  -2  -5   9 120.015 10.0195   1
   1   5  -9 647.909 31.7403   3
   1   5  -9 700.482 33.8324   2
  -1  -5   9 717.162 33.5718   1
   0   5  -9 202.791 13.5170   2
   0  -5   9 205.395 12.9657   1
  -1   5  -9 719.793 33.3259   2
   1  -5   9 600.549 31.8687   1
  -2   5  -9 676.580 33.4903   2
   2  -5   9 647.674 32.9156   1
  -3   5  -9 716.008 35.1538   2
   3  -5   9 647.206 34.6301   1
  -4   5  -9 600.843 30.4754   2
   4  -5   9 544.359 31.3182   1
  -5   5  -9 2.79355 4.49362   2
  -5   5  -9 -4.4419 4.86661   1
   5  -5   9 4.71784 5.87024   1
  -6   5  -9 147.668 15.7598   1
  -6   5  -9 145.171 12.5386   2
   6  -5   9 136.092 15.0634   1
   8   4  -9 73.0253 13.4994   3
  -8  -4   9 61.8584 11.2190   1
   7   4  -9 194.915 19.3306   3
   7   4  -9 193.828 12.5533   2
  -7  -4   9 209.244 17.0006   1
   6   4  -9 733.035 40.5659   3
   6   4  -9 728.133 34.8359   2
  -6  -4   9 722.125 38.1144   1
   5   4  -9 349.500 22.1124   3
   5   4  -9 319.490 17.8440   2
  -5  -4   9 302.757 19.8027   1
   4   4  -9 1590.74 73.2264   3
   4   4  -9 1583.81 70.5394   2
  -4  -4   9 1551.75 72.1749   1
   3   4  -9 133.353 9.99022   2
   3   4  -9 141.332 11.2808   3
  -3  -4   9 144.565 11.3064   1
   2   4  -9 105.362 8.50713   3
   2   4  -9 120.860 9.17463   2
  -2  -4   9 106.641 9.11348   1
   1   4  -9 27.0577 3.98414   3
   1   4  -9 29.2105 4.98819   2
  -1  -4   9 39.8212 5.84231   1
   0   4  -9 1013.12 47.7750   2
   0  -4   9 1029.29 47.1429   1
  -1   4  -9 33.7342 5.89026   2
   1  -4   9 36.3833 5.75980   1
  -2   4  -9 396.862 22.2113   2
   2  -4   9 410.902 22.0913   1
   3  -4   9 243.930 21.2309   1
  -4   4  -9 202.929 13.6743   2
   4  -4   9 143.364 13.6339   1
  -5   4  -9 708.759 35.8716   2
  -5   4  -9 705.622 37.9851   1
   5  -4   9 696.557 37.7674   1
  -6   4  -9 20.2545 5.95400   2
  -6   4  -9 22.9974 8.09918   1
   6  -4   9 24.8188 8.09196   1
   6  -4   9 31.4991 4.59873   3
   8   3  -9 0.69614 7.42681   3
  -8  -3   9 3.66393 6.52501   1
   6   3  -9 170.621 16.6514   3
   6   3  -9 199.468 11.9624   2
  -6  -3   9 195.023 15.5205   1
   5   3  -9 454.560 27.3411   3
   5   3  -9 467.581 23.5512   2
  -5  -3   9 484.254 26.3519   1
   4   3  -9 6.61865 4.53787   3
   4   3  -9 5.82041 3.32131   2
  -4  -3   9 12.2867 4.85911   1
   3   3  -9 480.285 24.5554   3
   3   3  -9 455.668 23.2324   2
  -3  -3   9 429.948 23.9761   1
   2   3  -9 537.980 26.3290   2
   2   3  -9 534.327 26.0515   3
  -2  -3   9 499.912 26.4027   1
   1   3  -9 4159.11 174.310   3
   1   3  -9 4024.72 176.014   2
  -1  -3   9 4066.59 175.864   1
   0   3  -9 2.02311 3.07464   2
   0  -3   9 4.55311 1.67451   3
   0  -3   9 10.6789 3.94045   1
  -1   3  -9 315.618 17.9530   2
   1  -3   9 317.587 17.5101   1
  -2   3  -9 509.483 26.5644   2
   2  -3   9 506.316 26.0853   1
   3  -3   9 5310.26 228.870   1
  -4   3  -9 5.99340 4.97861   1
  -4   3  -9 10.7412 5.08607   2
   4  -3   9 8.02324 5.30794   1
  -5   3  -9 293.703 18.1900   2
  -5   3  -9 314.880 20.2471   1
   5  -3   9 266.410 19.1888   1
   5  -3   9 271.960 14.4738   3
  -6   3  -9 62.8449 10.9306   1
  -6   3  -9 54.8999 8.35334   2
   6  -3   9 57.6608 10.6150   1
   6  -3   9 49.5460 6.14226   3
   8   2  -9 66.1481 13.4173   3
  -8  -2   9 37.3038 9.42494   1
   7   2  -9 1504.65 66.4563   2
   7   2  -9 1462.52 73.5580   3
  -7  -2   9 1510.81 71.6874   1
   6   2  -9 84.6253 12.0359   3
   6   2  -9 75.3713 6.77926   2
  -6  -2   9 87.6489 10.7391   1
   5   2  -9 328.962 16.9439   2
   5   2  -9 315.786 20.7504   3
  -5  -2   9 311.712 19.8294   1
   4   2  -9 103.746 10.1215   3
   4   2  -9 105.062 7.90662   2
  -4  -2   9 75.9378 11.2180   1
   3   2  -9 451.641 25.1383   3
   3   2  -9 490.565 24.1242   2
  -3  -2   9 504.367 25.6115   1
   2   2  -9 1010.20 46.6158   2
   2   2  -9 1057.69 46.6860   3
  -2  -2   9 973.354 46.9346   1
   1   2  -9 672.477 32.4178   3
   1   2  -9 721.548 34.1979   2
  -1  -2   9 748.204 34.1757   1
   0   2  -9 268.518 16.4569   2
   0   2  -9 326.936 13.9460   3
   0  -2   9 282.683 15.9670   1
   0  -2   9 276.607 14.3303   3
   1  -2   9 77.4973 7.18604   1
  -2   2  -9 2101.01 94.4499   2
   2  -2   9 2150.34 93.8306   1
  -3   2  -9 288.292 17.4018   2
   3  -2   9 272.015 17.0495   1
  -4   2  -9 482.600 26.0689   2
  -4   2  -9 503.079 28.8051   1
   4  -2   9 520.630 22.9290   3
   4  -2   9 437.741 22.7147   3
  -5   2  -9 253.661 16.9088   2
  -5   2  -9 262.040 18.2922   1
   5  -2   9 253.630 17.9126   1
  -6   2  -9 113.616 10.7642   2
  -6   2  -9 105.755 12.1969   1
   6  -2   9 105.888 9.27183   3
   8   1  -9 284.937 23.5723   3
  -8  -1   9 274.590 21.5077   1
   7   1  -9 245.827 11.8313   2
   7   1  -9 234.702 20.0053   3
  -7  -1   9 245.492 18.9061   1
   6   1  -9 804.006 37.0443   2
   6   1  -9 793.379 42.8614   3
  -6  -1   9 812.103 41.4911   1
  -5  -1   9 33.3699 6.98297   1
   4   1  -9 1177.38 56.7294   3
   4   1  -9 1210.19 53.8463   2
  -4  -1   9 1215.13 56.2137   1
   3   1  -9 12.8752 3.67318   2
   3   1  -9 11.7831 4.27384   3
  -3  -1   9 17.1192 4.95273   1
   2   1  -9 822.552 37.7225   2
   2   1  -9 789.964 37.6245   3
  -2  -1   9 803.994 38.2044   1
   1   1  -9 553.542 27.7724   2
   1   1  -9 585.580 26.6001   3
  -1  -1   9 553.220 27.5213   1
   0   1  -9 1165.16 55.1462   2
   0   1  -9 1178.64 52.7746   3
   0  -1   9 1288.65 54.6170   1
  -1   1  -9 43.0988 6.21497   2
   1  -1   9 26.9310 3.44912   3
   1  -1   9 28.9747 3.18660   3
   1  -1   9 33.2357 4.92493   1
  -2   1  -9 175.950 12.0720   2
   2  -1   9 167.144 9.14129   3
   2  -1   9 154.078 11.0631   1
   2  -1   9 168.964 8.97774   3
  -3   1  -9 801.639 37.8979   2
   3  -1   9 736.146 36.9687   1
   3  -1   9 769.922 35.0504   3
  -4   1  -9 140.341 11.6377   1
   4  -1   9 113.906 11.0080   1
   4  -1   9 133.585 9.24160   3
  -5   1  -9 149.341 12.3391   2
  -5   1  -9 132.387 12.5931   1
   5  -1   9 145.506 12.7985   1
   5  -1   9 153.475 10.9266   3
  -6   1  -9 17.1929 5.78251   2
  -6   1  -9 15.0269 6.48833   1
   6  -1   9 15.9547 5.30800   3
   8   0  -9 37.9832 10.2593   3
  -8   0   9 31.4929 9.05019   1
   6   0  -9 35.2469 3.94242   2
   6   0  -9 43.7839 9.16354   3
  -6   0   9 39.9511 8.36801   1
   4   0  -9 50.9266 7.78879   3
   4   0  -9 51.6530 5.36113   2
  -4   0   9 44.4205 7.34130   1
   3   0  -9 857.672 40.6350   2
   3   0  -9 909.689 42.4549   3
  -3   0   9 893.724 42.2634   1
   2   0  -9 37.9422 5.46601   3
   2   0  -9 29.9358 4.71203   2
  -2   0   9 36.2892 5.68403   1
   1   0  -9 2395.78 107.902   2
   1   0  -9 2587.90 107.036   3
  -1   0   9 2433.29 107.551   1
   0   0  -9 15.0852 4.18893   2
   0   0  -9 14.2520 3.14193   3
   0   0   9 18.7147 3.94124   1
  -1   0  -9 1858.13 80.2930   2
   1   0   9 1844.62 77.7708   3
   1   0   9 1685.57 78.5868   1
  -2   0  -9 -0.6042 4.80305   2
   2   0   9 3.32457 2.52300   3
   2   0   9 1.78556 2.83146   1
  -3   0  -9 1057.22 49.1240   2
   3   0   9 1012.11 47.9626   1
  -4   0  -9 30.9654 6.55308   2
  -4   0  -9 32.0943 6.44022   1
   4   0   9 36.0417 6.61137   1
   4   0   9 38.5560 6.07273   3
  -5   0  -9 54.5836 8.28499   2
  -5   0  -9 53.5349 8.36047   1
   5   0   9 49.9001 8.10484   1
   5   0   9 46.3112 7.34065   3
  -6   0  -9 10.5992 5.57655   1
  -6   0  -9 -2.6743 4.47490   2
   6   0   9 0.93229 4.51067   3
   8  -1  -9 11.2901 7.80959   3
  -8   1   9 10.5805 7.15612   1
   7  -1  -9 790.807 43.7260   3
  -7   1   9 819.047 42.8839   1
   6  -1  -9 0.88789 1.77009   2
   6  -1  -9 0.03323 5.69818   3
  -6   1   9 0.03749 4.80119   1
   5  -1  -9 444.040 25.6246   3
  -5   1   9 414.029 24.4899   1
   4  -1  -9 320.741 16.3887   2
   4  -1  -9 347.403 19.9673   3
  -4   1   9 287.345 18.5558   1
   3  -1  -9 744.228 36.1551   3
   3  -1  -9 732.758 34.3931   2
  -3   1   9 740.657 35.9266   1
   2  -1  -9 242.328 13.9838   2
   2  -1  -9 248.124 14.4335   3
  -2   1   9 241.885 14.3624   1
   1  -1  -9 974.926 44.4290   3
   1  -1  -9 964.811 45.0779   2
  -1   1   9 991.520 44.5591   1
   0  -1  -9 1234.39 53.3060   3
   0  -1  -9 1139.39 54.4558   2
   0   1   9 1179.36 53.0787   3
   0   1   9 1221.82 53.2830   1
  -1  -1  -9 455.316 21.7589   2
   1   1   9 375.087 19.4202   3
   1   1   9 369.103 19.4650   1
  -2  -1  -9 456.349 23.9423   2
   2   1   9 427.584 21.9860   1
   2   1   9 445.097 22.0670   3
  -3  -1  -9 101.132 8.41147   1
  -3  -1  -9 92.4452 9.30268   2
   3   1   9 81.3035 7.97063   3
   3   1   9 90.5908 8.09290   1
  -4  -1  -9 481.997 27.2153   2
  -4  -1  -9 522.774 26.6151   1
   4   1   9 496.538 26.6341   3
   4   1   9 528.390 26.5220   1
  -5  -1  -9 35.7879 7.14899   2
   5   1   9 42.3111 7.67568   3
  -6  -1  -9 339.336 21.6222   2
  -6  -1  -9 351.004 21.4841   1
   6   1   9 353.274 22.4455   3
   8  -2  -9 164.289 17.2327   3
  -8   2   9 169.693 16.7000   1
   7  -2  -9 80.8789 12.1213   3
  -7   2   9 53.4831 9.84734   1
   6  -2  -9 496.095 24.0037   2
   6  -2  -9 566.301 31.6832   3
  -6   2   9 590.719 31.1373   1
   5  -2  -9 1710.77 78.2793   3
  -5   2   9 1657.82 77.5297   1
   4  -2  -9 47.1981 5.30376   2
   4  -2  -9 54.6545 8.26092   3
  -4   2   9 57.5121 7.68891   1
   3  -2  -9 277.104 16.8511   3
   3  -2  -9 280.443 15.3026   2
  -3   2   9 283.768 16.6008   1
   2  -2  -9 55.6567 6.82681   3
   2  -2  -9 69.5620 6.45129   2
  -2   2   9 50.3982 6.12759   1
   1  -2  -9 7.78329 3.65502   3
   1  -2  -9 6.03616 3.69064   2
  -1   2   9 15.8625 3.68089   1
   0  -2  -9 1393.77 61.9154   2
   0  -2  -9 1411.77 60.8641   3
   0   2   9 1308.72 59.6911   1
   0   2   9 1329.42 60.5038   3
  -1  -2  -9 219.934 15.8566   2
   1   2   9 216.533 11.8666   1
   1   2   9 211.877 12.7062   3
  -2  -2  -9 1.77049 3.61766   2
   2   2   9 5.32754 2.82467   1
   2   2   9 13.5919 3.99892   3
  -3  -2  -9 6.75466 4.56616   2
  -3  -2  -9 6.46968 3.33344   1
   3   2   9 16.4376 5.04044   3
   3   2   9 8.18629 3.39934   1
  -4  -2  -9 159.718 12.6686   2
  -4  -2  -9 139.505 10.7204   1
   4   2   9 147.732 12.2385   3
  -5  -2  -9 631.484 32.0652   2
  -5  -2  -9 564.212 30.1715   1
   5   2   9 587.029 33.3821   3
  -6  -2  -9 39.3411 7.97754   2
  -6  -2  -9 44.8331 7.74041   1
   6   2   9 40.5494 9.20320   3
   6  -3  -9 435.855 20.3144   2
   6  -3  -9 471.915 27.7749   3
  -6   3   9 469.063 27.0159   1
   5  -3  -9 527.444 27.2711   3
   5  -3  -9 400.424 21.2890   2
  -5   3   9 462.005 25.9921   1
   4  -3  -9 116.832 11.1914   3
   4  -3  -9 106.427 7.82282   2
  -4   3   9 111.999 10.0790   1
   3  -3  -9 14.3886 3.78500   2
   3  -3  -9 5.96474 4.31740   3
  -3   3   9 13.0805 5.16658   1
   2  -3  -9 198.091 12.0475   2
   2  -3  -9 192.026 12.6890   3
  -2   3   9 185.319 11.7202   1
   1  -3  -9 2396.93 101.895   3
   1  -3  -9 2246.43 101.766   2
  -1   3   9 2314.79 100.419   1
   0  -3  -9 223.420 13.7891   3
   0  -3  -9 214.190 14.4051   2
   0   3   9 208.228 13.3156   3
   0   3   9 255.730 14.3109   1
  -1  -3  -9 1250.12 55.5172   2
   1   3   9 1222.21 54.5371   3
   1   3   9 1118.35 52.2966   1
  -2  -3  -9 72.8008 8.84176   2
   2   3   9 104.647 9.20600   3
   2   3   9 96.0606 7.04364   1
  -3  -3  -9 375.728 18.2777   1
  -3  -3  -9 343.538 20.6806   2
   3   3   9 328.491 20.5418   3
  -4  -3  -9 50.0734 8.16791   2
  -4  -3  -9 44.7826 6.20276   1
   4   3   9 44.4064 8.79342   3
  -5  -3  -9 112.558 9.61373   1
  -5  -3  -9 108.864 11.4478   2
   5   3   9 105.749 12.1682   3
   7  -4  -9 576.707 34.4025   3
  -7   4   9 622.032 34.5724   1
   6  -4  -9 50.4529 9.27509   3
   6  -4  -9 59.9618 4.16116   2
  -6   4   9 63.0283 9.74976   1
   5  -4  -9 787.924 35.8400   2
   5  -4  -9 811.330 40.9889   3
  -5   4   9 780.335 40.0604   1
   4  -4  -9 477.318 22.0006   2
   4  -4  -9 444.810 25.1893   3
  -4   4   9 406.730 23.9588   1
   3  -4  -9 359.774 20.9465   3
   3  -4  -9 350.152 18.9502   2
  -3   4   9 384.785 20.0983   1
   2  -4  -9 143.216 9.71689   2
   2  -4  -9 104.801 10.3738   3
  -2   4   9 104.529 8.39429   1
   1  -4  -9 33.0162 6.16542   3
  -1   4   9 34.6982 5.67724   1
   0  -4  -9 176.776 12.4253   3
   0  -4  -9 171.889 12.3589   2
   0   4   9 174.967 9.48320   1
   0   4   9 188.800 12.3300   3
  -1  -4  -9 68.4405 7.97253   2
   1   4   9 46.0842 4.06604   1
   1   4   9 36.5604 6.26913   3
  -2  -4  -9 41.9700 7.18152   2
  -2  -4  -9 36.6962 3.99649   1
   2   4   9 45.9296 7.24769   3
  -3  -4  -9 2.83851 4.17158   2
  -3  -4  -9 0.93685 2.21292   1
   3   4   9 2.67029 4.78242   3
  -4  -4  -9 582.817 27.3911   1
  -4  -4  -9 562.172 31.0072   2
   4   4   9 580.657 32.3794   3
  -5  -4  -9 6.79350 5.42595   2
  -5  -4  -9 2.97000 3.52263   1
   5   4   9 2.86255 6.00113   3
   7  -5  -9 15.5605 7.68145   3
  -7   5   9 11.4157 6.97820   1
   6  -5  -9 224.474 17.8928   3
  -6   5   9 229.361 17.3276   1
   5  -5  -9 136.980 8.78243   2
   5  -5  -9 147.015 13.3862   3
  -5   5   9 129.510 12.2533   1
   4  -5  -9 378.398 23.1785   3
   4  -5  -9 403.152 20.2165   2
  -4   5   9 403.817 22.3259   1
   3  -5  -9 16.3556 4.26445   2
   3  -5  -9 27.2779 6.37714   3
  -3   5   9 27.2581 5.28519   1
   2  -5  -9 2934.48 122.942   3
   2  -5  -9 2772.15 121.414   2
  -2   5   9 2654.60 120.099   1
   1  -5  -9 63.9676 8.68443   3
   1  -5  -9 64.4721 7.46505   2
  -1   5   9 63.9635 8.12190   3
  -1   5   9 68.7847 5.28282   1
   0  -5  -9 180.629 9.17230   1
   0  -5  -9 175.135 12.5125   2
   0  -5  -9 163.017 12.9639   3
   0   5   9 183.033 12.7234   3
   0   5   9 171.550 8.72465   1
  -1  -5  -9 18.2301 5.17289   2
   1   5   9 20.5863 5.73734   3
  -2  -5  -9 23.0545 5.71218   2
   2   5   9 28.4687 6.90453   3
  -3  -5  -9 6.26655 4.80455   2
   3   5   9 8.27159 5.94932   3
  -4  -5  -9 250.764 17.5409   2
   4   5   9 235.764 18.9487   3
   6  -6  -9 196.112 17.5365   3
  -6   6   9 218.593 16.4971   1
   5  -6  -9 106.584 12.2707   3
   5  -6  -9 110.484 7.91921   2
  -5   6   9 104.525 11.1857   1
   4  -6  -9 13.1361 6.31100   3
   4  -6  -9 18.6710 4.28550   2
  -4   6   9 18.3404 5.36777   1
   3  -6  -9 130.987 10.0310   2
   3  -6  -9 127.792 12.0738   3
  -3   6   9 137.199 9.91062   1
   2  -6  -9 987.234 49.4523   3
   2  -6  -9 1120.63 48.5675   2
  -2   6   9 995.029 46.0335   1
   1  -6  -9 919.488 45.5591   3
   1  -6  -9 945.406 44.5459   2
  -1   6   9 1022.23 45.6283   3
  -1   6   9 873.228 40.6819   1
   0  -6  -9 3.98300 4.09103   2
   0  -6  -9 4.34489 5.07054   3
   0   6   9 -0.7895 4.25391   3
  -1  -6  -9 80.8839 8.99922   2
   1   6   9 64.2290 9.45389   3
  -2  -6  -9 75.2361 9.47038   2
   2   6   9 74.3121 10.4496   3
   3   6   9 74.5388 11.4002   3
  -4  -6  -9 -0.1096 5.17183   2
   4   6   9 5.35914 6.60785   3
   6  -7  -9 15.9108 7.64132   3
  -6   7   9 20.0493 6.87794   1
   5  -7  -9 142.522 10.0936   2
   5  -7  -9 188.334 19.6631   3
  -5   7   9 159.265 13.2633   1
   4  -7  -9 4.74730 5.99918   3
   4  -7  -9 7.91213 3.99957   2
  -4   7   9 1.80104 4.13387   1
   3  -7  -9 240.374 17.4810   3
   3  -7  -9 245.411 15.2145   2
  -3   7   9 253.899 14.4151   1
   2  -7  -9 211.727 14.0385   2
   2  -7  -9 181.132 15.4108   3
  -2   7   9 195.241 10.5765   1
  -2   7   9 185.240 14.5347   3
   1  -7  -9 296.482 18.1181   2
   1  -7  -9 297.195 19.6458   3
  -1   7   9 297.102 18.8093   3
   0  -7  -9 1.49161 5.24342   3
   0  -7  -9 -0.2211 3.95040   2
   0   7   9 -1.7940 4.59969   3
  -1  -7  -9 48.2620 7.86806   2
   1   7   9 56.3223 9.39036   3
   2   7   9 239.720 18.3226   3
  -3  -7  -9 52.8336 9.30655   2
   3   7   9 65.3091 11.7613   3
   5  -8  -9 147.388 10.2798   2
   5  -8  -9 121.882 14.1106   3
  -5   8   9 146.160 12.3969   1
   4  -8  -9 820.745 43.6079   3
   4  -8  -9 842.237 39.7172   2
  -4   8   9 841.010 39.9983   1
   3  -8  -9 1.21994 6.06736   3
   3  -8  -9 2.36884 4.12253   2
  -3   8   9 3.45893 3.06633   1
   2  -8  -9 490.856 25.6333   2
   2  -8  -9 475.117 27.6477   3
  -2   8   9 449.929 26.6576   3
   1  -8  -9 390.600 24.5572   3
   1  -8  -9 395.245 22.7169   2
  -1   8   9 398.853 23.7774   3
   0  -8  -9 413.392 23.5061   2
   0  -8  -9 375.102 24.5638   3
   0   8   9 402.543 24.1815   3
  -1  -8  -9 52.6923 10.8522   2
   1   8   9 69.5888 10.8034   3
  -2  -8  -9 21.2733 6.98660   2
   2   8   9 33.5269 9.12453   3
   3  -9  -9 -2.6771 4.03967   2
   3  -9  -9 1.95740 6.66793   3
  -3   9   9 2.73697 5.92277   3
   2  -9  -9 51.6201 8.07483   2
   2  -9  -9 75.3708 11.7657   3
  -2   9   9 55.2742 9.66772   3
   1  -9  -9 253.271 17.7606   2
   1  -9  -9 255.610 19.6491   3
  -1   9   9 272.922 19.2155   3
   0  -9  -9 27.2357 6.93758   2
   0   9   9 24.2273 7.93093   3
   2  13 -10 152.596 15.8127   3
   2  13 -10 156.436 15.8064   2
  -2 -13  10 150.125 14.1790   1
  -2 -13  10 149.362 15.9231   2
   1  13 -10 73.9980 10.7143   3
   1  13 -10 45.6780 10.2686   2
  -1 -13  10 70.8423 10.5229   1
  -1 -13  10 75.5339 12.4984   2
   0  13 -10 293.233 21.7780   2
   0  13 -10 270.989 20.5602   3
   0 -13  10 306.135 20.2087   1
  -1  13 -10 343.894 23.8824   2
  -1  13 -10 336.947 20.2570   3
  -2  13 -10 487.039 31.2202   2
   2 -13  10 531.557 30.8946   1
   3  12 -10 135.089 14.3899   2
   3  12 -10 137.864 15.4334   3
  -3 -12  10 129.655 15.0024   2
  -3 -12  10 128.073 13.1906   1
   2  12 -10 139.953 20.2943   2
   2  12 -10 128.216 13.9071   3
  -2 -12  10 114.214 12.0831   1
  -2 -12  10 130.788 21.0402   2
   1  12 -10 18.0991 8.69347   2
   1  12 -10 16.5814 6.97641   3
  -1 -12  10 25.8821 7.43313   1
   0  12 -10 130.416 11.6304   3
   0  12 -10 127.026 13.8624   2
   0 -12  10 127.934 13.3838   1
  -1  12 -10 53.4647 7.19926   3
  -1  12 -10 58.8640 10.5475   2
   1 -12  10 56.0115 9.77993   1
  -2  12 -10 305.010 22.1694   2
  -2  12 -10 327.582 19.8606   3
   2 -12  10 329.238 22.3391   1
   3 -12  10 9.35050 7.79718   1
   4  11 -10 228.669 19.7382   3
   4  11 -10 182.211 18.8877   2
  -4 -11  10 200.339 15.8965   1
  -4 -11  10 212.674 23.7405   2
   3  11 -10 19.6307 6.91805   2
   3  11 -10 37.3345 9.13513   3
  -3 -11  10 31.9450 8.26554   2
  -3 -11  10 17.0049 6.38003   1
   2  11 -10 682.508 36.5887   2
   2  11 -10 648.097 36.0277   3
  -2 -11  10 697.631 34.9722   1
  -2 -11  10 654.974 36.6697   2
   1  11 -10 507.287 28.0734   3
   1  11 -10 491.137 29.5714   2
  -1 -11  10 526.013 28.0966   1
   0  11 -10 244.142 16.0412   3
   0  11 -10 273.487 19.3588   2
   0 -11  10 278.951 18.0958   1
  -1  11 -10 72.9998 7.17244   3
  -1  11 -10 69.4079 10.3222   2
   1 -11  10 84.8888 11.3249   1
  -2  11 -10 123.947 8.47506   3
  -2  11 -10 126.001 13.6683   2
   2 -11  10 164.028 14.5651   1
  -3  11 -10 49.9398 9.89018   2
   3 -11  10 74.5288 12.2840   1
  -4  11 -10 16.1953 7.37832   2
   4 -11  10 21.5175 8.90501   1
   5  10 -10 2.35261 7.40755   3
   5  10 -10 5.63073 5.80368   2
  -5 -10  10 3.82292 5.96356   2
  -5 -10  10 4.00957 5.83351   1
   4  10 -10 88.5033 11.2565   2
   4  10 -10 96.0546 13.2775   3
  -4 -10  10 103.052 11.4123   1
  -4 -10  10 95.9225 12.0950   2
   3  10 -10 6.93579 5.72339   2
   3  10 -10 6.47327 5.79112   3
  -3 -10  10 5.37091 5.40286   1
  -3 -10  10 9.37252 5.93914   2
   2  10 -10 323.373 21.2531   3
   2  10 -10 340.049 21.8071   2
  -2 -10  10 345.978 20.8766   1
   1  10 -10 834.506 42.3083   3
   1  10 -10 860.525 44.2960   2
  -1 -10  10 918.795 43.0060   1
   0  10 -10 7.89769 3.70298   3
   0 -10  10 11.7586 5.83760   1
  -1  10 -10 619.608 33.7221   2
  -1  10 -10 599.240 28.7831   3
   1 -10  10 622.919 32.6596   1
  -2  10 -10 538.964 32.0303   2
   2 -10  10 603.336 32.0011   1
  -3  10 -10 35.3641 8.52724   2
   3 -10  10 44.4494 9.81918   1
  -4  10 -10 49.8792 9.45110   2
  -5  10 -10 151.744 17.0926   1
  -5  10 -10 203.150 16.4805   2
   5 -10  10 205.106 19.7419   1
   6   9 -10 35.5672 14.7444   3
   6   9 -10 37.0699 8.12853   2
  -6  -9  10 21.7928 7.30820   1
   5   9 -10 352.569 21.8236   2
   5   9 -10 328.731 24.7928   3
  -5  -9  10 334.438 21.8827   1
  -5  -9  10 335.666 21.7806   2
   4   9 -10 337.434 23.5206   3
   4   9 -10 362.049 21.5578   2
  -4  -9  10 332.576 21.5241   2
  -4  -9  10 327.681 21.2858   1
   3   9 -10 45.2214 10.2621   3
   3   9 -10 40.1210 8.11053   2
  -3  -9  10 48.9693 8.35723   1
   2   9 -10 423.677 24.8823   2
   2   9 -10 408.317 24.2249   3
  -2  -9  10 435.215 23.9902   1
   1   9 -10 148.484 13.0082   2
   1   9 -10 135.020 10.7648   3
  -1  -9  10 142.349 12.2166   1
   0   9 -10 7.75198 5.16642   2
   0   9 -10 15.0124 3.88565   3
   0  -9  10 14.2348 5.38399   1
  -1   9 -10 129.136 12.7731   2
   1  -9  10 145.703 12.7223   1
  -2   9 -10 648.799 34.4118   2
   2  -9  10 616.513 33.7192   1
  -3   9 -10 197.334 16.1968   2
   3  -9  10 187.581 16.2188   1
  -4   9 -10 195.858 15.9857   2
   4  -9  10 201.899 17.8119   1
  -5   9 -10 187.059 15.8351   2
  -5   9 -10 161.909 17.2554   1
   5  -9  10 199.959 18.5435   1
   6   8 -10 221.744 16.0986   2
   6   8 -10 197.548 19.6559   3
  -6  -8  10 221.484 22.0766   1
   5   8 -10 98.8718 13.7802   3
   5   8 -10 104.638 11.1470   2
  -5  -8  10 111.710 11.7293   1
   4   8 -10 303.430 21.6022   3
   4   8 -10 304.170 19.5867   2
  -4  -8  10 322.721 19.9650   1
   3   8 -10 109.035 10.8089   2
   3   8 -10 137.018 12.5380   3
  -3  -8  10 85.6730 10.4372   1
   2   8 -10 956.679 45.9155   2
   2   8 -10 869.343 44.6936   3
  -2  -8  10 969.219 45.0874   1
   1   8 -10 540.849 28.8687   2
   1   8 -10 497.587 26.4208   3
  -1  -8  10 550.652 28.0977   1
   0   8 -10 206.829 15.1714   2
   0   8 -10 193.012 11.3634   3
   0  -8  10 211.956 14.0386   1
  -1   8 -10 52.9842 8.22783   2
   1  -8  10 61.5871 9.06456   1
  -2   8 -10 595.051 32.9314   2
   2  -8  10 625.576 32.7765   1
  -3   8 -10 44.1855 8.06288   2
   3  -8  10 34.5367 8.41754   1
  -4   8 -10 127.586 12.8971   2
   4  -8  10 138.454 14.2959   1
  -5   8 -10 9.97692 5.72230   2
  -7  -7  10 92.8916 13.1961   1
   6   7 -10 44.0980 7.58385   2
   6   7 -10 45.9204 10.8698   3
  -6  -7  10 25.5957 8.08759   1
   5   7 -10 13.9646 5.57590   2
   5   7 -10 12.8620 7.07836   3
  -5  -7  10 13.2361 6.21064   1
   4   7 -10 133.626 11.7783   2
   4   7 -10 112.957 13.1323   3
  -4  -7  10 137.487 12.3105   1
   3   7 -10 128.586 11.9032   3
   3   7 -10 125.121 11.1001   2
  -3  -7  10 130.699 11.6420   1
   2   7 -10 413.792 22.8427   3
   2   7 -10 414.428 23.6108   2
  -2  -7  10 428.546 23.3199   1
   1   7 -10 81.4123 9.22836   2
   1   7 -10 82.2380 7.27859   3
  -1  -7  10 76.2198 8.64235   1
   0   7 -10 817.845 39.8633   2
   0   7 -10 758.595 35.2884   3
   0  -7  10 817.975 38.8414   1
  -1   7 -10 746.890 37.8356   2
   1  -7  10 737.038 36.9653   1
  -2   7 -10 1265.44 58.8994   2
   2  -7  10 1201.66 58.0910   1
  -3   7 -10 69.8617 9.76881   2
   3  -7  10 72.0016 10.4954   1
  -4   7 -10 319.007 21.5874   2
   4  -7  10 361.628 23.1609   1
  -5   7 -10 56.0615 10.8324   1
  -5   7 -10 90.4714 11.3585   2
   5  -7  10 85.8031 12.7378   1
  -6   7 -10 180.508 17.9866   1
  -6   7 -10 168.050 14.3778   2
   6  -7  10 172.060 17.7241   1
   7   6 -10 243.352 16.4923   2
   7   6 -10 268.583 24.8228   3
  -7  -6  10 266.232 19.8607   1
   6   6 -10 52.3136 7.60837   2
   6   6 -10 53.2201 10.8811   3
  -6  -6  10 37.4294 8.48419   1
   5   6 -10 783.072 39.3927   2
   5   6 -10 790.982 43.0740   3
  -5  -6  10 834.020 41.4130   1
   4   6 -10 45.0225 8.51104   3
   4   6 -10 44.6370 11.2768   2
  -4  -6  10 44.3513 7.77464   1
   3   6 -10 155.667 14.4281   2
   3   6 -10 178.343 13.3509   3
  -3  -6  10 151.300 12.5773   1
   2   6 -10 75.1935 7.87095   3
   2   6 -10 77.1199 9.14436   2
  -2  -6  10 83.0709 8.95658   1
   1   6 -10 21.4016 8.50029   2
  -1  -6  10 17.3465 4.88186   1
   0   6 -10 504.094 27.1498   2
   0  -6  10 493.484 26.3881   1
  -1   6 -10 209.211 15.2595   2
   1  -6  10 253.083 15.3686   1
  -2   6 -10 1025.80 49.6146   2
   2  -6  10 1024.08 49.1841   1
  -3   6 -10 80.8614 9.71960   2
   3  -6  10 74.1707 9.77164   1
  -4   6 -10 552.780 30.0887   2
   4  -6  10 541.746 31.1339   1
  -5   6 -10 115.267 11.8265   2
  -5   6 -10 94.1493 12.7727   1
   5  -6  10 99.1157 13.1472   1
  -6   6 -10 44.2395 10.9458   1
  -6   6 -10 34.1091 7.56437   2
   6  -6  10 40.5704 10.0203   1
   7   5 -10 129.041 16.4867   3
   7   5 -10 101.523 10.0211   2
  -7  -5  10 110.159 13.2608   1
   6   5 -10 240.009 19.8783   3
   6   5 -10 220.822 14.9265   2
  -6  -5  10 232.745 17.5338   1
   5   5 -10 232.779 15.5784   2
   5   5 -10 258.848 19.2200   3
  -5  -5  10 251.330 17.8345   1
   4   5 -10 591.369 30.3742   2
   4   5 -10 584.176 32.3727   3
  -4  -5  10 624.621 31.7597   1
   3   5 -10 724.240 35.2408   2
   3   5 -10 686.409 35.6805   3
  -3  -5  10 730.171 35.8667   1
   2   5 -10 2065.02 91.8420   3
   2   5 -10 2096.24 92.8086   2
   1   5 -10 150.052 9.53047   3
   1   5 -10 153.327 11.7588   2
  -1  -5  10 168.320 11.6899   1
   0   5 -10 445.466 23.3553   2
   0  -5  10 387.969 22.0007   1
  -1   5 -10 15.9291 5.14928   2
   1  -5  10 24.4619 6.28785   1
  -2   5 -10 550.275 29.0763   2
   2  -5  10 538.658 28.6392   1
  -3   5 -10 505.426 28.0631   2
   3  -5  10 520.681 28.4786   1
  -4   5 -10 9.37670 5.61496   2
   4  -5  10 12.5717 6.38755   1
  -5   5 -10 13.5639 5.99913   2
  -5   5 -10 15.0092 6.86173   1
   5  -5  10 12.4159 7.18277   1
  -6   5 -10 148.940 23.2001   1
  -6   5 -10 143.397 13.0454   2
   6  -5  10 148.746 18.6529   1
   7   4 -10 150.019 17.2255   3
   7   4 -10 153.115 11.2736   2
   6   4 -10 212.092 13.1279   2
   6   4 -10 206.696 18.1675   3
  -6  -4  10 163.654 15.1345   1
   5   4 -10 98.3450 12.1163   3
   5   4 -10 110.035 9.53671   2
  -5  -4  10 111.515 11.5101   1
   4   4 -10 241.445 17.1916   3
   4   4 -10 257.474 15.5210   2
  -4  -4  10 257.047 17.0716   1
   3   4 -10 1970.71 87.5306   2
   3   4 -10 1990.49 88.2640   3
  -3  -4  10 1932.64 88.1550   1
   2   4 -10 71.6434 7.83179   2
   2   4 -10 63.8606 6.89364   3
  -2  -4  10 63.5962 7.81736   1
   1   4 -10 260.064 13.4808   3
   1   4 -10 256.009 15.7488   2
  -1  -4  10 246.461 15.3921   1
   0   4 -10 1103.20 51.3095   2
   0  -4  10 1079.13 50.3407   1
  -1   4 -10 23.0820 5.36373   2
   1  -4  10 29.4105 5.48735   1
  -2   4 -10 56.8323 8.33454   2
   2  -4  10 58.9453 9.69504   1
  -3   4 -10 814.959 40.0273   2
   3  -4  10 783.162 39.9446   1
  -4   4 -10 368.694 22.3001   2
   4  -4  10 381.762 23.4749   1
  -5   4 -10 226.477 17.6497   1
  -5   4 -10 200.734 15.1489   2
   5  -4  10 175.326 16.2052   1
  -6   4 -10 364.127 22.7690   2
  -6   4 -10 380.400 25.7596   1
   6  -4  10 372.659 25.1752   1
   7   3 -10 323.044 24.9378   3
   7   3 -10 343.877 18.1069   2
  -7  -3  10 352.489 24.3204   1
   6   3 -10 227.175 13.6561   2
   6   3 -10 222.800 18.3762   3
  -6  -3  10 212.896 16.8678   1
   5   3 -10 22.1137 7.00385   3
   5   3 -10 32.6898 5.46632   2
  -5  -3  10 21.1214 6.27791   1
   4   3 -10 184.914 12.1704   2
   4   3 -10 162.114 13.7481   3
  -4  -3  10 188.005 13.8125   1
   3   3 -10 826.700 40.0503   3
   3   3 -10 885.076 39.4083   2
  -3  -3  10 742.351 45.3169   1
   2   3 -10 1414.51 63.3707   2
   2   3 -10 1336.31 62.4878   3
  -2  -3  10 1429.90 63.6690   1
   1   3 -10 207.598 10.8804   3
  -1  -3  10 174.452 12.4453   1
   0   3 -10 718.208 32.2955   3
   0   3 -10 733.976 36.3654   2
   0  -3  10 778.603 33.8072   3
   0  -3  10 735.000 35.5477   1
  -1   3 -10 328.503 19.4587   2
   1  -3  10 337.014 18.8124   1
  -2   3 -10 967.929 43.7570   2
   2  -3  10 827.411 42.3433   1
  -3   3 -10 303.862 19.0433   2
   3  -3  10 308.996 19.3136   1
  -4   3 -10 630.721 32.5084   2
   4  -3  10 597.766 32.8470   1
  -5   3 -10 200.579 16.4755   1
  -5   3 -10 201.768 15.3074   2
   5  -3  10 200.122 16.1039   1
  -6   3 -10 244.035 17.2353   2
  -6   3 -10 258.013 19.8286   1
   6  -3  10 220.103 18.4900   1
   8   2 -10 305.742 25.3771   3
  -8  -2  10 326.393 23.5939   1
   7   2 -10 14.7876 8.49833   3
   7   2 -10 24.6144 4.05542   2
  -7  -2  10 23.2257 8.17736   1
   6   2 -10 3118.23 133.695   2
   6   2 -10 3156.31 140.024   3
  -6  -2  10 3019.65 138.049   1
   5   2 -10 196.212 16.1712   3
   5   2 -10 204.094 12.3272   2
  -5  -2  10 191.263 14.6677   1
   4   2 -10 237.594 16.5516   3
   4   2 -10 233.934 14.2147   2
  -4  -2  10 254.706 16.4519   1
   3   2 -10 633.563 30.2006   2
   3   2 -10 616.296 31.0981   3
  -3  -2  10 587.936 30.9956   1
   2   2 -10 4756.36 201.090   3
   2   2 -10 4751.47 201.674   2
  -2  -2  10 4556.78 201.819   1
   1   2 -10 1220.13 52.6794   3
   1   2 -10 1161.14 54.6069   2
  -1  -2  10 1179.74 54.2883   1
   0   2 -10 1455.14 64.2495   2
   0   2 -10 1353.38 60.6142   3
   0  -2  10 1360.81 61.3950   3
   0  -2  10 1458.41 63.3313   1
  -1   2 -10 343.275 19.8997   2
   1  -2  10 349.577 18.9643   1
  -2   2 -10 20.3620 5.21797   2
   2  -2  10 20.2513 5.17495   1
  -3   2 -10 670.502 34.1993   2
   3  -2  10 660.793 33.5663   1
  -4   2 -10 8.63465 5.10073   2
  -4   2 -10 6.11401 5.18487   1
   4  -2  10 12.1509 5.67780   1
  -5   2 -10 8.39156 5.36744   2
  -5   2 -10 7.38078 5.76394   1
   5  -2  10 5.50616 2.97890   3
   5  -2  10 4.10276 5.25522   1
  -6   2 -10 8.99522 6.03228   1
  -6   2 -10 7.07767 5.39340   2
   6  -2  10 -1.7915 5.08958   1
   8   1 -10 446.576 30.3570   3
  -8  -1  10 421.204 28.0916   1
   7   1 -10 363.133 17.9043   2
   7   1 -10 347.467 25.4567   3
  -7  -1  10 347.099 23.7003   1
   6   1 -10 1177.77 56.3411   3
   6   1 -10 1211.89 49.6574   2
  -6  -1  10 923.029 53.3564   1
   5   1 -10 289.752 19.4986   3
   5   1 -10 266.321 15.0315   2
  -5  -1  10 276.470 18.4786   1
   4   1 -10 28.0196 4.76177   2
   4   1 -10 19.3139 5.80470   3
  -4  -1  10 20.2555 5.77233   1
   3   1 -10 1209.02 57.5174   3
   3   1 -10 1271.08 56.6211   2
  -3  -1  10 1262.93 57.9753   1
   2   1 -10 797.363 37.1411   2
   2   1 -10 774.912 36.6741   3
  -2  -1  10 761.754 37.3599   1
   1   1 -10 362.487 17.2756   3
   1   1 -10 313.629 18.5877   2
  -1  -1  10 328.783 18.2892   1
   0   1 -10 248.944 13.5945   3
   0   1 -10 310.600 16.8328   2
   0  -1  10 273.015 15.4340   1
   1  -1  10 48.2852 5.01064   3
   1  -1  10 58.7189 6.66313   1
   1  -1  10 52.9856 4.40824   3
  -2   1 -10 974.929 44.7033   2
   2  -1  10 903.755 40.9145   3
   2  -1  10 934.871 43.3590   1
   2  -1  10 889.772 40.8581   3
  -3   1 -10 302.986 18.1336   2
   3  -1  10 279.137 14.6792   3
   3  -1  10 270.583 17.0469   1
  -4   1 -10 263.851 17.8739   2
  -4   1 -10 312.050 18.5003   1
   4  -1  10 279.986 17.9862   1
   4  -1  10 252.584 14.9383   3
  -5   1 -10 77.3017 10.3070   1
  -5   1 -10 74.6369 9.69008   2
   5  -1  10 59.9761 9.36227   1
   5  -1  10 75.2856 7.38869   3
  -6   1 -10 202.018 16.1638   1
  -6   1 -10 186.425 14.8665   2
   6  -1  10 168.435 12.8609   3
   8   0 -10 134.327 16.7653   3
  -8   0  10 111.671 14.4687   1
   7   0 -10 391.923 27.0933   3
  -7   0  10 417.817 26.2523   1
   6   0 -10 399.793 25.9779   3
  -6   0  10 408.037 24.9898   1
   5   0 -10 273.641 15.1275   2
   5   0 -10 291.124 19.3914   3
  -5   0  10 286.269 18.6872   1
   4   0 -10 961.810 47.1530   3
   4   0 -10 965.847 44.3966   2
  -4   0  10 981.035 46.8876   1
   3   0 -10 908.723 38.5174   2
   3   0 -10 781.985 39.1855   3
  -3   0  10 746.737 39.0778   1
   2   0 -10 517.962 26.5356   2
   2   0 -10 515.017 26.3222   3
  -2   0  10 556.264 26.9598   1
   1   0 -10 5.08607 3.29990   2
   1   0 -10 6.40818 2.97578   3
  -1   0  10 3.91838 3.36311   1
   0   0 -10 290.741 17.3468   2
   0   0 -10 299.255 15.3948   3
   0   0  10 280.741 15.2013   3
   0   0  10 326.215 16.5127   1
  -1   0 -10 19.4375 5.16582   2
   1   0  10 27.3933 3.85517   3
   1   0  10 21.1549 4.39693   1
  -2   0 -10 773.697 36.6375   2
   2   0  10 753.880 34.9341   1
   2   0  10 673.692 33.5307   3
  -3   0 -10 70.3698 8.67445   2
   3   0  10 61.4582 6.43271   3
   3   0  10 52.1338 7.45935   1
  -4   0 -10 538.196 28.4339   2
  -4   0 -10 496.543 27.5903   1
   4   0  10 506.855 27.2942   1
   4   0  10 512.528 26.1358   3
  -5   0 -10 154.728 13.7769   2
  -5   0 -10 184.951 14.0417   1
   5   0  10 170.492 12.6806   3
   5   0  10 166.556 13.6595   1
  -6   0 -10 93.3416 11.4089   1
  -6   0 -10 109.227 17.3053   2
   6   0  10 102.288 10.6915   3
   7  -1 -10 47.6037 10.4755   3
  -7   1  10 52.8594 10.4856   1
   6  -1 -10 599.763 34.1722   3
   6  -1 -10 589.134 27.2901   2
  -6   1  10 610.391 33.3182   1
   5  -1 -10 1075.19 48.4093   2
   5  -1 -10 1104.19 53.2173   3
  -5   1  10 1063.67 52.3735   1
   4  -1 -10 592.359 28.5951   2
   4  -1 -10 607.873 31.5011   3
  -4   1  10 591.630 31.2800   1
   3  -1 -10 530.578 24.8401   2
   3  -1 -10 483.011 25.8877   3
  -3   1  10 462.941 25.6628   1
   2  -1 -10 771.268 38.1174   2
   2  -1 -10 805.090 38.3860   3
  -2   1  10 852.935 38.6577   1
   1  -1 -10 373.313 19.7608   3
   1  -1 -10 387.291 20.7483   2
  -1   1  10 392.896 20.0461   1
   0  -1 -10 716.023 38.3197   2
   0  -1 -10 796.135 35.6526   3
   0   1  10 777.554 35.5677   1
   0   1  10 766.340 35.3834   3
  -1  -1 -10 138.228 11.0311   2
   1   1  10 133.875 9.14050   3
   1   1  10 145.651 9.48293   1
  -2  -1 -10 855.841 39.6666   2
   2   1  10 756.450 37.0035   3
   2   1  10 782.988 37.2310   1
  -3  -1 -10 25.9576 6.64808   2
  -3  -1 -10 28.4590 5.57890   1
   3   1  10 30.2590 5.68253   3
   3   1  10 31.9370 5.76418   1
  -4  -1 -10 98.6531 10.6773   2
  -4  -1 -10 106.554 9.63408   1
   4   1  10 93.7576 9.21247   1
   4   1  10 81.5355 9.06472   3
  -5  -1 -10 0.56718 4.34565   1
  -5  -1 -10 1.58197 4.83881   2
   5   1  10 0.64252 4.42943   3
  -7   2  10 219.283 18.3673   1
   6  -2 -10 70.3728 5.25510   2
   6  -2 -10 76.3012 11.7967   3
  -6   2  10 74.4502 10.8082   1
   5  -2 -10 971.957 49.6938   3
   5  -2 -10 1012.95 45.2429   2
  -5   2  10 1039.31 49.6375   1
   4  -2 -10 78.9298 9.68600   3
   4  -2 -10 63.5673 6.60723   2
  -4   2  10 82.4121 15.1343   1
   3  -2 -10 370.148 21.2338   3
   3  -2 -10 374.751 19.8179   2
  -3   2  10 377.453 20.8585   1
   2  -2 -10 412.935 22.0552   3
   2  -2 -10 389.773 21.5586   2
  -2   2  10 435.236 21.7265   1
   1  -2 -10 40.8263 6.08740   3
   1  -2 -10 35.8641 6.07985   2
   0  -2 -10 77.9363 7.43277   3
   0  -2 -10 74.9276 8.20672   2
   0   2  10 68.1725 6.23267   1
   0   2  10 78.4432 7.23008   3
  -1  -2 -10 639.237 33.3904   2
   1   2  10 662.824 31.1385   1
   1   2  10 698.440 32.1691   3
  -2  -2 -10 1160.35 53.5911   2
   2   2  10 1114.71 51.9390   3
   2   2  10 1117.10 50.8050   1
  -3  -2 -10 108.421 8.93612   1
  -3  -2 -10 119.210 11.0520   2
   3   2  10 111.455 8.86707   1
   3   2  10 116.356 10.3087   3
  -4  -2 -10 108.702 11.1392   2
  -4  -2 -10 105.215 9.24930   1
   4   2  10 89.7043 11.6499   3
  -5  -2 -10 113.094 18.9489   2
  -5  -2 -10 136.703 12.7907   1
   5   2  10 159.423 13.6791   3
   7  -3 -10 103.675 14.0551   3
  -7   3  10 100.906 13.3661   1
   6  -3 -10 169.403 15.9242   3
   6  -3 -10 178.420 9.23352   2
  -6   3  10 149.114 14.6600   1
   5  -3 -10 696.484 37.3109   3
   5  -3 -10 688.399 32.5132   2
  -5   3  10 736.438 37.0727   1
   4  -3 -10 1616.73 74.5711   3
   4  -3 -10 1614.94 71.4776   2
   3  -3 -10 46.7163 7.50981   3
   3  -3 -10 64.8842 6.81177   2
  -3   3  10 48.5107 7.07733   1
   2  -3 -10 77.8723 8.76458   3
   2  -3 -10 91.2886 8.18795   2
  -2   3  10 91.8527 7.96221   1
   1  -3 -10 176.241 11.5262   2
   1  -3 -10 138.715 10.9076   3
  -1   3  10 131.190 9.22636   1
   0  -3 -10 3.64126 4.08134   2
   0  -3 -10 3.21135 3.78302   3
   0   3  10 5.69129 2.69708   1
   0   3  10 0.93328 3.58581   3
  -1  -3 -10 39.3205 6.89137   2
   1   3  10 39.7187 4.78206   1
   1   3  10 45.4507 6.65047   3
  -2  -3 -10 423.829 22.5781   1
  -2  -3 -10 540.374 26.5787   2
   2   3  10 468.118 25.0104   3
   2   3  10 464.332 22.5928   1
  -3  -3 -10 14.3429 3.89977   1
  -3  -3 -10 20.6799 6.21238   2
   3   3  10 18.0968 5.90001   3
   3   3  10 14.0402 3.82110   1
  -4  -3 -10 238.605 17.1877   2
  -4  -3 -10 227.261 14.0457   1
   4   3  10 250.305 17.2954   3
  -5  -3 -10 264.217 19.0587   2
  -5  -3 -10 286.236 16.7215   1
   5   3  10 270.524 19.7027   3
   7  -4 -10 11.8899 7.43248   3
  -7   4  10 28.9948 10.2610   1
   6  -4 -10 191.602 16.6087   3
   6  -4 -10 207.666 10.9857   2
  -6   4  10 188.406 15.9125   1
   5  -4 -10 816.550 42.1902   3
   5  -4 -10 819.165 37.4196   2
  -5   4  10 817.281 41.2954   1
   4  -4 -10 148.989 10.0250   2
   4  -4 -10 148.564 12.9111   3
  -4   4  10 140.737 13.1084   1
   3  -4 -10 367.166 21.4687   3
   3  -4 -10 368.904 19.7673   2
  -3   4  10 372.561 20.4339   1
   2  -4 -10 1459.18 67.6549   2
   2  -4 -10 1451.08 65.4908   3
  -2   4  10 1371.87 63.4682   1
   1  -4 -10 991.598 47.9232   2
   1  -4 -10 1044.57 49.5375   3
  -1   4  10 915.297 50.8600   3
  -1   4  10 1111.34 45.8217   1
   0  -4 -10 31.3475 6.99800   3
   0  -4 -10 30.3733 6.26936   2
   0   4  10 26.2119 3.85453   1
   0   4  10 32.4387 6.04796   3
  -1  -4 -10 203.197 14.1550   2
   1   4  10 185.738 10.0832   1
   1   4  10 185.740 13.7736   3
  -2  -4 -10 482.880 22.9199   1
  -2  -4 -10 546.328 27.6203   2
   2   4  10 467.417 26.6936   3
   2   4  10 483.425 22.8337   1
  -3  -4 -10 165.285 13.5222   2
  -3  -4 -10 134.084 10.7339   1
   3   4  10 174.110 13.9865   3
  -4  -4 -10 6.51418 5.76258   2
   4   4  10 15.1703 6.81275   3
   6  -5 -10 28.8822 8.27844   3
  -6   5  10 30.5947 7.79758   1
   5  -5 -10 12.1585 6.67238   3
   5  -5 -10 13.0357 3.74799   2
  -5   5  10 15.3377 6.07383   1
   4  -5 -10 69.5920 7.30917   2
   4  -5 -10 72.1716 10.4637   3
  -4   5  10 74.9410 8.85667   1
   3  -5 -10 45.2992 8.03632   3
  -3   5  10 50.0239 6.83737   1
   2  -5 -10 153.306 11.2450   2
   2  -5 -10 149.334 12.8726   3
  -2   5  10 144.908 9.86190   1
   1  -5 -10 366.044 21.1493   2
   1  -5 -10 381.107 21.9805   3
  -1   5  10 377.700 21.4243   3
   0  -5 -10 301.253 18.7259   3
   0  -5 -10 301.073 18.4120   2
   0   5  10 291.078 14.1437   1
   0   5  10 312.086 18.4569   3
  -1  -5 -10 323.615 19.9298   2
   1   5  10 326.938 19.9900   3
  -2  -5 -10 368.363 21.8346   2
   2   5  10 345.965 21.8256   3
  -3  -5 -10 44.8302 8.85498   2
   3   5  10 44.7760 8.83138   3
   4   5  10 343.937 23.5494   3
   6  -6 -10 116.925 14.0331   3
  -6   6  10 135.082 13.1581   1
   5  -6 -10 24.3008 4.68697   2
   5  -6 -10 30.1067 11.0541   3
  -5   6  10 39.1366 7.70710   1
   4  -6 -10 4.60476 3.99117   2
   4  -6 -10 1.73810 5.80722   3
  -4   6  10 3.80095 4.14950   1
   3  -6 -10 66.7442 7.87314   2
   3  -6 -10 63.0991 9.70794   3
  -3   6  10 68.7659 7.42655   1
   2  -6 -10 317.005 19.9105   3
   2  -6 -10 297.020 18.7336   2
  -2   6  10 310.799 15.9754   1
   1  -6 -10 41.1044 7.61662   3
  -1   6  10 43.6449 7.50870   3
  -1   6  10 36.3273 3.54821   1
   0  -6 -10 97.7458 11.3224   3
   0  -6 -10 116.122 11.1688   2
   0   6  10 113.824 11.2630   3
  -1  -6 -10 29.0598 6.77169   2
   1   6  10 24.6146 7.10262   3
  -2  -6 -10 259.934 22.9607   2
   2   6  10 236.391 17.8432   3
  -3  -6 -10 290.247 20.2192   2
   3   6  10 309.407 21.7768   3
   5  -7 -10 99.0552 8.47526   2
   5  -7 -10 96.5231 12.7800   3
  -5   7  10 106.350 10.8829   1
   4  -7 -10 18.7674 4.99673   2
  -4   7  10 20.9652 5.38618   1
   3  -7 -10 144.630 14.0876   3
   3  -7 -10 151.621 11.6439   2
  -3   7  10 136.747 9.86385   1
   2  -7 -10 392.903 24.5974   3
   2  -7 -10 427.193 23.3507   2
  -2   7  10 415.833 20.5172   1
  -2   7  10 425.862 24.6434   3
   1  -7 -10 422.973 23.3973   2
   1  -7 -10 386.966 24.3738   3
  -1   7  10 393.421 23.5940   3
   0  -7 -10 106.842 12.4816   3
   0  -7 -10 87.2912 10.4269   2
   0   7  10 100.955 11.5535   3
  -1  -7 -10 175.541 16.9967   2
   1   7  10 200.361 16.0884   3
  -2  -7 -10 361.439 22.7078   2
   2   7  10 341.665 23.3714   3
   4  -8 -10 60.7815 10.7854   3
  -4   8  10 73.1194 8.23654   1
   3  -8 -10 150.459 15.0418   3
   3  -8 -10 180.796 13.0295   2
   2  -8 -10 191.362 14.3517   2
   1  -8 -10 5.82658 5.02991   2
   1  -8 -10 1.72620 6.59504   3
  -1   8  10 3.92734 5.69011   3
   0  -8 -10 71.3109 9.92778   2
   0   8  10 72.4659 11.4919   3
  -1 -13  11 -1.3483 5.93456   1
   0  13 -11 129.103 14.8939   2
   0  13 -11 127.209 11.8721   3
   0 -13  11 106.039 13.4495   1
   3  12 -11 504.870 31.7249   3
   3  12 -11 527.407 31.3885   2
  -3 -12  11 518.390 31.0520   1
   2  12 -11 47.1352 9.31294   3
   2  12 -11 48.2943 10.0651   2
  -2 -12  11 57.4660 9.76252   1
   1  12 -11 615.638 34.0352   3
   1  12 -11 645.542 36.7068   2
  -1 -12  11 675.896 34.9817   1
   0  12 -11 9.01276 6.60336   2
   0  12 -11 5.88378 4.31921   3
   0 -12  11 4.62838 6.44301   1
  -1  12 -11 143.057 15.3480   2
  -2  12 -11 -7.8831 5.41231   2
   2 -12  11 -6.7042 6.26215   1
   4  11 -11 24.2335 9.13370   3
   4  11 -11 25.6075 8.10943   2
  -4 -11  11 22.5933 8.66162   1
   3  11 -11 2.44981 8.26679   2
   3  11 -11 5.59437 6.31403   3
  -3 -11  11 10.3492 6.37475   1
   2  11 -11 99.4968 17.3765   3
   2  11 -11 73.8111 11.1024   2
  -2 -11  11 66.8169 10.3738   1
   1  11 -11 5.23651 4.91288   3
   1  11 -11 15.4509 6.65492   2
  -1 -11  11 8.53374 6.52045   1
   0  11 -11 159.281 15.0675   2
   0  11 -11 150.979 11.0753   3
   0 -11  11 145.520 13.9036   1
  -1  11 -11 -3.4876 4.90183   2
  -1  11 -11 2.43874 3.64960   3
   1 -11  11 2.90465 6.11141   1
  -2  11 -11 359.124 24.5281   2
   2 -11  11 365.528 24.2064   1
  -3  11 -11 35.6317 11.5910   2
   3 -11  11 58.9478 11.3293   1
   5  10 -11 3.48674 7.46779   3
   5  10 -11 6.40813 6.23191   2
  -5 -10  11 0.27217 5.98657   1
   4  10 -11 292.615 22.8060   3
   4  10 -11 333.751 21.6387   2
  -4 -10  11 326.460 21.1928   1
   3  10 -11 0.80678 5.40081   2
   3  10 -11 7.91789 5.95388   3
  -3 -10  11 4.66057 5.65882   1
   2  10 -11 314.311 19.5048   3
   2  10 -11 306.252 20.1922   2
  -2 -10  11 249.600 18.5341   1
   1  10 -11 493.512 27.9650   2
   1  10 -11 457.390 24.9705   3
  -1 -10  11 448.508 26.1096   1
   0  10 -11 -0.9659 5.14006   2
   0 -10  11 4.65224 5.70759   1
  -1  10 -11 56.9592 10.1103   2
   1 -10  11 38.9604 8.40579   1
  -2  10 -11 178.195 15.6779   2
   2 -10  11 157.570 15.3174   1
  -3  10 -11 621.093 35.1289   2
   3 -10  11 615.787 37.4501   1
  -4  10 -11 36.4110 8.81891   2
   4 -10  11 38.8918 10.4168   1
   5   9 -11 28.1979 8.99590   3
   5   9 -11 25.0906 7.08625   2
   4   9 -11 84.9275 12.5661   3
   4   9 -11 65.4702 9.92984   2
  -4  -9  11 59.0241 10.7521   1
   3   9 -11 804.672 41.5579   2
   3   9 -11 793.469 42.5823   3
  -3  -9  11 828.795 41.0392   1
   2   9 -11 45.2443 8.68170   2
   2   9 -11 45.7242 7.67771   3
  -2  -9  11 36.4411 7.59325   1
   1   9 -11 847.461 43.6561   2
   1   9 -11 824.212 40.6205   3
  -1  -9  11 899.294 42.6224   1
   0   9 -11 94.9544 7.08733   3
   0   9 -11 92.3511 11.2907   2
   0  -9  11 93.6967 10.8748   1
  -1   9 -11 773.839 40.5249   2
   1  -9  11 769.763 39.3856   1
  -2   9 -11 143.550 14.1560   2
   2  -9  11 143.045 14.1552   1
  -3   9 -11 255.289 19.1576   2
   3  -9  11 267.655 20.0393   1
  -4   9 -11 19.7806 7.12567   2
   4  -9  11 5.34650 7.75862   1
  -5   9 -11 10.6666 7.78079   1
   5  -9  11 11.4432 8.55571   1
   6   8 -11 -3.3817 4.95179   2
   6   8 -11 -3.3933 6.74188   3
  -6  -8  11 -0.9725 6.06799   1
   5   8 -11 102.988 13.4965   3
   5   8 -11 93.4227 11.2806   2
  -5  -8  11 112.117 12.4360   1
   4   8 -11 207.491 17.5058   3
   4   8 -11 220.128 16.2659   2
  -4  -8  11 214.630 16.3987   1
   3   8 -11 81.8868 10.7597   3
   3   8 -11 107.812 11.2326   2
  -3  -8  11 98.0991 11.0390   1
   2   8 -11 62.9624 8.30929   3
   2   8 -11 65.7308 9.17719   2
  -2  -8  11 39.6539 7.57818   1
   1   8 -11 6.99353 5.20112   2
   1   8 -11 3.87944 3.45815   3
  -1  -8  11 5.79012 5.30736   1
   0   8 -11 507.605 28.8415   2
   0  -8  11 532.053 28.2421   1
  -1   8 -11 267.870 18.9136   2
   1  -8  11 278.973 18.3916   1
  -2   8 -11 1288.49 65.0027   2
   2  -8  11 1434.69 65.0019   1
  -3   8 -11 24.0800 7.24310   2
   3  -8  11 44.3014 9.45548   1
  -4   8 -11 199.829 15.6343   2
   4  -8  11 135.594 15.1253   1
  -5   8 -11 60.2870 11.3096   1
  -5   8 -11 54.4112 9.63684   2
   5  -8  11 60.7599 12.0684   1
   6   7 -11 250.683 17.0462   2
   6   7 -11 236.003 20.9329   3
  -6  -7  11 233.000 20.1672   1
   5   7 -11 146.870 15.6914   3
   5   7 -11 157.688 13.3525   2
  -5  -7  11 166.453 14.4585   1
   4   7 -11 1380.69 62.8293   2
   4   7 -11 1268.34 64.0813   3
  -4  -7  11 1347.48 63.2164   1
   3   7 -11 330.982 20.0507   2
   3   7 -11 308.904 20.0539   3
  -3  -7  11 319.536 20.1456   1
   2   7 -11 626.035 30.3142   3
   2   7 -11 603.487 31.6059   2
  -2  -7  11 549.594 30.7433   1
   1   7 -11 121.551 8.84221   3
   1   7 -11 114.763 11.3587   2
  -1  -7  11 143.770 11.6757   1
   0   7 -11 3.77975 4.60006   2
   0  -7  11 0.28972 4.45937   1
  -1   7 -11 181.843 14.3784   2
   1  -7  11 151.755 13.0726   1
  -2   7 -11 62.4472 9.66325   2
   2  -7  11 44.0786 8.36203   1
  -3   7 -11 286.269 19.5533   2
   3  -7  11 269.222 19.5102   1
  -4   7 -11 45.2465 8.52756   2
   4  -7  11 36.1556 9.00886   1
  -5   7 -11 50.4923 9.14507   2
  -5   7 -11 71.3572 12.4076   1
   5  -7  11 92.8239 13.9292   1
   6   6 -11 39.1474 10.0897   3
   6   6 -11 30.9276 6.92361   2
  -6  -6  11 40.7071 9.35343   1
   5   6 -11 427.156 24.3652   2
   5   6 -11 433.353 27.5043   3
  -5  -6  11 445.461 26.2431   1
   4   6 -11 2.05796 4.56265   2
  -4  -6  11 3.00068 5.19770   1
   3   6 -11 1209.66 58.0406   2
   3   6 -11 1200.38 58.1736   3
  -3  -6  11 1304.21 58.7511   1
   2   6 -11 50.8547 7.80065   2
   2   6 -11 62.4005 7.30683   3
  -2  -6  11 60.6826 8.49248   1
   1   6 -11 192.975 14.1465   2
   1   6 -11 169.030 10.7406   3
  -1  -6  11 204.372 13.7355   1
   0   6 -11 74.7585 9.64721   2
   0  -6  11 60.6206 8.28367   1
  -1   6 -11 953.842 44.0715   2
   1  -6  11 805.028 42.3530   1
  -2   6 -11 187.316 14.9424   2
   2  -6  11 198.463 15.1542   1
  -3   6 -11 588.294 31.9841   2
   3  -6  11 566.341 31.8428   1
  -4   6 -11 9.24337 6.07232   2
   4  -6  11 7.38509 6.54736   1
  -5   6 -11 16.0399 7.36154   1
  -5   6 -11 19.7145 6.98989   2
   5  -6  11 14.1593 7.65454   1
   7   5 -11 357.736 32.1303   3
  -7  -5  11 364.144 24.4193   1
   6   5 -11 10.1170 6.16723   2
   6   5 -11 10.9121 7.40913   3
  -6  -5  11 15.7514 7.22367   1
   5   5 -11 374.228 25.8645   2
   5   5 -11 453.102 26.9866   3
  -5  -5  11 443.466 25.7836   1
   4   5 -11 31.9803 9.66501   2
   4   5 -11 31.9671 7.20409   3
  -4  -5  11 20.9266 6.34033   1
   3   5 -11 290.705 23.4147   2
   3   5 -11 320.678 19.6357   3
  -3  -5  11 352.310 20.3315   1
   2   5 -11 554.790 27.6265   3
   2   5 -11 524.677 28.7959   2
  -2  -5  11 567.739 29.1143   1
   1   5 -11 3.12112 4.36523   2
   1   5 -11 2.76811 2.47762   3
  -1  -5  11 4.89306 4.58716   1
   0   5 -11 658.908 34.3568   2
   0  -5  11 682.022 33.6153   1
  -1   5 -11 349.144 21.5055   2
   1  -5  11 373.934 21.1499   1
  -2   5 -11 92.8043 10.8360   2
   2  -5  11 114.691 11.1312   1
  -3   5 -11 54.3424 8.96480   2
   3  -5  11 69.8413 10.0749   1
  -4   5 -11 314.255 20.5643   2
   4  -5  11 316.460 21.4997   1
  -5   5 -11 50.0287 10.1746   1
  -5   5 -11 37.9388 8.23171   2
   5  -5  11 34.3649 8.98379   1
  -7  -4  11 50.4196 10.1110   1
   6   4 -11 888.533 46.9897   3
   6   4 -11 825.725 43.1871   2
  -6  -4  11 905.836 45.3609   1
   5   4 -11 13.1598 6.42760   3
   5   4 -11 15.1182 5.05656   2
  -5  -4  11 10.3550 5.68999   1
   4   4 -11 71.3507 8.49367   2
   4   4 -11 80.4834 10.0981   3
  -4  -4  11 82.9633 10.3890   1
   3   4 -11 84.0968 9.33981   3
   3   4 -11 89.1245 9.32050   2
  -3  -4  11 100.219 10.2459   1
   2   4 -11 1297.61 58.3150   2
   2   4 -11 1171.70 56.4820   3
  -2  -4  11 1283.20 58.2843   1
   1   4 -11 154.306 9.07115   3
   1   4 -11 149.466 17.4191   2
  -1  -4  11 147.235 12.2697   1
   0   4 -11 -0.1816 3.67872   2
   0  -4  11 -0.4323 7.56154   1
  -1   4 -11 333.064 20.1206   2
   1  -4  11 340.175 19.7191   1
  -2   4 -11 55.6687 8.77796   2
   2  -4  11 50.1745 8.30465   1
  -3   4 -11 349.494 21.6430   2
   3  -4  11 347.624 21.7108   1
  -4   4 -11 102.268 11.4399   2
   4  -4  11 96.4275 12.2474   1
  -5   4 -11 44.6190 9.40441   1
  -5   4 -11 57.0352 9.31647   2
   5  -4  11 56.4457 10.4123   1
   7   3 -11 158.395 17.5302   3
   7   3 -11 164.553 11.1352   2
  -7  -3  11 146.211 15.2870   1
   6   3 -11 -2.1113 6.02582   3
   6   3 -11 3.76296 3.97545   2
  -6  -3  11 2.55160 5.71338   1
   5   3 -11 57.6262 9.87258   3
   5   3 -11 54.1711 7.23668   2
  -5  -3  11 76.2438 9.57591   1
   4   3 -11 88.3039 8.73884   2
   4   3 -11 78.2752 10.0712   3
  -4  -3  11 76.8484 9.89135   1
   3   3 -11 1885.53 83.1771   2
   3   3 -11 1867.97 83.5895   3
  -3  -3  11 1811.98 83.8339   1
   2   3 -11 347.151 18.2531   3
   2   3 -11 329.089 19.2854   2
  -2  -3  11 321.953 21.0750   1
   1   3 -11 1965.28 87.8184   2
   1   3 -11 1980.26 84.7032   3
  -1  -3  11 1913.93 86.9967   1
   0   3 -11 8.33777 4.91777   2
   0   3 -11 6.57206 1.85551   3
   0  -3  11 4.78476 4.21029   1
  -1   3 -11 4598.98 194.268   2
   1  -3  11 4347.48 192.875   1
  -2   3 -11 0.49297 3.99249   2
   2  -3  11 7.39359 4.94262   1
  -3   3 -11 155.155 13.1810   2
   3  -3  11 154.626 13.4389   1
  -4   3 -11 9.69252 5.31220   2
   4  -3  11 7.67617 5.80362   1
  -5   3 -11 32.4109 8.50311   1
  -5   3 -11 26.6088 6.98500   2
   5  -3  11 19.4721 7.07650   1
   7   2 -11 331.835 16.9787   2
   7   2 -11 299.803 23.8798   3
  -7  -2  11 329.661 22.6921   1
   6   2 -11 68.0196 7.30914   2
   6   2 -11 65.2656 11.4280   3
  -6  -2  11 65.8576 10.6234   1
   5   2 -11 656.667 35.6457   3
   5   2 -11 670.833 31.8944   2
  -5  -2  11 627.595 34.5943   1
   4   2 -11 20.7501 5.01703   2
   4   2 -11 23.6077 6.29352   3
  -4  -2  11 17.9245 5.93302   1
   3   2 -11 28.0878 5.66763   2
   3   2 -11 22.1964 5.61499   3
  -3  -2  11 18.2929 5.85893   1
   2   2 -11 147.977 11.1132   2
   2   2 -11 155.283 10.3370   3
  -2  -2  11 124.654 10.9876   1
   1   2 -11 50.6804 7.22480   2
   1   2 -11 44.6171 6.59612   3
  -1  -2  11 51.5040 6.91553   1
   0   2 -11 357.337 20.7590   2
   0   2 -11 406.372 17.4713   3
   0  -2  11 350.380 17.1959   3
   0  -2  11 345.657 19.7714   1
  -1   2 -11 75.5009 8.65846   2
   1  -2  11 49.2192 7.19623   1
  -2   2 -11 44.5958 7.70480   2
   2  -2  11 48.4569 7.39408   1
  -3   2 -11 267.069 17.8442   2
   3  -2  11 269.606 17.3723   1
  -4   2 -11 296.197 18.7007   2
  -4   2 -11 264.192 18.6275   1
   4  -2  11 253.100 18.0132   1
  -5   2 -11 36.7009 8.37019   1
  -5   2 -11 16.8918 6.19244   2
   5  -2  11 30.5259 7.42630   1
  -7  -1  11 0.72788 6.41925   1
   6   1 -11 1400.64 63.1778   2
   6   1 -11 1409.49 69.2257   3
  -6  -1  11 1459.99 68.3689   1
   5   1 -11 10.8411 3.85113   2
   5   1 -11 10.6455 6.06726   3
  -5  -1  11 0.77994 4.90556   1
   4   1 -11 192.808 22.7381   3
   4   1 -11 231.310 13.6725   2
  -4  -1  11 212.823 15.5092   1
   3   1 -11 168.385 12.8663   3
   3   1 -11 188.426 12.6301   2
  -3  -1  11 209.628 14.0990   1
   2   1 -11 1003.77 44.7179   2
   2   1 -11 904.775 43.4279   3
  -2  -1  11 911.740 44.3569   1
   1   1 -11 -2.6310 3.25095   2
   1   1 -11 7.50405 3.22550   3
  -1  -1  11 1.23197 3.53976   1
   0   1 -11 74.7744 6.04680   3
   0   1 -11 86.6187 8.46477   2
   0  -1  11 79.0336 7.96865   1
   0  -1  11 75.4310 5.85001   3
  -1   1 -11 87.1074 9.41101   2
  -2   1 -11 61.9147 8.67247   2
   2  -1  11 58.7054 7.77690   1
   2  -1  11 55.2600 5.05452   3
   2  -1  11 48.9180 5.99585   3
  -3   1 -11 745.309 38.2671   2
   3  -1  11 756.882 34.3033   3
  -4   1 -11 20.6193 6.28974   1
  -4   1 -11 15.8975 6.38034   2
   4  -1  11 19.2150 6.16973   1
   4  -1  11 21.1443 3.99845   3
  -5   1 -11 27.4804 7.27004   1
  -5   1 -11 22.3836 6.74839   2
   5  -1  11 27.5761 7.03549   1
   5  -1  11 18.9918 5.38050   3
  -7   0  11 89.7232 12.7708   1
   6   0 -11 23.1246 7.76638   3
   6   0 -11 16.0394 3.60821   2
  -6   0  11 13.7422 6.76327   1
   5   0 -11 70.2077 6.87834   2
   5   0 -11 76.0222 10.9742   3
  -5   0  11 74.9966 10.3654   1
   4   0 -11 128.332 11.9898   3
   4   0 -11 132.972 9.90425   2
  -4   0  11 123.440 11.6154   1
   3   0 -11 2784.76 120.798   2
   3   0 -11 2745.36 121.594   3
   2   0 -11 159.937 11.1440   3
  -2   0  11 149.731 11.3730   1
   1   0 -11 313.735 16.8042   3
  -1   0  11 318.383 17.6869   1
   0   0 -11 13.5058 3.65512   3
   0   0 -11 6.02344 3.94446   2
   0   0  11 12.2816 4.06779   1
   0   0  11 13.0131 3.30057   3
  -1   0 -11 1184.88 54.7891   2
   1   0  11 1177.81 51.6437   3
   1   0  11 1122.13 52.8636   1
  -2   0 -11 100.725 10.3316   2
   2   0  11 94.8451 10.5077   3
   2   0  11 101.680 9.19157   1
  -3   0 -11 121.555 11.2495   2
   3   0  11 114.746 10.0417   1
   3   0  11 88.1917 8.08917   3
  -4   0 -11 12.2575 5.42993   1
  -4   0 -11 20.2995 6.69871   2
   4   0  11 5.81693 3.80113   3
   4   0  11 10.8386 4.95615   1
  -5   0 -11 39.2103 7.78189   1
   5   0  11 26.6834 7.08725   1
   5   0  11 21.3798 5.42950   3
   7  -1 -11 476.128 30.0132   3
  -7   1  11 458.813 29.3978   1
   6  -1 -11 38.0309 4.57000   2
   6  -1 -11 25.3192 7.96022   3
  -6   1  11 39.9752 8.76600   1
   5  -1 -11 554.558 26.9738   2
   5  -1 -11 543.482 30.9086   3
  -5   1  11 569.629 30.7552   1
   4  -1 -11 108.914 11.5150   3
   4  -1 -11 121.849 9.36518   2
  -4   1  11 129.491 11.8037   1
   3  -1 -11 91.8659 8.52659   2
   3  -1 -11 91.7290 9.84123   3
  -3   1  11 88.2086 9.61698   1
   2  -1 -11 58.1383 7.11050   2
   2  -1 -11 62.5707 7.67392   3
  -2   1  11 57.8548 7.12815   1
   1  -1 -11 75.0817 7.54816   3
   1  -1 -11 72.7556 7.99324   2
  -1   1  11 81.2243 7.56297   1
   0  -1 -11 337.177 18.2036   3
   0  -1 -11 346.830 19.9825   2
   0   1  11 359.092 18.0979   3
   0   1  11 338.408 18.1798   1
  -1  -1 -11 147.267 11.8129   2
   1   1  11 154.161 10.3228   1
   1   1  11 147.106 9.95660   3
  -2  -1 -11 756.076 38.8417   2
   2   1  11 788.561 36.8114   3
   2   1  11 783.451 37.0302   1
  -3  -1 -11 132.668 12.4766   2
  -3  -1 -11 150.571 11.4191   1
   3   1  11 143.039 11.0107   1
   3   1  11 140.583 10.9124   3
  -4  -1 -11 250.633 17.2905   2
   4   1  11 235.845 15.4596   1
   4   1  11 224.703 15.2948   3
  -5  -1 -11 29.3668 7.71610   2
  -5  -1 -11 41.2818 7.60285   1
   5   1  11 41.4050 7.70223   3
  -7   2  11 14.3255 7.45537   1
   6  -2 -11 130.949 14.1724   3
   6  -2 -11 117.556 7.94259   2
  -6   2  11 139.820 13.5585   1
   4  -2 -11 740.357 35.1875   2
   4  -2 -11 719.073 37.7305   3
  -4   2  11 757.699 37.5843   1
   3  -2 -11 47.0467 7.50774   3
   3  -2 -11 43.3361 6.43471   2
  -3   2  11 48.4241 7.44273   1
   2  -2 -11 977.756 44.5506   3
   2  -2 -11 833.226 50.3336   2
  -2   2  11 973.852 44.0891   1
   1  -2 -11 155.872 11.4006   3
   1  -2 -11 161.499 12.2251   2
  -1   2  11 159.026 10.5757   1
   0  -2 -11 12.6878 4.49407   3
   0  -2 -11 25.3803 5.86911   2
   0   2  11 18.1771 4.16508   1
   0   2  11 15.5172 4.52606   3
  -1  -2 -11 86.3595 9.30333   2
   1   2  11 51.0987 6.93758   3
   1   2  11 65.3729 6.63946   1
  -2  -2 -11 219.860 15.4879   2
   2   2  11 197.115 12.5451   1
   2   2  11 212.829 13.9790   3
  -3  -2 -11 401.410 21.5815   1
  -3  -2 -11 411.087 24.1872   2
   3   2  11 407.367 22.8558   3
   3   2  11 403.245 21.3902   1
  -4  -2 -11 68.8011 14.0638   2
  -4  -2 -11 60.4786 7.77449   1
   4   2  11 60.6260 8.89667   3
   6  -3 -11 56.0400 10.2061   3
   6  -3 -11 53.3896 5.29588   2
  -6   3  11 57.3771 10.0482   1
   5  -3 -11 10.9035 3.46283   2
   5  -3 -11 17.8932 6.66084   3
  -5   3  11 12.2085 5.75785   1
  -4   3  11 22.9148 6.53010   1
   3  -3 -11 1167.39 53.5339   2
   3  -3 -11 1120.51 54.7215   3
  -3   3  11 1203.17 54.3598   1
   2  -3 -11 326.080 19.6958   3
   2  -3 -11 353.466 19.4080   2
  -2   3  11 341.061 18.6973   1
   1  -3 -11 997.895 48.1223   2
   1  -3 -11 1031.84 47.8335   3
  -1   3  11 1016.03 47.4515   3
  -1   3  11 1012.56 46.0570   1
   0  -3 -11 56.8093 8.12565   2
   0  -3 -11 56.4242 7.77584   3
   0   3  11 49.0212 7.18702   3
   0   3  11 55.7357 5.77194   1
  -1  -3 -11 794.867 37.7613   2
   1   3  11 732.555 36.0029   3
   1   3  11 699.633 33.8477   1
  -2  -3 -11 131.010 9.00191   1
  -2  -3 -11 128.118 12.1243   2
   2   3  11 121.958 11.0902   3
   2   3  11 118.635 8.62854   1
  -3  -3 -11 372.491 22.9318   2
  -3  -3 -11 395.332 19.5963   1
   3   3  11 342.508 19.1027   1
  -4  -3 -11 7.06387 3.91464   1
  -4  -3 -11 7.20532 5.75708   2
   4   3  11 7.05203 5.63651   3
   6  -4 -11 39.9842 9.42496   3
  -6   4  11 42.0680 8.82230   1
   5  -4 -11 108.024 8.31468   2
   5  -4 -11 99.2841 12.5659   3
  -5   4  11 103.427 11.4904   1
   4  -4 -11 33.0720 5.53051   2
   4  -4 -11 26.9955 7.34616   3
  -4   4  11 32.8703 6.79221   1
   3  -4 -11 101.139 9.19923   2
   3  -4 -11 105.269 11.2685   3
  -3   4  11 105.717 9.51914   1
   2  -4 -11 188.232 14.3346   3
   2  -4 -11 192.464 13.4392   2
  -2   4  11 202.286 12.4285   1
   1  -4 -11 39.3024 7.22249   2
   1  -4 -11 34.4453 6.96227   3
  -1   4  11 31.8084 6.53332   3
  -1   4  11 35.2446 5.34577   1
   0  -4 -11 55.8069 8.61431   3
   0  -4 -11 55.0494 8.05651   2
   0   4  11 52.0752 5.13567   1
   0   4  11 62.4940 8.04748   3
  -1  -4 -11 157.810 13.3151   2
   1   4  11 174.048 9.67233   1
   1   4  11 166.382 12.9991   3
  -2  -4 -11 105.240 9.21378   1
  -2  -4 -11 136.417 12.2918   2
   2   4  11 129.593 7.99697   1
   2   4  11 138.457 12.2268   3
  -3  -4 -11 27.3814 7.16549   2
   3   4  11 31.3829 7.77771   3
   5  -5 -11 168.580 11.4687   2
   5  -5 -11 163.108 18.7541   3
  -5   5  11 190.232 14.5844   1
   4  -5 -11 530.635 30.0859   3
   4  -5 -11 532.473 27.1676   2
  -4   5  11 551.308 28.5843   1
   3  -5 -11 9.29008 4.56724   2
   3  -5 -11 18.3829 6.82848   3
  -3   5  11 24.4028 5.39342   1
   2  -5 -11 968.734 47.1902   3
   2  -5 -11 950.049 46.0221   2
  -2   5  11 972.974 44.0419   1
   1  -5 -11 51.6236 8.66755   3
   1  -5 -11 68.6045 8.95158   2
  -1   5  11 62.9567 8.88074   3
  -1   5  11 63.1245 5.34525   1
   0  -5 -11 27.9812 6.53887   2
   0  -5 -11 26.1450 6.85946   3
   0   5  11 21.5009 3.01393   1
   0   5  11 27.6588 6.64145   3
  -1  -5 -11 19.7394 6.51556   2
   1   5  11 19.1486 6.15293   3
  -2  -5 -11 3.18194 5.26326   2
   2   5  11 18.1187 6.56324   3
  -3  -5 -11 83.7440 10.9261   2
   3   5  11 74.4791 11.7643   3
   5  -6 -11 51.4829 9.81355   3
   5  -6 -11 53.8902 6.80423   2
  -5   6  11 47.2598 8.43310   1
   4  -6 -11 17.1798 7.30115   3
   4  -6 -11 16.3740 5.16583   2
  -4   6  11 8.16291 4.75793   1
   3  -6 -11 178.471 15.4737   3
   3  -6 -11 174.462 12.9600   2
  -3   6  11 186.648 12.0780   1
   2  -6 -11 192.864 14.2623   2
   2  -6 -11 209.842 16.2499   3
  -2   6  11 199.866 15.1467   3
  -2   6  11 208.524 11.6590   1
   1  -6 -11 752.027 38.5978   3
   1  -6 -11 708.209 37.4484   2
  -1   6  11 774.542 38.0391   3
   0  -6 -11 9.42941 6.11252   3
   0  -6 -11 7.12090 5.42305   2
   0   6  11 7.63136 5.40364   3
  -1  -6 -11 164.167 13.8548   2
   1   6  11 149.242 13.9735   3
  -2  -6 -11 187.358 15.1759   2
   2   6  11 168.329 15.5748   3
   4  -7 -11 96.6764 13.0280   3
   3  -7 -11 4.52580 4.62004   2
   3  -7 -11 -1.0255 6.84837   3
  -3   7  11 4.71008 3.59236   1
   2  -7 -11 183.452 13.7607   2
   2  -7 -11 176.759 15.8573   3
  -2   7  11 185.747 15.2538   3
   1  -7 -11 26.9139 8.01335   3
   1  -7 -11 24.8388 6.53682   2
  -1   7  11 28.6275 7.56896   3
   0  -7 -11 11.8254 5.88297   2
   0   7  11 5.86637 6.31563   3
   2  12 -12 2.19753 5.85260   3
   2  12 -12 7.26308 6.83468   2
  -2 -12  12 6.77005 6.48486   1
   1  12 -12 161.493 16.4250   2
   1  12 -12 144.776 12.9881   3
  -1 -12  12 152.064 15.3369   1
   0  12 -12 48.5351 10.2797   2
   0 -12  12 45.1843 9.69567   1
  -1  12 -12 117.433 14.6833   2
   1 -12  12 131.239 14.6105   1
   3  11 -12 95.0658 12.4280   3
   3  11 -12 87.6828 12.4195   2
  -3 -11  12 114.842 12.7654   1
   2  11 -12 119.333 13.8072   2
   2  11 -12 118.449 12.2830   3
  -2 -11  12 120.169 19.7530   1
   1  11 -12 437.730 24.7276   3
   1  11 -12 428.640 34.9894   2
  -1 -11  12 485.504 27.1965   1
   0 -11  12 109.264 13.3565   1
  -1  11 -12 44.8261 10.7177   2
   1 -11  12 58.9366 15.0330   1
  -2  11 -12 18.5453 7.77541   2
   2 -11  12 18.8538 8.30232   1
   3 -11  12 28.3511 9.57862   1
   4  10 -12 77.0427 15.4109   2
   4  10 -12 73.6292 12.0799   3
  -4 -10  12 90.6132 12.2472   1
   3  10 -12 130.205 13.4783   3
   3  10 -12 136.810 14.2052   2
  -3 -10  12 139.766 13.6061   1
   2  10 -12 59.6906 8.84389   3
   2  10 -12 61.4021 10.6941   2
  -2 -10  12 56.4333 9.18950   1
   1  10 -12 391.149 21.5777   3
   1  10 -12 399.851 25.3328   2
  -1 -10  12 398.111 23.9978   1
   0  10 -12 259.606 19.8561   2
   0 -10  12 288.271 19.5235   1
  -1  10 -12 89.7688 12.5586   2
   1 -10  12 85.9421 12.1704   1
  -2  10 -12 121.410 14.2206   2
  -3  10 -12 0.91012 8.80388   2
   3 -10  12 32.2465 9.53217   1
   5   9 -12 22.6908 7.24840   2
   5   9 -12 27.0993 8.78379   3
  -5  -9  12 20.8592 7.94817   1
   4   9 -12 157.635 15.5131   3
   4   9 -12 162.352 14.8388   2
  -4  -9  12 161.253 15.7671   1
   2   9 -12 86.7203 11.3359   2
   2   9 -12 89.8656 9.91263   3
  -2  -9  12 94.1239 11.1985   1
   1   9 -12 340.759 21.7260   2
   1   9 -12 312.335 17.7913   3
  -1  -9  12 332.140 20.9097   1
   0   9 -12 7.02169 5.94814   2
   0  -9  12 -0.5679 5.34087   1
  -1   9 -12 29.5000 8.13981   2
   1  -9  12 32.8520 8.34631   1
  -2   9 -12 350.969 23.4926   2
   2  -9  12 339.630 22.8958   1
  -3   9 -12 313.454 22.0947   2
  -4   9 -12 5.92464 7.68079   2
   4  -9  12 10.6030 7.45633   1
   5   8 -12 279.212 19.3833   2
   5   8 -12 291.253 22.2637   3
  -5  -8  12 312.076 21.2714   1
   4   8 -12 426.983 26.5369   3
   4   8 -12 417.626 25.1538   2
  -4  -8  12 419.165 25.5832   1
   3   8 -12 1715.18 78.9537   2
   3   8 -12 1635.31 78.2208   3
  -3  -8  12 1738.52 78.6417   1
   2   8 -12 94.5841 11.1756   2
   2   8 -12 97.8777 9.49218   3
  -2  -8  12 95.2388 10.5532   1
   1   8 -12 2.83596 2.94164   3
   1   8 -12 -1.2454 5.06410   2
  -1  -8  12 5.97942 5.62181   1
   0   8 -12 570.922 30.3693   2
   0  -8  12 475.680 28.1684   1
  -1   8 -12 161.882 14.5637   2
   1  -8  12 185.210 15.2174   1
  -2   8 -12 76.6982 11.3052   2
   2  -8  12 91.2682 12.2417   1
  -3   8 -12 3.48979 5.78844   2
   3  -8  12 3.82384 6.20658   1
  -4   8 -12 18.6903 7.44225   2
   4  -8  12 4.22635 6.83187   1
   6   7 -12 51.5454 11.4658   3
   6   7 -12 43.2163 8.13336   2
  -6  -7  12 36.0231 9.04734   1
   5   7 -12 129.096 12.5936   2
   5   7 -12 129.171 15.1504   3
  -5  -7  12 141.265 14.1366   1
   4   7 -12 1668.72 78.0903   2
   4   7 -12 1617.87 79.0430   3
  -4  -7  12 1777.91 78.9349   1
   3   7 -12 150.032 13.8686   2
   3   7 -12 166.677 13.3798   3
  -3  -7  12 169.876 14.2247   1
   2   7 -12 819.113 42.4368   2
   2   7 -12 855.685 40.3571   3
  -2  -7  12 841.283 41.9692   1
   1   7 -12 32.3819 4.75152   3
   1   7 -12 22.5369 6.71241   2
  -1  -7  12 40.2543 7.76812   1
   0   7 -12 534.607 31.1034   2
   0  -7  12 587.022 30.3179   1
  -1   7 -12 184.193 15.2776   2
   1  -7  12 193.021 15.0966   1
  -2   7 -12 610.634 33.4329   2
   2  -7  12 588.411 32.6541   1
  -3   7 -12 148.122 14.2560   2
   3  -7  12 150.195 14.9103   1
  -4   7 -12 156.188 14.9411   2
   4  -7  12 136.773 16.4121   1
   5  -7  12 6.10202 7.25420   1
   6   6 -12 88.3398 13.6042   3
   6   6 -12 65.0061 9.02666   2
  -6  -6  12 69.0530 11.2125   1
   5   6 -12 30.1954 8.75780   3
   5   6 -12 34.5071 7.31221   2
  -5  -6  12 34.7646 8.62335   1
   4   6 -12 972.424 49.5771   3
   4   6 -12 1069.19 49.1866   2
  -4  -6  12 954.024 49.1043   1
  -3  -6  12 42.7914 8.14285   1
   2   6 -12 344.663 20.6191   2
   2   6 -12 289.360 17.8513   3
  -2  -6  12 339.723 19.9821   1
   1   6 -12 93.2267 10.3057   2
   1   6 -12 80.3123 6.24805   3
  -1  -6  12 83.9827 9.91955   1
   0   6 -12 29.1104 7.36747   2
   0  -6  12 29.0054 6.97666   1
  -1   6 -12 156.294 14.0688   2
   1  -6  12 174.790 14.0472   1
  -2   6 -12 403.112 24.5659   2
   2  -6  12 401.350 24.1865   1
  -3   6 -12 281.196 19.5436   2
   3  -6  12 268.376 19.6522   1
  -4   6 -12 144.293 14.1442   2
   4  -6  12 146.193 14.7254   1
  -5   6 -12 71.7549 12.4745   1
   5  -6  12 56.1572 11.1632   1
   6   5 -12 11.0641 7.43490   3
   6   5 -12 10.3854 5.48613   2
  -6  -5  12 11.7230 7.39009   1
   5   5 -12 462.492 28.7217   3
   5   5 -12 483.657 26.4741   2
  -5  -5  12 490.888 28.4840   1
   4   5 -12 223.712 15.5707   2
   4   5 -12 212.162 25.3296   3
  -4  -5  12 225.561 16.6381   1
   3   5 -12 1219.37 56.9697   2
   3   5 -12 1159.90 56.2748   3
  -3  -5  12 1221.21 57.3263   1
   2   5 -12 201.912 13.1150   3
   2   5 -12 189.430 14.9220   2
  -2  -5  12 230.158 15.4990   1
   1   5 -12 3.07214 4.84260   2
   1   5 -12 6.38635 2.57065   3
  -1  -5  12 14.3242 5.50425   1
   0   5 -12 120.721 11.6747   2
   0  -5  12 122.399 11.2734   1
  -1   5 -12 610.471 31.0459   2
   1  -5  12 509.959 29.3408   1
  -2   5 -12 83.7736 10.3089   2
   2  -5  12 65.8421 10.0716   1
  -3   5 -12 121.003 12.9775   2
   3  -5  12 148.025 13.6930   1
  -4   5 -12 14.2378 6.52616   2
   4  -5  12 18.3567 7.20149   1
   6   4 -12 110.288 14.4289   3
   5   4 -12 84.9025 9.23907   2
   5   4 -12 79.3525 12.0838   3
  -5  -4  12 77.7183 11.2189   1
   4   4 -12 513.455 26.8107   2
   4   4 -12 450.309 32.1641   3
  -4  -4  12 516.491 28.0854   1
   3   4 -12 78.3388 9.12223   2
   3   4 -12 88.8101 9.50291   3
  -3  -4  12 84.0188 10.0917   1
   2   4 -12 251.416 14.5883   3
   2   4 -12 237.847 16.2970   2
  -2  -4  12 240.320 16.5057   1
   1   4 -12 101.392 10.4480   2
   1   4 -12 112.409 7.27269   3
  -1  -4  12 102.454 10.3242   1
   0   4 -12 1277.22 60.6210   2
   0  -4  12 1285.33 59.4116   1
  -1   4 -12 73.8938 9.63976   2
   1  -4  12 59.3890 9.03526   1
  -2   4 -12 424.006 24.6525   2
   2  -4  12 398.289 23.7211   1
  -3   4 -12 156.568 14.1543   2
   3  -4  12 158.928 14.2191   1
  -4   4 -12 720.038 38.1909   2
   4  -4  12 708.840 38.6407   1
  -5   4 -12 -0.0180 6.06505   1
   5  -4  12 -2.7751 5.36711   1
   7   3 -12 91.3558 8.78634   2
   7   3 -12 84.4443 13.8882   3
  -7  -3  12 101.639 13.3666   1
   6   3 -12 670.762 33.1793   2
   6   3 -12 648.031 37.9198   3
  -6  -3  12 691.321 37.5096   1
   5   3 -12 78.8446 8.87081   2
   5   3 -12 76.3740 11.7068   3
  -5  -3  12 80.9294 11.2440   1
   4   3 -12 31.3074 6.98982   2
  -4  -3  12 28.5946 7.70321   1
   2   3 -12 40.4531 7.29526   2
   2   3 -12 36.4754 5.77575   3
  -2  -3  12 55.4749 8.29137   1
   1   3 -12 302.265 18.7283   2
   1   3 -12 302.508 15.3247   3
  -1  -3  12 296.873 18.1615   1
   0   3 -12 32.7336 6.36819   2
   0  -3  12 22.3360 5.88346   1
  -1   3 -12 296.793 18.9406   2
   1  -3  12 299.815 18.3147   1
  -2   3 -12 383.607 22.7464   2
   2  -3  12 355.724 21.5714   1
  -3   3 -12 784.546 40.1947   2
   3  -3  12 762.092 39.3830   1
  -4   3 -12 12.9169 6.27076   2
   4  -3  12 7.37157 6.17688   1
  -5   3 -12 35.7696 8.49094   2
  -5   3 -12 45.1955 9.60578   1
   5  -3  12 40.5023 9.06661   1
   7   2 -12 248.284 21.6053   3
   7   2 -12 246.168 16.1127   2
  -7  -2  12 237.005 19.5566   1
   6   2 -12 27.3187 5.65546   2
   6   2 -12 34.7339 9.49973   3
  -6  -2  12 21.8089 7.92566   1
   5   2 -12 380.644 24.1615   3
   5   2 -12 382.165 20.8669   2
  -5  -2  12 362.645 23.5577   1
   4   2 -12 92.5602 11.0560   3
   4   2 -12 107.670 9.68910   2
  -4  -2  12 111.440 11.7090   1
   3   2 -12 1248.96 59.0639   3
  -3  -2  12 1306.78 60.1306   1
   2   2 -12 2.40472 3.20262   3
   2   2 -12 2.87368 4.38513   2
  -2  -2  12 2.72499 4.20401   1
   1   2 -12 42.2038 5.30348   3
   1   2 -12 50.5438 7.80850   2
  -1  -2  12 56.9750 7.91135   1
   0   2 -12 209.919 11.3140   3
   0   2 -12 237.377 15.6421   2
   0  -2  12 216.758 11.2559   3
   0  -2  12 231.505 21.8088   1
  -1   2 -12 670.634 35.6437   2
   1  -2  12 712.927 34.6887   1
  -2   2 -12 53.3670 8.47248   2
   2  -2  12 40.2830 7.34829   1
  -3   2 -12 79.4462 10.3862   2
   3  -2  12 95.6040 10.5183   1
  -4   2 -12 124.333 12.9660   1
  -4   2 -12 136.418 13.3240   2
   4  -2  12 122.166 12.9050   1
  -5   2 -12 9.72721 6.27642   1
  -5   2 -12 6.74540 5.63649   2
   5  -2  12 4.04434 5.45078   1
   7   1 -12 -3.0157 6.80548   3
  -7  -1  12 3.58624 6.80065   1
   6   1 -12 148.165 10.4752   2
   6   1 -12 137.846 15.2315   3
   5   1 -12 4.93315 5.72493   3
   5   1 -12 7.21004 4.06792   2
  -5  -1  12 8.17143 6.17010   1
   4   1 -12 34.0352 7.17421   3
  -4  -1  12 25.7517 7.37835   1
   3   1 -12 29.3976 6.34264   3
   3   1 -12 26.9874 6.54408   2
  -3  -1  12 18.2317 5.87513   1
   2   1 -12 1096.47 50.7559   3
   2   1 -12 1098.51 52.0925   2
  -2  -1  12 1123.12 52.2010   1
   1   1 -12 6.03608 4.28971   2
   1   1 -12 4.71480 3.09374   3
  -1  -1  12 3.11605 4.08541   1
   0   1 -12 914.592 41.2040   3
   0   1 -12 907.903 44.5529   2
   0  -1  12 924.449 42.2885   3
   0  -1  12 898.845 42.9976   1
  -1   1 -12 18.3466 5.79176   2
   1  -1  12 14.8499 5.09446   1
   1  -1  12 20.9846 3.53706   3
  -2   1 -12 784.705 37.5780   2
   2  -1  12 720.023 32.5182   3
   2  -1  12 658.802 37.2995   1
  -3   1 -12 -1.8398 4.58454   2
   3  -1  12 -0.9548 4.19175   1
  -4   1 -12 330.965 20.8142   1
  -4   1 -12 299.422 20.7488   2
   4  -1  12 318.401 20.3194   1
   7   0 -12 22.9373 8.88492   3
  -7   0  12 36.3457 9.28121   1
   6   0 -12 225.677 19.0443   3
   6   0 -12 248.183 14.1225   2
  -6   0  12 270.133 19.3876   1
   5   0 -12 38.0116 5.84604   2
   5   0 -12 29.9511 7.78415   3
  -5   0  12 22.7112 7.30581   1
   4   0 -12 154.538 13.3988   3
   4   0 -12 152.166 11.3579   2
  -4   0  12 154.661 13.4919   1
  -3   0  12 136.829 12.1593   1
   2   0 -12 339.983 19.6018   2
   2   0 -12 335.889 18.8313   3
   1   0 -12 43.4187 6.96621   2
   1   0 -12 51.0663 6.39849   3
  -1   0  12 58.4941 7.13003   1
   0   0 -12 26.1511 4.55013   3
   0   0 -12 35.1063 6.83754   2
   0   0  12 24.6378 5.25076   1
   0   0  12 18.7186 4.07889   3
  -1   0 -12 354.648 21.8506   2
   1   0  12 378.450 20.5058   1
   1   0  12 380.414 18.9519   3
  -2   0 -12 428.432 24.6597   2
   2   0  12 423.433 21.1039   3
   2   0  12 405.113 22.5574   1
  -3   0 -12 347.362 21.3407   2
   3   0  12 322.180 17.4701   3
   3   0  12 311.779 19.3568   1
  -4   0 -12 37.2846 8.60631   2
  -4   0 -12 35.2591 7.49930   1
   4   0  12 33.6874 7.02207   1
   4   0  12 26.0769 5.24026   3
   6  -1 -12 9.41966 3.64696   2
   6  -1 -12 1.74130 6.03805   3
  -6   1  12 10.7795 6.66065   1
   5  -1 -12 146.388 10.3845   2
   5  -1 -12 139.917 13.8275   3
  -5   1  12 140.334 13.7737   1
   4  -1 -12 740.953 37.8693   3
   4  -1 -12 732.779 35.6585   2
  -4   1  12 737.165 37.8627   1
   3  -1 -12 480.895 25.5973   2
   3  -1 -12 508.494 26.6724   3
  -3   1  12 482.540 26.4269   1
   2  -1 -12 212.315 14.4232   2
   2  -1 -12 222.348 14.1579   3
  -2   1  12 207.455 14.1025   1
   1  -1 -12 27.2216 5.64962   3
   1  -1 -12 25.4215 5.72983   2
  -1   1  12 25.6634 5.40665   1
   0  -1 -12 31.6621 5.54528   3
   0   1  12 29.0071 5.40347   1
   0   1  12 31.5296 5.21413   3
  -1  -1 -12 433.321 23.9889   2
   1   1  12 400.787 20.9540   3
   1   1  12 386.937 21.2104   1
  -2  -1 -12 148.039 13.1959   2
   2   1  12 159.734 11.0517   3
   2   1  12 128.337 10.8719   1
  -3  -1 -12 -0.6908 4.63010   2
  -3  -1 -12 1.57624 4.18712   1
   3   1  12 -0.2885 3.63939   1
   3   1  12 -1.6838 3.50919   3
  -4  -1 -12 0.65407 4.29770   1
  -4  -1 -12 6.10866 5.69135   2
   4   1  12 -0.7681 4.27649   3
   4   1  12 2.08410 4.21967   1
   6  -2 -12 18.1274 8.76390   3
   6  -2 -12 14.7805 3.70325   2
  -6   2  12 13.9503 6.62254   1
   5  -2 -12 177.308 11.7155   2
   5  -2 -12 173.919 15.5173   3
  -5   2  12 181.776 15.1905   1
   4  -2 -12 268.733 18.3810   3
   4  -2 -12 281.785 16.0466   2
  -4   2  12 231.801 17.4337   1
   3  -2 -12 7.62334 5.32212   3
   3  -2 -12 17.2673 4.97861   2
  -3   2  12 3.27956 4.55789   1
   2  -2 -12 107.419 10.1905   3
   2  -2 -12 100.883 9.67563   2
  -2   2  12 97.3812 9.39741   1
   1  -2 -12 51.4786 7.30762   3
   1  -2 -12 43.7636 7.63548   2
  -1   2  12 45.7338 6.67858   1
   0  -2 -12 900.912 40.8631   3
   0  -2 -12 853.640 42.3512   2
   0   2  12 836.894 40.2478   3
   0   2  12 833.966 39.6918   1
  -1  -2 -12 78.3614 9.92813   2
   1   2  12 46.0300 7.07672   3
   1   2  12 45.7978 6.33473   1
  -2  -2 -12 491.536 28.6267   2
   2   2  12 505.054 26.8683   3
   2   2  12 542.240 25.9522   1
  -3  -2 -12 53.7900 9.38026   2
  -3  -2 -12 48.0696 7.37127   1
   3   2  12 51.0522 7.11128   1
   3   2  12 54.2373 8.52499   3
  -4  -2 -12 113.008 10.5029   1
   6  -3 -12 218.546 18.8969   3
   6  -3 -12 277.035 17.7041   2
  -6   3  12 236.873 18.5283   1
   5  -3 -12 79.4459 11.6237   3
   5  -3 -12 79.9112 7.71296   2
  -5   3  12 74.3954 10.4853   1
   4  -3 -12 304.534 20.3227   3
   4  -3 -12 301.452 17.8158   2
  -4   3  12 319.250 19.8272   1
   3  -3 -12 392.399 22.6681   3
  -3   3  12 359.361 23.4181   1
   2  -3 -12 119.200 11.4039   3
   2  -3 -12 124.359 10.9093   2
  -2   3  12 107.973 9.61286   1
   1  -3 -12 98.0949 10.1029   2
   1  -3 -12 68.7297 9.22291   3
  -1   3  12 60.6316 7.00760   1
  -1   3  12 49.4223 7.76858   3
   0  -3 -12 125.004 11.2170   3
   0  -3 -12 120.082 11.5463   2
   0   3  12 122.354 12.9265   3
   0   3  12 116.781 8.64971   1
  -1  -3 -12 72.2113 9.83947   2
   1   3  12 76.4152 6.99161   1
   1   3  12 74.2729 11.1018   3
  -2  -3 -12 23.2910 9.77816   2
  -2  -3 -12 21.8554 4.47623   1
   2   3  12 13.3435 6.48277   3
   2   3  12 24.9730 4.53190   1
  -3  -3 -12 52.2939 9.22955   2
  -3  -3 -12 44.8126 6.54867   1
   3   3  12 73.4373 9.64880   3
   5  -4 -12 119.715 9.04901   2
   5  -4 -12 93.3298 15.4585   3
  -5   4  12 113.895 11.9181   1
   4  -4 -12 49.6923 8.94072   3
   4  -4 -12 60.8184 7.66549   2
  -4   4  12 60.1228 9.13604   1
   3  -4 -12 430.982 23.3639   2
   3  -4 -12 410.111 24.6535   3
  -3   4  12 439.779 23.5070   1
   2  -4 -12 76.3097 9.17381   2
   2  -4 -12 61.2611 9.61614   3
  -2   4  12 76.0741 7.67931   1
   1  -4 -12 811.423 40.1048   3
   1  -4 -12 819.300 40.2275   2
  -1   4  12 823.031 39.5957   3
  -1   4  12 767.677 36.8107   1
   0  -4 -12 2.02261 5.06504   3
   0  -4 -12 9.82444 5.70711   2
   0   4  12 2.59281 4.84196   3
   0   4  12 5.47545 2.88287   1
  -1  -4 -12 134.125 12.9412   2
   1   4  12 156.090 12.8228   3
  -2  -4 -12 55.5631 9.31352   2
   2   4  12 51.8135 8.91993   3
   4  -5 -12 190.155 13.3517   2
   4  -5 -12 214.841 16.9132   3
  -4   5  12 209.502 14.8178   1
   3  -5 -12 10.1549 6.44063   3
   3  -5 -12 10.1958 4.58737   2
  -3   5  12 7.20344 4.28156   1
   2  -5 -12 188.808 14.2297   2
   2  -5 -12 191.620 15.6124   3
  -2   5  12 199.595 15.0106   3
  -2   5  12 186.221 11.7818   1
   1  -5 -12 474.590 25.5452   2
   1  -5 -12 448.908 25.7387   3
  -1   5  12 409.192 21.1977   1
  -1   5  12 465.822 25.2016   3
   0  -5 -12 364.995 22.2739   2
   0  -5 -12 366.842 22.5228   3
   0   5  12 372.247 22.0434   3
  -1  -5 -12 11.2650 5.77193   2
   1   5  12 13.0339 6.31236   3
   3  -6 -12 -5.1705 7.72108   3
   3  -6 -12 11.2269 5.16306   2
  -3   6  12 3.10215 4.03487   1
   2  -6 -12 49.0490 9.28706   3
   2  -6 -12 59.0868 8.52302   2
  -2   6  12 58.6137 9.23517   3
   1  -6 -12 81.9636 11.4886   3
   1  -6 -12 83.5208 10.3509   2
  -1   6  12 56.1776 9.41519   3
   0  -6 -12 49.4615 8.58344   2
   0   6  12 48.8856 8.95226   3
   2  11 -13 16.5762 6.10229   3
   2  11 -13 13.0518 7.63140   2
  -2 -11  13 8.82763 6.97562   1
   1  11 -13 339.465 24.1054   2
  -1 -11  13 348.321 22.7650   1
   0  11 -13 600.565 35.8993   2
   0 -11  13 628.215 34.6922   1
  -1  11 -13 48.1033 10.3199   2
   1 -11  13 26.4855 8.90663   1
   3  10 -13 59.1639 10.4831   2
   3  10 -13 50.3221 9.45028   3
  -3 -10  13 35.0505 8.34062   1
   2  10 -13 105.773 10.4621   3
  -2 -10  13 96.3451 13.2525   1
   1  10 -13 41.1801 6.33005   3
   0  10 -13 15.2200 11.1614   2
  -1  10 -13 24.0270 8.09080   2
   1 -10  13 28.9592 8.30952   1
  -2  10 -13 37.8142 9.51587   2
   2 -10  13 52.2969 10.9332   1
   4   9 -13 24.4754 8.02419   3
   4   9 -13 51.0338 9.67087   2
  -4  -9  13 45.9883 9.65133   1
   3   9 -13 144.913 14.0910   2
   3   9 -13 123.251 12.7580   3
   2   9 -13 19.5647 5.39736   3
   2   9 -13 27.7680 8.23189   2
  -2  -9  13 21.1028 7.37778   1
   1   9 -13 269.989 15.2845   3
   1   9 -13 294.173 20.8288   2
  -1  -9  13 291.828 19.7565   1
   0   9 -13 232.559 19.0927   2
   0  -9  13 250.709 18.3919   1
  -1   9 -13 57.5576 10.8160   2
   1  -9  13 58.7549 10.0528   1
  -2   9 -13 58.5252 18.5776   2
   2  -9  13 86.3709 12.7185   1
  -3   9 -13 42.7943 9.77847   2
   3  -9  13 43.5426 10.0372   1
   5   8 -13 42.3573 9.85863   3
   5   8 -13 31.9067 7.72514   2
  -5  -8  13 27.3947 8.15859   1
   4   8 -13 131.968 14.4148   3
   4   8 -13 146.718 14.2790   2
  -4  -8  13 150.636 16.4802   1
   3   8 -13 10.8315 5.87769   3
   3   8 -13 3.07644 6.30465   2
  -3  -8  13 9.23238 6.39140   1
   2   8 -13 295.266 20.0783   2
   2   8 -13 256.110 16.5278   3
  -2  -8  13 290.646 19.2594   1
   1   8 -13 309.274 16.4134   3
   1   8 -13 323.634 22.0590   2
  -1  -8  13 351.382 21.2930   1
   0   8 -13 213.461 17.0794   2
   0  -8  13 199.982 16.0604   1
  -1   8 -13 113.196 13.0928   2
   1  -8  13 108.987 12.9314   1
  -2   8 -13 523.539 30.5108   2
   2  -8  13 480.531 29.4006   1
  -3   8 -13 165.442 24.3320   2
   3  -8  13 177.319 16.9458   1
   5   7 -13 136.812 13.3124   2
   5   7 -13 130.136 14.5310   3
  -5  -7  13 129.815 14.2270   1
   4   7 -13 946.269 48.8336   3
   4   7 -13 939.699 48.4134   2
  -4  -7  13 1022.90 49.4717   1
   3   7 -13 6.99105 5.82076   2
   3   7 -13 9.50077 5.24255   3
  -3  -7  13 2.13025 6.00534   1
   2   7 -13 61.7204 7.47674   3
   2   7 -13 68.1255 10.0274   2
  -2  -7  13 36.5804 8.22357   1
   1   7 -13 49.7988 9.00905   2
  -1  -7  13 49.2223 9.00945   1
   0   7 -13 5.95254 5.80312   2
   0  -7  13 3.34133 5.40810   1
  -1   7 -13 357.711 22.9360   2
   1  -7  13 322.547 21.2503   1
  -2   7 -13 111.228 13.0987   2
   2  -7  13 134.090 13.7345   1
  -3   7 -13 83.9062 12.4228   2
   3  -7  13 67.9410 11.5707   1
  -4   7 -13 53.4919 10.7051   2
   4  -7  13 58.4811 11.2661   1
   5   6 -13 107.733 13.3633   3
   5   6 -13 115.876 11.8326   2
  -5  -6  13 81.2056 12.2321   1
   4   6 -13 157.979 14.1239   2
   4   6 -13 150.620 14.0536   3
  -4  -6  13 134.820 14.0543   1
   3   6 -13 451.758 25.2288   3
   3   6 -13 456.344 26.3641   2
  -3  -6  13 442.856 26.3113   1
   2   6 -13 147.729 10.9331   3
   2   6 -13 157.212 13.7004   2
  -2  -6  13 154.055 13.6775   1
   1   6 -13 414.331 20.1836   3
   1   6 -13 440.268 25.8620   2
  -1  -6  13 455.760 25.3287   1
   0   6 -13 254.974 18.2744   2
   0  -6  13 271.078 18.1082   1
  -1   6 -13 153.512 13.6998   2
   1  -6  13 112.117 12.2786   1
  -2   6 -13 0.86718 5.56685   2
   2  -6  13 1.87556 6.01188   1
  -3   6 -13 70.8470 11.1235   2
   3  -6  13 68.4572 11.0809   1
  -4   6 -13 63.4791 10.6928   2
   4  -6  13 72.2723 12.3083   1
   6   5 -13 85.7384 10.0552   2
   6   5 -13 84.4659 13.6335   3
  -6  -5  13 83.2621 12.9876   1
   5   5 -13 81.8666 12.2648   3
  -5  -5  13 43.7453 14.0202   1
   4   5 -13 1.90165 5.02072   2
   4   5 -13 7.27766 5.63708   3
  -4  -5  13 3.89025 5.99310   1
   3   5 -13 11.2621 5.32998   3
   3   5 -13 14.2484 6.02713   2
  -3  -5  13 18.4438 6.91310   1
   2   5 -13 1152.54 53.1578   2
   2   5 -13 1047.12 49.6415   3
  -2  -5  13 1069.37 52.4098   1
   1   5 -13 82.7071 9.99003   2
   1   5 -13 55.0870 4.92775   3
  -1  -5  13 72.3499 9.68553   1
   0   5 -13 225.196 16.8769   2
   0  -5  13 228.537 16.2821   1
  -1   5 -13 394.761 24.8738   2
   1  -5  13 416.882 24.1590   1
  -2   5 -13 18.9208 6.84157   2
   2  -5  13 25.2876 7.54140   1
  -3   5 -13 5.27961 6.24139   2
   3  -5  13 4.14683 5.87508   1
  -4   5 -13 181.597 16.4749   2
   4  -5  13 201.066 17.3013   1
   6   4 -13 304.175 22.6664   3
   6   4 -13 285.482 18.4319   2
  -6  -4  13 309.583 22.2587   1
   5   4 -13 106.177 13.4914   3
   5   4 -13 121.905 11.6524   2
  -5  -4  13 107.360 13.0310   1
   4   4 -13 168.207 13.1016   2
   4   4 -13 136.228 13.3035   3
  -4  -4  13 146.803 13.9269   1
   3   4 -13 55.3529 8.47653   3
   3   4 -13 80.5513 9.84462   2
  -3  -4  13 75.7961 10.2551   1
   2   4 -13 216.361 13.2132   3
   2   4 -13 270.551 16.8757   2
  -2  -4  13 177.159 15.0675   1
   1   4 -13 11.3084 5.87732   2
   1   4 -13 2.18188 2.47204   3
  -1  -4  13 4.68029 5.16160   1
   0   4 -13 31.3971 7.49587   2
   0  -4  13 39.8533 7.65625   1
  -1   4 -13 712.451 37.4213   2
   1  -4  13 715.276 36.5178   1
  -2   4 -13 196.771 15.9218   2
   2  -4  13 191.269 15.4476   1
  -3   4 -13 239.364 17.9679   2
   3  -4  13 221.480 17.6933   1
  -4   4 -13 95.2079 11.9774   2
   4  -4  13 73.8944 11.5121   1
   6   3 -13 1.61885 6.69381   3
   6   3 -13 1.89203 4.54110   2
  -6  -3  13 1.30240 6.78618   1
   5   3 -13 1962.00 89.9130   2
   5   3 -13 1958.00 92.8174   3
  -5  -3  13 2096.56 93.2087   1
   4   3 -13 159.306 13.8886   3
   4   3 -13 162.144 13.0626   2
  -4  -3  13 183.460 14.8310   1
   3   3 -13 520.624 28.6312   3
   3   3 -13 547.302 29.5908   2
  -3  -3  13 593.292 30.6111   1
   2   3 -13 41.9302 6.41607   3
   2   3 -13 52.4244 7.98443   2
  -2  -3  13 55.4073 8.77348   1
   1   3 -13 742.828 38.7323   2
  -1  -3  13 777.633 38.0313   1
   0   3 -13 336.597 21.2333   2
   0  -3  13 330.284 19.9440   1
  -1   3 -13 541.908 28.8943   2
   1  -3  13 470.599 27.0139   1
  -2   3 -13 52.8455 8.83458   2
   2  -3  13 60.8766 9.10582   1
  -3   3 -13 34.1539 7.58594   2
   3  -3  13 24.6080 6.79479   1
  -4   3 -13 108.425 12.4494   2
   4  -3  13 96.7792 12.4419   1
   6   2 -13 95.0134 9.45362   2
   6   2 -13 83.6703 13.4114   3
  -6  -2  13 119.274 13.6384   1
   5   2 -13 540.867 31.1423   3
   4   2 -13 2.76589 4.57220   2
   4   2 -13 3.70508 5.12750   3
  -4  -2  13 1.27573 5.70517   1
   3   2 -13 12.3573 5.19965   3
   3   2 -13 5.15868 5.12717   2
  -3  -2  13 5.39508 5.34357   1
   2   2 -13 577.720 29.6143   3
   2   2 -13 591.952 31.6756   2
  -2  -2  13 652.269 32.1383   1
   1   2 -13 500.208 27.9859   2
   1   2 -13 507.038 24.5227   3
  -1  -2  13 523.583 27.4357   1
   0   2 -13 167.183 9.30841   3
   0   2 -13 156.854 13.4237   2
   0  -2  13 163.191 12.5680   1
   0  -2  13 167.442 9.23276   3
  -1   2 -13 183.689 14.0559   2
   1  -2  13 153.567 12.8241   1
  -2   2 -13 164.844 14.3694   2
   2  -2  13 174.597 13.7992   1
  -3   2 -13 154.383 14.0193   2
   3  -2  13 163.528 13.6462   1
  -4   2 -13 96.1230 12.2789   2
  -4   2 -13 104.020 12.4999   1
   4  -2  13 114.893 12.3977   1
   6   1 -13 355.638 24.3031   3
   6   1 -13 360.210 19.3956   2
  -6  -1  13 331.076 23.6062   1
   5   1 -13 189.589 16.3056   3
  -5  -1  13 197.845 16.8054   1
   4   1 -13 448.569 24.4614   2
   4   1 -13 451.160 26.0675   3
  -4  -1  13 458.663 26.7170   1
   3   1 -13 410.053 22.4274   2
   3   1 -13 344.899 21.4796   3
  -3  -1  13 406.308 23.2488   1
   2   1 -13 297.164 16.7827   3
  -2  -1  13 271.571 17.8342   1
   1   1 -13 3.05052 3.49943   3
   1   1 -13 -4.1456 4.39298   2
  -1  -1  13 9.16104 4.94138   1
   0   1 -13 54.0106 5.72678   3
   0   1 -13 72.4240 9.29641   2
   0  -1  13 52.5535 5.56454   3
   0  -1  13 61.2443 8.03442   1
  -1   1 -13 203.042 15.4948   2
   1  -1  13 205.513 14.1996   1
   1  -1  13 192.824 11.0116   3
  -2   1 -13 48.7174 8.62127   2
   2  -1  13 49.0772 7.69414   1
   3  -1  13 69.6468 9.22299   1
  -4   1 -13 7.61871 5.89999   1
  -4   1 -13 3.85780 5.83456   2
   4  -1  13 10.0216 6.10585   1
   6   0 -13 9.58864 4.33166   2
   6   0 -13 9.71803 7.24482   3
  -6   0  13 9.75976 6.92041   1
   5   0 -13 469.519 24.6230   2
   5   0 -13 437.916 27.3067   3
  -5   0  13 463.587 27.6378   1
   4   0 -13 537.568 30.4130   3
   4   0 -13 542.387 28.6454   2
  -4   0  13 597.873 31.3683   1
   3   0 -13 432.405 23.1418   2
   3   0 -13 419.006 23.4028   3
  -3   0  13 386.623 23.5217   1
   2   0 -13 79.3372 8.86781   2
   2   0 -13 60.0752 8.12657   3
  -2   0  13 67.8236 8.69684   1
   1   0 -13 103.401 10.6301   2
   1   0 -13 93.4550 8.57641   3
  -1   0  13 95.2006 9.79394   1
   0   0 -13 66.8708 6.86202   3
   0   0 -13 83.5955 9.72541   2
   0   0  13 77.2241 10.7678   1
   0   0  13 65.4323 6.73816   3
  -1   0 -13 196.085 14.6080   2
   1   0  13 143.358 10.2364   3
   1   0  13 172.708 13.0166   1
  -2   0 -13 102.045 11.6505   2
   2   0  13 101.856 10.0246   1
   2   0  13 97.5832 8.11535   3
  -3   0 -13 94.4389 11.2573   2
   3   0  13 73.5506 9.64070   1
   6  -1 -13 8.49312 3.92265   2
   6  -1 -13 12.3226 8.95829   3
  -6   1  13 14.7521 8.17212   1
   5  -1 -13 175.826 13.1711   2
   5  -1 -13 159.980 15.1172   3
  -5   1  13 176.871 15.5311   1
   4  -1 -13 1214.39 57.1563   2
   4  -1 -13 1207.83 58.9317   3
  -4   1  13 1287.50 59.4641   1
   3  -1 -13 212.176 15.1316   2
   3  -1 -13 235.565 15.9347   3
  -3   1  13 221.330 15.8935   1
   2  -1 -13 199.188 21.7344   3
   2  -1 -13 256.570 16.8023   2
  -2   1  13 290.926 16.8216   1
   1  -1 -13 184.311 14.5794   2
   1  -1 -13 212.432 13.7857   3
  -1   1  13 208.571 13.2688   3
  -1   1  13 219.718 20.3488   1
   0  -1 -13 41.2502 6.21295   3
   0  -1 -13 35.3923 6.93484   2
   0   1  13 25.7000 5.12392   3
   0   1  13 25.1854 5.62103   1
  -1  -1 -13 90.5249 10.9104   2
   1   1  13 84.6913 8.79961   1
   1   1  13 81.8251 8.20322   3
  -2  -1 -13 667.609 39.5670   2
   2   1  13 614.372 32.0187   1
   2   1  13 663.133 31.8835   3
  -3  -1 -13 164.178 14.9636   2
  -3  -1 -13 185.104 13.5308   1
   3   1  13 175.920 12.8821   1
   3   1  13 152.054 11.9822   3
   5  -2 -13 142.833 15.1264   2
   5  -2 -13 147.251 14.6217   3
  -5   2  13 140.831 13.7287   1
   4  -2 -13 840.015 42.7003   3
   4  -2 -13 821.351 40.4004   2
  -4   2  13 857.774 42.5479   1
   3  -2 -13 731.860 39.3746   3
   3  -2 -13 816.785 39.3161   2
  -3   2  13 839.706 39.7555   1
   2  -2 -13 47.9555 7.90981   3
   2  -2 -13 61.5212 8.44553   2
  -2   2  13 29.7100 6.20107   1
   1  -2 -13 3.39383 4.58330   3
   1  -2 -13 0.71778 4.82469   2
  -1   2  13 7.40520 4.29019   1
  -1   2  13 5.17853 5.51551   3
   0  -2 -13 67.2427 8.47980   3
   0  -2 -13 66.3738 9.76219   2
   0   2  13 70.4361 8.29005   3
   0   2  13 78.4589 7.89104   1
  -1  -2 -13 27.5757 6.95836   2
   1   2  13 19.6988 4.82281   1
   1   2  13 23.4420 5.68632   3
  -2  -2 -13 67.5576 9.85629   2
   2   2  13 63.1937 7.67493   1
   2   2  13 76.2021 9.33193   3
   5  -3 -13 149.035 10.8775   2
  -5   3  13 134.315 13.7476   1
   4  -3 -13 392.928 25.2666   3
   4  -3 -13 439.179 23.3257   2
  -4   3  13 433.661 24.6774   1
   3  -3 -13 91.1797 11.1325   3
   3  -3 -13 103.687 10.1672   2
  -3   3  13 96.3451 9.98702   1
   2  -3 -13 28.5147 6.61998   2
   2  -3 -13 31.1924 7.13883   3
  -2   3  13 33.6377 6.27717   1
   1  -3 -13 603.683 30.7658   3
   1  -3 -13 559.520 31.0336   2
  -1   3  13 579.797 28.5953   1
  -1   3  13 597.714 30.2715   3
   0  -3 -13 316.310 19.8452   2
   0  -3 -13 298.617 18.5976   3
   0   3  13 285.320 18.1028   3
   0   3  13 308.517 16.5560   1
  -1  -3 -13 11.0871 6.17466   2
   1   3  13 5.31659 4.89075   3
   1   3  13 6.85797 3.55352   1
  -2  -3 -13 176.509 15.1641   2
  -2  -3 -13 166.428 11.2266   1
   2   3  13 146.371 13.1957   3
   4  -4 -13 113.710 13.3151   3
   4  -4 -13 124.110 10.6108   2
  -4   4  13 130.491 12.0240   1
   3  -4 -13 11.8564 6.74547   3
   3  -4 -13 11.8543 5.22151   2
  -3   4  13 16.1954 5.57747   1
   2  -4 -13 43.5718 8.65873   3
   2  -4 -13 51.6711 8.43070   2
  -2   4  13 53.5858 6.87023   1
   1  -4 -13 48.5999 8.39270   2
   1  -4 -13 42.5632 8.01748   3
  -1   4  13 33.4209 5.20580   1
  -1   4  13 49.3674 7.94815   3
   0  -4 -13 158.997 13.7220   3
   0  -4 -13 183.824 20.5068   2
   0   4  13 174.016 13.6279   3
   0   4  13 146.788 9.95113   1
  -1  -4 -13 185.819 15.4922   2
   1   4  13 174.181 14.3729   3
   3  -5 -13 9.02252 6.82102   3
   3  -5 -13 3.31596 4.60909   2
  -3   5  13 15.6706 5.12506   1
   2  -5 -13 46.1524 7.99772   2
   2  -5 -13 71.1906 10.6448   3
  -2   5  13 55.0795 6.91258   1
  -2   5  13 51.6130 8.67235   3
   1  -5 -13 4.93920 6.16352   3
   1  -5 -13 2.86915 8.05681   2
  -1   5  13 8.73742 5.81241   3
   2  10 -14 65.8123 11.5276   2
   2  10 -14 101.829 15.2985   3
  -2 -10  14 91.8284 12.6520   1
   1  10 -14 40.4750 9.46999   2
  -1 -10  14 22.7641 8.08867   1
   0  10 -14 427.631 28.2615   2
   0 -10  14 420.823 26.8633   1
  -1  10 -14 31.9066 9.24801   2
   1 -10  14 40.2358 10.1704   1
   3   9 -14 175.334 14.4850   3
   3   9 -14 189.661 16.8470   2
  -3  -9  14 186.054 16.5167   1
   2   9 -14 27.8469 9.81634   2
   2   9 -14 45.7799 6.85296   3
  -2  -9  14 39.4416 8.99785   1
   1   9 -14 46.4593 10.0120   2
  -1  -9  14 66.0872 11.0971   1
   0   9 -14 24.2429 7.87501   2
   0  -9  14 37.9053 9.58758   1
  -1   9 -14 401.638 26.5405   2
   1  -9  14 388.938 25.0351   1
  -2   9 -14 21.9760 8.57571   2
   2  -9  14 45.0887 10.2726   1
   4   8 -14 29.3904 8.19409   2
   4   8 -14 22.4683 7.22070   3
  -4  -8  14 27.2994 8.89575   1
   3   8 -14 456.258 26.6000   3
   3   8 -14 487.052 29.0898   2
  -3  -8  14 492.266 28.7347   1
   2   8 -14 172.145 12.0401   3
   2   8 -14 167.941 15.8307   2
   1   8 -14 247.868 19.0371   2
  -1  -8  14 226.021 17.7669   1
   0   8 -14 31.3420 8.53711   2
   0  -8  14 28.7693 8.71338   1
  -1   8 -14 6.19552 7.54313   2
  -2   8 -14 49.2849 10.3354   2
   2  -8  14 44.7709 10.4484   1
   4   7 -14 372.216 23.6899   2
   4   7 -14 353.649 23.0389   3
  -4  -7  14 358.628 23.8963   1
  -3  -7  14 57.6571 15.3777   1
   2   7 -14 293.440 20.1712   2
   2   7 -14 253.687 15.6675   3
  -2  -7  14 290.246 19.4887   1
   1   7 -14 9.96191 6.88291   2
  -1  -7  14 13.7555 6.50837   1
   0   7 -14 118.810 13.3843   2
   0  -7  14 108.863 12.4216   1
  -1   7 -14 22.7999 7.86806   2
   1  -7  14 19.8572 7.70498   1
  -2   7 -14 22.8575 8.06262   2
  -3   7 -14 10.3335 7.45041   2
   3  -7  14 11.5025 7.65688   1
   5   6 -14 1.20185 5.54912   2
   5   6 -14 -4.4204 5.80928   3
  -5  -6  14 2.00881 6.11053   1
   4   6 -14 89.6544 11.3524   3
   4   6 -14 88.8494 11.4172   2
  -4  -6  14 81.1703 12.4207   1
   3   6 -14 8.85840 5.17790   3
   3   6 -14 18.4365 6.41232   2
  -3  -6  14 2.16618 6.19947   1
   2   6 -14 0.77952 3.25722   3
   2   6 -14 -1.3485 5.59264   2
  -2  -6  14 4.02808 5.89819   1
   1   6 -14 247.158 18.5651   2
  -1  -6  14 251.096 17.9124   1
   0   6 -14 6.14759 5.96234   2
   0  -6  14 6.74254 6.52911   1
  -1   6 -14 887.279 47.3217   2
   1  -6  14 944.638 46.5749   1
   2  -6  14 96.9484 12.7052   1
  -3   6 -14 5.25066 6.49138   2
   3  -6  14 7.42773 7.49643   1
   5   5 -14 1096.17 54.7999   2
   5   5 -14 1136.10 56.9459   3
  -5  -5  14 1172.98 57.0568   1
   4   5 -14 32.5540 7.43303   2
   4   5 -14 29.0278 7.81385   3
  -4  -5  14 27.7951 9.05353   1
   3   5 -14 3.71149 4.58999   3
   3   5 -14 9.10136 5.63288   2
  -3  -5  14 9.90490 6.52101   1
   2   5 -14 93.1793 11.4571   2
   2   5 -14 74.4421 7.52539   3
  -2  -5  14 95.0294 11.1411   1
   1   5 -14 604.267 32.7207   2
  -1  -5  14 563.458 31.2966   1
   0   5 -14 50.3947 9.36057   2
   0  -5  14 35.6150 7.86362   1
  -1   5 -14 100.674 12.1935   2
   1  -5  14 101.722 12.2081   1
  -2   5 -14 219.586 19.1960   2
   2  -5  14 242.324 18.0756   1
  -3   5 -14 38.3452 8.99295   2
   3  -5  14 43.6967 9.68683   1
   5   4 -14 109.527 13.5172   3
   5   4 -14 137.368 13.2013   2
  -5  -4  14 145.021 14.6543   1
   4   4 -14 135.823 13.0738   2
   4   4 -14 139.464 13.2311   3
  -4  -4  14 144.681 14.3599   1
   3   4 -14 9.38805 4.61470   3
   3   4 -14 22.0314 6.98732   2
  -3  -4  14 8.73922 6.53345   1
   2   4 -14 382.475 19.8931   3
   2   4 -14 378.961 23.2354   2
  -2  -4  14 369.474 23.0421   1
   1   4 -14 33.9514 7.47001   2
   1   4 -14 29.2240 4.11206   3
  -1  -4  14 26.6836 6.93679   1
   0   4 -14 479.874 28.3450   2
   0  -4  14 497.285 27.3978   1
  -1   4 -14 14.3641 6.45259   2
   1  -4  14 11.7271 6.40036   1
  -2   4 -14 796.762 41.8362   2
   2  -4  14 759.818 40.2336   1
  -3   4 -14 4.44225 6.01620   2
   3  -4  14 6.08488 6.23093   1
   5   3 -14 76.5897 12.0572   3
   5   3 -14 86.8661 10.4777   2
  -5  -3  14 79.8293 12.5643   1
   4   3 -14 231.932 16.0356   2
   4   3 -14 195.236 15.6555   3
  -4  -3  14 215.249 17.1880   1
   3   3 -14 5.05168 5.49297   2
   3   3 -14 3.87094 4.52959   3
  -3  -3  14 3.86011 5.69805   1
   2   3 -14 142.000 13.0271   2
   2   3 -14 137.593 10.3257   3
  -2  -3  14 162.159 13.6959   1
   1   3 -14 69.9162 10.1359   2
   1   3 -14 91.2044 7.60362   3
  -1  -3  14 80.4610 10.4818   1
   0   3 -14 5.89879 5.63059   2
   0  -3  14 4.61526 5.19407   1
  -1   3 -14 839.424 43.6779   2
   1  -3  14 850.876 42.2176   1
  -2   3 -14 153.375 15.3722   2
   2  -3  14 126.220 12.8876   1
  -3   3 -14 3.55480 5.63710   2
   3  -3  14 8.29112 5.81565   1
   5   2 -14 1513.93 71.0357   3
   5   2 -14 1450.25 68.1693   2
   4   2 -14 4.25949 5.34815   3
  -4  -2  14 5.35367 6.23181   1
   3   2 -14 77.9146 9.42598   3
   3   2 -14 91.3410 10.2327   2
  -3  -2  14 87.1898 11.2436   1
   2   2 -14 10.1629 5.93764   2
   2   2 -14 4.68728 4.09045   3
  -2  -2  14 8.39056 5.76207   1
   1   2 -14 365.286 20.7613   2
   1   2 -14 267.340 15.7153   3
  -1  -2  14 300.702 19.1204   1
   0   2 -14 61.0010 9.75165   2
   0  -2  14 52.5507 4.96898   3
   0  -2  14 60.6585 8.92826   1
  -1   2 -14 150.189 14.0748   2
   1  -2  14 150.792 13.2035   1
   2  -2  14 15.7424 6.16195   1
  -3   2 -14 -2.2278 5.16645   2
   3  -2  14 1.58441 4.94866   1
   5   1 -14 51.1757 7.91293   2
   5   1 -14 57.9751 9.83748   3
  -5  -1  14 31.8660 10.8245   1
   4   1 -14 124.123 12.6154   3
   4   1 -14 131.944 11.8848   2
  -4  -1  14 130.829 13.3167   1
   3   1 -14 24.6507 6.36088   3
   3   1 -14 41.6641 7.59859   2
  -3  -1  14 31.0021 7.66652   1
   2   1 -14 833.546 39.1385   3
   2   1 -14 800.957 41.0785   2
  -2  -1  14 823.669 40.9554   1
   1   1 -14 12.8289 4.23822   3
   1   1 -14 32.8247 6.86734   2
  -1  -1  14 17.0394 5.92031   1
   0   1 -14 170.246 14.2737   2
   0  -1  14 179.023 13.3275   1
   0  -1  14 156.401 10.0089   3
  -1   1 -14 23.2043 6.72797   2
   1  -1  14 20.3965 3.77160   3
   1  -1  14 24.9434 6.27781   1
  -2   1 -14 65.4646 9.93072   2
   2  -1  14 70.3349 9.52989   1
  -3   1 -14 13.0475 6.85555   2
   3  -1  14 13.9710 6.05280   1
   5   0 -14 47.0900 9.29731   3
   5   0 -14 54.2092 7.54874   2
  -5   0  14 46.2949 9.80179   1
   4   0 -14 204.638 14.6039   2
   4   0 -14 197.676 15.9882   3
  -4   0  14 207.620 16.5281   1
   3   0 -14 145.766 12.4212   2
   3   0 -14 146.830 12.5182   3
  -3   0  14 134.324 13.0738   1
   2   0 -14 25.2413 6.45540   2
   2   0 -14 27.0314 6.23505   3
  -2   0  14 32.1845 6.83474   1
   1   0 -14 32.7233 7.33499   2
   1   0 -14 37.8107 6.13546   3
  -1   0  14 32.1069 6.73221   1
  -1   0  14 39.1073 5.95127   3
   0   0 -14 32.7228 7.34534   2
   0   0 -14 38.8860 5.62967   3
   0   0  14 30.6553 6.45629   1
   0   0  14 34.3552 5.37821   3
  -1   0 -14 365.525 24.4995   2
   1   0  14 393.506 21.5759   1
   1   0  14 362.824 19.3841   3
  -2   0 -14 43.0369 8.97083   2
   2   0  14 34.3691 6.91382   1
   5  -1 -14 81.6392 12.4745   3
   5  -1 -14 83.8445 9.47036   2
  -5   1  14 100.527 12.7798   1
   4  -1 -14 24.6765 7.33496   3
  -4   1  14 6.05232 6.48078   1
   3  -1 -14 455.627 24.5394   2
   3  -1 -14 402.113 24.1998   3
  -3   1  14 432.228 24.8821   1
   2  -1 -14 0.15769 4.65367   2
   2  -1 -14 2.60921 4.76464   3
  -2   1  14 3.04929 4.74521   1
   1  -1 -14 330.579 20.5272   2
   1  -1 -14 334.685 18.5757   3
  -1   1  14 279.645 17.7319   3
  -1   1  14 318.148 18.4509   1
   0  -1 -14 237.440 17.3735   2
   0  -1 -14 252.265 14.7191   3
   0   1  14 220.035 14.1784   3
   0   1  14 212.704 14.7144   1
  -1  -1 -14 0.10095 4.93938   2
   1   1  14 7.25241 4.44993   3
   1   1  14 5.71840 4.59864   1
  -2  -1 -14 11.8575 6.38763   2
   2   1  14 6.22137 4.27848   1
   2   1  14 5.48849 4.53008   3
   4  -2 -14 86.3831 9.47027   2
   4  -2 -14 61.3826 10.0663   3
  -4   2  14 80.5608 10.8729   1
   3  -2 -14 82.6235 11.0648   3
  -3   2  14 76.5020 10.2245   1
   2  -2 -14 362.900 21.9245   3
   2  -2 -14 376.476 22.6706   2
  -2   2  14 391.620 21.4466   1
   1  -2 -14 12.0456 5.77729   2
   1  -2 -14 7.36610 4.73240   3
  -1   2  14 8.71625 4.36829   1
  -1   2  14 3.35043 4.70551   3
   0   2  14 407.934 23.0370   1
   0   2  14 411.810 22.7426   3
  -1  -2 -14 8.80526 6.09223   2
   1   2  14 4.44808 4.79111   3
   1   2  14 3.63978 3.92954   1
   3  -3 -14 37.1612 7.16849   2
   3  -3 -14 22.9533 7.41340   3
  -3   3  14 15.0836 5.89977   1
   2  -3 -14 56.8536 9.09295   3
   2  -3 -14 45.5858 8.39219   2
  -2   3  14 50.6881 7.87170   1
   1  -3 -14 66.7355 11.1147   2
   1  -3 -14 57.2913 8.67578   3
  -1   3  14 63.2869 8.98557   3
  -1   3  14 51.8382 7.14877   1
   0  -3 -14 13.8073 6.40662   2
   0   3  14 5.79409 4.02316   1
   0   3  14 5.29609 5.34158   3
   1   9 -15 -2.2647 6.43553   2
  -1  -9  15 3.83081 7.24796   1
   0   9 -15 56.0338 11.5622   2
   0  -9  15 58.1611 10.6121   1
   3   8 -15 737.388 42.3159   2
   3   8 -15 792.054 39.2707   3
  -3  -8  15 807.869 41.9646   1
   2   8 -15 186.141 17.5445   2
  -2  -8  15 176.011 16.5918   1
   1   8 -15 258.597 20.6771   2
  -1  -8  15 285.116 20.3844   1
   0   8 -15 126.938 14.7256   2
   0  -8  15 125.024 14.2798   1
  -1   8 -15 25.7719 8.85255   2
   1  -8  15 15.4141 7.95410   1
   3   7 -15 95.3646 14.6774   2
   3   7 -15 90.0687 10.1551   3
  -3  -7  15 106.003 13.4762   1
   2   7 -15 50.3285 15.2509   2
  -2  -7  15 26.3003 8.18865   1
   1   7 -15 258.457 22.1755   2
  -1  -7  15 244.811 18.9847   1
   0   7 -15 38.3738 9.53485   2
   0  -7  15 51.1111 9.69910   1
  -1   7 -15 46.9204 10.4834   2
   1  -7  15 51.4789 9.87533   1
   4   6 -15 340.224 22.0985   3
   4   6 -15 333.200 22.8392   2
  -4  -6  15 360.486 24.0132   1
   3   6 -15 21.5159 5.60163   3
   3   6 -15 13.8173 7.27366   2
  -3  -6  15 15.8489 7.63129   1
   2   6 -15 225.609 13.5450   3
   2   6 -15 272.333 19.3169   2
   1   6 -15 68.6898 11.0550   2
  -1  -6  15 42.6295 9.00078   1
   0   6 -15 76.3229 13.3236   2
   0  -6  15 78.4443 11.6701   1
  -1   6 -15 57.1725 10.3830   2
  -2   6 -15 136.173 15.1272   2
   2  -6  15 137.665 14.9663   1
   4   5 -15 116.244 12.9680   2
   4   5 -15 104.843 12.1608   3
  -4  -5  15 127.907 14.5147   1
   3   5 -15 232.735 18.3947   2
   3   5 -15 244.433 15.7433   3
   2   5 -15 27.8235 4.81052   3
   2   5 -15 40.4909 9.20229   2
  -2  -5  15 39.3851 8.77531   1
   1   5 -15 68.6753 11.0177   2
  -1  -5  15 43.1299 8.93062   1
   0   5 -15 150.976 16.4972   2
   0  -5  15 152.868 14.6340   1
  -1   5 -15 131.478 14.4171   2
   1  -5  15 137.970 13.8448   1
  -2   5 -15 44.1394 9.49424   2
   4   4 -15 20.8528 6.60980   3
   4   4 -15 26.6565 7.33200   2
  -4  -4  15 22.5004 8.08216   1
   3   4 -15 89.7784 9.84205   3
   3   4 -15 100.316 11.8379   2
  -3  -4  15 105.323 12.5183   1
   2   4 -15 26.0823 4.84537   3
  -2  -4  15 18.5997 6.87576   1
   1   4 -15 14.1262 7.22105   2
  -1  -4  15 18.6165 7.18880   1
   0   4 -15 158.170 14.8434   2
   0  -4  15 141.080 13.7962   1
  -1   4 -15 -0.4784 5.37831   2
   1  -4  15 3.03841 5.87926   1
  -2   4 -15 93.2962 13.1346   2
   2  -4  15 115.292 13.3489   1
   4   3 -15 162.720 13.8392   3
   4   3 -15 145.894 13.7160   2
  -4  -3  15 154.099 15.3302   1
   3   3 -15 34.7527 7.05170   3
   3   3 -15 41.5771 8.31016   2
  -3  -3  15 32.3214 8.17255   1
   2   3 -15 290.563 19.5701   2
   2   3 -15 248.343 15.5294   3
  -2  -3  15 311.641 19.6369   1
   1   3 -15 41.5253 9.27740   2
   1   3 -15 39.9981 6.23050   3
  -1  -3  15 36.4859 7.89680   1
   0   3 -15 133.166 14.1149   2
   0  -3  15 158.137 13.9894   1
  -1   3 -15 20.2441 7.34572   2
   1  -3  15 7.77719 5.89834   1
  -2   3 -15 156.924 15.0811   2
   2  -3  15 132.076 13.3957   1
   4   2 -15 73.0502 9.84643   2
   4   2 -15 49.3072 8.67632   3
   3   2 -15 14.3026 5.42821   3
   3   2 -15 16.5567 6.64581   2
  -3  -2  15 5.31385 6.48941   1
   2   2 -15 32.8018 7.69323   2
   2   2 -15 26.8395 5.57824   3
  -2  -2  15 27.4416 7.17294   1
   1   2 -15 390.637 20.0225   3
   1   2 -15 406.771 24.8540   2
  -1  -2  15 400.612 19.9786   3
  -1  -2  15 397.044 23.4036   1
   0   2 -15 34.8980 8.85131   2
   0  -2  15 51.7229 8.57159   1
  -1   2 -15 242.080 18.9121   2
   1  -2  15 265.006 17.9059   1
  -2   2 -15 41.9266 9.64114   2
   2  -2  15 41.2132 8.39755   1
   4   1 -15 54.8388 8.93749   3
   4   1 -15 65.4811 9.25473   2
  -4  -1  15 79.4248 11.4407   1
   3   1 -15 23.8121 6.51829   2
   3   1 -15 16.4651 6.06437   3
  -3  -1  15 18.0495 6.86232   1
   2   1 -15 36.9081 6.57210   3
   2   1 -15 55.2771 8.91472   2
  -2  -1  15 41.3152 7.88620   1
   1   1 -15 177.704 14.9017   2
   1   1 -15 158.259 11.3832   3
  -1  -1  15 169.178 11.2261   3
  -1  -1  15 183.062 13.8327   1
   0  -1  15 62.6912 9.10279   1
   0  -1  15 46.3061 5.82338   3
  -1   1 -15 12.9404 6.63303   2
   1  -1  15 12.4530 5.64261   1
   4   0 -15 28.6011 6.73357   2
   4   0 -15 10.7907 6.27469   3
  -4   0  15 20.4369 7.43573   1
   3   0 -15 111.588 11.7249   2
   3   0 -15 107.790 11.4472   3
  -3   0  15 119.668 12.4053   1
   2   0 -15 124.037 11.2136   3
   2   0 -15 127.732 12.7353   2
  -2   0  15 129.458 12.2015   1
   1   0 -15 28.1800 5.74012   3
   1   0 -15 24.7687 7.15927   2
  -1   0  15 32.5500 6.88005   1
  -1   0  15 22.0057 5.35743   3
   0   0 -15 56.3043 9.72939   2
   0   0  15 41.3959 7.25708   1
   0   0  15 38.9035 5.90958   3
  -1   0 -15 17.4742 7.48759   2
   1   0  15 9.63211 5.33629   1
   3  -1 -15 94.3874 11.2119   3
   3  -1 -15 95.6484 10.9130   2
  -3   1  15 84.7485 10.7821   1
   2  -1 -15 39.1084 7.24959   3
   2  -1 -15 51.8875 8.96514   2
  -2   1  15 27.5994 6.88249   1
   1  -1 -15 35.4508 9.66874   2
   1  -1 -15 41.3510 7.01807   3
  -1   1  15 36.8547 7.00723   1
  -1   1  15 41.5606 6.68555   3
   0  -1 -15 124.768 12.9252   2
   0   1  15 101.677 9.69338   3
   0   1  15 97.1474 10.3306   1
   2   6 -16 6.71003 7.15961   2
  -2  -6  16 6.55910 6.80203   1
   1   6 -16 624.631 35.8278   2
  -1  -6  16 606.915 34.4758   1
   0  -6  16 4.52770 7.03575   1
   2   5 -16 89.3192 12.2455   2
  -2  -5  16 77.5170 11.9243   1
   1   5 -16 161.762 15.5587   2
  -1  -5  16 111.842 13.5090   1
   0   5 -16 4.52548 6.91987   2
   0  -5  16 17.3325 7.82217   1
   3   4 -16 30.6777 6.14957   3
   2   4 -16 302.250 23.1771   2
  -2  -4  16 293.269 21.3163   1
   1   4 -16 42.3977 9.24028   2
   0   4 -16 131.887 14.7815   2
   2   3 -16 1.12595 3.64266   3
   2   3 -16 10.5926 9.24729   2
  -2  -3  16 1.05879 8.56498   1
   1   3 -16 450.670 27.8985   2
  -1  -3  16 450.468 26.7195   1
   0   3 -16 129.987 14.4446   2
   0  -3  16 133.041 13.7229   1
   2   2 -16 92.0925 14.6234   2
   2   2 -16 87.5792 9.07108   3
  -2  -2  16 103.608 12.3600   1
  -1  -2  16 110.733 12.1390   1
   0   0   0    0.00    0.00   0

 _exptl_absorpt_process_details
)
 SADABS 2016/2: Krause, L., Herbst-Irmer, R., Sheldrick G.M. & Stalke D.,
 J. Appl. Cryst. 48 (2015) 3-10
)
 _exptl_absorpt_correction_type   multi-scan
 _exptl_absorpt_correction_T_max  0.7455
 _exptl_absorpt_correction_T_min  0.5997
 _exptl_special_details
)
 The following wavelength and cell were deduced by SADABS from the
 direction cosines etc. They are given here for emergency use only:
 CELL 0.71070    7.246   11.400   12.717  105.855   97.760   94.412
)

;
_shelx_hkl_checksum              1014
loop_
_space_group_symop_operation_xyz
'x, y, z'
'-x, -y, -z'
loop_
_atom_site_label
_atom_site_type_symbol
_atom_site_fract_x
_atom_site_fract_y
_atom_site_fract_z
_atom_site_U_iso_or_equiv
_atom_site_adp_type
_atom_site_occupancy
_atom_site_site_symmetry_order
_atom_site_calc_flag
_atom_site_refinement_flags_posn
_atom_site_refinement_flags_adp
_atom_site_refinement_flags_occupancy
_atom_site_disorder_assembly
_atom_site_disorder_group
Zn1 Zn 0.22767(8) 0.33148(5) 0.19976(5) 0.0233(2) Uani 1 1 d . U . . .
O1 O -0.2739(6) 0.7277(4) 0.4897(4) 0.0398(10) Uani 1 1 d . U . . .
O2 O -0.0145(6) 0.8110(4) 0.4487(4) 0.0377(10) Uani 1 1 d . U . . .
O3 O -0.2459(6) 0.2075(4) 0.2988(4) 0.0329(9) Uani 1 1 d . U . . .
O4 O 0.0224(5) 0.2137(3) 0.2320(3) 0.0288(8) Uani 1 1 d . U . . .
O5 O 0.3962(5) 0.2187(3) 0.1027(3) 0.0276(8) Uani 1 1 d . U . . .
O6 O 0.6707(6) 0.2229(4) 0.0439(3) 0.0315(9) Uani 1 1 d . U . . .
O7 O 0.8658(6) 0.7450(4) 0.1362(4) 0.0406(11) Uani 1 1 d . U . . .
O8 O 0.6266(6) 0.8231(4) 0.2121(4) 0.0381(9) Uani 1 1 d . U . . .
O9 O 0.4199(6) 0.3210(4) 0.3370(3) 0.0331(9) Uani 1 1 d . U . . .
H9A H 0.359777 0.296251 0.382377 0.050 Uiso 1 1 d R U . . .
H9B H 0.490316 0.264787 0.316851 0.050 Uiso 1 1 d R U . . .
O11 O 0.0323(5) 0.3336(4) 0.0630(3) 0.0323(9) Uani 1 1 d . U . . .
H11A H 0.078237 0.308506 0.003116 0.048 Uiso 1 1 d R U . . .
H11B H -0.064606 0.280863 0.054555 0.048 Uiso 1 1 d R U . . .
N1 N 0.0926(6) 0.5750(4) 0.3653(4) 0.0218(8) Uani 1 1 d . U . . .
N2 N 0.0924(6) 0.4542(4) 0.3187(4) 0.0228(8) Uani 1 1 d . U . . .
N3 N 0.4099(6) 0.4605(4) 0.1549(4) 0.0218(8) Uani 1 1 d . U . . .
N4 N 0.4459(6) 0.5822(4) 0.1736(4) 0.0217(8) Uani 1 1 d . U . . .
C1 C -0.1232(8) 0.7232(5) 0.4527(5) 0.0268(11) Uani 1 1 d . U . . .
C2 C -0.0727(7) 0.5967(5) 0.4023(4) 0.0226(10) Uani 1 1 d . U . . .
C3 C -0.1812(7) 0.4864(5) 0.3790(4) 0.0219(10) Uani 1 1 d . U . . .
H3 H -0.300819 0.472028 0.394629 0.026 Uiso 1 1 calc R U . . .
C4 C -0.0728(7) 0.4002(5) 0.3267(4) 0.0225(10) Uani 1 1 d . U . . .
C5 C -0.1035(7) 0.2638(5) 0.2827(4) 0.0238(10) Uani 1 1 d . U . . .
C6 C 0.5428(7) 0.2738(5) 0.0859(4) 0.0229(10) Uani 1 1 d . U . . .
C7 C 0.5562(7) 0.4100(5) 0.1177(4) 0.0198(9) Uani 1 1 d . U . . .
C8 C 0.6920(7) 0.5004(5) 0.1125(4) 0.0235(10) Uani 1 1 d . U . . .
H8A H 0.807117 0.489850 0.089497 0.028 Uiso 1 1 calc R U . . .
C9 C 0.6186(7) 0.6102(5) 0.1490(4) 0.0233(10) Uani 1 1 d . U . . .
C10 C 0.7103(8) 0.7363(5) 0.1663(4) 0.0247(11) Uani 1 1 d . U . . .
C11 C 0.2927(7) 0.6580(5) 0.1924(5) 0.0251(10) Uani 1 1 d . U . . .
H11C H 0.174847 0.605394 0.166906 0.030 Uiso 1 1 calc R U . . .
H11D H 0.296663 0.714506 0.147832 0.030 Uiso 1 1 calc R U . . .
C12 C 0.2956(8) 0.7308(5) 0.3113(5) 0.0270(11) Uani 1 1 d . U . . .
H12A H 0.413167 0.783654 0.336848 0.032 Uiso 1 1 calc R U . . .
H12B H 0.196061 0.782447 0.313449 0.032 Uiso 1 1 calc R U . . .
C13 C 0.2730(7) 0.6540(5) 0.3899(5) 0.0256(10) Uani 1 1 d . U . . .
H13A H 0.373451 0.603041 0.388479 0.031 Uiso 1 1 calc R U . . .
H13B H 0.285830 0.707823 0.463732 0.031 Uiso 1 1 calc R U . . .
Zn2 Zn 0.000000 1.000000 0.500000 0.0371(5) Uani 0.5 2 d S U P A 2
O14 O 0.2821(13) 1.0222(8) 0.4597(9) 0.043(2) Uani 0.5 1 d . U P A 2
H14A H 0.274071 1.010937 0.382043 0.064 Uiso 0.5 1 d R U P A 2
H14B H 0.353269 0.962738 0.480832 0.064 Uiso 0.5 1 d R U P A 2
H14C H 0.342325 1.102594 0.498460 0.064 Uiso 0.5 1 d R U P A 2
O13 O 0.0998(14) 0.9965(7) 0.6538(7) 0.037(2) Uani 0.5 1 d . U P A 2
H13C H 0.157424 0.934948 0.651128 0.055 Uiso 0.5 1 d R U P A 2
H13D H 0.185111 1.058849 0.684856 0.055 Uiso 0.5 1 d R U P A 2
Zn3 Zn 0.69861(19) 1.00922(10) 0.24921(11) 0.0274(3) Uani 0.5 1 d D U P B 1
O10 O 1.000(2) 0.9735(14) 0.2486(15) 0.096(4) Uani 0.5 1 d D U P B 1
H10A H 1.050569 0.963241 0.184347 0.145 Uiso 0.5 1 calc DR U P B 1
H10B H 1.072639 0.969114 0.312690 0.145 Uiso 0.5 1 calc DR U P B 1
O15 O 0.775(2) 1.0131(12) 0.4137(13) 0.085(4) Uani 0.5 1 d . U P B 1
H15A H 0.897359 1.004310 0.439940 0.128 Uiso 0.5 1 calc DR U P B 1
H15B H 0.686864 1.023563 0.460699 0.128 Uiso 0.5 1 calc DR U P B 1
O12 O 0.4288(15) 1.0369(9) 0.2746(9) 0.050(2) Uani 0.5 1 d . U P B 1
H12C H 0.339984 1.041715 0.216918 0.075 Uiso 0.5 1 calc R U P B 1
H12D H 0.396294 1.044421 0.343774 0.075 Uiso 0.5 1 calc R U P B 1
O16 O 0.6840(17) 1.0004(8) 0.0895(9) 0.055(3) Uani 0.5 1 d . U P B 1
H16A H 0.801556 0.980666 0.055956 0.082 Uiso 0.5 1 d R U P B 1
H16B H 0.673193 1.079353 0.064897 0.082 Uiso 0.5 1 d R U P B 1
O17 O 0.563(2) 0.9372(12) 0.5802(13) 0.092(4) Uani 0.5 1 d . U P C 3
H17A H 0.655167 0.921920 0.621030 0.138 Uiso 0.5 1 d R U P C 3
H17B H 0.468476 0.920940 0.608322 0.138 Uiso 0.5 1 d R U P C 3
O20 O 0.407(2) 1.0073(12) 0.1859(13) 0.083(3) Uani 0.5 1 d . U P D 3
H20A H 0.510601 1.018358 0.163744 0.124 Uiso 0.5 1 d R U P D 3
H20B H 0.336200 1.049870 0.157267 0.124 Uiso 0.5 1 d R U P D 3
O19 O 0.911(2) 1.0327(12) -0.1351(13) 0.085(4) Uani 0.5 1 d . U P E 3
H19A H 0.984972 1.048874 -0.074369 0.127 Uiso 0.5 1 d R U P E 3
H19B H 0.812962 1.063934 -0.118299 0.127 Uiso 0.5 1 d R U P E 3
O18 O 0.6298(13) 0.9987(8) -0.0329(9) 0.041(2) Uani 0.5 1 d D U P F 3
H18A H 0.511(8) 1.005(16) -0.060(12) 0.062 Uiso 0.5 1 d D U P G 3
H18B H 0.62(2) 0.992(17) 0.035(6) 0.062 Uiso 0.5 1 d D U P H 3
loop_
_atom_site_aniso_label
_atom_site_aniso_U_11
_atom_site_aniso_U_22
_atom_site_aniso_U_33
_atom_site_aniso_U_23
_atom_site_aniso_U_13
_atom_site_aniso_U_12
Zn1 0.0191(4) 0.0212(4) 0.0308(4) 0.0075(3) 0.0082(2) 0.0017(2)
O1 0.038(2) 0.040(2) 0.047(3) 0.011(2) 0.022(2) 0.0139(19)
O2 0.041(2) 0.0225(19) 0.048(2) 0.0046(17) 0.0132(18) 0.0015(16)
O3 0.031(2) 0.0256(19) 0.044(2) 0.0103(17) 0.0140(17) -0.0030(16)
O4 0.0281(18) 0.0203(17) 0.038(2) 0.0059(15) 0.0105(16) 0.0022(15)
O5 0.0227(18) 0.0217(17) 0.040(2) 0.0090(15) 0.0094(15) 0.0023(14)
O6 0.027(2) 0.027(2) 0.043(2) 0.0086(17) 0.0152(17) 0.0090(16)
O7 0.036(2) 0.037(2) 0.047(3) 0.0033(19) 0.021(2) -0.0070(19)
O8 0.036(2) 0.0277(19) 0.050(2) 0.0068(17) 0.0173(18) -0.0022(16)
O9 0.027(2) 0.040(2) 0.038(2) 0.0176(19) 0.0101(17) 0.0103(17)
O11 0.0203(19) 0.044(2) 0.032(2) 0.0079(18) 0.0064(16) 0.0012(17)
N1 0.0202(19) 0.0209(18) 0.0241(19) 0.0046(15) 0.0072(15) 0.0012(15)
N2 0.0208(18) 0.0205(19) 0.0282(19) 0.0081(16) 0.0058(16) 0.0008(15)
N3 0.0206(18) 0.0195(18) 0.0270(19) 0.0085(15) 0.0073(15) -0.0003(15)
N4 0.0199(18) 0.0184(18) 0.0272(19) 0.0058(15) 0.0062(15) 0.0021(15)
C1 0.030(3) 0.024(2) 0.026(2) 0.006(2) 0.005(2) 0.005(2)
C2 0.023(2) 0.024(2) 0.023(2) 0.0087(18) 0.0043(18) 0.0036(18)
C3 0.020(2) 0.024(2) 0.024(2) 0.0089(18) 0.0065(17) 0.0019(18)
C4 0.021(2) 0.023(2) 0.025(2) 0.0093(18) 0.0055(17) 0.0013(18)
C5 0.024(2) 0.021(2) 0.028(2) 0.0091(19) 0.0056(19) 0.0006(19)
C6 0.021(2) 0.023(2) 0.026(2) 0.0085(19) 0.0048(19) 0.0044(18)
C7 0.019(2) 0.021(2) 0.021(2) 0.0079(17) 0.0064(17) 0.0032(17)
C8 0.020(2) 0.027(2) 0.024(2) 0.0074(18) 0.0059(18) 0.0018(18)
C9 0.023(2) 0.024(2) 0.024(2) 0.0082(18) 0.0043(18) -0.0012(18)
C10 0.026(2) 0.024(2) 0.024(2) 0.0057(19) 0.0064(19) -0.002(2)
C11 0.021(2) 0.024(2) 0.033(2) 0.0103(19) 0.0070(19) 0.0057(18)
C12 0.024(2) 0.019(2) 0.038(3) 0.004(2) 0.013(2) 0.0000(19)
C13 0.021(2) 0.022(2) 0.032(2) 0.0050(19) 0.0041(19) -0.0007(19)
Zn2 0.0472(12) 0.0235(10) 0.0410(11) 0.0069(8) 0.0144(9) 0.0014(8)
O14 0.045(5) 0.024(4) 0.063(5) 0.009(4) 0.025(4) 0.009(4)
O13 0.064(6) 0.010(3) 0.030(4) 0.004(3) -0.006(4) -0.004(3)
Zn3 0.0383(7) 0.0103(6) 0.0345(7) 0.0055(5) 0.0130(6) -0.0012(5)
O10 0.091(8) 0.074(7) 0.109(8) 0.013(7) 0.002(7) -0.009(6)
O15 0.093(7) 0.063(6) 0.087(7) 0.017(6) -0.011(7) -0.012(6)
O12 0.054(5) 0.044(5) 0.050(5) 0.010(4) 0.009(4) 0.005(4)
O16 0.091(6) 0.013(4) 0.048(5) 0.006(4) -0.022(5) -0.001(4)
O17 0.118(11) 0.055(7) 0.103(10) 0.022(7) 0.001(9) 0.035(7)
O20 0.089(6) 0.057(5) 0.088(6) 0.006(5) -0.003(5) 0.004(5)
O19 0.068(7) 0.061(6) 0.104(8) -0.010(6) 0.013(6) 0.006(6)
O18 0.036(4) 0.023(4) 0.065(6) 0.012(4) 0.009(4) 0.002(3)
loop_
_atom_type_symbol
_atom_type_description
_atom_type_scat_dispersion_real
_atom_type_scat_dispersion_imag
_atom_type_scat_source
C C 0.0033 0.0016 'International Tables Vol C Tables 4.2.6.8 and 6.1.1.4'
H H 0.0000 0.0000 'International Tables Vol C Tables 4.2.6.8 and 6.1.1.4'
N N 0.0061 0.0033 'International Tables Vol C Tables 4.2.6.8 and 6.1.1.4'
O O 0.0106 0.0060 'International Tables Vol C Tables 4.2.6.8 and 6.1.1.4'
Zn Zn 0.2839 1.4301 'International Tables Vol C Tables 4.2.6.8 and 6.1.1.4'
loop_
_geom_angle_atom_site_label_1
_geom_angle_atom_site_label_2
_geom_angle_atom_site_label_3
_geom_angle
_geom_angle_site_symmetry_1
_geom_angle_site_symmetry_3
_geom_angle_publ_flag
O4 Zn1 O11 85.86(16) . . ?
O4 Zn1 O5 106.23(15) . . ?
O11 Zn1 O5 93.70(16) . . ?
O4 Zn1 O9 91.92(16) . . ?
O11 Zn1 O9 177.38(16) . . ?
O5 Zn1 O9 85.57(16) . . ?
O4 Zn1 N3 172.60(16) . . ?
O11 Zn1 N3 87.31(17) . . ?
O5 Zn1 N3 77.04(16) . . ?
O9 Zn1 N3 94.97(17) . . ?
O4 Zn1 N2 77.16(16) . . ?
O11 Zn1 N2 94.59(16) . . ?
O5 Zn1 N2 171.27(16) . . ?
O9 Zn1 N2 86.28(16) . . ?
N3 Zn1 N2 100.59(17) . . ?
C1 O2 Zn2 136.2(4) . . ?
C5 O3 Zn3 123.1(4) . 1_445 ?
C5 O4 Zn1 116.2(3) . . ?
C6 O5 Zn1 115.3(3) . . ?
C10 O8 Zn3 130.4(4) . . ?
Zn1 O9 H9A 109.5 . . ?
Zn1 O9 H9B 110.3 . . ?
H9A O9 H9B 103.9 . . ?
Zn1 O11 H11A 110.2 . . ?
Zn1 O11 H11B 110.7 . . ?
H11A O11 H11B 103.7 . . ?
N2 N1 C2 110.3(4) . . ?
N2 N1 C13 117.8(4) . . ?
C2 N1 C13 130.3(4) . . ?
C4 N2 N1 106.3(4) . . ?
C4 N2 Zn1 110.6(3) . . ?
N1 N2 Zn1 140.0(3) . . ?
C7 N3 N4 107.9(4) . . ?
C7 N3 Zn1 111.0(3) . . ?
N4 N3 Zn1 139.1(3) . . ?
N3 N4 C9 109.6(4) . . ?
N3 N4 C11 119.1(4) . . ?
C9 N4 C11 129.8(4) . . ?
O2 C1 O1 127.0(5) . . ?
O2 C1 C2 116.7(5) . . ?
O1 C1 C2 116.2(5) . . ?
N1 C2 C3 107.6(5) . . ?
N1 C2 C1 123.9(5) . . ?
C3 C2 C1 128.4(5) . . ?
C2 C3 C4 105.1(5) . . ?
C2 C3 H3 127.4 . . ?
C4 C3 H3 127.4 . . ?
N2 C4 C3 110.7(5) . . ?
N2 C4 C5 115.9(5) . . ?
C3 C4 C5 133.3(5) . . ?
O3 C5 O4 124.7(5) . . ?
O3 C5 C4 118.7(5) . . ?
O4 C5 C4 116.6(4) . . ?
O6 C6 O5 124.9(5) . . ?
O6 C6 C7 119.2(5) . . ?
O5 C6 C7 115.9(4) . . ?
N3 C7 C8 109.9(5) . . ?
N3 C7 C6 117.3(4) . . ?
C8 C7 C6 132.7(5) . . ?
C7 C8 C9 105.4(5) . . ?
C7 C8 H8A 127.3 . . ?
C9 C8 H8A 127.3 . . ?
N4 C9 C8 107.2(4) . . ?
N4 C9 C10 124.7(5) . . ?
C8 C9 C10 128.0(5) . . ?
O7 C10 O8 126.5(5) . . ?
O7 C10 C9 116.1(5) . . ?
O8 C10 C9 117.3(5) . . ?
N4 C11 C12 115.4(4) . . ?
N4 C11 H11C 108.4 . . ?
C12 C11 H11C 108.4 . . ?
N4 C11 H11D 108.4 . . ?
C12 C11 H11D 108.4 . . ?
H11C C11 H11D 107.5 . . ?
C13 C12 C11 114.7(4) . . ?
C13 C12 H12A 108.6 . . ?
C11 C12 H12A 108.6 . . ?
C13 C12 H12B 108.6 . . ?
C11 C12 H12B 108.6 . . ?
H12A C12 H12B 107.6 . . ?
N1 C13 C12 114.4(5) . . ?
N1 C13 H13A 108.6 . . ?
C12 C13 H13A 108.6 . . ?
N1 C13 H13B 108.6 . . ?
C12 C13 H13B 108.6 . . ?
H13A C13 H13B 107.6 . . ?
O13 Zn2 O2 89.2(3) . . ?
O13 Zn2 O2 90.8(3) 2_576 . ?
O2 Zn2 O2 180.0 . 2_576 ?
O13 Zn2 O14 92.2(4) . . ?
O13 Zn2 O14 87.8(4) 2_576 . ?
O2 Zn2 O14 91.8(3) . . ?
O2 Zn2 O14 88.2(3) 2_576 . ?
O2 Zn2 O14 88.2(3) . 2_576 ?
O2 Zn2 O14 91.8(3) 2_576 2_576 ?
Zn2 O14 H14A 109.5 . . ?
Zn2 O14 H14B 109.5 . . ?
H14A O14 H14B 109.5 . . ?
Zn2 O14 H14C 109.5 . . ?
H14A O14 H14C 109.5 . . ?
H14B O14 H14C 109.5 . . ?
Zn2 O13 H13C 109.5 . . ?
Zn2 O13 H13D 109.7 . . ?
H13C O13 H13D 104.5 . . ?
O16 Zn3 O8 91.3(3) . . ?
O16 Zn3 O12 101.9(5) . . ?
O8 Zn3 O12 90.1(3) . . ?
O16 Zn3 O15 167.4(6) . . ?
O8 Zn3 O15 88.9(4) . . ?
O12 Zn3 O15 90.7(5) . . ?
O16 Zn3 O3 92.4(3) . 1_665 ?
O8 Zn3 O3 174.44(17) . 1_665 ?
O12 Zn3 O3 85.1(3) . 1_665 ?
O15 Zn3 O3 88.4(4) . 1_665 ?
O16 Zn3 O10 87.2(6) . . ?
O8 Zn3 O10 87.9(4) . . ?
O12 Zn3 O10 170.7(6) . . ?
O15 Zn3 O10 80.2(7) . . ?
O3 Zn3 O10 96.4(4) 1_665 . ?
Zn3 O10 H10A 120.0 . . ?
Zn3 O10 H10B 120.0 . . ?
H10A O10 H10B 120.0 . . ?
Zn3 O15 H15A 120.0 . . ?
Zn3 O15 H15B 120.0 . . ?
H15A O15 H15B 120.0 . . ?
Zn3 O12 H12C 120.0 . . ?
Zn3 O12 H12D 120.0 . . ?
H12C O12 H12D 120.0 . . ?
Zn3 O16 H16A 116.3 . . ?
Zn3 O16 H16B 119.3 . . ?
H16A O16 H16B 94.6 . . ?
H17A O17 H17B 104.5 . . ?
H20A O20 H20B 104.5 . . ?
H19A O19 H19B 104.5 . . ?
H18A O18 H18B 102.4(16) . . ?
loop_
_geom_bond_atom_site_label_1
_geom_bond_atom_site_label_2
_geom_bond_distance
_geom_bond_site_symmetry_2
_geom_bond_publ_flag
Zn1 O4 2.087(4) . ?
Zn1 O11 2.107(4) . ?
Zn1 O5 2.128(4) . ?
Zn1 O9 2.129(4) . ?
Zn1 N3 2.146(4) . ?
Zn1 N2 2.180(4) . ?
O1 C1 1.250(7) . ?
O2 C1 1.244(7) . ?
O2 Zn2 2.079(4) . ?
O3 C5 1.245(7) . ?
O3 Zn3 2.179(4) 1_445 ?
O4 C5 1.279(7) . ?
O5 C6 1.267(7) . ?
O6 C6 1.245(7) . ?
O7 C10 1.248(7) . ?
O8 C10 1.260(7) . ?
O8 Zn3 2.064(4) . ?
O9 H9A 0.8619 . ?
O9 H9B 0.8622 . ?
O11 H11A 0.8656 . ?
O11 H11B 0.8658 . ?
N1 N2 1.353(6) . ?
N1 C2 1.367(7) . ?
N1 C13 1.479(7) . ?
N2 C4 1.336(7) . ?
N3 C7 1.335(7) . ?
N3 N4 1.348(6) . ?
N4 C9 1.369(7) . ?
N4 C11 1.473(7) . ?
C1 C2 1.519(7) . ?
C2 C3 1.372(8) . ?
C3 C4 1.400(7) . ?
C3 H3 0.9300 . ?
C4 C5 1.500(7) . ?
C6 C7 1.496(7) . ?
C7 C8 1.394(7) . ?
C8 C9 1.396(8) . ?
C8 H8A 0.9300 . ?
C9 C10 1.489(7) . ?
C11 C12 1.526(8) . ?
C11 H11C 0.9700 . ?
C11 H11D 0.9700 . ?
C12 C13 1.517(8) . ?
C12 H12A 0.9700 . ?
C12 H12B 0.9700 . ?
C13 H13A 0.9700 . ?
C13 H13B 0.9700 . ?
Zn2 O13 2.015(8) . ?
Zn2 O13 2.015(8) 2_576 ?
Zn2 O14 2.193(9) . ?
Zn2 O14 2.193(9) 2_576 ?
O14 H14A 0.9600 . ?
O14 H14B 0.9600 . ?
O14 H14C 0.9600 . ?
O13 H13C 0.8438 . ?
O13 H13D 0.8747 . ?
Zn3 O16 2.007(11) . ?
Zn3 O12 2.067(11) . ?
Zn3 O15 2.091(15) . ?
Zn3 O10 2.260(17) . ?
O10 H10A 0.9300 . ?
O10 H10B 0.9300 . ?
O15 H15A 0.9300 . ?
O15 H15B 0.9300 . ?
O12 H12C 0.9300 . ?
O12 H12D 0.9300 . ?
O16 H16A 1.0214 . ?
O16 H16B 1.0384 . ?
O17 H17A 0.8498 . ?
O17 H17B 0.8500 . ?
O20 H20A 0.8500 . ?
O20 H20B 0.8500 . ?
O19 H19A 0.8501 . ?
O19 H19B 0.8500 . ?
O18 H18A 0.901(11) . ?
O18 H18B 0.901(11) . ?
loop_
_geom_torsion_atom_site_label_1
_geom_torsion_atom_site_label_2
_geom_torsion_atom_site_label_3
_geom_torsion_atom_site_label_4
_geom_torsion
_geom_torsion_site_symmetry_1
_geom_torsion_site_symmetry_2
_geom_torsion_site_symmetry_3
_geom_torsion_site_symmetry_4
_geom_torsion_publ_flag
C2 N1 N2 C4 -0.1(6) . . . . ?
C13 N1 N2 C4 166.8(4) . . . . ?
C2 N1 N2 Zn1 156.5(4) . . . . ?
C13 N1 N2 Zn1 -36.5(7) . . . . ?
C7 N3 N4 C9 -0.6(6) . . . . ?
Zn1 N3 N4 C9 161.0(4) . . . . ?
C7 N3 N4 C11 167.1(4) . . . . ?
Zn1 N3 N4 C11 -31.4(7) . . . . ?
Zn2 O2 C1 O1 3.4(10) . . . . ?
Zn2 O2 C1 C2 -179.8(4) . . . . ?
N2 N1 C2 C3 0.2(6) . . . . ?
C13 N1 C2 C3 -164.6(5) . . . . ?
N2 N1 C2 C1 -176.2(5) . . . . ?
C13 N1 C2 C1 19.0(8) . . . . ?
O2 C1 C2 N1 7.7(8) . . . . ?
O1 C1 C2 N1 -175.1(5) . . . . ?
O2 C1 C2 C3 -167.9(5) . . . . ?
O1 C1 C2 C3 9.2(8) . . . . ?
N1 C2 C3 C4 -0.3(6) . . . . ?
C1 C2 C3 C4 175.9(5) . . . . ?
N1 N2 C4 C3 0.0(6) . . . . ?
Zn1 N2 C4 C3 -164.2(3) . . . . ?
N1 N2 C4 C5 -178.4(4) . . . . ?
Zn1 N2 C4 C5 17.4(5) . . . . ?
C2 C3 C4 N2 0.2(6) . . . . ?
C2 C3 C4 C5 178.1(6) . . . . ?
Zn3 O3 C5 O4 2.9(8) 1_445 . . . ?
Zn3 O3 C5 C4 -176.1(3) 1_445 . . . ?
Zn1 O4 C5 O3 172.4(4) . . . . ?
Zn1 O4 C5 C4 -8.5(6) . . . . ?
N2 C4 C5 O3 172.2(5) . . . . ?
C3 C4 C5 O3 -5.7(9) . . . . ?
N2 C4 C5 O4 -6.9(7) . . . . ?
C3 C4 C5 O4 175.2(5) . . . . ?
Zn1 O5 C6 O6 170.2(4) . . . . ?
Zn1 O5 C6 C7 -11.3(6) . . . . ?
N4 N3 C7 C8 0.4(6) . . . . ?
Zn1 N3 C7 C8 -166.8(3) . . . . ?
N4 N3 C7 C6 -177.0(4) . . . . ?
Zn1 N3 C7 C6 15.8(5) . . . . ?
O6 C6 C7 N3 175.1(5) . . . . ?
O5 C6 C7 N3 -3.5(7) . . . . ?
O6 C6 C7 C8 -1.5(9) . . . . ?
O5 C6 C7 C8 179.8(5) . . . . ?
N3 C7 C8 C9 0.0(6) . . . . ?
C6 C7 C8 C9 176.8(5) . . . . ?
N3 N4 C9 C8 0.5(6) . . . . ?
C11 N4 C9 C8 -165.4(5) . . . . ?
N3 N4 C9 C10 -175.9(5) . . . . ?
C11 N4 C9 C10 18.2(8) . . . . ?
C7 C8 C9 N4 -0.3(6) . . . . ?
C7 C8 C9 C10 176.0(5) . . . . ?
Zn3 O8 C10 O7 3.3(9) . . . . ?
Zn3 O8 C10 C9 -178.8(4) . . . . ?
N4 C9 C10 O7 -177.9(5) . . . . ?
C8 C9 C10 O7 6.3(8) . . . . ?
N4 C9 C10 O8 3.9(8) . . . . ?
C8 C9 C10 O8 -171.8(5) . . . . ?
N3 N4 C11 C12 104.8(5) . . . . ?
C9 N4 C11 C12 -90.4(7) . . . . ?
N4 C11 C12 C13 -63.3(6) . . . . ?
N2 N1 C13 C12 104.7(5) . . . . ?
C2 N1 C13 C12 -91.4(7) . . . . ?
C11 C12 C13 N1 -62.5(6) . . . . ?
