#------------------------------------------------------------------------------
#$Date: 2022-03-03 22:21:11 +0200 (Thu, 03 Mar 2022) $
#$Revision: 273243 $
#$URL: file:///home/coder/svn-repositories/cod/cif/4/51/93/4519333.cif $
#------------------------------------------------------------------------------
#
# This file is available in the Crystallography Open Database (COD),
# http://www.crystallography.net/
#
# All data on this site have been placed in the public domain by the
# contributors.
#
data_4519333
loop_
_publ_author_name
'Li, Xuetong'
'Villar-Yanez, Alba'
'Ngassam Tounzoua, Charlene'
'Benet-Buchholz, Jordi'
'Grignard, Bruno'
'Bo, Carles'
'Detrembleur, Christophe'
'Kleij, Arjan W.'
_publ_section_title
;
 Cascade Transformation of Carbon Dioxide and Alkyne-1,n-diols into
 Densely Substituted Cyclic Carbonates
;
_journal_name_full               'ACS Catalysis'
_journal_page_first              2854
_journal_page_last               2860
_journal_paper_doi               10.1021/acscatal.1c05773
_journal_year                    2022
_chemical_formula_sum            'C7 H10 O4'
_chemical_formula_weight         158.15
_space_group_crystal_system      monoclinic
_space_group_IT_number           14
_space_group_name_Hall           '-P 2yn'
_space_group_name_H-M_alt        'P 1 21/n 1'
_atom_sites_solution_hydrogens   geom
_audit_creation_method           SHELXL-2018/3
_cell_angle_alpha                90
_cell_angle_beta                 93.902(4)
_cell_angle_gamma                90
_cell_formula_units_Z            4
_cell_length_a                   6.8234(12)
_cell_length_b                   9.9156(18)
_cell_length_c                   10.9182(18)
_cell_measurement_reflns_used    2487
_cell_measurement_temperature    100(2)
_cell_measurement_theta_max      31.92
_cell_measurement_theta_min      2.78
_cell_volume                     737.0(2)
_computing_cell_refinement       'Bruker APEX2 v2014.9-0'
_computing_data_collection       'Bruker APEX2 v2014.9-0'
_computing_data_reduction        'Bruker APEX2 v2014.9-0'
_computing_molecular_graphics
'shelXle (H&#x00FC;bschle, Sheldrick and Dittirch, 2011)'
_computing_publication_material  'SHELXL-2018/3 (Sheldrick, 2018)'
_computing_structure_refinement  'SHELXL-2018/3 (Sheldrick, 2018)'
_computing_structure_solution    'SHELXT (Sheldrick, 2018)'
_diffrn_ambient_temperature      100(2)
_diffrn_detector_area_resol_mean 512
_diffrn_detector_type            '4K CCD area detector APEX II'
_diffrn_measured_fraction_theta_full 0.999
_diffrn_measured_fraction_theta_max 0.981
_diffrn_measurement_device_type  'APEX DUO Kappa 4-axis goniometer'
_diffrn_measurement_method
;
 Fullsphere data collection, phi and omega scans
;
_diffrn_radiation_monochromator  'Quazar MX Multilayer Optics'
_diffrn_radiation_type           MoK\a
_diffrn_radiation_wavelength     0.71073
_diffrn_reflns_av_R_equivalents  0.0469
_diffrn_reflns_av_unetI/netI     0.0417
_diffrn_reflns_Laue_measured_fraction_full 0.999
_diffrn_reflns_Laue_measured_fraction_max 0.981
_diffrn_reflns_limit_h_max       9
_diffrn_reflns_limit_h_min       -10
_diffrn_reflns_limit_k_max       14
_diffrn_reflns_limit_k_min       -14
_diffrn_reflns_limit_l_max       16
_diffrn_reflns_limit_l_min       -16
_diffrn_reflns_number            8943
_diffrn_reflns_point_group_measured_fraction_full 0.999
_diffrn_reflns_point_group_measured_fraction_max 0.981
_diffrn_reflns_theta_full        25.242
_diffrn_reflns_theta_max         32.129
_diffrn_reflns_theta_min         2.778
_diffrn_source                   'Microfocus source E025 IuS'
_diffrn_source_current           0.6
_diffrn_source_power             50
_diffrn_source_size              '0.2 mm x 0.2 mm fine focus'
_diffrn_source_type              'Bruker APEX DUO'
_exptl_absorpt_coefficient_mu    0.118
_exptl_absorpt_correction_T_max  0.7463
_exptl_absorpt_correction_T_min  0.5492
_exptl_absorpt_correction_type   multi-scan
_exptl_absorpt_process_details   SADABS-2016/2
_exptl_crystal_colour            colourless
_exptl_crystal_density_diffrn    1.425
_exptl_crystal_description       plate
_exptl_crystal_F_000             336
_exptl_crystal_size_max          0.300
_exptl_crystal_size_mid          0.300
_exptl_crystal_size_min          0.040
_refine_diff_density_max         0.430
_refine_diff_density_min         -0.304
_refine_diff_density_rms         0.067
_refine_ls_extinction_method     none
_refine_ls_goodness_of_fit_ref   1.053
_refine_ls_hydrogen_treatment    constr
_refine_ls_matrix_type           full
_refine_ls_number_parameters     102
_refine_ls_number_reflns         2530
_refine_ls_number_restraints     0
_refine_ls_restrained_S_all      1.053
_refine_ls_R_factor_all          0.0579
_refine_ls_R_factor_gt           0.0468
_refine_ls_shift/su_max          0.000
_refine_ls_shift/su_mean         0.000
_refine_ls_structure_factor_coef Fsqd
_refine_ls_weighting_details
'w=1/[\s^2^(Fo^2^)+(0.0694P)^2^+0.1249P] where P=(Fo^2^+2Fc^2^)/3'
_refine_ls_weighting_scheme      calc
_refine_ls_wR_factor_gt          0.1242
_refine_ls_wR_factor_ref         0.1332
_reflns_Friedel_coverage         0.000
_reflns_number_gt                2019
_reflns_number_total             2530
_reflns_threshold_expression     'I > 2\s(I)'
_cod_data_source_file            cs1c05773_si_002.cif
_cod_data_source_block           mo_Xli2d_0m
_cod_original_sg_symbol_H-M      'P 21/n'
_cod_database_code               4519333
_shelx_shelxl_version_number     2018/3
_shelx_space_group_comment
;
The symmetry employed for this shelxl refinement is uniquely defined
by the following loop, which should always be used as a source of
symmetry information in preference to the above space-group names.
They are only intended as comments.
;
_shelx_estimated_absorpt_t_min   0.966
_shelx_estimated_absorpt_t_max   0.995
_shelx_res_file
;
TITL mo_Xli2d_0m_a.res in P2(1)/n
    mo_Xli2d_0m.res
    created by SHELXL-2018/3 at 13:14:50 on 27-Sep-2021
REM Old TITL mo_Xli2d_0m in P2(1)/n
REM SHELXT solution in P2(1)/n
REM R1 0.123,  Rweak 0.005,  Alpha 0.024,  Orientation as input
REM Formula found by SHELXT:  C7 O4
CELL  0.71073   6.8234   9.9156  10.9182   90.000   93.902   90.000
ZERR    4.000   0.0012   0.0018   0.0018    0.000    0.004    0.000
LATT  1
SYMM 1/2-X, 1/2+Y, 1/2-Z
SFAC C H O
UNIT 28 40 16
TEMP -173.130
SIZE 0.04 0.30 0.30
L.S. 10
BOND $H
LIST 4
ACTA
CONF
OMIT -3 3 3
FMAP 2
PLAN 20
WGHT    0.069400    0.124900
FVAR       0.32044
O1    3    0.637966    0.591550    0.389152    11.00000    0.02241    0.02462 =
         0.03016    0.00569   -0.00189    0.00155
C1    1    0.643562    0.731567    0.383571    11.00000    0.01921    0.02464 =
         0.01879    0.00101    0.00031   -0.00164
O2    3    0.336097    0.840796    0.362514    11.00000    0.02121    0.02723 =
         0.02625   -0.00232    0.00418    0.00261
C2    1    0.444433    0.548540    0.344347    11.00000    0.02538    0.02214 =
         0.02650    0.00066    0.00078   -0.00255
AFIX  23
H2A   2    0.349853    0.557305    0.408742    11.00000   -1.20000
H2AB  2    0.445773    0.453751    0.315936    11.00000   -1.20000
AFIX   0
C3    1    0.393393    0.643544    0.238782    11.00000    0.02597    0.02235 =
         0.02101   -0.00161   -0.00294   -0.00173
AFIX  23
H3A   2    0.249468    0.649894    0.221014    11.00000   -1.20000
H3AB  2    0.455194    0.614712    0.163620    11.00000   -1.20000
AFIX   0
O3    3    0.579603    0.785970    0.498048    11.00000    0.02660    0.03606 =
         0.01864   -0.00272    0.00039   -0.00428
O4    3    0.316679    0.893373    0.561089    11.00000    0.04438    0.03655 =
         0.03548   -0.01287    0.01904   -0.00826
C4    1    0.478852    0.777021    0.287193    11.00000    0.01740    0.02159 =
         0.02001   -0.00049    0.00146    0.00128
C5    1    0.403583    0.844687    0.480569    11.00000    0.02688    0.02474 =
         0.02557   -0.00435    0.00647   -0.00755
C7    1    0.534168    0.877091    0.191994    11.00000    0.02783    0.02444 =
         0.02438    0.00511    0.00301    0.00196
AFIX 137
H7A   2    0.638173    0.839009    0.144889    11.00000   -1.50000
H7B   2    0.581450    0.960240    0.232541    11.00000   -1.50000
H7C   2    0.418933    0.897244    0.136505    11.00000   -1.50000
AFIX   0
C6    1    0.851052    0.777288    0.369686    11.00000    0.01821    0.03772 =
         0.03061    0.00389   -0.00128   -0.00303
AFIX 137
H6A   2    0.857005    0.875962    0.373439    11.00000   -1.50000
H6B   2    0.893688    0.746564    0.290435    11.00000   -1.50000
H6C   2    0.937659    0.739127    0.436134    11.00000   -1.50000
AFIX   0
HKLF 4




REM  mo_Xli2d_0m_a.res in P2(1)/n
REM wR2 = 0.133158, GooF = S = 1.05264, Restrained GooF = 1.05264 for all data
REM R1 = 0.046761 for 2019 Fo > 4sig(Fo) and 0.057923 for all 2530 data
REM 102 parameters refined using 0 restraints

END

WGHT      0.0694      0.1250

REM Highest difference peak  0.430,  deepest hole -0.304,  1-sigma level  0.067
Q1    1   0.4211  0.7116  0.2520  11.00000  0.05    0.43
Q2    1   0.4182  0.6038  0.2938  11.00000  0.05    0.39
Q3    1   0.4918  0.8509  0.2605  11.00000  0.05    0.37
Q4    1   0.5643  0.7497  0.3355  11.00000  0.05    0.35
Q5    1   0.6356  0.6625  0.4080  11.00000  0.05    0.35
Q6    1   0.3810  0.9058  0.3981  11.00000  0.05    0.31
Q7    1   0.5197  0.8003  0.2291  11.00000  0.05    0.28
Q8    1   0.3125  0.9635  0.5342  11.00000  0.05    0.26
Q9    1   0.6117  0.7609  0.4420  11.00000  0.05    0.25
Q10   1   0.5607  0.7104  0.5121  11.00000  0.05    0.24
Q11   1   0.5856  0.7253  0.4839  11.00000  0.05    0.23
Q12   1   0.3189  0.8403  0.5196  11.00000  0.05    0.23
Q13   1   0.5501  0.9390  0.2112  11.00000  0.05    0.23
Q14   1   0.4050  0.7890  0.3123  11.00000  0.05    0.22
Q15   1   0.3882  0.9107  0.4995  11.00000  0.05    0.21
Q16   1   0.6169  0.5874  0.4719  11.00000  0.05    0.21
Q17   1   0.3507  0.7798  0.4072  11.00000  0.05    0.20
Q18   1   0.3372  0.7420  0.3572  11.00000  0.05    0.20
Q19   1   0.6340  0.5097  0.4328  11.00000  0.05    0.20
Q20   1   0.7340  0.7489  0.3630  11.00000  0.05    0.19
;
_shelx_res_checksum              88829
_shelx_hkl_file
;
  -1   0   0    0.01    0.03
   1   0   0    0.00    0.02
  -1   0   0    0.00    0.02
   2   0   0  113.73    6.13
  -2   0   0  124.35    6.18
   3   0   0    0.01    0.04
  -3   0   0    0.09    0.07
  -4   0   0  297.83   14.57
   4   0   0  264.81   14.47
  -5   0   0    0.23    0.11
   5   0   0    0.07    0.07
  -6   0   0   11.67    0.84
   6   0   0   12.51    0.75
   7   0   0    0.09    0.09
  -7   0   0    0.23    0.14
  -8   0   0    0.31    0.17
  -9   0   0    0.10    0.16
   0  -1   0    0.03    0.02
   0  -1   0    0.01    0.01
   0   1   0    0.01    0.01
   0   1   0    0.01    0.01
  -1  -1   0    0.13    0.04
   1  -1   0    0.10    0.03
   1   1   0    0.03    0.03
  -1   1   0    0.09    0.05
  -1   1   0    0.17    0.02
  -2  -1   0   98.25    5.50
   2  -1   0  102.57    5.46
   2   1   0  109.71    5.49
  -2   1   0  113.86    5.53
  -3  -1   0    0.43    0.10
   3  -1   0    0.37    0.07
  -3   1   0    0.32    0.11
   3   1   0    0.41    0.08
  -4  -1   0   32.64    1.73
   4  -1   0   30.56    1.64
   4  -1   0   26.89    1.59
   4   1   0   30.57    1.66
  -4   1   0   34.84    1.75
   5  -1   0   18.58    1.02
  -5  -1   0   20.76    1.14
   5  -1   0   15.53    0.96
  -5   1   0   20.03    1.15
   5   1   0   18.59    1.05
   6  -1   0    0.30    0.10
  -6  -1   0    0.52    0.17
   6   1   0    0.22    0.10
  -6   1   0    0.26    0.14
   7  -1   0    1.06    0.18
  -7  -1   0    1.46    0.27
  -7   1   0    1.18    0.26
   7   1   0    1.22    0.21
  -8  -1   0    0.79    0.23
   8   1   0    0.75    0.18
  -8   1   0    0.66    0.22
  -9  -1   0   -0.16    0.11
  -9   1   0   -0.17    0.12
   0  -2   0  460.42   24.40
   0   2   0  489.24   24.45
   1  -2   0  167.87    8.11
  -1  -2   0  158.87    8.12
   1   2   0  146.11    8.12
   2  -2   0    8.93    0.56
  -2  -2   0   10.38    0.59
  -2   2   0   11.56    0.63
   3  -2   0   17.80    0.99
  -3  -2   0   18.95    1.07
  -3   2   0   20.02    1.11
   3   2   0   18.68    1.05
   4  -2   0   22.79    1.26
  -4  -2   0   23.78    1.35
   4   2   0   24.93    1.32
  -4   2   0   22.36    1.38
  -5  -2   0   78.36    4.39
   5  -2   0   81.17    4.28
   5   2   0   87.43    4.35
  -5   2   0   80.76    4.42
   6  -2   0    2.73    0.23
  -6  -2   0    2.57    0.34
   6   2   0    2.55    0.29
  -6   2   0    2.65    0.37
  -7  -2   0    0.68    0.20
  -7   2   0    1.08    0.25
   7   2   0    1.30    0.22
  -8  -2   0    2.10    0.36
   8   2   0    2.11    0.30
  -8   2   0    2.52    0.39
  -9  -2   0    0.26    0.18
   9   2   0    0.45    0.18
  -9   2   0    0.30    0.20
   0  -3   0    0.01    0.03
   0   3   0   -0.08    0.03
  -1  -3   0  230.75   11.27
   1  -3   0  213.91   11.20
   1  -3   0  217.31   11.22
  -1  -3   0  217.34   11.23
  -1   3   0  209.79   11.19
   1   3   0  220.62   11.24
   2  -3   0   29.34    1.54
  -2  -3   0   28.96    1.56
  -2  -3   0   28.91    1.61
  -2   3   0   31.20    1.63
   2   3   0   27.03    1.57
  -3  -3   0    1.12    0.20
  -3  -3   0    0.76    0.13
   3  -3   0    1.60    0.14
   3   3   0    0.65    0.13
  -3   3   0    0.80    0.16
  -4  -3   0    0.16    0.08
  -4  -3   0    0.24    0.14
  -4   3   0    0.15    0.10
   4   3   0    0.26    0.09
   5  -3   0    3.90    0.27
  -5  -3   0    4.48    0.38
  -5   3   0    3.85    0.43
   5   3   0    4.28    0.35
  -6  -3   0    0.61    0.17
   6   3   0    0.59    0.15
  -6   3   0    0.63    0.20
  -7  -3   0    3.80    0.57
  -7  -3   0    3.25    0.41
   7   3   0    2.57    0.33
  -7   3   0    2.65    0.40
  -8  -3   0   10.30    1.00
  -8  -3   0    9.86    0.79
   8   3   0    9.68    0.73
  -8   3   0   10.06    0.82
  -9  -3   0    1.49    0.32
   9   3   0    1.99    0.33
  -9   3   0    2.57    0.43
   0  -4   0  108.33    5.58
   0   4   0  107.52    5.58
   1  -4   0    9.89    0.53
  -1  -4   0    8.56    0.56
   1   4   0    9.16    0.55
  -1   4   0    9.45    0.50
  -2  -4   0   24.47    1.35
  -2  -4   0   22.67    1.28
   2  -4   0   23.07    1.26
  -2   4   0   23.84    1.36
   2   4   0   23.25    1.30
   3  -4   0    0.13    0.05
  -3  -4   0    0.31    0.13
  -3  -4   0    0.13    0.06
  -3   4   0    0.04    0.08
   3   4   0    0.05    0.06
  -4  -4   0    8.40    0.66
   4  -4   0    8.36    0.54
  -4  -4   0    8.91    0.59
   4   4   0    9.43    0.59
  -4   4   0    8.43    0.64
  -5  -4   0    3.50    0.46
  -5  -4   0    3.73    0.34
  -5   4   0    3.10    0.41
   5   4   0    4.24    0.35
  -6  -4   0    0.85    0.19
  -6  -4   0    0.52    0.25
  -6   4   0    0.26    0.16
   6   4   0    0.48    0.14
  -7  -4   0    6.13    0.52
  -7  -4   0    5.31    0.69
   7   4   0    4.99    0.46
  -7   4   0    5.09    0.58
  -8  -4   0   -0.05    0.11
  -8   4   0    0.21    0.18
   8   4   0    0.13    0.14
  -9  -4   0    0.17    0.17
   9   4   0    0.16    0.16
  -9   4   0    0.05    0.17
   0  -5   0    0.40    0.07
   0   5   0    0.32    0.07
   1  -5   0   26.92    1.43
  -1  -5   0   27.72    1.44
  -1   5   0   25.50    1.40
   1   5   0   26.70    1.45
   2  -5   0   92.69    5.02
  -2  -5   0   92.52    5.04
  -2  -5   0  102.74    5.10
  -2   5   0   91.31    5.13
   2   5   0  102.96    5.06
  -3  -5   0    3.70    0.29
  -3  -5   0    3.49    0.35
   3  -5   0    3.71    0.26
   3   5   0    2.95    0.28
  -3   5   0    3.18    0.37
   4  -5   0   10.64    0.63
  -4  -5   0   10.14    0.75
  -4  -5   0   10.51    0.67
   4   5   0   10.26    0.68
  -4   5   0    9.33    0.74
  -5  -5   0    9.74    0.69
  -5  -5   0   11.23    0.82
   5   5   0   10.73    0.72
  -5   5   0   10.11    0.79
  -6  -5   0   24.92    1.45
  -6  -5   0   24.78    1.58
   6   5   0   22.62    1.42
  -6   5   0   23.02    1.53
  -7  -5   0    0.34    0.16
   7   5   0    0.09    0.13
  -7   5   0    0.08    0.16
  -8  -5   0    3.74    0.46
   8   5   0    3.59    0.43
  -8   5   0    1.99    0.40
  -9  -5   0    0.92    0.27
   9   5   0    0.92    0.25
  -9   5   0    0.68    0.27
   0  -6   0   35.91    1.91
   0   6   0   35.42    1.90
  -1  -6   0   35.54    1.87
   1  -6   0   34.60    1.87
  -1   6   0   34.56    1.84
   1   6   0   35.08    1.89
  -2  -6   0    0.16    0.11
   2  -6   0    0.18    0.07
   2   6   0    0.10    0.08
  -3  -6   0    6.08    0.41
  -3  -6   0    6.21    0.48
   3  -6   0    5.49    0.38
   3   6   0    4.73    0.41
  -3   6   0    6.68    0.54
   4  -6   0    0.21    0.08
  -4  -6   0    0.25    0.10
  -4  -6   0    0.21    0.17
   4   6   0    0.33    0.12
  -4   6   0    0.00    0.11
   5  -6   0    2.35    0.26
  -5  -6   0    2.70    0.31
  -5  -6   0    3.33    0.44
  -5   6   0    3.18    0.44
   5   6   0    2.60    0.32
  -6  -6   0    3.95    0.42
   6   6   0    3.68    0.42
  -6   6   0    3.73    0.49
  -7  -6   0   -0.02    0.10
  -7   6   0   -0.24    0.13
   7   6   0    0.08    0.12
  -8  -6   0    0.99    0.25
  -8   6   0    1.07    0.31
   8   6   0    1.10    0.27
  -9  -6   0    2.90    0.43
   9   6   0    2.66    0.42
  -9   6   0    2.35    0.52
   0   7   0    0.58    0.10
  -1  -7   0    5.03    0.36
   1  -7   0    5.29    0.36
   1   7   0    5.24    0.38
  -1   7   0    5.40    0.33
   2  -7   0   19.86    1.06
  -2  -7   0   18.23    1.06
   2   7   0   17.82    1.09
  -3  -7   0   36.65    2.00
   3  -7   0   34.59    1.92
   3   7   0   36.95    1.99
  -3   7   0   32.80    2.09
  -4  -7   0    2.78    0.37
  -4  -7   0    2.44    0.28
   4  -7   0    2.36    0.25
  -4   7   0    2.86    0.41
   4   7   0    2.37    0.31
   5  -7   0    0.14    0.09
  -5  -7   0    0.12    0.10
   5   7   0    0.08    0.12
  -5   7   0    0.30    0.18
  -6  -7   0    0.98    0.21
  -6   7   0    0.88    0.28
   6   7   0    0.65    0.20
  -7  -7   0    6.83    0.57
   7   7   0    6.23    0.58
  -7   7   0    6.71    0.74
  -8  -7   0    1.57    0.32
   8   7   0    1.30    0.30
  -8   7   0    0.95    0.34
   0  -8   0   16.74    0.94
   0   8   0   15.72    0.93
   1  -8   0    1.24    0.16
  -1  -8   0    1.18    0.16
   1   8   0    1.19    0.18
  -1   8   0    1.28    0.14
   2  -8   0    0.07    0.06
  -2  -8   0    0.07    0.07
   2   8   0    0.01    0.08
   3  -8   0    0.01    0.06
   3   8   0    0.08    0.09
  -3   8   0    0.06    0.14
   4  -8   0    0.87    0.16
   4   8   0    0.92    0.20
  -4   8   0    0.63    0.24
  -5  -8   0    0.02    0.08
   5  -8   0   -0.07    0.07
  -5   8   0    0.05    0.18
   5   8   0    0.01    0.12
  -6  -8   0    2.02    0.29
   6  -8   0    1.93    0.26
   6   8   0    1.76    0.31
  -6   8   0    1.78    0.38
  -7  -8   0    0.43    0.17
   7   8   0    0.56    0.21
  -7   8   0    0.43    0.26
  -8  -8   0    1.87    0.33
  -8   8   0    1.25    0.38
   8   8   0    1.54    0.33
   0  -9   0    0.11    0.08
   0   9   0   -0.06    0.06
   1  -9   0    5.68    0.41
  -1  -9   0    5.86    0.42
  -1   9   0    5.77    0.47
   1   9   0    5.51    0.43
   2  -9   0   18.49    1.16
  -2  -9   0   20.53    1.18
   2   9   0   22.15    1.23
  -3  -9   0   33.44    1.89
   3  -9   0   33.30    1.88
   3   9   0   35.98    1.97
  -3   9   0   33.63    2.12
   4  -9   0    0.98    0.17
  -4   9   0    1.01    0.31
   4   9   0    1.34    0.25
   5  -9   0    1.99    0.25
  -5   9   0    1.03    0.33
   5   9   0    1.39    0.28
  -6  -9   0    3.94    0.44
   6  -9   0    3.57    0.37
  -6   9   0    3.04    0.53
   6   9   0    3.86    0.46
  -7  -9   0    7.24    0.59
   7   9   0    5.21    0.63
  -7   9   0    7.04    0.83
  -8  -9   0    0.29    0.17
   0 -10   0    3.77    0.32
   0  10   0    3.85    0.32
  -1 -10   0    4.03    0.36
   1 -10   0    4.86    0.37
   1  10   0    4.80    0.39
   2 -10   0    1.24    0.19
  -2 -10   0    1.49    0.21
   2  10   0    1.33    0.23
  -3 -10   0    5.73    0.44
   3 -10   0    5.55    0.43
   3  10   0    6.06    0.50
  -3  10   0    5.57    0.69
   4 -10   0    1.85    0.24
  -4 -10   0    1.98    0.26
  -4  10   0    2.09    0.44
   4  10   0    1.30    0.27
   5 -10   0   -0.09    0.07
  -5  10   0    0.07    0.22
   5  10   0   -0.03    0.13
   6 -10   0    0.65    0.16
  -6  10   0    0.78    0.32
   6  10   0    0.82    0.24
   7  10   0    0.20    0.19
  -7  10   0    0.13    0.26
   0 -11   0    0.09    0.10
   1 -11   0    0.17    0.10
  -1 -11   0    0.26    0.11
   1  11   0    0.04    0.10
   2 -11   0    6.22    0.49
  -2 -11   0    6.65    0.50
   2  11   0    7.07    0.54
  -3 -11   0    4.55    0.41
   3 -11   0    3.58    0.37
   3  11   0    4.30    0.46
  -3  11   0    4.08    0.63
   4 -11   0    3.33    0.36
  -4 -11   0    4.18    0.40
  -4  11   0    3.67    0.60
   4  11   0    3.71    0.46
  -5 -11   0    0.40    0.15
   5 -11   0    0.43    0.15
   5  11   0    0.53    0.21
  -5  11   0    0.40    0.26
   6 -11   0    0.03    0.10
  -6  11   0   -0.14    0.23
   6  11   0   -0.03    0.15
   0 -12   0    1.32    0.21
   1 -12   0    0.73    0.16
  -1 -12   0    1.42    0.23
   2 -12   0    7.85    0.56
  -2 -12   0    7.64    0.57
   2  12   0    7.19    0.59
  -3 -12   0    0.13    0.11
   3 -12   0    0.10    0.11
   3  12   0    0.05    0.14
  -3  12   0    0.15    0.24
   4 -12   0    4.07    0.41
  -4 -12   0    4.19    0.43
   4  12   0    4.37    0.50
  -4  12   0    4.03    0.67
  -5 -12   0    0.14    0.13
   5 -12   0    0.17    0.13
  -5  12   0    0.47    0.31
   5  12   0    0.16    0.19
   0 -13   0    0.21    0.12
  -1 -13   0   -0.13    0.09
   1 -13   0   -0.02    0.10
   2 -13   0    0.76    0.19
  -2 -13   0    1.17    0.22
  -2  13   0    1.24    0.39
   3 -13   0    2.14    0.29
  -3 -13   0    2.55    0.33
  -3  13   0    2.36    0.53
   3  13   0    2.21    0.35
   4 -13   0   -0.07    0.10
  -4 -13   0    0.04    0.12
   4  13   0    0.13    0.17
  -4  13   0    0.49    0.31
   0 -14   0    1.82    0.28
  -1 -14   0    7.92    0.58
   1 -14   0    5.57    0.51
  -2 -14   0    1.15    0.24
   2 -14   0    0.47    0.17
  -2  14   0    0.84    0.38
   3 -14   0    5.10    0.49
  -3  14   0    5.41    0.82
 -10   0   1   -0.04    0.18
  -9   0   1    5.75    0.63
  -8   0   1   -0.01    0.12
   8   0  -1   -0.03    0.11
  -7   0   1    0.05    0.13
   7   0  -1    0.11    0.09
  -6   0   1    0.07    0.12
   6   0  -1   -0.05    0.06
   6   0  -1    0.01    0.05
   5   0  -1    5.16    0.33
  -5   0   1    5.41    0.45
   5   0  -1    5.68    0.39
   4   0  -1   -0.13    0.04
  -4   0   1    0.02    0.08
   4   0  -1    0.00    0.03
   3   0  -1  132.94    7.25
  -3   0   1  148.18    7.31
   2   0  -1    0.03    0.02
  -2   0   1   -0.01    0.05
   2   0  -1    0.03    0.03
   1   0  -1  464.74   24.10
  -1   0   1  490.18   24.06
   1   0  -1  448.00   24.03
   0   0  -1    0.01    0.01
   0   0  -1    0.01    0.01
   0   0   1   -0.01    0.01
   0   0   1    0.00    0.02
   0   0   1    0.01    0.01
   0   0   1    0.01    0.00
   0   0  -1    0.01    0.01
   0   0  -1    0.04    0.03
   1   0   1 1000.00   50.18
  -1   0  -1  955.60   50.34
   2   0   1    0.09    0.05
  -2   0  -1    0.01    0.05
   3   0   1  258.64   13.43
  -3   0  -1  262.95   13.49
  -4   0  -1    0.03    0.08
   4   0   1    0.02    0.05
   5   0   1   62.22    3.29
  -6   0  -1   -0.08    0.09
   6   0   1   -0.07    0.07
   7   0   1    0.19    0.10
  -7   0  -1    0.61    0.20
  -8   0  -1    0.04    0.13
  -9   0  -1    0.91    0.26
 -10  -1   1    0.53    0.52
 -10  -1   1    0.89    0.31
  -9  -1   1    1.84    0.36
  -9   1   1    1.62    0.34
  -8  -1   1   -0.10    0.12
   8   1  -1   -0.01    0.09
  -8   1   1   -0.05    0.13
   7  -1  -1   -0.01    0.08
  -7  -1   1    0.14    0.13
   7   1  -1   -0.07    0.07
  -7   1   1    0.08    0.14
   6  -1  -1    8.10    0.54
  -6  -1   1    8.32    0.63
   6   1  -1    8.11    0.51
   6   1  -1    8.81    0.58
  -6   1   1    8.32    0.65
   5  -1  -1    0.26    0.08
   5  -1  -1    0.21    0.05
  -5  -1   1    0.36    0.13
   5   1  -1    0.17    0.09
  -5   1   1    0.25    0.12
   4  -1  -1   40.21    2.25
  -4  -1   1   47.00    2.38
   4  -1  -1   42.38    2.29
   4   1  -1   44.22    2.32
  -4   1   1   43.42    2.38
   3  -1  -1   54.44    2.86
   3  -1  -1   49.46    2.83
  -3  -1   1   55.61    2.92
   3   1  -1   55.33    2.88
  -3   1   1   60.13    2.95
   2  -1  -1   49.93    2.77
  -2  -1   1   54.70    2.82
   2  -1  -1   50.46    2.78
   2   1  -1   60.13    2.81
  -1  -1   1  565.02   26.78
   1  -1  -1  496.89   26.74
   1  -1  -1  516.98   26.78
  -1  -1   1  520.94   26.75
  -1   1   1  456.17   26.75
   1   1  -1  523.99   26.80
  -1   1   1  565.81   26.74
   0  -1   1   16.72    0.88
   0  -1  -1   17.62    0.88
   0  -1  -1   15.45    0.90
   0  -1  -1   16.21    0.88
   0  -1   1   18.15    0.92
   0   1   1   17.74    0.89
   0   1   1   15.54    0.90
  -1  -1  -1  310.07   17.66
   1  -1   1  326.69   17.65
   1   1   1  327.64   17.68
  -1   1  -1  366.61   17.64
  -1   1  -1  389.14   17.68
   2  -1   1   16.27    1.01
  -2  -1  -1   17.64    1.06
   2   1   1   21.92    1.06
  -2   1  -1   21.93    1.09
  -3  -1  -1   39.15    2.30
   3  -1   1   39.81    2.23
  -3   1  -1   46.05    2.32
   3   1   1   46.05    2.27
  -4  -1  -1   32.87    1.98
   4  -1   1   34.77    1.90
  -4   1  -1   36.75    2.01
   4   1   1   38.77    1.94
   5  -1   1    1.74    0.18
  -5  -1  -1    1.37    0.24
   5   1   1    1.51    0.19
  -5   1  -1    1.58    0.25
   6  -1   1   11.66    0.73
  -6  -1  -1   12.29    0.86
   6   1   1   12.82    0.77
  -6   1  -1   12.15    0.86
  -7  -1  -1   14.41    0.98
   7  -1   1   14.60    0.85
  -7   1  -1   12.61    0.96
   7   1   1   13.64    0.88
  -8  -1  -1    3.72    0.48
  -8   1  -1    3.43    0.45
   8   1   1    3.55    0.38
  -9  -1  -1    0.49    0.22
  -9   1  -1    1.12    0.29
  -9  -2   1    0.22    0.18
  -9  -2   1    0.20    0.37
   9   2  -1    0.03    0.14
  -9   2   1   -0.08    0.15
  -8  -2   1    7.72    0.63
   8   2  -1    5.58    0.50
  -8   2   1    5.69    0.64
  -7  -2   1    0.48    0.17
   7   2  -1    0.13    0.11
  -7   2   1    0.07    0.13
   6  -2  -1   22.41    1.24
  -6  -2   1   23.66    1.36
  -6   2   1   20.65    1.35
   6   2  -1   20.98    1.28
   5  -2  -1    1.81    0.19
  -5  -2   1    1.58    0.23
   5   2  -1    1.66    0.21
  -5   2   1    1.33    0.24
   4  -2  -1  119.39    6.33
  -4  -2   1  132.41    6.43
   4  -2  -1  113.71    6.29
   4   2  -1  123.66    6.38
  -4   2   1  124.11    6.45
   3  -2  -1    0.52    0.09
   3  -2  -1    0.65    0.06
  -3  -2   1    0.96    0.20
  -3  -2   1    0.46    0.10
   3   2  -1    0.55    0.10
  -3   2   1    0.52    0.13
   2  -2  -1  175.54    9.71
   2  -2  -1  189.88    9.69
  -2  -2   1  180.27    9.72
  -2  -2   1  209.90    9.83
   2   2  -1  185.57    9.73
  -2   2   1  191.66    9.77
  -1  -2   1   10.49    0.59
   1  -2  -1    8.76    0.51
  -1  -2   1    8.95    0.50
   1  -2  -1    9.51    0.50
  -1   2   1    8.59    0.52
   0  -2  -1    1.84    0.12
   0  -2   1    1.90    0.12
   0  -2   1    1.62    0.16
   0   2   1    1.85    0.15
   0   2  -1    1.88    0.13
  -1  -2  -1   41.78    2.19
   1  -2   1   42.91    2.16
   1   2   1   40.15    2.21
  -2  -2  -1  398.48   22.01
   2  -2   1  439.46   21.95
   2  -2   1  425.05   21.97
  -2   2  -1  466.40   22.05
   2   2   1  411.73   22.02
  -3  -2  -1   10.04    0.65
   3  -2   1   10.29    0.59
  -3   2  -1   11.47    0.69
   3   2   1   11.43    0.65
  -4  -2  -1    8.71    0.60
   4  -2   1    8.13    0.51
  -4   2  -1    9.25    0.63
   4   2   1   10.15    0.58
   5  -2   1    9.04    0.57
  -5  -2  -1    9.64    0.68
  -5   2  -1    9.90    0.69
   5   2   1   10.15    0.63
   6  -2   1    0.38    0.10
  -6  -2  -1    0.54    0.17
  -6   2  -1    0.59    0.19
   6   2   1    0.22    0.12
  -7  -2  -1    2.86    0.38
   7   2   1    2.05    0.28
  -7   2  -1    1.63    0.31
  -8  -2  -1    0.60    0.21
   8   2   1    0.84    0.20
  -8   2  -1    0.93    0.26
  -9  -2  -1    0.05    0.13
   9   2   1    0.10    0.18
  -9   2  -1   -0.07    0.13
  -9  -3   1   -0.19    0.13
   9   3  -1   -0.07    0.11
  -9   3   1   -0.07    0.16
  -8  -3   1    1.01    0.25
  -8  -3   1    1.53    0.46
  -8   3   1    0.81    0.25
   8   3  -1    0.72    0.20
  -7  -3   1    1.23    0.25
  -7  -3   1    1.48    0.41
  -7   3   1    1.05    0.27
   7   3  -1    1.38    0.24
  -6  -3   1    0.41    0.25
  -6  -3   1    0.46    0.15
   6   3  -1    0.45    0.13
  -6   3   1    0.26    0.15
  -5  -3   1   13.16    0.99
  -5  -3   1   14.34    0.87
   5   3  -1   13.59    0.84
  -5   3   1   12.38    0.90
  -4  -3   1   47.67    2.46
  -4  -3   1   44.42    2.58
  -4   3   1   40.34    2.49
   4   3  -1   47.58    2.45
   3  -3  -1   42.94    2.36
  -3  -3   1   47.51    2.39
  -3  -3   1   42.48    2.49
  -3   3   1   42.39    2.45
   3   3  -1   47.41    2.40
  -2  -3   1   21.80    1.20
  -2  -3   1   23.08    1.31
   2  -3  -1   21.67    1.19
  -2   3   1   22.29    1.28
  -2   3   1   21.53    1.18
   2   3  -1   23.00    1.22
  -1  -3   1   11.51    0.62
  -1  -3   1   11.59    0.71
   1  -3  -1   11.54    0.62
   1   3  -1   11.23    0.64
  -1   3   1   10.51    0.62
   0  -3  -1  333.32   17.72
   0  -3   1  337.85   17.71
   0   3   1  368.57   17.75
   0   3  -1  340.93   17.79
  -1  -3  -1  343.74   18.30
   1  -3   1  377.14   18.26
   1  -3   1  384.25   18.27
  -1  -3  -1  334.82   18.27
   1   3   1  339.66   18.31
  -2  -3  -1   11.38    0.68
  -2  -3  -1   11.41    0.67
   2  -3   1   11.44    0.64
  -2   3  -1   12.50    0.72
   2   3   1   11.15    0.69
  -3  -3  -1    2.64    0.25
  -3  -3  -1    3.22    0.28
   3  -3   1    2.98    0.22
  -3   3  -1    3.38    0.30
   3   3   1    2.94    0.26
  -4  -3  -1    1.65    0.23
   4  -3   1    1.61    0.13
   4   3   1    1.54    0.20
  -4   3  -1    1.66    0.25
  -5  -3  -1    7.86    0.57
   5  -3   1    7.15    0.44
  -5   3  -1    7.93    0.60
   5   3   1    7.52    0.53
  -6  -3  -1    0.60    0.17
   6   3   1    0.65    0.16
  -6   3  -1    1.00    0.22
  -7  -3  -1    0.54    0.19
   7   3   1    0.64    0.17
  -7   3  -1    0.89    0.23
  -8  -3  -1   12.59    0.93
  -8   3  -1   12.29    0.96
   8   3   1   12.18    0.85
  -9  -3  -1    1.83    0.36
   9   3   1    2.69    0.36
  -9   3  -1    1.51    0.35
  -9  -4   1    0.43    0.21
   9   4  -1    0.61    0.22
  -9   4   1    0.65    0.26
  -8  -4   1    3.29    0.43
  -8   4   1    3.11    0.47
   8   4  -1    3.23    0.40
  -7  -4   1    2.10    0.46
  -7  -4   1    1.84    0.30
  -7   4   1    1.64    0.33
   7   4  -1    2.06    0.30
  -6  -4   1    9.85    0.67
  -6  -4   1    8.34    0.79
  -6   4   1    8.15    0.71
   6   4  -1    9.13    0.65
  -5  -4   1    9.32    0.79
  -5  -4   1   11.19    0.69
   5   4  -1    9.94    0.67
  -5   4   1    9.04    0.73
  -4  -4   1    0.15    0.14
   4  -4  -1    0.04    0.06
  -4  -4   1    0.10    0.07
  -4   4   1   -0.07    0.07
   4   4  -1    0.04    0.08
  -3  -4   1   61.64    3.35
   3  -4  -1   59.59    3.21
  -3  -4   1   63.29    3.23
  -3   4   1   57.58    3.31
   3   4  -1   62.38    3.25
  -2  -4   1    0.00    0.11
   2  -4  -1   -0.02    0.03
  -2  -4   1    0.00    0.04
   2   4  -1   -0.03    0.05
  -2   4   1    0.05    0.08
  -1  -4   1   21.39    1.19
   1  -4  -1   21.08    1.11
  -1   4   1   20.51    1.11
   1   4  -1   19.24    1.12
   0  -4   1  128.36    6.74
   0  -4  -1  129.51    6.75
   0   4  -1  131.12    6.74
   0   4   1  133.64    6.77
   1  -4   1   11.80    0.66
   1   4   1   11.68    0.70
  -1   4  -1   11.95    0.64
  -2  -4  -1    1.37    0.16
  -2  -4  -1    1.89    0.20
   2  -4   1    1.83    0.14
   2   4   1    1.64    0.20
  -2   4  -1    1.65    0.23
  -3  -4  -1   73.75    4.02
  -3  -4  -1   72.02    4.04
   3  -4   1   78.17    3.97
  -3   4  -1   77.58    4.09
   3   4   1   79.33    4.04
   4  -4   1    2.98    0.23
  -4  -4  -1    2.64    0.29
  -4  -4  -1    2.61    0.33
  -4   4  -1    2.42    0.32
  -5  -4  -1   29.00    1.61
  -5  -4  -1   27.12    1.66
  -5   4  -1   24.89    1.64
   5   4   1   28.71    1.59
  -6  -4  -1    5.70    0.48
  -6  -4  -1    5.05    0.60
  -6   4  -1    4.57    0.52
   6   4   1    5.42    0.45
  -7  -4  -1   15.07    1.07
  -7   4  -1   14.13    1.09
   7   4   1   18.34    1.06
  -8  -4  -1    0.39    0.19
   8   4   1    0.51    0.18
  -8   4  -1    0.31    0.21
  -9  -4  -1    0.28    0.20
  -9   4  -1    0.65    0.26
   9   4   1    0.43    0.19
  -9  -5   1    0.03    0.15
   9   5  -1    0.08    0.16
  -9   5   1    0.22    0.22
  -8  -5   1    4.29    0.50
   8   5  -1    3.57    0.45
  -8   5   1    4.01    0.54
  -7  -5   1    1.74    0.28
  -7  -5   1    1.12    0.38
   7   5  -1    1.11    0.23
  -7   5   1    0.84    0.26
  -6  -5   1    0.91    0.30
  -6  -5   1    0.47    0.15
   6   5  -1    0.43    0.16
  -6   5   1    0.63    0.23
  -5  -5   1    7.88    0.69
   5  -5  -1    7.29    0.51
  -5  -5   1    8.37    0.56
  -5   5   1    6.09    0.61
   5   5  -1    7.96    0.57
  -4  -5   1    7.85    0.54
   4  -5  -1    8.58    0.52
  -4  -5   1    7.19    0.65
   4   5  -1    8.49    0.57
  -4   5   1    7.69    0.64
  -3  -5   1   63.64    3.43
   3  -5  -1   62.95    3.28
  -3  -5   1   63.95    3.30
   3   5  -1   60.71    3.32
  -3   5   1   59.23    3.41
  -2  -5   1   55.63    2.96
   2  -5  -1   58.48    2.96
  -2  -5   1   58.07    3.07
   2   5  -1   52.46    2.98
   1  -5  -1   54.67    2.82
  -1  -5   1   53.06    2.90
   1   5  -1   49.47    2.83
  -1   5   1   57.11    2.81
   0  -5   1   48.31    2.45
   0  -5  -1   44.49    2.46
   0   5  -1   47.21    2.45
   0   5   1   46.41    2.47
  -1  -5  -1  101.69    5.35
   1  -5   1  100.97    5.33
   1   5   1   99.68    5.37
  -1   5  -1  108.83    5.31
   2  -5   1    3.74    0.25
  -2  -5  -1    3.74    0.27
  -2  -5  -1    3.31    0.27
  -2   5  -1    3.71    0.34
   2   5   1    3.10    0.29
  -3  -5  -1    0.53    0.11
  -3  -5  -1    0.68    0.16
   3  -5   1    0.47    0.09
   3   5   1    0.60    0.13
  -3   5  -1    0.42    0.14
  -4  -5  -1    7.50    0.55
  -4  -5  -1    7.54    0.51
   4  -5   1    6.29    0.44
   4   5   1    6.46    0.50
  -4   5  -1    6.68    0.56
  -5  -5  -1   19.92    1.18
  -5  -5  -1   20.02    1.24
   5   5   1   19.73    1.17
  -5   5  -1   16.74    1.22
  -6  -5  -1    8.71    0.65
   6   5   1    8.28    0.63
  -6   5  -1    8.50    0.71
  -7  -5  -1   -0.10    0.09
   7   5   1    0.20    0.14
  -7   5  -1   -0.13    0.12
  -8  -5  -1    1.61    0.32
  -8   5  -1    1.15    0.31
   8   5   1    1.56    0.28
  -9  -5  -1    0.13    0.16
   9   5   1    0.30    0.19
  -9   5  -1    0.44    0.24
  -9  -6   1    0.31    0.19
  -9   6   1   -0.03    0.22
   9   6  -1    0.33    0.21
  -8  -6   1    0.02    0.12
   8   6  -1    0.05    0.14
  -8   6   1   -0.05    0.17
  -7  -6   1    1.45    0.26
  -7   6   1    1.57    0.35
   7   6  -1    1.88    0.31
  -6  -6   1    4.39    0.59
  -6  -6   1    3.58    0.39
  -6   6   1    3.83    0.52
   6   6  -1    3.84    0.42
  -5  -6   1   24.39    1.56
  -5  -6   1   25.39    1.42
   5  -6  -1   24.71    1.38
   5   6  -1   24.33    1.45
  -5   6   1   21.60    1.54
  -4  -6   1    1.59    0.21
  -4  -6   1    1.48    0.31
   4  -6  -1    1.55    0.18
  -4   6   1    1.53    0.29
   4   6  -1    1.27    0.21
  -3  -6   1   12.62    0.86
   3  -6  -1   11.61    0.73
  -3  -6   1   12.62    0.75
   3   6  -1   13.27    0.79
  -3   6   1   11.85    0.88
  -2  -6   1   26.12    1.52
   2  -6  -1   25.24    1.42
   2   6  -1   26.56    1.46
  -1  -6   1   42.49    2.26
   1  -6  -1   43.09    2.26
   1   6  -1   40.28    2.27
  -1   6   1   43.92    2.24
   0  -6   1    2.95    0.21
   0  -6  -1    2.82    0.22
   0   6  -1    2.70    0.21
   0   6   1    2.32    0.22
  -1  -6  -1   82.04    4.56
   1  -6   1   86.91    4.55
   1   6   1   91.21    4.60
  -1   6  -1   89.15    4.53
   2  -6   1   57.82    2.90
  -2   6  -1   52.06    3.03
   2   6   1   54.48    2.96
  -3  -6  -1    0.15    0.11
  -3  -6  -1    0.18    0.08
   3  -6   1    0.39    0.09
   3   6   1    0.31    0.11
  -3   6  -1    0.46    0.16
   4  -6   1   12.39    0.76
  -4  -6  -1   13.19    0.81
  -4  -6  -1   13.28    0.85
   4   6   1   11.49    0.81
  -4   6  -1   13.43    0.92
  -5  -6  -1   17.73    1.03
   5  -6   1   16.56    0.95
  -5   6  -1   14.25    1.09
   5   6   1   15.23    1.02
  -6  -6  -1    0.21    0.12
  -6   6  -1    0.27    0.18
   6   6   1    0.40    0.16
  -7  -6  -1   -0.02    0.11
  -7   6  -1    0.15    0.18
   7   6   1    0.15    0.14
  -8  -6  -1    6.40    0.63
   8   6   1    4.83    0.53
  -8   6  -1    4.48    0.61
  -9  -6  -1    0.83    0.26
   9   6   1    1.04    0.29
  -8  -7   1    0.00    0.13
   8   7  -1   -0.06    0.14
  -8   7   1    0.56    0.27
  -7  -7   1    0.04    0.12
   7   7  -1    0.28    0.18
  -7   7   1    0.08    0.18
  -6  -7   1    4.38    0.44
  -6   7   1    3.84    0.55
   6   7  -1    3.97    0.44
   5  -7  -1    3.39    0.33
  -5  -7   1    3.20    0.47
  -5  -7   1    3.11    0.34
   5   7  -1    2.74    0.35
  -5   7   1    3.61    0.50
  -4  -7   1   14.27    0.96
  -4  -7   1   13.57    0.83
   4  -7  -1   13.77    0.81
  -4   7   1   11.98    0.97
   4   7  -1   12.29    0.86
  -3  -7   1   29.93    1.71
   3  -7  -1   27.96    1.58
   3   7  -1   30.09    1.64
  -3   7   1   25.85    1.74
  -2  -7   1   29.70    1.63
   2  -7  -1   25.24    1.52
   2   7  -1   28.58    1.56
  -2   7   1   27.60    1.46
   1  -7  -1   12.04    0.74
  -1  -7   1   13.99    0.75
   1   7  -1   12.68    0.76
  -1   7   1   12.14    0.72
   0  -7   1    5.17    0.33
   0  -7  -1    4.73    0.33
   0   7   1    4.58    0.34
   0   7  -1    4.17    0.31
  -1  -7  -1    3.83    0.29
   1  -7   1    4.13    0.29
  -1   7  -1    3.84    0.26
   1   7   1    3.85    0.32
  -2  -7  -1    3.62    0.29
   2  -7   1    3.73    0.28
  -2   7  -1    3.25    0.42
   2   7   1    3.46    0.32
  -3  -7  -1    2.49    0.25
   3  -7   1    2.56    0.25
   3   7   1    2.84    0.32
  -3   7  -1    3.16    0.41
  -4  -7  -1    2.15    0.27
   4  -7   1    2.55    0.24
  -4   7  -1    2.45    0.37
   4   7   1    2.12    0.29
   5  -7   1    2.77    0.28
  -5  -7  -1    2.42    0.31
  -5   7  -1    2.36    0.39
   5   7   1    2.98    0.37
  -6  -7  -1    0.04    0.11
   6   7   1    0.19    0.13
  -6   7  -1    0.03    0.16
  -7  -7  -1    4.76    0.50
  -7   7  -1    3.91    0.56
   7   7   1    3.25    0.45
  -8  -7  -1    4.13    0.50
  -8   7  -1    3.29    0.52
   8   7   1    2.32    0.39
  -8  -8   1    4.32    0.50
   8   8  -1    4.05    0.51
  -8   8   1    3.27    0.57
  -7  -8   1    0.94    0.21
  -7   8   1    0.49    0.28
   7   8  -1    0.57    0.22
  -6  -8   1    1.28    0.23
   6  -8  -1    0.91    0.18
   6   8  -1    0.74    0.21
  -6   8   1    0.53    0.26
  -5  -8   1    0.00    0.08
   5  -8  -1    0.12    0.10
  -5   8   1    0.29    0.20
   5   8  -1   -0.03    0.10
  -4  -8   1   33.97    1.90
   4  -8  -1   29.28    1.73
  -4   8   1   31.60    1.98
   4   8  -1   30.28    1.80
   3  -8  -1    7.96    0.55
  -3  -8   1    8.15    0.64
   3   8  -1    8.84    0.62
  -3   8   1    9.65    0.77
   2  -8  -1   12.07    0.71
  -2  -8   1   11.41    0.70
   2   8  -1   10.80    0.73
  -1  -8   1    7.87    0.51
   1  -8  -1    8.34    0.52
  -1   8   1    7.68    0.49
   1   8  -1    8.05    0.53
   0  -8  -1    0.26    0.09
   0  -8   1    0.19    0.08
   0   8  -1    0.15    0.07
   0   8   1    0.18    0.09
   1  -8   1    0.00    0.05
  -1  -8  -1   -0.01    0.05
   1   8   1   -0.01    0.07
  -1   8  -1   -0.03    0.04
  -2  -8  -1   16.35    0.95
   2  -8   1   15.95    0.93
   2   8   1   15.96    0.99
  -2   8  -1   16.20    1.11
   3  -8   1    1.01    0.15
  -3  -8  -1    1.16    0.17
  -3   8  -1    0.65    0.23
   3   8   1    1.25    0.22
   4  -8   1    0.29    0.10
   4   8   1    0.42    0.15
  -4   8  -1    0.17    0.18
   5  -8   1    0.88    0.16
  -5  -8  -1    0.93    0.19
  -5   8  -1    1.25    0.31
   5   8   1    0.86    0.21
  -6  -8  -1    1.91    0.29
  -6   8  -1    2.35    0.44
   6   8   1    2.26    0.34
  -7  -8  -1    6.58    0.56
   7   8   1    6.12    0.63
  -7   8  -1    5.25    0.71
  -8  -8  -1    5.36    0.59
   8   8   1    5.39    0.60
  -8   8  -1    5.71    0.73
  -8  -9   1    0.17    0.15
  -7  -9   1   -0.18    0.11
  -7   9   1    0.06    0.23
   7   9  -1   -0.09    0.14
   6  -9  -1    1.32    0.22
  -6  -9   1    1.23    0.23
  -6   9   1    1.37    0.37
   6   9  -1    1.24    0.28
   5  -9  -1   -0.09    0.08
   5   9  -1    0.15    0.14
  -5   9   1    0.04    0.17
   4  -9  -1    5.57    0.43
  -4   9   1    6.16    0.70
   4   9  -1    5.32    0.49
   3  -9  -1    4.05    0.35
  -3  -9   1    4.94    0.37
  -3   9   1    4.82    0.61
   3   9  -1    4.74    0.42
   2  -9  -1    4.47    0.36
  -2  -9   1    5.46    0.38
   2   9  -1    4.49    0.39
   1  -9  -1    0.77    0.14
  -1  -9   1    0.77    0.14
   1   9  -1    0.63    0.14
  -1   9   1    0.49    0.11
   0  -9   1    0.77    0.14
   0  -9  -1    0.72    0.14
   0   9  -1    0.60    0.12
   0   9   1    0.61    0.13
  -1  -9  -1   14.59    0.91
   1  -9   1   15.08    0.90
   1   9   1   15.86    0.93
  -2  -9  -1    1.02    0.17
   2  -9   1    0.82    0.14
   2   9   1    0.75    0.17
   3  -9   1    5.86    0.42
  -3  -9  -1    5.56    0.43
   3   9   1    5.60    0.48
  -3   9  -1    6.31    0.69
   4  -9   1   -0.01    0.07
  -4   9  -1   -0.14    0.14
   4   9   1    0.03    0.11
   5  -9   1   -0.10    0.07
   5   9   1    0.00    0.12
  -5   9  -1   -0.11    0.17
   6  -9   1   -0.06    0.09
  -6  -9  -1    0.01    0.10
   6   9   1    0.03    0.14
  -6   9  -1   -0.02    0.19
  -7  -9  -1    0.10    0.14
  -7   9  -1   -0.02    0.23
   7   9   1   -0.15    0.13
   7  10  -1   -0.02    0.15
  -7  10   1    0.12    0.27
   6 -10  -1    0.75    0.17
   6  10  -1    0.60    0.23
  -6  10   1    0.06    0.22
   5 -10  -1    1.46    0.22
  -5  10   1    1.36    0.38
   5  10  -1    1.69    0.31
  -4 -10   1    9.26    0.60
   4 -10  -1    7.20    0.57
   4  10  -1    9.60    0.69
  -4  10   1    6.94    0.84
  -3 -10   1    7.41    0.52
   3 -10  -1    6.87    0.51
   3  10  -1    7.18    0.57
  -3  10   1    6.66    0.79
  -2 -10   1    7.16    0.51
   2 -10  -1    7.72    0.53
   2  10  -1    7.09    0.55
   1 -10  -1   13.69    0.85
  -1 -10   1   14.55    0.86
   1  10  -1   13.22    0.86
   0 -10   1    2.77    0.28
   0 -10  -1    2.22    0.27
   0  10   1    2.47    0.27
   0  10  -1    2.26    0.25
   1 -10   1    6.85    0.48
  -1 -10  -1    6.86    0.49
   1  10   1    6.68    0.50
  -2 -10  -1    4.25    0.40
   2 -10   1    4.18    0.35
   2  10   1    5.36    0.43
  -2  10  -1    4.27    0.56
  -3 -10  -1    2.33    0.28
   3 -10   1    2.87    0.28
  -3  10  -1    2.16    0.42
   3  10   1    2.51    0.34
  -4 -10  -1    0.56    0.15
   4 -10   1    0.72    0.15
  -4  10  -1    0.67    0.29
   4  10   1    0.52    0.19
   5 -10   1   -0.05    0.08
   5  10   1    0.07    0.14
  -5  10  -1   -0.35    0.15
   6 -10   1    0.36    0.13
   6  10   1    0.56    0.22
  -6  10  -1    0.42    0.28
   7  10   1    0.17    0.19
  -7  10  -1    0.10    0.23
   6 -11  -1    0.08    0.12
   6  11  -1    0.11    0.17
  -6  11   1    0.28    0.28
  -5 -11   1    0.59    0.18
   5 -11  -1    0.23    0.12
  -5  11   1    0.44    0.28
   5  11  -1    0.66    0.23
  -4 -11   1    9.66    0.62
   4 -11  -1    6.89    0.56
  -4  11   1    6.30    0.84
   4  11  -1    9.15    0.69
   3 -11  -1   19.35    1.16
  -3 -11   1   20.04    1.17
  -3  11   1   18.98    1.44
   3  11  -1   18.30    1.21
  -2 -11   1    0.79    0.16
   2 -11  -1    1.10    0.19
   2  11  -1    0.80    0.19
  -1 -11   1    0.03    0.09
   1 -11  -1    0.48    0.13
   1  11  -1    0.17    0.11
   0 -11  -1    0.75    0.16
   0 -11   1    0.38    0.12
   1 -11   1    1.92    0.25
  -1 -11  -1    2.04    0.27
   1  11   1    1.98    0.27
  -2 -11  -1    1.47    0.23
   2 -11   1    2.04    0.25
  -2  11  -1    1.88    0.42
   2  11   1    1.97    0.29
  -3 -11  -1    1.27    0.21
   3 -11   1    1.12    0.18
  -3  11  -1    0.95    0.32
   3  11   1    0.79    0.21
  -4 -11  -1    0.13    0.11
   4 -11   1   -0.11    0.07
   4  11   1   -0.03    0.14
  -4  11  -1   -0.02    0.20
   5 -11   1    0.20    0.12
  -5 -11  -1    0.14    0.12
  -5  11  -1   -0.04    0.24
   5  11   1    0.19    0.18
   6 -11   1   -0.02    0.10
  -6 -11  -1    0.06    0.12
  -6  11  -1    0.02    0.23
   6  11   1    0.04    0.15
   6 -12  -1    5.62    0.54
  -5 -12   1    0.08    0.12
   5 -12  -1    0.08    0.12
   5  12  -1    0.20    0.18
  -5  12   1   -0.16    0.23
  -4 -12   1    1.00    0.21
   4 -12  -1    0.37    0.14
   4  12  -1    0.69    0.22
  -4  12   1    1.03    0.38
  -3 -12   1    4.17    0.42
   3 -12  -1    4.90    0.45
   3  12  -1    4.57    0.49
  -3  12   1    3.40    0.61
  -2 -12   1    0.23    0.12
   2 -12  -1    0.52    0.15
   2  12  -1    0.44    0.17
  -1 -12   1    0.43    0.14
   1 -12  -1    0.40    0.14
   0 -12   1   -0.01    0.08
   0 -12  -1    0.31    0.13
  -1 -12  -1    0.23    0.12
   1 -12   1    0.25    0.11
  -2 -12  -1    0.40    0.14
   2 -12   1    0.13    0.10
  -2  12  -1    0.19    0.23
   2  12   1    0.11    0.15
   3 -12   1    0.43    0.14
  -3 -12  -1    0.64    0.17
  -3  12  -1    0.77    0.33
   3  12   1    0.42    0.19
  -4 -12  -1    0.83    0.20
   4 -12   1    0.59    0.15
  -4  12  -1    1.14    0.37
   4  12   1    1.18    0.28
   5 -12   1    0.22    0.13
  -5 -12  -1    0.39    0.16
   5  12   1    0.08    0.15
  -5  12  -1    0.29    0.31
  -4 -13   1   -0.06    0.10
   4 -13  -1   -0.11    0.09
   4  13  -1   -0.06    0.15
  -4  13   1   -0.05    0.26
  -3 -13   1    2.37    0.31
   3 -13  -1    1.96    0.29
   3  13  -1    2.54    0.37
  -3  13   1    1.45    0.46
  -2 -13   1   10.26    0.69
   2 -13  -1    8.86    0.67
   1 -13  -1    3.87    0.41
  -1 -13   1    3.83    0.40
   0 -13   1    1.52    0.25
   0 -13  -1    1.30    0.23
   1 -13   1    0.85    0.19
  -1 -13  -1    0.97    0.22
  -2 -13  -1    1.53    0.25
   2 -13   1    0.69    0.18
  -2  13  -1    1.41    0.41
   3 -13   1    3.02    0.36
  -3 -13  -1    4.07    0.43
   3  13   1    4.14    0.47
  -3  13  -1    3.13    0.59
   4 -13   1    0.03    0.11
  -4 -13  -1    0.10    0.13
  -4  13  -1   -0.07    0.25
   4  13   1   -0.05    0.15
   3 -14  -1    1.92    0.29
  -3  14   1    1.75    0.61
   2 -14  -1    4.00    0.45
  -2 -14   1    5.11    0.49
  -2  14   1    5.49    0.81
  -1 -14   1    0.99    0.22
   1 -14  -1    0.82    0.21
   0 -14  -1    0.14    0.13
   0 -14   1   -0.07    0.10
   1 -14   1    0.21    0.13
  -1 -14  -1    0.15    0.13
  -2 -14  -1    7.72    0.60
   2 -14   1    7.49    0.57
  -2  14  -1    6.63    0.91
   3 -14   1    0.11    0.12
  -3  14  -1    0.10    0.31
 -10   0   2    0.20    0.21
  -9   0   2   -0.08    0.14
   8   0  -2    0.26    0.13
  -8   0   2    0.19    0.15
  -7   0   2   -0.02    0.10
   7   0  -2   -0.04    0.08
   6   0  -2    0.97    0.17
   6   0  -2    1.22    0.15
  -6   0   2    1.28    0.25
   5   0  -2   -0.05    0.05
   5   0  -2   -0.08    0.04
  -5   0   2   -0.09    0.07
   4   0  -2    2.96    0.24
   4   0  -2    3.06    0.21
  -4   0   2    2.66    0.29
  -3   0   2   -0.07    0.05
   3   0  -2   -0.03    0.03
   3   0  -2    0.00    0.04
  -2   0   2   24.98    1.36
   2   0  -2   23.70    1.32
   2   0  -2   26.18    1.34
  -1   0   2    0.08    0.08
  -1   0   2    0.08    0.04
   1   0  -2    0.12    0.04
   0   0  -2    0.19    0.03
   0   0   2    0.28    0.03
   0   0  -2    0.13    0.03
   0   0   2    0.27    0.08
   0   0   2    0.26    0.03
   0   0  -2    0.23    0.03
  -1   0  -2    0.12    0.04
   1   0   2    0.11    0.07
  -1   0  -2    0.00    0.02
   2   0   2  158.96    7.47
  -2   0  -2  129.43    7.46
  -3   0  -2    0.09    0.07
   3   0   2    0.17    0.08
   4   0   2  122.86    6.21
  -4   0  -2  115.47    6.28
   5   0   2    0.03    0.07
  -5   0  -2    0.00    0.08
  -6   0  -2   40.43    2.43
   6   0   2   44.98    2.34
   7   0   2    0.00    0.08
  -7   0  -2   -0.09    0.11
  -8   0  -2   10.68    0.84
  -9   0  -2    0.05    0.14
 -10  -1   2    3.59    0.82
 -10  -1   2    4.32    0.58
 -10   1   2    3.32    0.68
  -9  -1   2    3.36    0.48
  -9   1   2    3.90    0.51
  -8  -1   2    3.55    0.47
   8   1  -2    2.83    0.36
  -8   1   2    2.91    0.42
  -7  -1   2    5.13    0.54
   7  -1  -2    5.47    0.42
   7   1  -2    5.07    0.43
  -7   1   2    5.09    0.55
  -6  -1   2   14.48    0.93
   6  -1  -2   12.90    0.83
  -6   1   2   15.11    0.96
   6   1  -2   13.76    0.86
   6   1  -2   13.48    0.80
  -5  -1   2   36.84    2.04
   5  -1  -2   34.79    1.90
   5  -1  -2   36.60    1.96
   5   1  -2   34.80    1.98
   5   1  -2   36.11    1.93
  -5   1   2   37.62    2.05
   4  -1  -2   17.12    0.92
   4  -1  -2   17.81    0.96
  -4  -1   2   16.05    1.00
  -4   1   2   17.32    1.03
   4   1  -2   15.89    0.97
   3  -1  -2    3.66    0.24
  -3  -1   2    3.80    0.29
  -3   1   2    3.70    0.31
   3   1  -2    3.83    0.28
  -2  -1   2   15.87    0.85
   2  -1  -2   14.49    0.82
  -2  -1   2   16.76    0.98
   2  -1  -2   14.89    0.83
   2   1  -2   15.30    0.85
  -2   1   2   15.30    0.88
   1  -1  -2   78.74    4.08
   1  -1  -2   82.76    4.08
  -1  -1   2   77.25    4.07
   1   1  -2   77.03    4.09
   1   1  -2   74.27    4.09
   1   1  -2   84.12    4.08
   0  -1   2  503.12   24.70
   0  -1  -2  485.54   24.64
   0  -1  -2  488.34   24.63
   0   1   2  462.39   24.68
   0   1   2  467.78   24.66
   0   1  -2  474.24   24.68
  -1  -1  -2    3.22    0.21
  -1  -1  -2    3.15    0.21
  -1   1  -2    3.20    0.18
  -1   1  -2    3.40    0.19
  -1   1  -2    3.20    0.22
   2  -1   2  112.46    5.26
  -2  -1  -2   96.12    5.26
   2  -1   2   90.38    5.20
   2   1   2  109.01    5.29
  -2   1  -2   99.50    5.20
  -2   1  -2  100.98    5.28
   3  -1   2   36.08    1.88
  -3  -1  -2   31.05    1.92
   3   1   2   38.51    1.92
   4  -1   2  197.61   10.33
  -4  -1  -2  185.98   10.41
  -4   1  -2  203.81   10.43
   4   1   2  212.78   10.37
   5  -1   2    3.11    0.25
  -5  -1  -2    2.88    0.34
   5   1   2    3.38    0.29
  -5   1  -2    3.16    0.38
  -6  -1  -2   22.39    1.49
   6  -1   2   24.91    1.37
  -6   1  -2   24.36    1.50
   6   1   2   25.87    1.41
   7  -1   2    1.68    0.31
  -7  -1  -2    1.45    0.28
   7   1   2    1.89    0.24
  -7   1  -2    1.28    0.27
  -8  -1  -2    2.36    0.37
   8   1   2    2.78    0.33
  -8   1  -2    2.45    0.39
  -9  -1  -2    1.08    0.28
  -9   1  -2    1.29    0.31
 -10  -2   2   -0.04    0.20
  -9  -2   2    0.18    0.39
  -9  -2   2    0.15    0.16
   9   2  -2    0.37    0.17
  -9   2   2    0.44    0.21
  -8  -2   2   -0.42    0.23
  -8  -2   2    0.13    0.15
   8   2  -2    0.07    0.14
  -8   2   2    0.12    0.16
  -7  -2   2   -0.07    0.10
  -7  -2   2   -0.25    0.22
  -7   2   2   -0.06    0.12
   7   2  -2    0.22    0.12
   7   2  -2   -0.10    0.07
  -6  -2   2   24.52    1.44
  -6   2   2   20.97    1.43
   6   2  -2   25.20    1.39
  -5  -2   2    0.69    0.16
   5  -2  -2    0.58    0.08
  -5   2   2    0.44    0.15
   5   2  -2    0.63    0.14
  -4  -2   2   48.35    2.74
   4  -2  -2   43.88    2.47
  -4  -2   2   48.71    2.57
  -4   2   2   46.32    2.61
   4   2  -2   50.25    2.55
  -3  -2   2    0.86    0.22
   3  -2  -2    0.89    0.11
  -3  -2   2    0.95    0.13
   3  -2  -2    1.01    0.10
  -3   2   2    0.98    0.17
   3   2  -2    0.95    0.13
  -2  -2   2   61.45    3.17
  -2  -2   2   58.12    3.02
   2  -2  -2   56.24    3.00
   2  -2  -2   54.16    3.01
  -2   2   2   57.51    3.07
   2   2  -2   59.82    3.04
   1  -2  -2  409.85   21.93
  -1  -2   2  402.22   21.92
  -1  -2   2  467.58   22.05
   1  -2  -2  442.80   21.93
   1   2  -2  415.58   22.01
   0  -2  -2   11.66    0.63
   0  -2   2   12.13    0.70
   0  -2  -2   10.84    0.61
   0   2   2   10.92    0.67
  -1  -2  -2    3.36    0.23
   1  -2   2    3.60    0.20
  -1   2  -2    3.54    0.24
   1   2   2    2.74    0.25
  -1   2  -2    3.39    0.20
  -2  -2  -2    0.80    0.12
   2  -2   2    0.67    0.08
  -2   2  -2    0.42    0.10
   2   2   2    0.92    0.14
  -2   2  -2    0.98    0.06
   3  -2   2   57.47    3.11
  -3  -2  -2   55.01    3.17
   3   2   2   60.52    3.18
  -3   2  -2   66.47    3.21
   4  -2   2    0.76    0.11
  -4  -2  -2    1.13    0.18
  -4   2  -2    0.99    0.18
   4   2   2    0.53    0.13
   5  -2   2    0.06    0.06
  -5  -2  -2    0.02    0.08
   5   2   2    0.08    0.08
  -5   2  -2    0.04    0.10
  -6  -2  -2    7.94    0.65
   6  -2   2    8.78    0.54
  -6   2  -2    8.41    0.66
   6   2   2    8.54    0.59
  -7  -2  -2    3.17    0.43
  -7   2  -2    3.71    0.46
   7   2   2    4.25    0.41
  -8  -2  -2    6.09    0.64
   8   2   2    6.38    0.52
  -8   2  -2    5.26    0.61
  -9  -2  -2    0.11    0.15
  -9   2  -2   -0.09    0.14
  -9  -3   2    3.21    0.72
  -9  -3   2    3.64    0.50
   9   3  -2    3.39    0.44
  -9   3   2    3.26    0.50
  -8  -3   2    0.83    0.39
  -8  -3   2    0.67    0.23
  -8   3   2    1.00    0.27
   8   3  -2    1.11    0.24
  -7  -3   2    0.20    0.14
  -7  -3   2   -0.16    0.23
  -7   3   2    0.02    0.13
   7   3  -2    0.20    0.13
  -6  -3   2   22.28    1.54
  -6  -3   2   24.05    1.33
  -6   3   2   19.45    1.35
   6   3  -2   20.33    1.28
  -5  -3   2   33.05    1.72
   5  -3  -2   29.65    1.58
  -5  -3   2   29.03    1.90
   5   3  -2   30.61    1.70
  -5   3   2   27.56    1.76
  -4  -3   2    9.70    0.77
  -4  -3   2   10.64    0.62
   4  -3  -2    8.82    0.53
   4  -3  -2    8.97    0.58
   4   3  -2    9.66    0.62
  -4   3   2    9.80    0.68
   3  -3  -2    0.12    0.04
  -3  -3   2    0.09    0.06
   3  -3  -2    0.08    0.05
  -3  -3   2    0.03    0.12
  -3   3   2    0.03    0.08
   3   3  -2    0.11    0.07
  -2  -3   2   43.24    2.28
   2  -3  -2   45.92    2.28
   2  -3  -2   39.08    2.28
  -2  -3   2   43.67    2.43
   2   3  -2   44.06    2.32
  -2   3   2   44.65    2.37
  -1  -3   2  164.99    8.39
   1  -3  -2  154.76    8.26
  -1   3   2  153.47    8.29
   1   3  -2  168.01    8.28
   0  -3   2   49.77    2.68
   0  -3   2   50.29    2.58
   0  -3  -2   48.45    2.59
   0   3  -2   51.13    2.60
   0   3   2   49.24    2.65
  -1  -3  -2    1.75    0.16
   1  -3   2    2.01    0.13
  -1   3  -2    2.10    0.19
   1   3   2    1.76    0.21
  -2  -3  -2   44.65    2.64
   2  -3   2   52.81    2.60
   2   3   2   46.16    2.67
  -2   3  -2   52.82    2.57
  -2   3  -2   51.72    2.68
  -3  -3  -2   78.80    4.48
   3  -3   2   82.30    4.40
   3   3   2   92.54    4.51
  -3   3  -2   87.95    4.52
   4  -3   2   -0.05    0.03
  -4  -3  -2   -0.04    0.05
   4   3   2    0.06    0.08
  -4   3  -2    0.05    0.10
   5  -3   2   23.76    1.38
  -5  -3  -2   25.86    1.53
  -5   3  -2   27.81    1.56
   5   3   2   27.20    1.49
  -6  -3  -2    0.01    0.09
   6   3   2   -0.09    0.07
  -6   3  -2   -0.05    0.11
  -7  -3  -2   11.93    0.91
   7   3   2   13.18    0.85
  -7   3  -2   12.89    0.94
  -8  -3  -2    0.05    0.14
   8   3   2    0.04    0.12
  -8   3  -2    0.01    0.13
  -9  -3  -2    0.17    0.16
  -9   3  -2    0.03    0.17
   9   3   2    0.21    0.17
  -9  -4   2    0.28    0.18
   9   4  -2    0.19    0.17
  -9   4   2    0.22    0.22
  -8  -4   2    0.16    0.14
  -8  -4   2    0.71    0.37
  -8   4   2    0.08    0.17
   8   4  -2    0.27    0.16
  -7  -4   2    2.21    0.32
  -7  -4   2    2.38    0.50
   7   4  -2    2.06    0.30
  -7   4   2    1.60    0.33
  -6  -4   2    3.84    0.59
  -6  -4   2    4.12    0.43
  -6   4   2    4.09    0.51
   6   4  -2    4.62    0.40
  -5  -4   2    5.61    0.42
  -5  -4   2    5.44    0.64
   5   4  -2    4.82    0.42
  -5   4   2    5.01    0.54
   4  -4  -2    1.48    0.18
  -4  -4   2    1.57    0.31
  -4  -4   2    1.58    0.19
  -4   4   2    1.34    0.24
   4   4  -2    1.69    0.22
  -3  -4   2    1.23    0.14
   3  -4  -2    1.02    0.13
  -3  -4   2    0.64    0.20
  -3   4   2    0.80    0.18
   3   4  -2    0.95    0.15
  -2  -4   2   26.86    1.43
   2  -4  -2   25.16    1.44
  -2  -4   2   26.75    1.58
  -2   4   2   25.04    1.44
   2   4  -2   29.47    1.47
  -1  -4   2  118.77    6.21
   1  -4  -2  117.97    6.09
   1   4  -2  116.95    6.10
  -1   4   2  116.74    6.11
   0  -4  -2    0.46    0.07
   0  -4   2    0.39    0.06
   0   4   2    0.44    0.11
   0   4  -2    0.58    0.08
  -1  -4  -2   29.49    1.61
   1  -4   2   31.79    1.60
  -1   4  -2   31.02    1.67
   1   4   2   28.59    1.67
   2  -4   2    0.31    0.06
  -2  -4  -2    0.36    0.09
  -2   4  -2    0.57    0.13
   2   4   2    0.23    0.10
  -3  -4  -2   17.72    1.02
   3  -4   2   17.65    0.96
  -3  -4  -2   17.26    0.99
  -3   4  -2   16.57    1.05
  -4  -4  -2    0.63    0.16
  -4  -4  -2    0.70    0.14
   4   4   2    0.72    0.15
  -4   4  -2    0.51    0.15
  -5  -4  -2    1.89    0.27
  -5  -4  -2    2.15    0.32
  -5   4  -2    1.31    0.26
   5   4   2    1.76    0.25
  -6  -4  -2    4.03    0.45
  -6   4  -2    3.40    0.43
   6   4   2    3.71    0.39
  -7  -4  -2    4.07    0.49
   7   4   2    6.13    0.49
  -7   4  -2    5.21    0.57
  -8  -4  -2   -0.03    0.13
   8   4   2    0.16    0.15
  -8   4  -2    0.16    0.18
  -9  -4  -2    0.49    0.21
  -9   4  -2    0.23    0.20
   9   4   2    0.51    0.20
  -9  -5   2    2.00    0.36
   9   5  -2    2.61    0.38
  -9   5   2    1.81    0.39
  -8  -5   2    1.83    0.31
   8   5  -2    1.66    0.30
  -8   5   2    2.06    0.39
  -7  -5   2    0.25    0.13
  -7  -5   2    0.45    0.28
  -7   5   2    0.34    0.22
   7   5  -2    0.27    0.16
  -6  -5   2    2.20    0.29
  -6  -5   2    2.36    0.45
  -6   5   2    2.18    0.36
   6   5  -2    2.39    0.32
  -5  -5   2    7.14    0.49
  -5  -5   2    6.34    0.70
   5  -5  -2    6.31    0.46
   5   5  -2    6.57    0.51
  -5   5   2    5.50    0.61
  -4  -5   2    6.46    0.44
  -4  -5   2    5.79    0.57
   4  -5  -2    6.10    0.43
   4   5  -2    5.88    0.46
  -4   5   2    6.50    0.56
  -3  -5   2    0.67    0.11
  -3  -5   2    0.66    0.21
   3  -5  -2    0.48    0.10
  -3   5   2    0.43    0.15
   3   5  -2    0.72    0.14
  -3   5   2    0.63    0.10
  -2  -5   2   45.36    2.48
   2  -5  -2   43.75    2.33
  -2   5   2   41.65    2.31
   2   5  -2   44.97    2.36
  -1  -5   2    6.19    0.48
   1  -5  -2    5.45    0.37
   1   5  -2    5.80    0.38
  -1   5   2    6.09    0.40
   0  -5  -2   61.46    3.30
   0  -5   2   61.03    3.28
   0   5  -2   64.35    3.29
   0   5   2   64.92    3.34
  -1  -5  -2    3.67    0.26
   1  -5   2    3.61    0.25
   1   5   2    4.30    0.33
   2  -5   2    0.82    0.10
  -2  -5  -2    0.75    0.13
  -2   5  -2    0.79    0.16
   2   5   2    0.81    0.15
   3  -5   2   15.59    0.92
  -3  -5  -2   16.90    0.98
   3   5   2   16.54    1.01
  -3   5  -2   17.56    1.05
   4  -5   2   10.39    0.64
  -4  -5  -2   11.51    0.71
  -4  -5  -2   10.85    0.71
  -4   5  -2    9.89    0.76
   4   5   2   10.61    0.72
  -5  -5  -2   14.74    0.92
   5   5   2   12.90    0.90
  -5   5  -2   14.47    0.98
  -6  -5  -2    2.46    0.34
  -6   5  -2    3.05    0.42
   6   5   2    2.83    0.34
  -7  -5  -2    4.43    0.49
  -7   5  -2    2.93    0.45
   7   5   2    3.80    0.43
  -8  -5  -2    0.13    0.15
  -8   5  -2    0.02    0.15
   8   5   2    0.04    0.14
  -9  -5  -2    0.08    0.16
   9   5   2    0.37    0.20
  -9   5  -2    0.14    0.19
  -9  -6   2    0.68    0.22
  -9   6   2    0.41    0.24
   9   6  -2    0.66    0.24
  -8  -6   2    1.93    0.32
   8   6  -2    2.05    0.34
  -8   6   2    0.76    0.28
  -7  -6   2    0.04    0.11
   7   6  -2    0.40    0.17
  -7   6   2    0.51    0.24
  -6  -6   2    6.67    0.75
  -6  -6   2    6.15    0.48
   6   6  -2    5.26    0.49
  -6   6   2    5.20    0.62
  -5  -6   2   12.14    0.74
   5  -6  -2   11.41    0.72
  -5  -6   2   10.15    0.88
   5   6  -2   10.28    0.76
  -5   6   2   11.23    0.88
   4  -6  -2    7.41    0.51
  -4  -6   2    7.86    0.53
  -4  -6   2    7.71    0.68
   4   6  -2    7.61    0.56
  -4   6   2    8.54    0.69
   3  -6  -2   53.67    2.83
  -3  -6   2   54.86    3.01
  -3  -6   2   52.72    2.84
  -3   6   2   51.64    2.99
   3   6  -2   52.70    2.87
  -2  -6   2  120.41    6.27
   2  -6  -2  115.43    6.12
  -2   6   2  118.65    6.10
   2   6  -2  116.13    6.15
  -1  -6   2   26.25    1.51
  -1  -6   2   24.69    1.38
   1  -6  -2   24.04    1.39
  -1   6   2   26.94    1.41
   1   6  -2   25.34    1.40
   0  -6  -2    3.08    0.24
   0  -6   2    3.56    0.24
   0   6  -2    3.06    0.24
   0   6   2    3.23    0.28
   1  -6   2   39.54    2.07
   1   6   2   38.24    2.13
   2  -6   2   21.06    1.10
  -2  -6  -2   19.66    1.11
   2   6   2   18.54    1.16
  -2   6  -2   19.62    1.22
   3  -6   2    8.67    0.49
  -3  -6  -2    7.65    0.54
   3   6   2    6.90    0.55
  -3   6  -2    7.87    0.62
   4  -6   2   28.45    1.49
  -4  -6  -2   25.86    1.55
   4   6   2   26.64    1.58
  -4   6  -2   26.90    1.65
  -5  -6  -2    0.06    0.09
   5   6   2   -0.05    0.10
  -5   6  -2    0.07    0.14
  -6  -6  -2    2.73    0.35
  -6   6  -2    1.90    0.36
   6   6   2    1.99    0.31
  -7  -6  -2    0.01    0.12
  -7   6  -2    0.26    0.20
   7   6   2   -0.01    0.12
  -8  -6  -2    1.71    0.33
   8   6   2    1.96    0.35
  -8   6  -2    1.94    0.40
   9   6   2    1.55    0.32
  -8  -7   2    3.69    0.45
  -8   7   2    3.21    0.53
   8   7  -2    3.18    0.46
  -7  -7   2    6.26    0.53
   7   7  -2    6.23    0.56
  -7   7   2    5.17    0.67
  -6  -7   2    1.76    0.25
   6  -7  -2    1.14    0.20
  -6   7   2    1.30    0.33
   6   7  -2    1.36    0.26
   5  -7  -2    0.07    0.09
  -5  -7   2    0.06    0.09
  -5  -7   2    0.12    0.21
  -5   7   2   -0.11    0.14
   5   7  -2    0.08    0.11
   4  -7  -2    1.71    0.22
  -4  -7   2    1.91    0.23
  -4  -7   2    1.58    0.33
  -4   7   2    1.69    0.33
   4   7  -2    1.56    0.24
  -3  -7   2    0.05    0.15
   3  -7  -2    0.00    0.05
   3   7  -2    0.05    0.09
  -3   7   2    0.04    0.12
  -2  -7   2    0.84    0.22
   2  -7  -2    0.64    0.12
   2   7  -2    1.02    0.17
  -2   7   2    0.85    0.12
   1  -7  -2    6.09    0.43
  -1  -7   2    6.89    0.43
   1   7  -2    6.59    0.45
  -1   7   2    6.86    0.44
   0  -7   2    2.99    0.23
   0  -7  -2    2.73    0.24
   0   7  -2    2.77    0.23
   0   7   2    3.14    0.27
  -1  -7  -2    0.60    0.11
   1  -7   2    0.80    0.11
   1   7   2    0.64    0.15
   2  -7   2    0.40    0.09
  -2  -7  -2    0.29    0.09
  -2   7  -2    0.09    0.13
   2   7   2    0.29    0.12
   3  -7   2    1.79    0.19
  -3   7  -2    2.21    0.34
   3   7   2    1.54    0.24
   4  -7   2   11.21    0.67
  -4  -7  -2   10.37    0.72
  -4   7  -2   10.21    0.82
   4   7   2   11.57    0.77
  -5  -7  -2    0.97    0.20
   5  -7   2    1.35    0.18
   5   7   2    1.17    0.23
  -5   7  -2    0.88    0.26
  -6  -7  -2    3.41    0.40
   6   7   2    2.77    0.37
  -6   7  -2    2.72    0.45
  -7  -7  -2    0.11    0.14
   7   7   2    0.10    0.16
  -7   7  -2    0.39    0.24
  -8  -7  -2    8.12    0.71
   8   7   2    8.08    0.70
  -8   7  -2    8.05    0.84
  -8  -8   2    0.15    0.16
   8   8  -2   -0.02    0.18
  -8   8   2    0.14    0.23
  -7  -8   2   18.17    1.20
  -7   8   2   17.31    1.40
   7   8  -2   21.92    1.32
   6  -8  -2    0.37    0.14
  -6  -8   2    0.09    0.11
   6   8  -2    0.25    0.15
  -6   8   2   -0.08    0.15
  -5  -8   2    7.12    0.51
   5  -8  -2    6.18    0.48
   5   8  -2    6.44    0.55
  -5   8   2    5.57    0.71
  -4  -8   2   -0.14    0.16
   4  -8  -2    0.19    0.09
  -4   8   2   -0.05    0.14
   4   8  -2    0.24    0.14
  -3  -8   2  181.78    8.69
   3  -8  -2  152.02    8.50
  -3   8   2  158.67    8.74
   3   8  -2  161.90    8.56
   2  -8  -2   14.96    0.94
  -2  -8   2   16.86    0.94
  -2  -8   2   17.05    1.08
   2   8  -2   15.83    0.98
  -1  -8   2    6.26    0.42
   1  -8  -2    6.20    0.44
   1   8  -2    6.24    0.44
  -1   8   2    6.47    0.43
   0  -8   2    3.01    0.23
   0  -8  -2    2.64    0.26
   0   8  -2    2.47    0.23
   0   8   2    2.63    0.27
  -1  -8  -2   25.19    1.44
   1  -8   2   25.43    1.42
  -1   8  -2   26.84    1.41
   1   8   2   25.57    1.48
  -2  -8  -2    0.03    0.06
   2  -8   2   -0.02    0.06
   2   8   2    0.00    0.09
  -2   8  -2   -0.06    0.12
  -3  -8  -2    8.88    0.60
   3  -8   2    9.36    0.57
  -3   8  -2    9.36    0.75
   3   8   2    8.70    0.65
   4  -8   2    1.56    0.19
   4   8   2    1.74    0.28
  -4   8  -2    1.43    0.31
   5  -8   2    3.59    0.30
  -5  -8  -2    4.06    0.42
  -5   8  -2    3.41    0.51
   5   8   2    2.94    0.39
  -6  -8  -2    0.39    0.16
  -6   8  -2    0.16    0.22
   6   8   2    0.41    0.18
  -7  -8  -2    3.57    0.43
   7   8   2    2.44    0.40
  -7   8  -2    2.12    0.45
  -8  -8  -2    0.09    0.15
   8   8   2   -0.12    0.17
  -8   8  -2    0.26    0.22
  -8  -9   2    0.63    0.21
  -7  -9   2    0.40    0.17
  -7   9   2    0.47    0.27
   7   9  -2    0.22    0.18
  -6  -9   2    0.02    0.11
   6  -9  -2    0.45    0.14
  -6   9   2    0.00    0.19
   6   9  -2    0.15    0.15
   5  -9  -2    5.28    0.43
  -5   9   2    4.16    0.62
   5   9  -2    6.35    0.53
   4  -9  -2    0.38    0.13
  -4   9   2    0.72    0.29
   4   9  -2    0.50    0.16
   3  -9  -2    0.18    0.10
  -3  -9   2    0.32    0.19
  -3   9   2    0.03    0.16
   3   9  -2    0.37    0.14
   2  -9  -2    0.33    0.11
  -2  -9   2    0.16    0.09
   2   9  -2    0.22    0.11
   1  -9  -2   11.30    0.77
  -1  -9   2   13.45    0.77
   1   9  -2   12.54    0.78
  -1   9   2   13.09    0.76
   0  -9   2    0.15    0.08
   0  -9  -2   -0.05    0.06
   0   9   2    0.00    0.08
   0   9  -2    0.05    0.07
   1  -9   2    0.39    0.10
  -1  -9  -2    0.24    0.10
   1   9   2    0.24    0.12
   2  -9   2    0.51    0.11
  -2  -9  -2    0.40    0.12
   2   9   2    0.22    0.13
  -2   9  -2    0.47    0.19
   3  -9   2   19.06    1.12
  -3  -9  -2   18.17    1.14
  -3   9  -2   21.49    1.37
   3   9   2   20.32    1.23
   4  -9   2    0.82    0.15
  -4  -9  -2    0.91    0.18
   4   9   2    1.46    0.26
  -4   9  -2    1.04    0.28
   5  -9   2    6.45    0.47
   5   9   2    6.32    0.56
  -5   9  -2    5.84    0.71
  -6  -9  -2    0.15    0.13
  -6   9  -2    0.08    0.20
   6   9   2    0.00    0.13
  -7  -9  -2    0.31    0.18
  -7   9  -2    0.21    0.25
   7   9   2    0.55    0.24
   7  10  -2    1.73    0.35
  -7  10   2    0.76    0.34
   6 -10  -2    0.12    0.12
  -6  10   2   -0.23    0.19
   6  10  -2    0.11    0.16
   5 -10  -2   -0.01    0.09
   5  10  -2    0.10    0.14
  -5  10   2    0.21    0.24
   4 -10  -2    0.08    0.09
   4  10  -2    0.16    0.14
  -4  10   2    0.28    0.24
   3 -10  -2    7.97    0.58
  -3 -10   2    8.92    0.59
  -3  10   2    7.20    0.83
   3  10  -2    9.09    0.65
   2 -10  -2   12.26    0.85
  -2 -10   2   15.98    0.87
   2  10  -2   13.80    0.90
   1 -10  -2    3.00    0.31
  -1 -10   2    2.94    0.30
   1  10  -2    2.81    0.31
   0 -10   2    6.51    0.46
   0 -10  -2    6.52    0.48
   0  10   2    6.22    0.47
   0  10  -2    7.11    0.49
  -1 -10  -2    2.26    0.27
   1 -10   2    2.22    0.25
   1  10   2    2.20    0.28
  -2 -10  -2    9.94    0.65
   2 -10   2    9.55    0.61
  -2  10  -2    9.36    0.81
   2  10   2    8.83    0.67
  -3 -10  -2    1.82    0.25
   3 -10   2    2.18    0.24
   3  10   2    2.01    0.29
  -3  10  -2    0.88    0.29
   4 -10   2    1.35    0.20
  -4 -10  -2    1.03    0.20
  -4  10  -2    1.74    0.38
   4  10   2    1.26    0.26
  -5 -10  -2    1.91    0.27
   5 -10   2    1.56    0.23
   5  10   2    1.14    0.27
  -5  10  -2    1.86    0.40
  -6  10  -2   -0.16    0.20
   6  10   2    0.03    0.14
  -7  10  -2    0.46    0.30
   6 -11  -2    1.10    0.22
   6  11  -2    0.92    0.28
  -6  11   2    0.21    0.29
  -5 -11   2    3.64    0.39
   5 -11  -2    4.14    0.41
  -5  11   2    3.80    0.65
   5  11  -2    3.44    0.45
   4 -11  -2    4.17    0.40
  -4 -11   2    3.66    0.39
  -4  11   2    3.27    0.57
   4  11  -2    4.08    0.46
  -3 -11   2    5.16    0.42
   3 -11  -2    4.99    0.42
   3  11  -2    5.72    0.49
  -3  11   2    4.67    0.67
  -2 -11   2    0.12    0.10
   2 -11  -2    0.12    0.10
   2  11  -2    0.27    0.13
  -1 -11   2    0.22    0.10
   1 -11  -2   -0.02    0.08
   1  11  -2   -0.02    0.09
   0 -11  -2    9.60    0.68
   0 -11   2   10.59    0.67
  -1 -11  -2    1.15    0.21
   1 -11   2    1.69    0.22
   1  11   2    1.29    0.22
  -2 -11  -2   -0.06    0.08
   2 -11   2   -0.04    0.07
   2  11   2    0.02    0.10
  -2  11  -2   -0.02    0.16
   3 -11   2    0.76    0.15
  -3 -11  -2    0.23    0.12
   3  11   2    0.53    0.18
  -3  11  -2    0.36    0.23
   4 -11   2    0.20    0.11
  -4 -11  -2    0.21    0.13
  -4  11  -2    0.15    0.22
   4  11   2    0.21    0.17
   5 -11   2    8.13    0.60
  -5 -11  -2    8.86    0.64
  -5  11  -2    8.54    0.93
   5  11   2    8.15    0.71
  -6 -11  -2   -0.01    0.12
   6  11   2    0.23    0.18
  -6  11  -2   -0.03    0.24
  -5 -12   2    0.63    0.18
   5 -12  -2    0.96    0.21
  -5  12   2    0.91    0.38
   5  12  -2    0.71    0.23
   4 -12  -2    0.81    0.19
  -4 -12   2    0.60    0.17
  -4  12   2    0.27    0.28
   4  12  -2    0.71    0.23
   3 -12  -2    1.24    0.22
  -3 -12   2    1.16    0.21
  -3  12   2    0.85    0.36
   3  12  -2    1.32    0.27
  -2 -12   2   -0.03    0.10
   2 -12  -2    0.01    0.10
   2  12  -2   -0.13    0.09
   1 -12  -2   -0.01    0.09
  -1 -12   2   -0.06    0.09
   0 -12  -2    2.41    0.30
   0 -12   2    2.52    0.29
  -1 -12  -2    0.11    0.10
   1 -12   2    0.02    0.09
   2 -12   2    5.02    0.42
  -2 -12  -2    5.42    0.45
  -2  12  -2    5.96    0.72
   2  12   2    5.22    0.49
  -3 -12  -2    0.60    0.17
   3 -12   2    0.71    0.16
   3  12   2    0.64    0.20
  -3  12  -2    0.86    0.34
  -4 -12  -2    3.66    0.41
   4 -12   2    3.72    0.37
   4  12   2    3.39    0.46
  -4  12  -2    5.11    0.70
  -5 -12  -2   -0.05    0.11
  -5  12  -2    0.47    0.31
   5  12   2   -0.09    0.17
  -4 -13   2    2.77    0.34
   4 -13  -2    2.65    0.35
   4  13  -2    2.11    0.36
  -4  13   2    1.87    0.51
  -3 -13   2    0.56    0.17
   3 -13  -2    0.63    0.18
   3  13  -2    0.08    0.16
  -3  13   2    0.18    0.27
  -2 -13   2    3.20    0.37
   2 -13  -2    3.32    0.38
  -1 -13   2    6.74    0.50
   1 -13  -2    5.59    0.49
   0 -13  -2    0.00    0.10
   0 -13   2   -0.03    0.10
  -1 -13  -2    2.68    0.35
   1 -13   2    2.50    0.30
  -2 -13  -2    1.05    0.22
   2 -13   2    0.99    0.19
  -2  13  -2    0.56    0.32
   3 -13   2    1.45    0.23
  -3 -13  -2    1.64    0.27
  -3  13  -2    1.97    0.48
   3  13   2    1.58    0.31
  -4 -13  -2   -0.02    0.12
  -4  13  -2    0.17    0.28
   4  13   2    0.09    0.17
  -3 -14   2    2.58    0.41
   2 -14  -2    0.26    0.15
  -2 -14   2    0.22    0.15
   1 -14  -2    0.52    0.18
  -1 -14   2    0.17    0.15
   0 -14  -2    0.55    0.17
   0 -14   2    0.36    0.15
  -1 -14  -2    0.67    0.20
   1 -14   2    0.77    0.18
  -1  14  -2    0.99    0.38
   2 -14   2    0.36    0.14
  -2 -14  -2    0.00    0.14
  -2  14  -2    0.13    0.32
  -3  14  -2    1.01    0.42
 -10   0   3   -0.02    0.17
 -10   0   3    0.05    0.47
  -9   0   3    0.84    0.27
  -8   0   3   -0.05    0.12
   7   0  -3    8.77    0.64
  -7   0   3   10.00    0.74
   6   0  -3    0.05    0.09
  -6   0   3   -0.03    0.11
   6   0  -3    0.01    0.07
   5   0  -3    0.94    0.13
   5   0  -3    1.18    0.17
  -5   0   3    1.06    0.20
   4   0  -3   -0.01    0.05
   4   0  -3   -0.04    0.05
  -4   0   3   -0.03    0.06
  -3   0   3    5.80    0.39
   3   0  -3    5.05    0.33
  -2   0   3   -0.03    0.05
   2   0  -3    0.03    0.04
  -1   0   3  104.32    5.53
   1   0  -3  110.98    5.54
  -1   0   3  106.14    5.66
   0   0   3    0.07    0.08
   0   0  -3    0.07    0.02
   0   0  -3    0.03    0.03
   0   0   3    0.12    0.02
   0   0   3    0.04    0.02
   1   0   3  470.72   24.48
  -1   0  -3  481.43   24.41
  -1   0  -3  474.48   24.43
  -2   0  -3    0.00    0.03
  -2   0  -3   -0.06    0.04
   2   0   3    0.09    0.08
   3   0   3   31.84    1.84
  -3   0  -3   35.55    1.86
   4   0   3    0.08    0.08
  -4   0  -3   -0.05    0.06
  -5   0  -3   88.85    4.82
   5   0   3   90.91    4.74
  -6   0  -3   -0.07    0.09
   6   0   3    0.03    0.08
  -7   0  -3   13.79    0.96
   7   0   3   13.11    0.84
  -8   0  -3    0.01    0.13
  -9   0  -3   12.77    0.99
 -10  -1   3    0.00    0.19
 -10  -1   3    0.31    0.48
 -10   1   3    0.19    0.26
  -9  -1   3    1.22    0.30
  -9  -1   3    1.75    0.60
  -9   1   3    1.90    0.36
  -8  -1   3    0.19    0.17
   8   1  -3    0.09    0.13
  -8   1   3    0.30    0.18
  -7  -1   3   14.75    0.94
   7   1  -3   12.29    0.85
  -7   1   3   12.55    0.93
  -6  -1   3   27.95    1.65
   6  -1  -3   27.30    1.51
   6   1  -3   28.18    1.60
   6   1  -3   27.23    1.53
  -6   1   3   28.99    1.68
   5  -1  -3    8.29    0.49
  -5  -1   3    8.29    0.58
   5   1  -3    8.34    0.50
   5   1  -3    7.35    0.54
  -5   1   3    7.33    0.58
  -4  -1   3    2.13    0.25
   4  -1  -3    1.94    0.17
   4   1  -3    2.17    0.23
  -4   1   3    2.14    0.27
   4   1  -3    2.22    0.19
   3  -1  -3    3.23    0.22
  -3  -1   3    3.45    0.44
  -3  -1   3    2.97    0.26
   3   1  -3    2.94    0.25
  -3   1   3    3.04    0.28
   3   1  -3    2.98    0.22
   2  -1  -3  192.52    9.78
  -2  -1   3  187.04    9.97
  -2  -1   3  190.56    9.79
   2  -1  -3  192.08    9.78
   2   1  -3  187.45    9.78
  -2   1   3  188.93    9.82
   1  -1  -3   37.60    1.89
  -1  -1   3   37.47    2.04
   1  -1  -3   37.77    1.91
   1   1  -3   34.43    1.88
   1   1  -3   34.20    1.90
   0  -1  -3  204.10   10.19
   0  -1  -3  188.61   10.21
   0  -1   3  193.96   10.30
   0   1  -3  184.64   10.20
   0   1   3  221.35   10.27
  -1  -1  -3    2.91    0.21
  -1  -1  -3    3.16    0.21
   1   1   3    3.31    0.29
  -1   1  -3    2.80    0.21
  -1   1  -3    3.52    0.20
   2  -1   3    1.25    0.17
  -2  -1  -3    0.98    0.14
  -2   1  -3    1.30    0.16
  -2   1  -3    1.18    0.09
   2   1   3    1.25    0.18
  -3  -1  -3   68.46    3.83
   3  -1   3   68.39    3.81
  -3   1  -3   75.20    3.85
   3   1   3   77.72    3.85
  -4  -1  -3    4.58    0.39
   4  -1   3    4.80    0.35
  -4   1  -3    4.83    0.40
   4   1   3    4.78    0.37
  -5  -1  -3   59.17    3.29
   5  -1   3   61.30    3.20
   5   1   3   58.89    3.23
  -5   1  -3   61.28    3.30
  -6  -1  -3    1.33    0.26
   6  -1   3    1.28    0.19
  -6   1  -3    0.99    0.23
   6   1   3    1.69    0.23
  -7  -1  -3    2.61    0.39
   7   1   3    3.60    0.36
  -7   1  -3    3.11    0.41
  -8  -1  -3    1.28    0.29
   8   1   3    1.87    0.27
  -8   1  -3    1.76    0.33
  -9  -1  -3   -0.01    0.14
  -9   1  -3    0.08    0.16
 -10  -2   3    1.65    0.36
 -10  -2   3    0.66    0.54
  -9  -2   3    4.26    0.86
  -9  -2   3    4.75    0.58
   9   2  -3    4.82    0.51
  -9   2   3    4.74    0.60
  -8  -2   3   12.25    0.85
  -8  -2   3   10.42    1.21
   8   2  -3    9.33    0.75
  -8   2   3   10.90    0.86
  -7  -2   3    8.71    0.69
  -7  -2   3   10.16    1.10
  -7   2   3    7.95    0.70
   7   2  -3    8.27    0.64
   7   2  -3   10.15    0.60
  -6  -2   3   10.22    0.98
  -6  -2   3   11.08    0.78
  -6   2   3    9.86    0.79
   6   2  -3   12.60    0.70
   6   2  -3   11.12    0.75
   5  -2  -3   25.35    1.39
  -5  -2   3   27.00    1.75
  -5  -2   3   26.85    1.50
   5   2  -3   25.29    1.43
   5   2  -3   26.85    1.49
  -5   2   3   24.64    1.54
  -4  -2   3    8.72    0.77
  -4  -2   3    9.41    0.60
   4  -2  -3    9.38    0.53
  -4   2   3    8.50    0.63
   4   2  -3    9.27    0.60
  -3  -2   3   10.46    0.79
  -3  -2   3   10.62    0.61
   3  -2  -3    9.79    0.60
   3  -2  -3   10.07    0.58
   3   2  -3    9.42    0.62
  -3   2   3   10.94    0.67
  -2  -2   3   75.84    4.03
   2  -2  -3   76.77    3.85
   2  -2  -3   72.61    3.83
  -2  -2   3   72.02    3.83
   2   2  -3   70.56    3.87
  -2   2   3   75.76    3.91
   1  -2  -3   25.20    1.36
  -1  -2   3   25.28    1.34
  -1  -2   3   24.32    1.50
   1  -2  -3   27.32    1.38
   1   2  -3   26.19    1.35
   0  -2  -3   28.65    1.57
   0  -2  -3   30.57    1.55
   0  -2   3   29.18    1.67
   0   2   3   31.17    1.61
   0   2  -3   29.12    1.54
   0   2  -3   29.14    1.56
   0   2   3   28.66    1.64
   1  -2   3  112.63    5.56
  -1  -2  -3  109.59    5.62
  -1  -2  -3  105.44    5.59
  -1   2  -3  111.84    5.56
  -1   2  -3  105.07    5.58
  -1   2  -3  113.15    5.62
   1   2   3   99.45    5.68
  -2  -2  -3   53.29    2.88
   2  -2   3   55.98    2.89
  -2   2  -3   57.79    2.82
   2   2   3   51.04    2.92
  -2   2  -3   52.92    2.89
  -3  -2  -3   11.18    0.70
   3  -2   3   11.20    0.66
  -3   2  -3   11.08    0.70
   3   2   3   11.07    0.71
  -4  -2  -3    0.34    0.12
   4  -2   3    0.19    0.08
  -4   2  -3    0.23    0.12
   4   2   3    0.16    0.09
   5  -2   3   20.10    1.09
  -5  -2  -3   18.51    1.19
  -5   2  -3   19.11    1.20
   5   2   3   19.04    1.15
   6  -2   3    4.38    0.33
  -6  -2  -3    3.87    0.44
   6   2   3    5.12    0.40
  -6   2  -3    4.18    0.48
  -7  -2  -3    2.45    0.38
   7   2   3    3.64    0.37
  -7   2  -3    2.24    0.37
  -8  -2  -3    6.27    0.68
   8   2   3    7.89    0.59
  -8   2  -3    7.58    0.67
  -9  -2  -3    0.42    0.21
  -9   2  -3    1.05    0.28
  -9  -3   3    2.26    0.38
  -9  -3   3    2.53    0.67
  -9   3   3    2.09    0.41
   9   3  -3    2.34    0.36
  -8  -3   3    0.24    0.16
  -8  -3   3    0.11    0.31
   8   3  -3    0.07    0.13
  -8   3   3    0.10    0.18
  -7  -3   3   11.42    0.76
  -7  -3   3    9.68    1.08
  -7   3   3    8.69    0.76
   7   3  -3    9.83    0.64
   7   3  -3   10.15    0.73
  -6  -3   3   37.06    2.02
  -6  -3   3   33.05    2.28
  -6   3   3   34.26    2.09
   6   3  -3   36.17    2.01
  -5  -3   3    2.28    0.27
  -5  -3   3    2.05    0.42
   5  -3  -3    2.27    0.18
  -5   3   3    2.11    0.32
   5   3  -3    2.65    0.29
   4  -3  -3    0.16    0.05
   4  -3  -3    0.07    0.06
  -4  -3   3    0.22    0.08
  -4  -3   3    0.25    0.19
   4   3  -3    0.12    0.07
  -4   3   3    0.12    0.11
  -3  -3   3    2.54    0.37
   3  -3  -3    2.21    0.17
  -2  -3   3  133.20    6.83
  -2  -3   3  134.94    7.03
   2  -3  -3  131.92    6.85
   2  -3  -3  128.93    6.84
   2   3  -3  133.29    6.88
  -1  -3   3    0.22    0.13
   1  -3  -3    0.08    0.05
   1  -3  -3    0.12    0.05
   1   3  -3    0.13    0.05
  -1   3   3    0.29    0.11
   0  -3   3    0.13    0.03
   0  -3  -3    0.18    0.05
   0  -3   3    0.14    0.09
   0   3   3    0.11    0.09
  -1  -3  -3   16.49    0.94
   1  -3   3   17.62    0.89
  -1  -3  -3   17.13    0.91
  -1   3  -3   17.16    0.90
   1   3   3   15.18    0.98
  -1   3  -3   15.97    0.94
  -2  -3  -3   17.60    1.07
   2  -3   3   19.22    1.01
   2   3   3   18.63    1.12
  -2   3  -3   18.90    1.09
  -2   3  -3   20.12    1.01
  -3  -3  -3    9.20    0.62
   3  -3   3   10.72    0.58
  -3   3  -3   10.03    0.65
   3   3   3    9.13    0.65
  -4  -3  -3    0.64    0.14
   4  -3   3    0.44    0.09
   4   3   3    0.54    0.14
  -4   3  -3    0.28    0.12
  -5  -3  -3    0.13    0.10
   5  -3   3    0.02    0.05
  -5   3  -3   -0.01    0.09
   5   3   3    0.11    0.11
  -6  -3  -3    0.95    0.22
  -6   3  -3    1.00    0.24
   6   3   3    1.19    0.21
  -7  -3  -3   -0.02    0.11
   7   3   3    0.07    0.11
  -7   3  -3   -0.09    0.11
  -8  -3  -3    0.01    0.12
   8   3   3    0.09    0.13
  -8   3  -3    0.14    0.16
  -9  -3  -3    1.55    0.34
   9   3   3    1.62    0.30
  -9   3  -3    1.43    0.33
  -9  -4   3    6.45    0.68
  -9  -4   3    6.69    1.35
   9   4  -3    6.48    0.60
  -9   4   3    6.11    0.73
  -8  -4   3    2.37    0.58
  -8  -4   3    2.42    0.36
  -8   4   3    2.05    0.39
   8   4  -3    2.03    0.33
  -7  -4   3    0.46    0.34
  -7  -4   3    1.41    0.25
   7   4  -3    0.78    0.20
  -7   4   3    1.01    0.26
  -6  -4   3    5.58    0.45
  -6  -4   3    5.11    0.72
   6   4  -3    5.02    0.45
  -6   4   3    5.27    0.57
  -5  -4   3    5.84    0.71
   5  -4  -3    6.56    0.40
  -5  -4   3    6.96    0.48
  -5   4   3    5.60    0.54
   5   4  -3    6.83    0.51
   4  -4  -3   19.18    0.99
   4  -4  -3   17.17    1.03
  -4  -4   3   18.27    1.26
  -4  -4   3   17.46    1.03
  -4   4   3   17.81    1.15
   4   4  -3   17.75    1.07
  -3  -4   3   33.64    1.80
  -3  -4   3   32.30    2.00
   3  -4  -3   33.65    1.81
   3  -4  -3   35.34    1.79
   3   4  -3   33.08    1.84
  -3   4   3   31.42    1.91
   2  -4  -3   15.87    0.90
   2  -4  -3   16.58    0.90
  -2  -4   3   14.62    1.05
  -2  -4   3   16.44    0.88
   2   4  -3   17.49    0.93
  -2   4   3   14.07    0.93
  -1  -4   3    1.21    0.23
   1  -4  -3    1.24    0.13
   1   4  -3    1.13    0.14
  -1   4   3    1.17    0.18
   0  -4   3  122.18    6.13
   0  -4   3  117.68    6.28
   0  -4  -3  120.37    6.16
   0   4   3  114.99    6.23
   1  -4   3   50.14    2.48
  -1  -4  -3   48.05    2.51
   1   4   3   47.27    2.59
  -1   4  -3   44.64    2.55
  -2  -4  -3   96.03    5.22
   2  -4   3  103.20    5.16
  -2   4  -3   98.60    5.25
   2   4   3   93.40    5.27
  -2   4  -3  106.16    5.15
  -3  -4  -3   16.86    1.05
   3  -4   3   17.04    0.97
   3  -4   3   21.17    0.98
   3   4   3   16.07    1.07
  -3   4  -3   16.70    1.07
  -4  -4  -3   22.55    1.41
  -4  -4  -3   24.08    1.37
  -4   4  -3   26.48    1.47
   4   4   3   24.35    1.43
  -5  -4  -3    0.19    0.11
   5   4   3    0.12    0.12
  -5   4  -3    0.02    0.12
  -6  -4  -3    1.97    0.30
   6   4   3    1.86    0.28
  -6   4  -3    2.00    0.33
  -7  -4  -3    5.92    0.54
   7   4   3    5.36    0.48
  -7   4  -3    4.80    0.57
  -8  -4  -3    2.07    0.36
  -8   4  -3    2.29    0.40
   8   4   3    2.87    0.37
  -9  -4  -3    0.33    0.19
   9   4   3    0.40    0.20
  -9   4  -3    0.22    0.22
  -9  -5   3    1.87    0.33
  -9   5   3    1.78    0.39
   9   5  -3    1.74    0.34
  -8  -5   3    0.34    0.36
  -8  -5   3    1.05    0.24
   8   5  -3    0.91    0.20
  -8   5   3    0.90    0.28
   8   5  -3    0.23    0.17
  -7  -5   3    4.07    0.43
  -7  -5   3    3.12    0.61
  -7   5   3    4.52    0.57
   7   5  -3    3.26    0.40
  -6  -5   3   11.89    1.01
  -6  -5   3   11.09    0.75
   6   5  -3   11.97    0.80
  -6   5   3   10.21    0.86
  -5  -5   3    8.33    0.82
  -5  -5   3    9.75    0.62
   5  -5  -3   10.11    0.62
  -5   5   3    9.51    0.75
   5   5  -3    8.18    0.64
  -4  -5   3   21.72    1.19
   4  -5  -3   20.51    1.19
  -4  -5   3   19.99    1.39
  -4   5   3   20.03    1.17
   4   5  -3   21.62    1.25
  -4   5   3   20.31    1.32
   3  -5  -3    5.33    0.36
  -3  -5   3    5.59    0.36
  -3  -5   3    4.97    0.57
   3   5  -3    4.93    0.39
  -3   5   3    4.11    0.47
  -3   5   3    5.05    0.37
   2  -5  -3    4.85    0.32
  -2  -5   3    4.65    0.46
  -2   5   3    4.44    0.34
   2   5  -3    4.07    0.33
   1  -5  -3    0.56    0.10
  -1  -5   3    0.57    0.17
  -1   5   3    0.58    0.13
   1   5  -3    0.52    0.10
   0  -5   3   15.04    0.81
   0  -5  -3   14.71    0.83
   0   5   3   14.08    0.89
  -1  -5  -3   13.57    0.82
   1  -5   3   15.08    0.80
   1   5   3   14.60    0.90
  -1   5  -3   15.28    0.89
  -2  -5  -3    2.39    0.20
   2  -5   3    2.63    0.18
  -2  -5  -3    2.51    0.23
   2   5   3    2.08    0.28
  -2   5  -3    2.35    0.28
   3  -5   3   22.21    1.22
  -3  -5  -3   22.03    1.30
  -3   5  -3   22.18    1.34
  -3   5  -3   23.98    1.19
   3   5   3   21.14    1.33
  -4  -5  -3    7.99    0.57
   4   5   3    7.91    0.59
  -4   5  -3    7.85    0.61
  -5  -5  -3   45.61    2.49
  -5   5  -3   43.30    2.54
   5   5   3   44.04    2.49
  -6  -5  -3   14.04    0.95
   6   5   3   14.99    0.94
  -6   5  -3   12.22    0.96
  -7  -5  -3    3.30    0.42
   7   5   3    2.19    0.33
  -7   5  -3    2.23    0.38
  -8  -5  -3    0.68    0.22
   8   5   3    0.44    0.19
  -8   5  -3    0.30    0.21
  -9  -5  -3    5.80    0.94
   9   5   3    4.88    0.55
  -9   5  -3    4.93    0.63
  -9  -6   3    5.35    0.58
   9   6  -3    4.89    0.60
  -9   6   3    5.96    0.87
  -8  -6   3    3.58    0.42
   8   6  -3    2.55    0.39
  -8   6   3    2.64    0.48
  -7  -6   3    2.08    0.29
  -7  -6   3    1.41    0.42
  -7   6   3    1.79    0.37
   7   6  -3    1.73    0.30
  -6  -6   3    0.69    0.29
  -6  -6   3    0.79    0.16
  -6   6   3    0.47    0.22
   6   6  -3    0.61    0.19
   5  -6  -3   29.92    1.74
  -5  -6   3   31.24    1.99
  -5  -6   3   34.48    1.76
  -5   6   3   29.24    1.91
   5   6  -3   28.97    1.80
   4  -6  -3    0.19    0.08
  -4  -6   3    0.07    0.20
  -4  -6   3    0.18    0.09
  -4   6   3    0.37    0.18
   4   6  -3    0.24    0.11
   3  -6  -3    9.56    0.62
  -3  -6   3    9.94    0.61
  -3  -6   3   10.16    0.80
  -3   6   3    9.69    0.76
  -3   6   3   10.43    0.61
   3   6  -3    9.55    0.65
  -2  -6   3    0.14    0.14
   2  -6  -3    0.08    0.06
   2   6  -3    0.10    0.08
  -2   6   3    0.12    0.08
   1  -6  -3   68.33    3.72
  -1  -6   3   70.70    3.86
  -1  -6   3   71.69    3.70
   1   6  -3   72.92    3.74
  -1   6   3   70.06    3.76
   0  -6  -3    0.99    0.13
   0  -6   3    1.03    0.12
   0   6   3    1.19    0.19
   0   6  -3    1.05    0.14
  -1  -6  -3   19.34    1.09
   1  -6   3   18.68    1.06
   1   6   3   20.67    1.17
   2  -6   3   26.44    1.40
  -2  -6  -3   25.24    1.42
   2   6   3   25.36    1.51
  -2   6  -3   26.38    1.53
  -3  -6  -3    0.88    0.15
   3  -6   3    0.87    0.12
   3   6   3    0.55    0.16
  -3   6  -3    0.67    0.19
  -3   6  -3    0.98    0.10
  -4  -6  -3    0.83    0.17
   4  -6   3    0.81    0.12
  -4   6  -3    0.72    0.21
   4   6   3    0.79    0.19
  -5  -6  -3    1.57    0.25
  -5   6  -3    1.68    0.30
   5   6   3    1.99    0.29
  -6  -6  -3    7.84    0.63
  -6   6  -3    7.16    0.66
   6   6   3    8.00    0.63
  -7  -6  -3    2.09    0.34
  -7   6  -3    0.97    0.28
   7   6   3    1.74    0.30
  -8  -6  -3    0.07    0.13
   8   6   3   -0.03    0.14
  -8   6  -3    0.25    0.22
  -8  -7   3   -0.01    0.14
   8   7  -3   -0.10    0.15
  -8   7   3    0.24    0.24
  -7  -7   3   -0.07    0.10
   7   7  -3    0.05    0.14
  -7   7   3   -0.04    0.20
   6  -7  -3    4.86    0.42
  -6  -7   3    5.38    0.71
  -6  -7   3    5.27    0.43
   6   7  -3    5.19    0.53
  -6   7   3    4.65    0.61
  -5  -7   3    0.00    0.20
   5  -7  -3   -0.09    0.08
  -5  -7   3    0.13    0.09
   5   7  -3    0.05    0.11
  -5   7   3    0.12    0.18
  -4  -7   3   24.96    1.36
  -4  -7   3   22.28    1.55
   4  -7  -3   21.60    1.34
  -4   7   3   23.60    1.55
   4   7  -3   25.62    1.43
   3  -7  -3    0.41    0.11
  -3  -7   3    0.38    0.20
   3   7  -3    0.37    0.12
  -3   7   3    0.13    0.14
  -2  -7   3    3.05    0.42
   2  -7  -3    3.37    0.28
   2   7  -3    3.38    0.30
  -2   7   3    3.46    0.28
   1  -7  -3   30.61    1.79
  -1  -7   3   35.60    1.96
  -1  -7   3   33.81    1.77
   1   7  -3   31.81    1.80
  -1   7   3   33.38    1.82
   0  -7   3   12.55    0.72
   0  -7  -3   11.87    0.74
   0   7  -3   12.30    0.73
   0   7   3   12.70    0.79
  -1  -7  -3    6.21    0.44
   1  -7   3    7.05    0.42
   1   7   3    6.44    0.50
  -2  -7  -3    0.62    0.12
   2  -7   3    0.36    0.09
  -2   7  -3    0.27    0.13
   2   7   3    0.46    0.16
  -3  -7  -3   -0.05    0.05
   3  -7   3    0.00    0.05
   3   7   3    0.03    0.11
  -3   7  -3   -0.04    0.10
  -4  -7  -3    0.02    0.08
   4  -7   3    0.05    0.07
   4   7   3   -0.02    0.10
  -4   7  -3    0.02    0.12
  -5  -7  -3   17.34    1.08
   5   7   3   16.83    1.10
  -5   7  -3   16.02    1.16
  -6  -7  -3    0.35    0.16
  -6   7  -3    0.55    0.24
   6   7   3    0.29    0.16
  -7  -7  -3    3.68    0.46
   7   7   3    3.48    0.44
  -7   7  -3    3.49    0.51
  -8  -7  -3    3.54    0.47
   8   7   3    2.96    0.44
  -8   7  -3    3.19    0.52
  -8  -8   3    0.93    0.26
  -8   8   3    0.49    0.30
   8   8  -3    0.94    0.27
  -7  -8   3    0.02    0.11
  -7   8   3   -0.16    0.17
   7   8  -3    0.05    0.15
   6  -8  -3    4.42    0.42
  -6  -8   3    4.06    0.37
  -6   8   3    4.04    0.60
   6   8  -3    3.63    0.45
  -5  -8   3    2.87    0.48
  -5  -8   3    3.04    0.31
   5  -8  -3    2.14    0.28
  -5   8   3    2.35    0.45
   5   8  -3    2.88    0.36
   4  -8  -3   37.31    2.16
  -4  -8   3   42.35    2.40
  -4   8   3   39.57    2.42
   4   8  -3   38.80    2.23
  -3  -8   3    0.18    0.19
   3  -8  -3    0.12    0.08
   3   8  -3   -0.05    0.10
  -3   8   3   -0.18    0.14
  -2  -8   3   21.38    1.14
   2  -8  -3   18.25    1.15
  -2  -8   3   20.08    1.31
   2   8  -3   20.11    1.18
  -2   8   3   20.33    1.14
   1  -8  -3    0.11    0.08
  -1  -8   3    0.07    0.07
   1   8  -3    0.13    0.08
  -1   8   3    0.04    0.08
   0  -8  -3   62.76    3.48
   0  -8   3   67.00    3.46
   0   8  -3   67.64    3.48
   0   8   3   64.69    3.52
   1  -8   3   27.22    1.53
  -1  -8  -3   28.59    1.57
   1   8   3   28.68    1.63
  -2  -8  -3   12.89    0.79
   2  -8   3   13.00    0.75
   2   8   3   12.78    0.85
  -2   8  -3   12.55    0.91
  -3  -8  -3    2.14    0.24
   3  -8   3    1.77    0.20
   3   8   3    2.01    0.29
  -3   8  -3    2.59    0.39
   4  -8   3    1.79    0.21
  -4   8  -3    1.93    0.35
   4   8   3    1.72    0.28
  -5  -8  -3    0.85    0.20
   5  -8   3    0.65    0.13
  -5   8  -3    1.95    0.36
   5   8   3    0.64    0.21
  -6  -8  -3    1.36    0.26
   6   8   3    0.79    0.22
  -6   8  -3    0.90    0.30
  -7  -8  -3    0.08    0.14
   7   8   3    0.03    0.17
  -7   8  -3    0.27    0.23
  -8   8  -3    1.10    0.35
  -7  -9   3    1.28    0.28
  -7   9   3    1.28    0.39
   7   9  -3    1.30    0.29
   6  -9  -3    0.15    0.12
   6   9  -3   -0.06    0.12
  -6   9   3    0.00    0.21
   5  -9  -3    1.11    0.20
   5   9  -3    0.91    0.23
  -5   9   3    0.99    0.33
  -4  -9   3    0.58    0.25
   4  -9  -3    0.60    0.14
  -4   9   3    0.84    0.29
   4   9  -3    0.36    0.15
  -3  -9   3    0.05    0.20
   3  -9  -3    0.13    0.10
   3   9  -3    0.36    0.14
  -3   9   3    0.32    0.21
  -2  -9   3    3.97    0.31
   2  -9  -3    3.53    0.34
   2   9  -3    3.83    0.34
   1  -9  -3    0.74    0.15
  -1  -9   3    1.24    0.17
  -1   9   3    1.31    0.19
   1   9  -3    1.42    0.20
   0  -9   3    2.78    0.26
   0  -9  -3    2.99    0.29
   0   9  -3    2.36    0.25
   0   9   3    2.48    0.28
   1  -9   3    3.61    0.30
  -1  -9  -3    4.29    0.34
   1   9   3    4.29    0.38
   2  -9   3    3.96    0.29
  -2  -9  -3    3.19    0.33
  -2   9  -3    3.50    0.47
   2   9   3    3.47    0.39
   3  -9   3    1.73    0.20
  -3  -9  -3    1.59    0.22
  -3   9  -3    2.01    0.36
   3   9   3    1.22    0.25
   4  -9   3    2.13    0.23
  -4  -9  -3    2.21    0.26
  -4   9  -3    1.82    0.37
   4   9   3    1.71    0.31
  -5  -9  -3    1.56    0.23
   5  -9   3    1.46    0.21
   5   9   3    1.41    0.28
  -5   9  -3    1.34    0.34
  -6  -9  -3    3.68    0.45
   6   9   3    4.43    0.51
  -6   9  -3    5.23    0.65
  -7  -9  -3    3.00    0.42
  -7   9  -3    2.72    0.51
   7   9   3    2.46    0.41
   7  10  -3    2.38    0.42
  -7  10   3    2.11    0.59
   6 -10  -3    0.21    0.13
  -6  10   3    0.66    0.32
   6  10  -3    0.50    0.20
   5 -10  -3    3.85    0.40
   5  10  -3    3.68    0.45
  -5  10   3    4.40    0.66
   4 -10  -3    0.41    0.14
  -4  10   3    0.34    0.25
   4  10  -3    0.71    0.20
  -3 -10   3   -0.05    0.07
   3 -10  -3   -0.04    0.08
   3  10  -3   -0.06    0.09
  -3  10   3   -0.23    0.16
   2 -10  -3    1.25    0.21
  -2 -10   3    1.68    0.21
   2  10  -3    1.43    0.23
  -1 -10   3    0.07    0.08
   1 -10  -3    0.28    0.11
   1  10  -3    0.24    0.11
   0 -10  -3    3.35    0.34
   0 -10   3    3.14    0.30
   0  10   3    3.35    0.34
  -1 -10  -3    9.54    0.67
   1 -10   3   10.48    0.64
   1  10   3   10.57    0.72
  -2 -10  -3    7.71    0.57
   2 -10   3    8.18    0.54
   2  10   3    8.24    0.63
  -2  10  -3    8.58    0.74
  -3 -10  -3    0.03    0.09
   3 -10   3    0.06    0.08
  -3  10  -3    0.12    0.19
   3  10   3   -0.04    0.12
   4 -10   3   10.62    0.67
  -4 -10  -3   10.23    0.71
   4  10   3   10.60    0.79
  -4  10  -3   10.12    0.89
  -5 -10  -3   -0.03    0.10
   5  10   3    0.11    0.14
  -5  10  -3   -0.05    0.19
  -6 -10  -3    3.30    0.38
   6  10   3    2.62    0.41
  -6  10  -3    3.54    0.57
  -7  10  -3   -0.14    0.23
   6 -11  -3    3.32    0.38
  -6  11   3    2.40    0.56
   6  11  -3    3.78    0.51
   5 -11  -3    0.61    0.17
  -5  11   3    0.32    0.28
   5  11  -3    0.56    0.22
   4 -11  -3    0.03    0.09
  -4 -11   3    0.12    0.11
   4  11  -3    0.36    0.17
  -4  11   3    0.16    0.23
   3 -11  -3    8.57    0.63
  -3 -11   3    9.41    0.63
   3  11  -3    9.07    0.68
  -3  11   3    8.87    0.98
  -2 -11   3    5.47    0.41
   2 -11  -3    4.43    0.44
   2  11  -3    5.33    0.46
   1 -11  -3    2.90    0.32
  -1 -11   3    3.30    0.32
   1  11  -3    3.00    0.34
   0 -11   3    0.26    0.11
   0 -11  -3    0.45    0.13
   1 -11   3    2.93    0.29
  -1 -11  -3    2.37    0.30
   1  11   3    2.77    0.34
  -2 -11  -3   -0.12    0.08
   2 -11   3    0.06    0.08
  -2  11  -3   -0.05    0.18
   2  11   3    0.21    0.14
  -3 -11  -3    1.64    0.24
   3 -11   3    1.74    0.22
  -3  11  -3    1.23    0.36
   3  11   3    1.50    0.27
  -4 -11  -3    0.26    0.12
  -4  11  -3    0.02    0.21
   4  11   3    0.50    0.20
  -5 -11  -3    6.20    0.53
  -5  11  -3    6.16    0.77
   5  11   3    6.74    0.62
  -6 -11  -3    0.17    0.14
   6  11   3    0.29    0.20
  -6  11  -3   -0.21    0.23
   5 -12  -3   -0.07    0.10
  -5 -12   3    0.31    0.15
  -5  12   3   -0.14    0.24
   5  12  -3    0.11    0.18
  -4 -12   3    8.63    0.60
   4 -12  -3    7.75    0.60
   4  12  -3    7.49    0.66
  -4  12   3    7.44    0.95
  -3 -12   3    1.08    0.20
   3 -12  -3    0.83    0.20
   3  12  -3    1.12    0.26
  -3  12   3    0.84    0.36
   2 -12  -3    0.07    0.11
  -2 -12   3   -0.07    0.09
   2  12  -3   -0.11    0.10
  -1 -12   3    0.70    0.16
   1 -12  -3    0.21    0.13
   0 -12   3    3.44    0.34
   0 -12  -3    3.03    0.36
  -1 -12  -3    0.62    0.17
   1 -12   3    1.10    0.19
  -1  12  -3    1.13    0.33
  -2 -12  -3    4.31    0.43
   2 -12   3    3.86    0.38
  -2  12  -3    4.90    0.65
   2  12   3    4.18    0.46
  -3 -12  -3    2.39    0.32
  -3  12  -3    2.53    0.48
   3  12   3    2.16    0.35
  -4 -12  -3    0.55    0.17
  -4  12  -3    0.01    0.26
   4  12   3    0.22    0.19
  -5 -12  -3   -0.05    0.13
  -5  12  -3    0.16    0.27
   5  12   3    0.10    0.16
   4 -13  -3    5.05    0.50
  -4 -13   3    5.11    0.49
   4  13  -3    5.87    0.62
  -4  13   3    4.49    0.77
  -3 -13   3    4.53    0.44
   3 -13  -3    3.83    0.42
   3  13  -3    4.56    0.59
  -3  13   3    3.28    0.65
  -2 -13   3    2.78    0.33
   2 -13  -3    2.59    0.34
   1 -13  -3    0.71    0.19
  -1 -13   3    0.96    0.19
   0 -13  -3    2.07    0.30
   0 -13   3    1.90    0.27
   1 -13   3    5.94    0.44
  -1 -13  -3    4.03    0.47
  -1  13  -3    6.43    0.78
  -2 -13  -3   10.11    0.74
  -2  13  -3   10.03    1.04
  -3 -13  -3    0.65    0.18
   3  13   3    0.64    0.23
  -3  13  -3    1.02    0.37
   4  13   3    0.06    0.16
  -4  13  -3    0.18    0.31
  -2 -14   3    1.44    0.26
   2 -14  -3    1.39    0.34
   1 -14  -3    0.55    0.19
  -1 -14   3    0.60    0.18
   0 -14  -3    0.46    0.17
   0 -14   3    0.16    0.13
  -1 -14  -3    0.38    0.15
 -10   0   4   12.48    1.01
 -10   0   4   11.61    1.94
  -9   0   4    0.02    0.16
  -9   0   4   -0.53    0.30
  -8   0   4   20.01    1.33
  -7   0   4    0.08    0.15
  -6   0   4  155.47    8.25
   6   0  -4  157.23    8.12
   5   0  -4    0.05    0.07
  -5   0   4    0.08    0.10
  -4   0   4   67.05    3.67
   4   0  -4   70.54    3.62
  -3   0   4   -0.16    0.13
  -3   0   4   -0.02    0.06
   3   0  -4    0.01    0.04
   2   0  -4    0.10    0.05
  -2   0   4    0.00    0.12
  -2   0   4   -0.01    0.05
   1   0  -4    0.04    0.04
  -1   0   4    0.01    0.04
  -1   0   4    0.08    0.12
   0   0  -4   57.76    3.19
   0   0   4   64.13    3.30
   0   0  -4   62.19    3.16
  -1   0  -4    0.07    0.02
  -1   0  -4    0.00    0.03
   1   0   4    0.04    0.07
   1   0   4   -0.05    0.09
  -1   0  -4    0.05    0.04
  -2   0  -4  452.24   22.76
  -2   0  -4  452.07   22.72
   2   0   4  422.51   22.81
   3   0   4   -0.07    0.08
  -3   0  -4   -0.02    0.06
   4   0   4   25.68    1.48
  -4   0  -4   26.47    1.51
  -5   0  -4    0.09    0.11
   5   0   4    0.03    0.08
   6   0   4   23.75    1.33
  -6   0  -4   21.28    1.40
  -7   0  -4   -0.02    0.12
   7   0   4    0.01    0.09
  -8   0  -4    6.89    0.63
  -9   0  -4   -0.08    0.15
 -10  -1   4    5.42    0.65
 -10  -1   4    5.94    1.07
 -10   1   4    4.61    0.70
  -9  -1   4    0.09    0.18
  -9  -1   4    1.12    0.55
  -9   1   4    0.10    0.19
  -8  -1   4    2.68    0.40
  -8  -1   4    2.79    0.68
  -8   1   4    2.22    0.39
  -7  -1   4    3.83    0.71
  -7  -1   4    3.29    0.42
  -7   1   4    3.59    0.44
   7   1  -4    2.97    0.37
   7   1  -4    4.00    0.32
  -6  -1   4    0.08    0.26
   6  -1  -4    0.12    0.08
  -6  -1   4   -0.07    0.11
  -6   1   4    0.02    0.11
   6   1  -4    0.20    0.10
   6   1  -4    0.09    0.10
   5  -1  -4    0.90    0.13
  -5  -1   4    1.11    0.34
  -5  -1   4    0.95    0.18
   5   1  -4    0.68    0.13
   5   1  -4    0.88    0.16
  -5   1   4    0.71    0.18
  -4  -1   4    7.42    0.71
  -4  -1   4    6.85    0.48
   4  -1  -4    6.53    0.43
   4   1  -4    7.08    0.44
  -4   1   4    6.29    0.50
  -3  -1   4    7.77    0.49
   3  -1  -4    7.16    0.47
  -3  -1   4    8.38    0.71
  -3   1   4    7.42    0.52
   3   1  -4    8.60    0.49
  -2  -1   4   15.86    0.85
  -2  -1   4   15.03    1.05
   2  -1  -4   14.44    0.85
   2  -1  -4   15.46    0.85
   2   1  -4   15.42    0.86
  -2   1   4   15.83    0.89
   1  -1  -4    7.94    0.46
  -1  -1   4    7.31    0.58
   1  -1  -4    8.00    0.44
   1   1  -4    7.50    0.46
  -1   1   4    7.81    0.59
   0  -1  -4    1.18    0.13
   0  -1  -4    1.43    0.10
   0  -1   4    1.74    0.24
   0   1  -4    1.21    0.12
   0   1   4    1.14    0.18
   1  -1   4  149.08    7.05
  -1  -1  -4  134.14    6.96
  -1  -1  -4  122.03    6.93
  -1  -1  -4  134.76    6.96
  -1   1  -4  137.42    6.96
  -1   1  -4  132.16    6.95
   1   1   4  121.11    7.06
   1   1   4  147.51    6.99
  -2  -1  -4    1.76    0.16
  -2  -1  -4    2.27    0.19
   2  -1   4    2.01    0.25
   2   1   4    1.31    0.22
  -2   1  -4    2.77    0.21
  -2   1  -4    2.13    0.15
   3  -1   4    4.41    0.36
  -3  -1  -4    4.53    0.35
  -3   1  -4    4.99    0.36
  -3   1  -4    4.22    0.27
   3   1   4    4.42    0.37
  -4  -1  -4    1.15    0.19
   4  -1   4    1.22    0.18
   4   1   4    1.05    0.19
  -4   1  -4    0.95    0.18
   5  -1   4    3.58    0.30
  -5  -1  -4    3.56    0.39
  -5   1  -4    2.79    0.35
   5   1   4    3.21    0.34
   6  -1   4   17.92    1.03
  -6  -1  -4   16.84    1.13
   6   1   4   16.34    1.05
  -6   1  -4   18.08    1.14
  -7  -1  -4    2.41    0.37
  -7   1  -4    2.35    0.37
   7   1   4    2.66    0.33
  -8  -1  -4    0.00    0.13
   8   1   4   -0.02    0.12
  -8   1  -4   -0.07    0.12
  -9  -1  -4    0.03    0.15
  -9   1  -4   -0.18    0.14
  -9  -2   4    0.56    0.22
  -9  -2   4    0.78    0.51
  -9   2   4    0.24    0.22
  -8  -2   4    4.92    0.85
  -8  -2   4    4.86    0.52
   8   2  -4    4.01    0.46
  -8   2   4    3.73    0.52
  -7  -2   4    1.32    0.45
  -7  -2   4    1.73    0.30
   7   2  -4    1.29    0.24
   7   2  -4    1.84    0.23
  -7   2   4    1.41    0.30
  -6  -2   4   16.93    1.40
   6  -2  -4   17.14    0.98
  -6  -2   4   18.91    1.12
   6   2  -4   18.09    1.10
   6   2  -4   17.33    1.03
  -6   2   4   17.01    1.15
  -5  -2   4   40.58    2.62
   5  -2  -4   39.80    2.22
  -5  -2   4   41.74    2.31
  -5   2   4   41.99    2.38
   5   2  -4   44.59    2.33
   5   2  -4   42.50    2.26
   4  -2  -4    9.94    0.56
  -4  -2   4    8.51    0.59
  -4  -2   4    9.40    0.84
   4   2  -4    9.06    0.62
  -4   2   4    9.54    0.66
   4   2  -4    9.78    0.58
   3  -2  -4  132.90    6.76
  -3  -2   4  125.41    7.02
  -3  -2   4  127.91    6.75
   3  -2  -4  138.10    6.75
   3   2  -4  125.05    6.76
  -3   2   4  134.11    6.84
   3   2  -4  127.87    6.80
  -2  -2   4   97.89    5.60
   2  -2  -4  112.37    5.40
  -2  -2   4  104.91    5.37
   2  -2  -4  103.88    5.40
  -2   2   4  103.74    5.46
   2   2  -4   99.89    5.40
  -1  -2   4   74.74    4.16
   1  -2  -4   75.45    4.00
   1  -2  -4   84.03    3.98
   1   2  -4   72.02    3.99
   0  -2  -4   24.51    1.28
   0  -2   4   23.54    1.42
   0  -2  -4   23.38    1.31
   0   2   4   25.55    1.43
   0   2   4   25.69    1.37
   0   2  -4   23.18    1.30
  -1  -2  -4   81.67    4.26
  -1  -2  -4   84.05    4.26
  -1  -2  -4   80.35    4.23
  -1   2  -4   83.44    4.25
   1   2   4   76.73    4.36
  -1   2  -4   77.93    4.23
   1   2   4   87.21    4.25
  -2  -2  -4   64.07    3.33
   2  -2   4   64.64    3.38
  -2   2  -4   62.28    3.33
  -2   2  -4   66.55    3.28
   2   2   4   56.87    3.39
  -3  -2  -4   15.34    0.89
   3  -2   4   15.34    0.89
   3   2   4   14.42    0.93
  -3   2  -4   14.27    0.79
  -3   2  -4   15.01    0.90
  -4  -2  -4    1.42    0.21
   4  -2   4    1.49    0.19
   4   2   4    1.04    0.20
  -4   2  -4    1.62    0.24
   5  -2   4    6.17    0.42
  -5  -2  -4    6.05    0.50
   5   2   4    5.63    0.47
  -5   2  -4    6.29    0.51
   6  -2   4   26.01    1.52
  -6  -2  -4   25.43    1.55
   6   2   4   24.28    1.47
  -6   2  -4   24.60    1.53
  -7  -2  -4    1.04    0.25
  -7   2  -4    1.24    0.27
   7   2   4    1.19    0.23
  -8  -2  -4    0.05    0.13
   8   2   4    0.13    0.13
  -8   2  -4   -0.14    0.13
  -9  -2  -4    0.76    0.26
  -9   2  -4    0.85    0.28
  -9  -3   4    0.26    0.44
  -9  -3   4   -0.08    0.14
  -9   3   4    0.08    0.19
   9   3  -4   -0.04    0.13
  -8  -3   4    9.90    1.22
  -8  -3   4   11.74    0.82
  -8   3   4    9.74    0.84
   8   3  -4    9.95    0.77
  -7  -3   4    8.82    0.64
  -7  -3   4    7.15    0.98
  -7   3   4    6.54    0.65
   7   3  -4    7.94    0.62
   7   3  -4    8.31    0.56
  -6  -3   4    9.70    0.94
  -6  -3   4    8.40    0.63
   6   3  -4    9.12    0.60
   6   3  -4    9.02    0.66
  -6   3   4    9.61    0.74
  -5  -3   4    8.12    0.94
  -5  -3   4    9.42    0.62
   5  -3  -4    9.18    0.55
   5   3  -4   10.39    0.67
  -5   3   4    8.14    0.69
   5   3  -4    9.54    0.60
   4  -3  -4    1.70    0.20
  -4  -3   4    1.79    0.37
   4  -3  -4    1.87    0.17
  -4  -3   4    1.43    0.18
  -4   3   4    2.36    0.31
   4   3  -4    1.94    0.25
   3  -3  -4    2.84    0.21
  -3  -3   4    2.71    0.21
  -3  -3   4    2.37    0.40
   3  -3  -4    2.81    0.23
  -3   3   4    2.99    0.32
   3   3  -4    3.11    0.27
   2  -3  -4    0.69    0.10
  -2  -3   4    0.67    0.21
  -2  -3   4    0.86    0.09
   2  -3  -4    0.79    0.11
   2   3  -4    0.73    0.12
   1  -3  -4    6.03    0.37
   1  -3  -4    5.96    0.36
  -1  -3   4    5.08    0.49
   1   3  -4    6.20    0.38
  -1   3   4    5.09    0.45
   0  -3  -4    2.38    0.18
   0  -3   4    2.82    0.34
   0  -3  -4    3.07    0.22
   0  -3   4    2.78    0.16
   0   3  -4    2.48    0.19
   0   3   4    2.56    0.31
   0   3  -4    2.51    0.18
   0   3   4    2.47    0.24
  -1  -3  -4   32.60    1.70
   1  -3   4   31.83    1.63
  -1  -3  -4   30.61    1.66
  -1   3  -4   30.50    1.69
   1   3   4   30.03    1.78
  -1   3  -4   32.31    1.66
   2  -3   4  139.28    6.32
  -2  -3  -4  113.07    6.27
  -2   3  -4  115.74    6.28
   2   3   4  112.04    6.33
  -2   3  -4  121.98    6.21
  -3  -3  -4   13.27    0.86
   3  -3   4   16.50    0.87
  -3   3  -4   13.40    0.87
  -3   3  -4   14.33    0.77
   3   3   4   13.80    0.91
  -4  -3  -4    0.28    0.10
   4  -3   4    0.34    0.11
   4   3   4    0.42    0.15
  -4   3  -4    0.39    0.14
  -5  -3  -4   -0.01    0.08
   5  -3   4   -0.04    0.07
  -5   3  -4    0.03    0.11
   5   3   4    0.01    0.11
  -6  -3  -4    5.66    0.49
  -6   3  -4    4.39    0.50
   6   3   4    5.36    0.46
  -7  -3  -4    3.90    0.46
   7   3   4    3.94    0.44
  -7   3  -4    4.17    0.50
  -8  -3  -4   -0.05    0.12
  -8   3  -4    0.03    0.15
   8   3   4    0.13    0.14
  -9  -3  -4    0.68    0.25
  -9   3  -4    1.27    0.33
   9   3   4    1.30    0.28
  -9  -4   4    0.71    0.47
  -9  -4   4    0.76    0.25
   9   4  -4    0.30    0.18
  -9   4   4    0.24    0.21
  -8  -4   4   -0.04    0.31
  -8  -4   4    0.07    0.13
   8   4  -4   -0.04    0.12
  -8   4   4    0.16    0.17
  -7  -4   4    0.03    0.27
  -7  -4   4    0.53    0.18
  -7   4   4    0.01    0.14
   7   4  -4    0.26    0.16
   7   4  -4    0.51    0.14
  -6  -4   4    6.66    0.83
  -6  -4   4    6.22    0.49
   6   4  -4    6.60    0.48
   6   4  -4    6.55    0.54
  -6   4   4    6.54    0.60
   5  -4  -4    1.01    0.13
  -5  -4   4    0.70    0.29
  -5  -4   4    1.08    0.17
   5   4  -4    1.21    0.21
  -5   4   4    0.94    0.23
   4  -4  -4    4.13    0.28
  -4  -4   4    3.59    0.54
  -4  -4   4    4.02    0.30
   4  -4  -4    4.29    0.32
  -4   4   4    3.93    0.44
   4   4  -4    3.31    0.36
  -3  -4   4    3.24    0.47
   3  -4  -4    3.72    0.26
   3  -4  -4    2.84    0.26
  -3  -4   4    3.66    0.25
   3   4  -4    3.50    0.31
  -3   4   4    3.15    0.38
  -2  -4   4    9.89    0.81
   2  -4  -4   10.78    0.63
  -2  -4   4   10.79    0.60
   2  -4  -4   10.29    0.63
   2   4  -4   11.10    0.67
  -2   4   4   11.02    0.72
   1  -4  -4    0.99    0.14
  -1  -4   4    0.93    0.22
   1  -4  -4    1.10    0.12
  -1   4   4    1.12    0.20
   0  -4  -4    1.48    0.14
   0  -4   4    1.34    0.11
   0  -4   4    1.71    0.26
   0   4   4    1.23    0.22
  -1  -4  -4   12.73    0.73
   1  -4   4   13.15    0.70
  -1   4  -4   13.30    0.77
  -1   4  -4   12.96    0.73
   1   4   4   12.97    0.84
  -2  -4  -4    1.21    0.17
   2  -4   4    1.63    0.13
  -2  -4  -4    1.77    0.17
   2   4   4    2.09    0.27
  -2   4  -4    1.95    0.23
  -2   4  -4    1.96    0.14
  -3  -4  -4   18.02    1.15
   3  -4   4   23.82    1.14
  -3   4  -4   18.14    1.17
  -3   4  -4   21.26    1.06
   3   4   4   16.61    1.18
  -4  -4  -4   17.64    1.06
   4  -4   4   19.73    0.98
   4   4   4   14.32    1.06
  -4   4  -4   16.36    1.08
  -5  -4  -4    3.41    0.39
  -5   4  -4    3.56    0.41
   5   4   4    3.18    0.37
  -6  -4  -4    0.08    0.11
   6   4   4    0.01    0.11
  -6   4  -4    0.07    0.13
  -7  -4  -4    0.32    0.16
  -7   4  -4    0.13    0.15
   7   4   4    0.59    0.19
  -8  -4  -4    3.03    0.46
   8   4   4    3.32    0.42
  -8   4  -4    2.87    0.45
  -9  -4  -4    3.07    0.54
   9   4   4    3.27    0.45
  -9   4  -4    3.83    0.54
  -9  -5   4    0.39    0.20
   9   5  -4    0.27    0.18
  -9   5   4    0.35    0.24
  -8  -5   4    9.10    1.12
  -8  -5   4    9.09    0.71
   8   5  -4    9.34    0.66
   8   5  -4    9.72    0.77
  -8   5   4    9.75    0.85
  -7  -5   4    0.33    0.13
  -7  -5   4    0.36    0.31
   7   5  -4    0.10    0.11
  -7   5   4    0.21    0.17
   7   5  -4    0.04    0.11
  -6  -5   4    0.94    0.18
  -6  -5   4    1.02    0.37
  -6   5   4    0.96    0.29
   6   5  -4    1.07    0.23
   5  -5  -4    1.34    0.16
   5  -5  -4    0.72    0.15
  -5  -5   4    1.11    0.17
  -5  -5   4    0.97    0.33
   5   5  -4    1.21    0.22
  -5   5   4    1.31    0.31
  -4  -5   4   12.73    1.06
   4  -5  -4   14.56    0.87
  -4  -5   4   15.22    0.85
   4  -5  -4   15.56    0.84
  -4   5   4   14.79    0.90
   4   5  -4   11.92    0.89
  -4   5   4   14.72    1.01
  -3  -5   4    1.33    0.33
   3  -5  -4    1.74    0.20
   3  -5  -4    2.19    0.21
  -3  -5   4    2.06    0.18
  -3   5   4    1.94    0.26
  -3   5   4    1.39    0.26
   3   5  -4    2.10    0.26
   2  -5  -4   11.21    0.66
  -2  -5   4   10.91    0.84
  -2   5   4   10.65    0.72
   2   5  -4   11.62    0.71
   1  -5  -4   38.64    2.09
  -1  -5   4   38.39    2.26
  -1   5   4   40.55    2.18
   0  -5   4   17.66    1.10
   0  -5  -4   16.10    0.94
   0  -5   4   17.45    0.91
   0   5   4   15.95    1.03
  -1  -5  -4    1.34    0.15
   1  -5   4    1.54    0.12
   1   5   4    1.59    0.25
  -1   5  -4    1.10    0.18
  -2  -5  -4   38.75    2.12
  -2  -5  -4   38.81    2.08
   2  -5   4   40.50    2.05
   2   5   4   37.61    2.19
  -2   5  -4   40.19    2.05
  -2   5  -4   36.64    2.14
   3  -5   4    7.33    0.45
  -3  -5  -4    6.23    0.48
   3  -5   4    6.86    0.41
  -3   5  -4    7.26    0.39
   3   5   4    6.03    0.53
  -3   5  -4    5.85    0.50
  -4  -5  -4   42.83    2.37
   4   5   4   40.91    2.40
  -4   5  -4   43.69    2.41
  -5  -5  -4    1.92    0.28
  -5   5  -4    2.09    0.33
   5   5   4    2.21    0.31
  -6  -5  -4    1.77    0.30
   6   5   4    2.28    0.33
  -6   5  -4    2.24    0.36
  -7  -5  -4    2.98    0.41
   7   5   4    2.68    0.37
  -7   5  -4    2.17    0.38
  -8  -5  -4    7.45    0.68
   8   5   4    7.89    0.64
  -8   5  -4    6.71    0.74
   9   5   4    0.24    0.18
   9   6  -4    4.66    0.65
  -8  -6   4    3.53    0.42
   8   6  -4    3.50    0.39
   8   6  -4    4.40    0.52
  -8   6   4    3.89    0.58
  -7  -6   4    6.48    0.87
  -7  -6   4    5.29    0.46
  -7   6   4    5.91    0.68
   7   6  -4    5.19    0.57
  -6  -6   4    0.68    0.36
  -6  -6   4    1.55    0.22
   6   6  -4    1.49    0.27
  -6   6   4    0.82    0.26
   5  -6  -4    0.17    0.10
  -5  -6   4   -0.08    0.20
  -5  -6   4    0.07    0.09
   5   6  -4    0.03    0.10
  -5   6   4    0.03    0.14
   4  -6  -4   13.99    0.91
  -4  -6   4   16.13    0.91
  -4  -6   4   15.14    1.16
   4   6  -4   14.98    0.97
  -4   6   4   16.43    1.10
  -3  -6   4   16.60    1.14
   3  -6  -4   14.80    0.90
   3   6  -4   14.37    0.94
  -3   6   4   17.38    1.09
  -3   6   4   14.74    0.92
  -2  -6   4   17.97    1.20
   2  -6  -4   17.55    1.00
  -2   6   4   16.83    1.04
   2   6  -4   17.58    1.04
  -1  -6   4    4.42    0.49
   1  -6  -4    4.23    0.31
  -1  -6   4    3.90    0.28
   1   6  -4    4.51    0.33
  -1   6   4    4.32    0.37
   0  -6   4   21.80    1.16
   0  -6  -4   22.17    1.20
   0   6   4   20.09    1.27
   1  -6   4    0.51    0.08
  -1  -6  -4    0.72    0.11
  -1   6  -4    0.46    0.13
   1   6   4    0.45    0.15
  -2  -6  -4    6.96    0.44
   2  -6   4    6.72    0.41
  -2   6  -4    6.86    0.41
   2   6   4    6.83    0.54
  -2   6  -4    5.69    0.49
   3  -6   4   13.86    0.78
  -3  -6  -4   13.84    0.81
  -3  -6  -4   12.13    0.85
  -3   6  -4   13.94    0.92
   3   6   4   13.46    0.92
  -3   6  -4   14.83    0.77
   4  -6   4   18.08    1.02
  -4  -6  -4   16.60    1.10
  -4   6  -4   19.50    1.19
   4   6   4   19.11    1.17
  -5  -6  -4    2.05    0.30
  -5   6  -4    1.96    0.33
   5   6   4    2.30    0.33
  -6  -6  -4    0.72    0.20
   6   6   4    0.73    0.21
  -6   6  -4    0.86    0.24
  -7  -6  -4    0.29    0.16
  -7   6  -4    0.36    0.20
   7   6   4    0.34    0.17
  -8  -6  -4    2.85    0.44
   8   6   4    3.39    0.44
  -8   6  -4    2.97    0.48
  -8   7   4    1.73    0.43
   8   7  -4    3.03    0.35
   8   7  -4    2.26    0.39
  -7  -7   4    6.18    0.48
  -7  -7   4    5.56    0.81
   7   7  -4    4.59    0.54
  -7   7   4    4.39    0.63
  -6  -7   4   -0.18    0.20
   6  -7  -4   -0.02    0.09
  -6  -7   4   -0.02    0.10
   6   7  -4    0.02    0.12
  -6   7   4    0.01    0.17
  -5  -7   4    2.06    0.45
  -5  -7   4    2.40    0.27
   5  -7  -4    1.75    0.24
   5   7  -4    2.47    0.33
  -5   7   4    1.95    0.39
   4  -7  -4    2.01    0.25
  -4  -7   4    2.41    0.45
   4   7  -4    2.08    0.29
  -4   7   4    2.01    0.36
  -3  -7   4   11.17    0.92
   3  -7  -4   11.81    0.74
  -3   7   4   11.01    0.90
   3   7  -4   13.50    0.81
  -2  -7   4    1.87    0.34
   2  -7  -4    1.48    0.20
  -2   7   4    1.94    0.24
   2   7  -4    1.85    0.23
  -1  -7   4   90.26    4.56
  -1  -7   4   87.99    4.78
   1  -7  -4   80.58    4.59
  -1   7   4   86.41    4.65
   1   7  -4   91.68    4.62
   0  -7  -4   -0.01    0.06
   0  -7   4    0.00    0.05
   0   7   4    0.03    0.10
   1  -7   4   41.33    2.18
  -1  -7  -4   42.44    2.22
  -1   7  -4   39.51    2.30
   1   7   4   40.86    2.31
   2  -7   4   31.70    1.72
  -2  -7  -4   33.66    1.77
   2   7   4   31.74    1.87
  -2   7  -4   31.45    1.87
  -3  -7  -4   24.53    1.40
   3  -7   4   25.85    1.36
   3   7   4   24.81    1.51
  -3   7  -4   24.12    1.52
  -4  -7  -4    1.20    0.22
   4  -7   4    1.51    0.17
   4   7   4    1.10    0.24
  -4   7  -4    2.08    0.33
  -5  -7  -4    0.21    0.12
  -5   7  -4   -0.14    0.13
   5   7   4    0.23    0.15
  -6  -7  -4    0.15    0.13
   6   7   4    0.31    0.17
  -6   7  -4    0.15    0.18
  -7  -7  -4    2.34    0.38
   7   7   4    2.48    0.38
  -7   7  -4    2.14    0.41
  -8  -7  -4    3.16    0.45
  -8   7  -4    2.04    0.42
   8   7   4    2.30    0.38
   8   8  -4    1.60    0.34
  -8   8   4    0.94    0.35
   7   8  -4    2.64    0.41
  -7   8   4    3.35    0.56
  -6  -8   4    1.50    0.24
   6  -8  -4    1.49    0.23
  -6  -8   4    0.68    0.33
   6   8  -4    1.62    0.30
  -6   8   4    0.98    0.33
   5  -8  -4    0.16    0.10
  -5  -8   4    0.01    0.22
  -5   8   4    0.16    0.18
   5   8  -4    0.02    0.11
   4  -8  -4    0.93    0.17
  -4  -8   4    0.64    0.28
   4   8  -4    0.87    0.20
  -4   8   4    1.11    0.31
   3  -8  -4   10.16    0.67
  -3  -8   4    9.66    0.84
   3   8  -4   10.88    0.72
  -2  -8   4   -0.01    0.15
   2  -8  -4    0.06    0.07
  -2  -8   4    0.12    0.07
   2   8  -4    0.04    0.08
  -2   8   4    0.05    0.10
   1  -8  -4    4.14    0.33
  -1  -8   4    4.24    0.31
   1   8  -4    4.35    0.35
  -1   8   4    4.39    0.38
   0  -8  -4    0.66    0.13
   0  -8   4    0.69    0.11
   0   8   4    0.51    0.16
  -1  -8  -4   12.99    0.78
   1  -8   4   13.06    0.74
   1   8   4   13.13    0.86
  -1   8  -4   11.11    0.85
   2  -8   4    2.77    0.22
  -2  -8  -4    2.57    0.26
  -2   8  -4    2.08    0.32
   2   8   4    2.64    0.34
   3  -8   4    9.73    0.61
  -3  -8  -4   11.10    0.67
  -3   8  -4    9.75    0.77
   3   8   4    9.78    0.74
   4  -8   4    0.22    0.09
  -4  -8  -4    0.04    0.09
   4   8   4    0.06    0.13
  -4   8  -4    0.22    0.17
  -5  -8  -4    3.15    0.38
  -5   8  -4    2.64    0.42
   5   8   4    3.09    0.40
  -6  -8  -4    0.10    0.13
  -6   8  -4   -0.08    0.15
   6   8   4    0.12    0.15
  -7  -8  -4    1.28    0.28
   7   8   4    2.04    0.35
  -7   8  -4    0.94    0.30
  -8   8  -4    0.55    0.34
  -7   9   4    1.05    0.36
   7   9  -4    1.42    0.32
   6  -9  -4    0.29    0.13
  -6   9   4   -0.15    0.18
   6   9  -4   -0.10    0.12
  -5  -9   4    3.22    0.53
   5  -9  -4    2.81    0.32
  -5   9   4    3.33    0.54
   5   9  -4    2.57    0.37
  -4  -9   4    1.72    0.38
   4  -9  -4    1.18    0.19
   4   9  -4    1.14    0.23
  -4   9   4    0.89    0.30
  -3  -9   4   22.72    1.49
   3  -9  -4   21.02    1.30
   3   9  -4   23.49    1.36
  -2  -9   4   -0.04    0.06
   2  -9  -4   -0.05    0.06
  -2  -9   4   -0.11    0.15
   2   9  -4   -0.08    0.08
   1  -9  -4    3.75    0.34
  -1  -9   4    4.41    0.33
   1   9  -4    4.76    0.38
  -1   9   4    4.67    0.38
   0  -9   4    1.13    0.16
   0  -9  -4    1.14    0.18
   0   9   4    0.93    0.20
  -1  -9  -4   17.74    1.07
   1  -9   4   18.63    1.03
  -1   9  -4   17.02    1.17
   1   9   4   18.24    1.13
  -2  -9  -4    1.51    0.20
   2  -9   4    1.07    0.16
  -2   9  -4    1.60    0.30
   2   9   4    0.95    0.23
  -3  -9  -4    4.21    0.36
   3  -9   4    3.97    0.30
   3   9   4    4.23    0.46
  -3   9  -4    3.61    0.49
  -4  -9  -4    3.06    0.33
   4   9   4    3.19    0.42
  -4   9  -4    3.90    0.50
  -5  -9  -4    7.99    0.58
   5   9   4    7.46    0.66
  -5   9  -4    7.96    0.80
  -6  -9  -4    0.05    0.14
  -6   9  -4    0.39    0.26
   6   9   4    0.32    0.18
  -7  -9  -4   14.89    1.03
  -7   9  -4   13.53    1.11
   7   9   4   12.60    1.00
   6 -10  -4    1.06    0.22
   6  10  -4    1.23    0.30
  -6  10   4    1.60    0.45
   5 -10  -4    0.11    0.11
   5  10  -4    0.71    0.22
  -5  10   4    0.36    0.25
  -4 -10   4    5.78    0.68
   4 -10  -4    5.32    0.44
   4  10  -4    6.11    0.52
  -4  10   4    4.08    0.65
   3 -10  -4    1.85    0.25
  -3 -10   4    2.00    0.24
  -3 -10   4    1.74    0.38
   3  10  -4    1.72    0.27
  -3  10   4    1.10    0.35
  -2 -10   4    0.59    0.13
   2 -10  -4    0.42    0.14
   2  10  -4    0.95    0.19
  -1 -10   4    0.07    0.08
   1 -10  -4    0.12    0.09
   1  10  -4   -0.04    0.09
   0 -10  -4    0.13    0.10
   0 -10   4    0.05    0.07
   0  10   4   -0.03    0.09
  -1 -10  -4   -0.09    0.07
   1 -10   4    0.03    0.07
  -1  10  -4    0.17    0.15
   1  10   4   -0.11    0.09
  -2 -10  -4    2.11    0.27
   2 -10   4    2.24    0.24
   2  10   4    1.67    0.29
  -2  10  -4    2.76    0.41
  -3 -10  -4    0.77    0.17
   3  10   4    0.52    0.19
  -3  10  -4    0.98    0.28
  -4 -10  -4    0.69    0.17
   4  10   4    1.11    0.26
  -4  10  -4    0.78    0.27
  -5 -10  -4    0.72    0.19
   5  10   4    1.22    0.28
  -5  10  -4    0.44    0.27
  -6 -10  -4   -0.08    0.11
  -6  10  -4   -0.24    0.19
   6  10   4    0.02    0.15
   6 -11  -4    0.47    0.15
   6  11  -4    0.73    0.26
  -6  11   4    0.12    0.28
   5 -11  -4    0.01    0.11
  -5  11   4    0.21    0.28
   5  11  -4    0.09    0.15
   4 -11  -4    4.38    0.45
  -4 -11   4    5.20    0.42
  -4  11   4    4.44    0.70
   4  11  -4    5.24    0.54
  -3 -11   4    0.18    0.11
   3 -11  -4    0.14    0.11
   3  11  -4    0.08    0.12
  -3  11   4    0.11    0.22
   2 -11  -4    5.22    0.44
  -2 -11   4    5.26    0.40
   2  11  -4    4.85    0.45
   1 -11  -4    3.10    0.34
  -1 -11   4    3.50    0.33
   0 -11   4    0.11    0.10
   0 -11  -4    0.05    0.08
  -1 -11  -4    1.29    0.22
   1 -11   4    1.89    0.22
  -1  11  -4    2.01    0.37
   1  11   4    1.72    0.28
  -2 -11  -4    0.60    0.16
   2 -11   4    0.28    0.12
  -2  11  -4    0.65    0.25
   2  11   4    0.40    0.16
  -3 -11  -4    0.97    0.21
  -3  11  -4    1.58    0.37
   3  11   4    1.29    0.27
  -4 -11  -4    1.05    0.21
   4  11   4    1.13    0.27
  -4  11  -4    1.01    0.31
  -5 -11  -4    0.62    0.18
  -5  11  -4    0.78    0.31
   5  11   4    0.41    0.22
  -6  11  -4    0.78    0.36
  -5 -12   4    1.30    0.24
   5 -12  -4    1.50    0.26
   5  12  -4    1.65    0.32
  -5  12   4    1.39    0.49
   4 -12  -4    4.84    0.49
  -4 -12   4    5.62    0.45
   4  12  -4    6.19    0.61
  -4  12   4    4.58    0.73
   3 -12  -4    1.93    0.28
  -3 -12   4    1.66    0.25
  -3  12   4    1.91    0.48
   3  12  -4    1.80    0.31
   2 -12  -4    1.04    0.21
  -2 -12   4    0.87    0.18
  -1 -12   4    0.22    0.12
   1 -12  -4    0.07    0.11
   0 -12   4    2.69    0.29
   0 -12  -4    2.94    0.35
   1 -12   4    0.56    0.15
  -1 -12  -4    0.76    0.19
  -2 -12  -4    0.17    0.12
   2  12   4    0.11    0.15
  -2  12  -4    0.08    0.21
  -3 -12  -4    1.24    0.23
  -3  12  -4    0.77    0.32
   3  12   4    1.04    0.26
  -4 -12  -4    0.31    0.16
   4  12   4    0.42    0.21
  -4  12  -4    0.49    0.30
   5  12   4    0.42    0.24
  -5  12  -4    0.06    0.28
  -4 -13   4    0.50    0.17
   4  13  -4    0.31    0.20
  -3 -13   4    0.23    0.14
   3 -13  -4    0.06    0.11
  -3  13   4    0.09    0.25
  -2 -13   4    0.93    0.19
   2 -13  -4    0.49    0.17
   1 -13  -4    1.28    0.24
  -1 -13   4    1.73    0.25
   0 -13  -4   -0.18    0.09
   0 -13   4    0.11    0.17
  -1 -13  -4    0.19    0.13
  -2 -13  -4    2.72    0.35
  -3 -13  -4    0.25    0.14
   3  13   4    0.15    0.18
   4  13   4    0.19    0.19
  -2 -14   4    3.23    0.37
  -9   0   5    6.38    0.71
  -9   0   5    9.04    1.27
  -8   0   5    0.14    0.15
  -8   0   5    0.16    0.36
  -7   0   5   47.18    3.35
  -7   0   5   55.51    2.97
  -6   0   5    0.37    0.32
   6   0  -5   -0.02    0.07
  -6   0   5   -0.05    0.11
   5   0  -5   13.26    0.77
  -5   0   5   12.36    1.11
  -5   0   5   11.84    0.82
  -4   0   5   -0.15    0.06
  -4   0   5   -0.20    0.15
   4   0  -5    0.05    0.07
  -3   0   5  163.83    8.33
  -3   0   5  158.91    8.61
   3   0  -5  157.62    8.30
  -2   0   5   -0.17    0.10
   2   0  -5   -0.01    0.04
  -2   0   5   -0.06    0.05
  -1   0   5    0.73    0.20
   1   0  -5    0.78    0.10
   0   0  -5    0.03    0.04
   0   0  -5    0.01    0.02
   0   0   5    0.06    0.10
   1   0   5    4.82    0.45
  -1   0  -5    5.30    0.33
   1   0   5    5.82    0.41
  -1   0  -5    5.66    0.35
   2   0   5    0.29    0.14
  -2   0  -5    0.08    0.06
  -2   0  -5    0.18    0.06
  -3   0  -5   16.38    1.00
  -3   0  -5   17.14    0.94
   3   0   5   17.61    1.06
  -4   0  -5   -0.14    0.06
   4   0   5    0.08    0.12
   5   0   5    0.31    0.15
  -5   0  -5    0.33    0.15
  -6   0  -5    0.00    0.11
   6   0   5   -0.15    0.09
   7   0   5   -0.10    0.10
  -7   0  -5    0.44    0.18
  -8   0  -5   -0.19    0.11
  -9   0  -5    1.48    0.34
  -9  -1   5    2.68    0.74
  -9  -1   5    1.97    0.38
  -9   1   5    1.28    0.58
  -9   1   5    1.52    0.35
  -8  -1   5    0.52    0.47
  -8  -1   5    1.16    0.28
  -8   1   5    1.05    0.28
  -7  -1   5    2.51    0.36
  -7  -1   5    2.22    0.59
  -7   1   5    1.90    0.34
   7   1  -5    2.90    0.29
   6  -1  -5    0.11    0.08
  -6  -1   5    0.44    0.15
  -6  -1   5    0.15    0.27
  -6   1   5    0.14    0.14
   6   1  -5    0.49    0.13
   5  -1  -5    2.62    0.26
  -5  -1   5    2.91    0.32
  -5  -1   5    2.31    0.52
   5   1  -5    3.32    0.28
  -5   1   5    2.90    0.35
  -4  -1   5    6.21    0.46
   4  -1  -5    7.34    0.44
  -4  -1   5    5.96    0.74
   4   1  -5    6.13    0.44
  -4   1   5    7.12    0.51
   3  -1  -5    9.29    0.55
  -3  -1   5    8.60    0.78
  -3  -1   5    8.30    0.54
   3   1  -5    9.45    0.55
  -3   1   5    8.72    0.58
  -3   1   5    8.11    0.77
   2  -1  -5   46.25    2.37
   2  -1  -5   44.44    2.34
  -2  -1   5   44.66    2.33
  -2  -1   5   44.65    2.60
  -2   1   5   42.57    2.38
   2   1  -5   43.24    2.37
  -2   1   5   46.30    2.60
   1  -1  -5    9.44    0.50
  -1  -1   5    7.99    0.66
   1  -1  -5    8.33    0.52
  -1   1   5    9.54    0.68
   1   1  -5    8.29    0.52
   0  -1   5    9.75    0.68
   0  -1  -5    9.65    0.53
   0  -1  -5    9.88    0.57
   0   1  -5    8.89    0.55
   0   1   5    9.81    0.65
  -1  -1  -5    0.91    0.12
  -1  -1  -5    1.04    0.08
   1  -1   5    1.16    0.19
  -1  -1  -5    0.92    0.11
  -1   1  -5    0.99    0.11
   1   1   5    1.28    0.24
  -1   1  -5    1.00    0.12
   1   1   5    1.18    0.16
  -2  -1  -5   25.25    1.38
  -2  -1  -5   25.38    1.35
   2  -1   5   23.98    1.47
  -2   1  -5   25.79    1.38
  -2   1  -5   25.90    1.34
   2   1   5   22.21    1.46
   3  -1   5   26.15    1.53
  -3  -1  -5   27.52    1.49
   3   1   5   24.86    1.53
  -3   1  -5   26.80    1.49
  -3   1  -5   26.12    1.41
  -4  -1  -5   78.36    4.30
   4  -1   5   76.10    4.29
  -4   1  -5   88.36    4.32
   4   1   5   79.06    4.32
  -5  -1  -5   17.53    1.21
   5  -1   5   21.38    1.20
  -5   1  -5   20.00    1.24
   5   1   5   20.75    1.23
  -6  -1  -5    8.79    0.67
   6  -1   5    8.77    0.60
  -6   1  -5    8.11    0.66
   6   1   5    8.11    0.61
  -7  -1  -5    2.02    0.34
  -7   1  -5    1.84    0.33
   7   1   5    1.95    0.28
  -8  -1  -5    2.38    0.40
  -8   1  -5    2.60    0.40
  -9  -1  -5   22.11    1.51
  -9   1  -5   22.58    1.51
  -9  -2   5    1.33    0.61
  -9  -2   5    2.03    0.37
  -9   2   5    1.25    0.33
  -8  -2   5    3.01    0.42
  -8  -2   5    4.06    0.82
  -8   2   5    3.30    0.48
  -7  -2   5    0.07    0.35
  -7  -2   5   -0.10    0.09
  -7   2   5   -0.10    0.11
   7   2  -5   -0.14    0.09
  -6  -2   5   29.19    2.08
  -6  -2   5   29.11    1.69
   6  -2  -5   29.01    1.59
   6   2  -5   30.54    1.64
  -6   2   5   27.12    1.74
  -5  -2   5   -0.25    0.16
  -5  -2   5    0.04    0.08
   5  -2  -5    0.06    0.07
   5   2  -5    0.05    0.08
  -5   2   5    0.21    0.14
   4  -2  -5    7.27    0.46
  -4  -2   5    6.93    0.47
  -4  -2   5    6.28    0.78
  -4   2   5    7.34    0.55
   4   2  -5    7.46    0.48
   3  -2  -5   30.91    1.65
  -3  -2   5   29.43    1.94
   3  -2  -5   28.37    1.64
  -3  -2   5   30.19    1.63
   3   2  -5   31.94    1.66
  -3   2   5   31.03    1.72
  -2  -2   5  128.68    6.42
   2  -2  -5  128.81    6.46
  -2  -2   5  115.32    6.70
   2  -2  -5  123.03    6.48
   2   2  -5  127.22    6.48
  -2   2   5  123.56    6.53
   1  -2  -5  145.72    7.33
  -1  -2   5  133.60    7.51
   1  -2  -5  144.96    7.30
   1   2  -5  137.13    7.33
  -1   2   5  145.40    7.49
   0  -2  -5   79.87    4.11
   0  -2   5   77.66    4.24
   0  -2  -5   79.94    4.07
   0   2   5   79.27    4.19
   0   2   5   77.80    4.25
   0   2  -5   76.95    4.10
  -1  -2  -5   11.48    0.64
   1  -2   5   11.09    0.76
  -1  -2  -5   12.10    0.68
  -1  -2  -5   12.22    0.68
   1   2   5   11.49    0.68
  -1   2  -5   12.10    0.66
   1   2   5   10.33    0.79
  -1   2  -5   11.46    0.66
  -2  -2  -5    0.51    0.10
   2  -2   5    0.39    0.15
  -2   2  -5    0.36    0.09
  -2   2  -5    0.34    0.07
   2   2   5    0.36    0.16
   3  -2   5    1.98    0.26
  -3  -2  -5    1.74    0.22
   3   2   5    1.58    0.25
  -3   2  -5    1.86    0.23
  -3   2  -5    1.68    0.14
  -4  -2  -5   43.99    2.48
   4  -2   5   46.68    2.47
  -4   2  -5   45.59    2.49
   4   2   5   43.69    2.51
  -5  -2  -5    2.27    0.31
   5  -2   5    2.68    0.29
   5   2   5    2.74    0.33
  -5   2  -5    2.43    0.33
  -6  -2  -5   -0.02    0.09
  -6   2  -5   -0.01    0.11
   6   2   5    0.00    0.12
  -7  -2  -5    1.08    0.25
  -7   2  -5    1.44    0.29
   7   2   5    1.11    0.23
  -8  -2  -5    0.71    0.23
   8   2   5    0.57    0.20
  -8   2  -5    0.32    0.20
  -9  -2  -5    0.31    0.20
  -9   2  -5    0.25    0.20
  -9  -3   5    4.94    0.98
  -9  -3   5    5.97    0.64
  -9   3   5    6.27    0.70
  -8  -3   5    0.66    0.21
  -8  -3   5    0.76    0.48
  -8   3   5    0.91    0.27
  -7  -3   5    0.82    0.21
  -7  -3   5    1.68    0.54
   7   3  -5    1.30    0.21
  -7   3   5    1.60    0.32
   7   3  -5    0.83    0.22
  -6  -3   5    6.14    0.86
  -6  -3   5    6.90    0.52
   6   3  -5    6.01    0.53
  -6   3   5    6.61    0.60
   6   3  -5    7.71    0.51
   5  -3  -5   20.80    1.14
  -5  -3   5   18.90    1.51
  -5  -3   5   21.12    1.19
   5   3  -5   21.15    1.19
   5   3  -5   19.74    1.24
  -5   3   5   20.35    1.30
   4  -3  -5    1.99    0.22
  -4  -3   5    2.50    0.47
   4  -3  -5    2.25    0.21
  -4  -3   5    2.18    0.22
   4   3  -5    1.68    0.21
  -4   3   5    2.07    0.29
   4   3  -5    2.14    0.26
   3  -3  -5    4.02    0.31
  -3  -3   5    4.79    0.58
  -3  -3   5    4.32    0.29
   3  -3  -5    4.53    0.31
   3   3  -5    4.88    0.33
  -3   3   5    4.19    0.38
  -2  -3   5   16.73    0.84
   2  -3  -5   14.60    0.88
   2  -3  -5   15.47    0.88
  -2  -3   5   14.17    1.08
   2   3  -5   15.76    0.90
   1  -3  -5   41.63    2.20
  -1  -3   5   39.56    2.38
   1  -3  -5   40.84    2.17
  -1   3   5   46.02    2.35
  -1   3   5   39.90    2.32
   1   3  -5   39.11    2.19
   0  -3   5   21.21    1.36
   0  -3  -5   23.21    1.20
   0  -3   5   22.60    1.16
   0  -3  -5   20.93    1.23
   0   3   5   24.49    1.30
   0   3   5   23.31    1.37
   0   3  -5   20.23    1.21
  -1  -3  -5   15.74    0.86
  -1  -3  -5   15.54    0.90
   1   3   5   14.58    1.01
  -1   3  -5   15.68    0.87
  -1   3  -5   15.86    0.88
   1   3   5   15.94    0.87
  -2  -3  -5  111.67    5.79
   2  -3   5  109.27    5.85
  -2  -3  -5  109.01    5.73
   2   3   5  109.16    5.89
  -2   3  -5  111.76    5.78
  -2   3  -5  113.13    5.73
  -3  -3  -5   32.14    1.74
   3  -3   5   31.96    1.76
  -3   3  -5   31.78    1.64
  -3   3  -5   30.52    1.74
   3   3   5   28.50    1.80
  -4  -3  -5   15.85    1.00
   4  -3   5   16.10    0.97
   4   3   5   17.29    1.06
  -4   3  -5   15.94    1.02
   5  -3   5    0.23    0.11
  -5  -3  -5    0.29    0.13
   5   3   5    0.38    0.16
  -5   3  -5    0.39    0.15
  -6  -3  -5   11.97    0.86
  -6   3  -5   12.74    0.88
   6   3   5   11.65    0.83
  -7  -3  -5    2.02    0.35
   7   3   5    1.94    0.31
  -7   3  -5    1.71    0.32
  -8  -3  -5    2.06    0.38
  -8   3  -5    2.24    0.39
   8   3   5    2.61    0.37
  -9  -3  -5   -0.04    0.25
  -9   3  -5    0.05    0.19
  -9  -4   5    0.07    0.42
  -9   4   5    0.10    0.20
  -8  -4   5    0.37    0.16
  -8  -4   5    0.23    0.39
  -8   4   5    0.35    0.21
   8   4  -5    0.16    0.16
   8   4  -5    0.21    0.14
  -7  -4   5   11.78    0.77
  -7  -4   5   11.85    1.14
   7   4  -5    9.14    0.77
   7   4  -5   11.77    0.73
  -7   4   5    9.86    0.85
  -6  -4   5    0.31    0.11
  -6  -4   5    0.35    0.31
   6   4  -5    0.28    0.12
   6   4  -5    0.29    0.14
  -6   4   5    0.12    0.15
   5  -4  -5    3.22    0.26
  -5  -4   5    3.34    0.59
  -5  -4   5    3.62    0.30
   5   4  -5    3.63    0.39
  -5   4   5    2.69    0.39
   5   4  -5    3.59    0.30
  -4  -4   5    4.12    0.61
   4  -4  -5    4.58    0.34
  -4  -4   5    4.77    0.32
   4  -4  -5    4.14    0.31
  -4   4   5    4.34    0.48
   4   4  -5    3.80    0.33
   4   4  -5    3.27    0.38
  -3  -4   5    5.23    0.65
  -3  -4   5    6.48    0.37
   3  -4  -5    5.32    0.38
   3  -4  -5    5.42    0.39
  -3   4   5    5.02    0.47
   3   4  -5    5.91    0.44
   3   4  -5    5.66    0.40
   2  -4  -5    0.55    0.11
  -2  -4   5    0.60    0.22
   2  -4  -5    0.40    0.09
   2   4  -5    0.59    0.11
  -2   4   5    0.86    0.20
  -1  -4   5  134.42    7.69
   1  -4  -5  141.66    7.51
   1  -4  -5  144.19    7.49
  -1   4   5  148.93    7.65
   1   4  -5  153.65    7.51
   0  -4  -5   21.96    1.24
   0  -4  -5   23.44    1.20
   0  -4   5   22.65    1.37
   0  -4   5   22.48    1.16
   0   4   5   21.35    1.34
   0   4   5   20.98    1.26
   0   4  -5   20.80    1.18
   0   4  -5   21.54    1.20
  -1  -4  -5   16.35    0.93
   1  -4   5   16.74    0.89
  -1   4  -5   16.09    0.95
  -1   4  -5   17.86    0.94
   1   4   5   17.33    1.09
   2  -4   5    0.76    0.08
  -2  -4  -5    0.69    0.10
  -2  -4  -5    0.72    0.13
   2   4   5    0.93    0.21
  -2   4  -5    0.73    0.10
  -2   4  -5    1.04    0.16
  -3  -4  -5   12.62    0.85
  -3   4  -5   15.22    0.77
  -3   4  -5   13.67    0.87
   3   4   5   12.95    0.93
   4  -4   5    8.00    0.51
  -4  -4  -5    7.11    0.55
  -4   4  -5    7.12    0.56
   4   4   5    7.12    0.59
  -5  -4  -5   14.71    0.98
   5   4   5   16.01    1.01
  -5   4  -5   14.35    0.99
  -6  -4  -5    0.82    0.22
   6   4   5    0.46    0.18
  -6   4  -5    0.17    0.14
  -7  -4  -5    3.18    0.42
  -7   4  -5    3.76    0.48
   7   4   5    2.92    0.40
  -8  -4  -5    0.16    0.16
   8   4   5    0.30    0.17
  -8   4  -5   -0.05    0.15
   9   4   5    1.42    0.32
  -9  -5   5    6.76    1.08
  -9   5   5    7.19    0.80
  -8  -5   5    1.95    0.62
   8   5  -5    2.59    0.40
   8   5  -5    3.09    0.35
  -8   5   5    2.97    0.48
  -7  -5   5   -0.13    0.29
  -7  -5   5    0.52    0.16
   7   5  -5    0.37    0.18
  -7   5   5    0.54    0.24
   7   5  -5    0.55    0.15
  -6  -5   5    0.02    0.25
  -6  -5   5    0.01    0.08
  -6   5   5    0.04    0.13
   6   5  -5    0.09    0.12
   6   5  -5    0.05    0.10
  -5  -5   5   42.97    2.33
   5  -5  -5   43.14    2.30
   5  -5  -5   44.19    2.36
  -5  -5   5   40.03    2.67
   5   5  -5   42.46    2.43
  -5   5   5   43.83    2.53
  -4  -5   5    2.65    0.49
  -4  -5   5    3.91    0.29
   4  -5  -5    3.08    0.31
   4  -5  -5    3.72    0.28
  -4   5   5    2.95    0.42
   4   5  -5    4.51    0.37
   3  -5  -5    0.83    0.14
  -3  -5   5    0.49    0.24
   3  -5  -5    1.00    0.14
  -3  -5   5    0.85    0.12
  -3   5   5    0.81    0.20
  -3   5   5    0.74    0.19
   3   5  -5    0.66    0.15
   2  -5  -5   28.56    1.72
  -2  -5   5   32.86    1.97
   2  -5  -5   34.26    1.75
  -2   5   5   32.12    1.84
  -1  -5   5   18.85    1.24
   1  -5  -5   18.54    1.04
  -1   5   5   18.57    1.16
   0  -5  -5   16.76    0.93
   0  -5   5   16.25    1.10
   0  -5   5   16.76    0.88
   0   5  -5   15.68    0.93
   0   5   5   16.09    1.05
   0   5  -5   16.44    0.93
  -1  -5  -5    0.70    0.11
   1  -5   5    0.79    0.08
   1   5   5    0.59    0.18
  -1   5  -5    0.55    0.10
  -1   5  -5    0.73    0.13
  -2  -5  -5   12.42    0.69
   2  -5   5   11.37    0.64
   2   5   5   11.56    0.82
  -2   5  -5   11.24    0.66
  -2   5  -5   11.29    0.74
  -3  -5  -5    6.95    0.56
  -3  -5  -5    7.13    0.51
   3  -5   5    9.72    0.59
   3   5   5    9.89    0.68
  -3   5  -5    9.25    0.49
  -3   5  -5    7.62    0.59
  -4  -5  -5    8.53    0.60
  -4   5  -5    8.44    0.63
   4   5   5    7.42    0.63
  -5  -5  -5    0.40    0.15
  -5   5  -5    0.54    0.19
   5   5   5    0.62    0.20
  -6  -5  -5    4.03    0.47
  -6   5  -5    3.38    0.45
   6   5   5    3.44    0.43
  -7  -5  -5    6.96    0.62
   7   5   5    6.43    0.59
  -7   5  -5    6.96    0.65
  -8  -5  -5    0.12    0.15
  -8   5  -5    0.02    0.17
   8   5   5   -0.06    0.14
  -8  -6   5    2.37    0.61
   8   6  -5    1.21    0.23
   8   6  -5    1.33    0.30
  -8   6   5    1.31    0.38
  -7  -6   5    0.53    0.38
   7   6  -5    0.28    0.17
  -7   6   5    0.10    0.20
   7   6  -5    0.63    0.17
  -6  -6   5   -0.03    0.08
  -6  -6   5    0.22    0.27
   6   6  -5    0.11    0.13
  -6   6   5    0.05    0.16
   5  -6  -5    0.93    0.17
  -5  -6   5    0.95    0.36
  -5  -6   5    0.89    0.16
  -5   6   5    0.76    0.24
   5   6  -5    0.75    0.19
  -4  -6   5    7.93    0.80
  -4  -6   5    9.28    0.53
   4  -6  -5    8.24    0.55
  -4   6   5    6.94    0.67
   4   6  -5    6.82    0.58
   3  -6  -5    4.64    0.34
  -3  -6   5    4.02    0.57
  -3   6   5    4.49    0.41
  -3   6   5    3.97    0.49
   3   6  -5    4.69    0.39
  -2  -6   5   18.78    1.33
   2  -6  -5   19.82    1.13
  -2   6   5   20.53    1.21
   1  -6  -5    0.33    0.09
  -1  -6   5    0.27    0.07
  -1  -6   5    0.27    0.16
  -1   6   5    0.09    0.12
   0  -6  -5   34.32    2.02
   0  -6   5   39.48    1.98
   0   6  -5   38.39    2.06
   0   6   5   37.83    2.14
   1  -6   5    5.70    0.34
  -1  -6  -5    5.65    0.38
  -1   6  -5    5.32    0.37
  -1   6  -5    5.06    0.41
   1   6   5    5.46    0.49
   2  -6   5    4.45    0.27
  -2  -6  -5    3.87    0.30
   2   6   5    4.64    0.48
  -2   6  -5    3.42    0.37
  -2   6  -5    4.35    0.29
  -3  -6  -5    9.79    0.61
  -3  -6  -5    9.52    0.66
   3  -6   5    9.57    0.57
  -3   6  -5   10.56    0.71
  -3   6  -5   10.36    0.58
   3   6   5    8.89    0.72
  -4  -6  -5    5.99    0.48
   4   6   5    6.01    0.53
  -4   6  -5    5.50    0.51
  -5  -6  -5   15.32    1.00
   5   6   5   13.09    1.00
  -5   6  -5   16.48    1.05
  -6  -6  -5    0.08    0.12
   6   6   5    0.18    0.16
  -6   6  -5    0.08    0.17
  -7  -6  -5    4.86    0.56
   7   6   5    4.53    0.52
  -7   6  -5    4.15    0.55
  -8  -6  -5    0.19    0.18
  -8   6  -5    0.13    0.20
   8   6   5   -0.09    0.14
  -8   7   5   -0.28    0.16
   8   7  -5    0.19    0.17
   8   7  -5   -0.02    0.12
  -7  -7   5    1.54    0.48
   7   7  -5    0.63    0.23
   7   7  -5    0.97    0.21
  -7   7   5    0.78    0.29
  -6  -7   5    4.75    0.72
   6  -7  -5    4.40    0.43
   6   7  -5    4.89    0.53
  -6   7   5    4.68    0.62
  -5  -7   5    1.11    0.38
   5  -7  -5    1.03    0.19
  -5  -7   5    1.34    0.25
   5   7  -5    1.26    0.24
  -5   7   5    1.18    0.31
  -4  -7   5    1.09    0.33
   4  -7  -5    0.75    0.15
  -4   7   5    0.91    0.29
   4   7  -5    0.91    0.21
   3  -7  -5    0.10    0.08
  -3  -7   5    0.33    0.22
  -3   7   5   -0.02    0.12
   3   7  -5   -0.03    0.09
   2  -7  -5    5.51    0.40
  -2  -7   5    5.41    0.62
   2   7  -5    5.50    0.44
  -2   7   5    5.78    0.46
   1  -7  -5    5.92    0.42
  -1  -7   5    6.16    0.39
  -1  -7   5    5.90    0.58
  -1   7   5    5.84    0.49
   0  -7  -5   28.56    1.67
   0  -7   5   30.71    1.63
   0   7   5   32.15    1.79
   1  -7   5    5.06    0.32
  -1  -7  -5    4.42    0.35
  -1   7  -5    4.57    0.40
   1   7   5    5.22    0.46
   2  -7   5    3.65    0.26
  -2  -7  -5    3.75    0.30
  -2   7  -5    3.98    0.42
  -2   7  -5    3.54    0.27
   2   7   5    3.90    0.44
   3  -7   5    5.51    0.36
  -3  -7  -5    5.54    0.41
   3   7   5    6.32    0.54
  -3   7  -5    5.80    0.51
  -4  -7  -5    0.00    0.08
  -4  -7  -5    0.31    0.13
  -4   7  -5    0.02    0.12
   4   7   5    0.35    0.18
  -5  -7  -5    1.46    0.26
   5   7   5    1.64    0.30
  -5   7  -5    1.86    0.34
  -6  -7  -5    0.16    0.14
  -6   7  -5   -0.09    0.15
   6   7   5    0.50    0.20
  -7  -7  -5    0.19    0.16
   7   7   5    0.41    0.20
  -7   7  -5    0.94    0.30
   8   7   5   -0.07    0.18
  -8   7  -5    0.25    0.22
   8   8  -5   -0.17    0.12
  -7   8   5    0.02    0.20
   7   8  -5    0.30    0.20
   6  -8  -5    3.53    0.37
  -6  -8   5    3.07    0.58
  -6   8   5    2.65    0.50
   6   8  -5    2.92    0.42
  -5  -8   5    0.38    0.28
   5  -8  -5    0.30    0.12
  -5   8   5    0.62    0.26
   5   8  -5    0.60    0.19
   4  -8  -5    0.45    0.13
  -4  -8   5    1.07    0.33
   4   8  -5    0.63    0.17
  -4   8   5    0.86    0.29
  -3  -8   5    3.86    0.54
   3  -8  -5    4.14    0.34
   3   8  -5    3.52    0.39
  -2  -8   5   29.53    1.83
  -2  -8   5   29.67    1.58
   2  -8  -5   26.72    1.61
  -2   8   5   27.93    1.64
   2   8  -5   29.65    1.65
   1  -8  -5    2.20    0.25
  -1  -8   5    2.53    0.23
  -1   8   5    2.23    0.30
   0  -8   5    0.66    0.11
   0  -8  -5    0.57    0.12
   0   8   5    1.00    0.22
  -1  -8  -5   11.03    0.72
   1  -8   5   11.67    0.68
  -1   8  -5   12.29    0.81
   1   8   5   11.70    0.83
  -2  -8  -5   31.43    1.69
   2  -8   5   29.47    1.63
  -2   8  -5   29.44    1.79
  -2   8  -5   29.93    1.65
   2   8   5   31.53    1.82
  -3  -8  -5    5.86    0.42
   3   8   5    5.18    0.55
  -3   8  -5    4.94    0.54
  -4  -8  -5    1.47    0.21
   4   8   5    1.26    0.27
  -4   8  -5    1.21    0.27
  -5  -8  -5    0.68    0.16
  -5  -8  -5    0.68    0.19
   5   8   5    0.19    0.18
  -5   8  -5    0.22    0.19
  -6  -8  -5   15.11    1.06
   6   8   5   16.58    1.10
  -6   8  -5   13.70    1.10
  -7  -8  -5    0.08    0.14
   7   8   5   -0.08    0.15
  -7   8  -5   -0.05    0.20
  -7   9   5    0.11    0.23
   7   9  -5   -0.08    0.14
   6  -9  -5    0.36    0.14
  -6   9   5    0.20    0.25
   6   9  -5    0.66    0.23
  -5  -9   5    7.77    0.86
   5  -9  -5    6.10    0.52
  -5   9   5    7.49    0.87
   5   9  -5    7.92    0.64
   4  -9  -5    0.33    0.12
  -4  -9   5    0.41    0.26
   4   9  -5    0.33    0.16
  -4   9   5    0.00    0.18
   3  -9  -5    3.05    0.32
  -3  -9   5    2.94    0.48
   3   9  -5    3.00    0.36
  -2  -9   5    2.10    0.39
   2  -9  -5    1.27    0.21
  -2  -9   5    1.68    0.20
   2   9  -5    2.10    0.27
   1  -9  -5    0.84    0.16
  -1  -9   5    1.04    0.14
  -1   9   5    1.10    0.22
   0  -9  -5    3.61    0.35
   0  -9   5    4.21    0.30
   0   9   5    3.36    0.41
  -1  -9  -5    0.08    0.09
   1  -9   5   -0.02    0.05
   1   9   5    0.17    0.14
  -1   9  -5    0.07    0.12
  -2  -9  -5    7.11    0.49
  -2   9  -5    6.27    0.44
   2   9   5    6.25    0.56
  -2   9  -5    6.21    0.57
  -3  -9  -5   -0.07    0.07
  -3   9  -5    0.04    0.14
   3   9   5    0.23    0.16
  -4  -9  -5    0.03    0.08
  -4   9  -5    0.04    0.17
   4   9   5    0.07    0.14
  -5  -9  -5    0.14    0.12
   5   9   5    0.01    0.14
  -5   9  -5   -0.03    0.16
  -6  -9  -5    0.13    0.13
   6   9   5    0.15    0.17
  -6   9  -5    0.48    0.26
  -7  -9  -5    0.28    0.16
  -7   9  -5    0.19    0.23
   6 -10  -5    1.06    0.23
  -6  10   5    1.21    0.39
   6  10  -5    0.49    0.21
   5 -10  -5    0.31    0.13
   5  10  -5    0.33    0.17
  -5  10   5    0.20    0.26
   4 -10  -5    0.01    0.09
  -4 -10   5    0.04    0.20
  -4  10   5    0.07    0.24
   4  10  -5    0.14    0.13
   3 -10  -5    0.05    0.09
  -3 -10   5    0.17    0.10
  -3 -10   5   -0.02    0.20
   3  10  -5   -0.08    0.10
   2 -10  -5    0.53    0.15
  -2 -10   5    0.85    0.15
  -1 -10   5    0.42    0.12
   1 -10  -5    0.49    0.14
   0 -10   5    0.36    0.11
   0 -10  -5    0.15    0.11
   0  10   5    0.19    0.14
   1 -10   5    0.03    0.07
  -1 -10  -5    0.30    0.13
   1  10   5   -0.03    0.12
  -1  10  -5    0.23    0.17
  -2 -10  -5    0.98    0.18
   2  10   5    0.79    0.21
  -2  10  -5    0.83    0.24
  -3 -10  -5    0.21    0.12
  -3  10  -5    0.24    0.19
   3  10   5    0.24    0.17
  -4 -10  -5    2.47    0.31
  -4  10  -5    2.93    0.46
   4  10   5    2.67    0.40
  -5 -10  -5    0.08    0.11
   5  10   5    0.06    0.16
  -5  10  -5   -0.06    0.20
  -6 -10  -5    4.03    0.42
   6  10   5    3.18    0.47
  -6  10  -5    3.14    0.53
   6  11  -5    3.21    0.64
   5 -11  -5    0.16    0.13
   5  11  -5    0.38    0.19
  -5  11   5    0.16    0.26
  -4 -11   5    1.08    0.21
   4 -11  -5    1.18    0.22
  -4  11   5    1.26    0.40
   4  11  -5    1.29    0.26
   3 -11  -5    0.02    0.09
  -3 -11   5    0.00    0.09
  -3  11   5    0.13    0.24
   3  11  -5    0.08    0.14
  -2 -11   5    0.45    0.13
   2 -11  -5    0.12    0.10
  -1 -11   5    0.14    0.10
   1 -11  -5    0.01    0.09
   0 -11   5    0.35    0.12
   0 -11  -5    0.18    0.11
   0  11   5    0.39    0.25
  -1 -11  -5    0.18    0.12
   1  11   5    0.19    0.14
  -2 -11  -5    0.70    0.17
   2  11   5    0.60    0.21
  -3 -11  -5    1.33    0.23
   3  11   5    1.05    0.27
  -4 -11  -5    0.39    0.15
   4  11   5    0.27    0.19
  -5 -11  -5    0.09    0.12
   5  11   5    0.09    0.16
  -5 -12   5    1.38    0.24
   5  12  -5    0.99    0.27
  -4 -12   5    0.10    0.11
   4 -12  -5   -0.04    0.10
   4  12  -5    0.16    0.16
  -4  12   5    0.21    0.27
   3 -12  -5    3.31    0.38
  -3 -12   5    3.20    0.34
  -3  12   5    3.69    0.65
  -2 -12   5   -0.05    0.09
   2 -12  -5    0.05    0.11
  -1 -12   5    0.81    0.17
   1 -12  -5    0.83    0.19
   0 -12  -5    0.02    0.09
  -1 -12  -5    0.32    0.14
   1  12   5    0.12    0.18
  -2 -12  -5    0.47    0.16
   2  12   5    0.26    0.19
  -3 -12  -5    0.10    0.12
   3  12   5    0.14    0.17
  -4 -12  -5    1.69    0.28
   4  12   5    1.94    0.36
  -4 -13   5    0.28    0.14
   3 -13  -5    0.20    0.13
  -3 -13   5    0.42    0.16
  -3  13   5    0.25    0.31
   2 -13  -5    0.03    0.11
   1 -13  -5    1.50    0.26
   0 -13  -5    9.22    0.69
  -1 -13  -5   -0.16    0.09
  -2 -13  -5    7.77    0.62
   3  13   5    4.08    0.50
  -9   0   6   -0.11    0.17
  -9   0   6   -0.45    0.38
  -8   0   6    2.93    0.43
  -8   0   6    2.73    0.74
  -7   0   6   -0.04    0.12
   7   0  -6   -0.06    0.09
  -7   0   6    0.13    0.36
  -6   0   6   12.93    1.24
  -6   0   6   12.68    0.87
   6   0  -6   12.38    0.79
  -5   0   6    0.06    0.11
  -5   0   6    0.09    0.24
   5   0  -6    0.23    0.10
   4   0  -6   64.89    3.33
  -4   0   6   62.30    3.36
  -4   0   6   59.29    3.71
  -3   0   6    0.27    0.21
   2   0  -6   45.23    2.39
  -2   0   6   44.28    2.37
  -2   0   6   44.37    2.64
  -1   0   6   -0.03    0.12
   1   0  -6    0.00    0.04
   0   0  -6   23.05    1.25
   0   0  -6   22.79    1.19
   0   0   6   22.26    1.37
   1   0   6    0.00    0.13
  -1   0  -6    0.03    0.04
  -1   0  -6   -0.01    0.04
   1   0   6   -0.02    0.08
  -2   0  -6   42.69    2.18
  -2   0  -6   38.86    2.10
  -2   0  -6   41.02    2.16
   2   0   6   40.32    2.33
  -3   0  -6    0.03    0.06
   3   0   6   -0.17    0.09
  -3   0  -6    0.02    0.05
  -4   0  -6   12.87    0.81
   4   0   6   11.77    0.84
  -5   0  -6    0.15    0.12
   5   0   6   -0.12    0.11
   6   0   6    6.21    0.50
  -6   0  -6    5.69    0.58
   7   0   6   -0.09    0.11
  -7   0  -6    0.07    0.13
  -8   0  -6   12.35    0.94
  -9   0  -6    0.08    0.16
  -9  -1   6    0.91    0.28
  -9  -1   6    0.95    0.58
  -9   1   6    0.02    0.45
  -9   1   6    0.67    0.27
  -8  -1   6    2.00    0.65
  -8  -1   6    1.74    0.33
  -8   1   6    1.40    0.31
  -8   1   6    2.05    0.66
  -7  -1   6   -0.12    0.30
  -7  -1   6    0.12    0.15
   7   1  -6    0.42    0.14
  -7   1   6    0.33    0.17
  -7   1   6    0.36    0.36
  -6  -1   6    5.29    0.48
  -6  -1   6    5.66    0.88
   6  -1  -6    6.21    0.44
   6   1  -6    6.47    0.46
  -6   1   6    4.22    0.80
  -6   1   6    6.27    0.52
  -5  -1   6    4.68    0.74
   5  -1  -6    4.75    0.36
  -5  -1   6    4.31    0.38
   5   1  -6    4.63    0.36
  -5   1   6    4.50    0.42
  -5   1   6    4.12    0.71
  -4  -1   6   86.02    4.54
   4  -1  -6   87.58    4.53
  -4   1   6   85.45    4.59
  -4   1   6   82.75    4.92
   4   1  -6   87.79    4.55
   3  -1  -6    0.08    0.06
  -3  -1   6    0.23    0.08
  -3  -1   6    0.03    0.16
   3   1  -6    0.19    0.08
  -3   1   6    0.16    0.21
  -3   1   6    0.07    0.08
  -2  -1   6   71.64    4.17
   2  -1  -6   73.58    3.91
   2  -1  -6   77.59    3.88
  -2  -1   6   72.61    3.86
   2   1  -6   71.07    3.91
  -2   1   6   80.10    4.20
  -2   1   6   75.38    3.93
  -1  -1   6    4.16    0.52
   1  -1  -6    4.93    0.34
   1  -1  -6    5.21    0.30
  -1   1   6    4.10    0.50
   1   1  -6    4.89    0.34
   0  -1  -6  134.30    6.47
   0  -1   6  120.08    6.65
   0  -1  -6  129.62    6.52
   0   1   6  124.74    6.63
   0   1  -6  117.36    6.50
  -1  -1  -6   43.19    2.22
   1  -1   6   41.63    2.33
  -1  -1  -6   40.15    2.23
  -1  -1  -6   43.15    2.18
  -1   1  -6   39.30    2.22
   1   1   6   41.76    2.29
   1   1   6   42.50    2.41
  -1   1  -6   42.69    2.20
   2  -1   6   16.77    1.12
  -2  -1  -6   16.90    0.92
  -2  -1  -6   17.40    0.98
  -2  -1  -6   17.99    0.99
  -2   1  -6   18.61    0.97
   2   1   6   17.19    1.13
  -2   1  -6   16.37    0.98
   3  -1   6   17.53    1.13
  -3  -1  -6   18.87    1.05
  -3   1  -6   19.02    1.05
   3   1   6   17.32    1.14
  -3   1  -6   16.25    0.98
   4  -1   6    5.89    0.49
  -4  -1  -6    5.57    0.46
  -4   1  -6    6.10    0.47
   4   1   6    5.63    0.51
  -5  -1  -6   36.24    2.15
   5  -1   6   37.87    2.14
  -5   1  -6   38.13    2.16
   5   1   6   38.92    2.18
   6  -1   6   23.63    1.34
  -6  -1  -6   20.07    1.38
  -6   1  -6   23.03    1.40
   6   1   6   22.03    1.36
  -7  -1  -6    1.11    0.27
   7   1   6    1.78    0.28
  -7   1  -6    1.89    0.32
  -8  -1  -6    1.12    0.29
  -8   1  -6    1.04    0.27
  -9  -1  -6    0.88    0.38
  -9   1  -6    1.20    0.30
  -9  -2   6    5.33    1.04
  -9   2   6    5.26    0.65
  -9   2   6    5.56    1.07
  -8  -2   6   -0.03    0.13
  -8  -2   6    0.38    0.42
  -8   2   6   -0.10    0.15
  -7  -2   6   12.10    0.80
  -7  -2   6    9.90    1.28
   7   2  -6   11.39    0.74
  -7   2   6   10.12    0.83
  -6  -2   6    0.66    0.17
  -6  -2   6    0.43    0.34
   6  -2  -6    0.93    0.15
   6   2  -6    0.92    0.18
  -6   2   6    0.64    0.20
   5  -2  -6   13.03    0.79
  -5  -2   6   12.60    1.18
  -5  -2   6   13.15    0.81
  -5   2   6   12.62    0.89
   5   2  -6   13.52    0.82
  -4  -2   6    0.11    0.08
   4  -2  -6   -0.07    0.06
  -4  -2   6    0.15    0.22
  -4   2   6   -0.08    0.08
   4   2  -6    0.15    0.09
   3  -2  -6    0.53    0.11
   3  -2  -6    0.70    0.12
  -3  -2   6    0.71    0.10
  -3  -2   6    0.34    0.23
  -3   2   6    0.59    0.14
   3   2  -6    0.60    0.12
  -3   2   6    0.81    0.27
   2  -2  -6    1.40    0.17
  -2  -2   6    1.33    0.32
   2  -2  -6    1.55    0.16
   2   2  -6    1.49    0.18
  -2   2   6    1.81    0.36
  -2   2   6    1.54    0.21
   1  -2  -6   14.72    0.89
   1  -2  -6   16.44    0.86
  -1  -2   6   14.73    1.07
  -1   2   6   15.45    1.05
   1   2  -6   15.90    0.89
   0  -2  -6   13.20    0.69
   0  -2   6   10.98    0.85
   0  -2  -6   12.95    0.74
   0   2   6   12.14    0.88
   0   2   6   12.58    0.82
   0   2  -6   11.97    0.72
  -1  -2  -6    0.77    0.11
  -1  -2  -6    0.76    0.12
   1  -2   6    0.76    0.19
  -1  -2  -6    0.52    0.07
   1   2   6    0.43    0.17
   1   2   6    0.49    0.12
  -1   2  -6    0.68    0.09
  -1   2  -6    0.48    0.09
  -2  -2  -6    0.05    0.03
  -2  -2  -6    0.06    0.06
   2  -2   6    0.18    0.15
  -2  -2  -6   -0.03    0.05
  -2   2  -6    0.08    0.05
   2   2   6    0.02    0.12
  -2   2  -6    0.07    0.06
  -3  -2  -6    0.62    0.14
   3  -2   6    1.07    0.23
  -3   2  -6    0.82    0.11
  -3   2  -6    0.73    0.15
   3   2   6    0.63    0.19
  -4  -2  -6   18.32    1.12
   4  -2   6   18.74    1.14
  -4   2  -6   18.55    1.12
   4   2   6   17.80    1.18
   5  -2   6   25.91    1.49
  -5  -2  -6   25.03    1.52
   5   2   6   25.92    1.56
  -5   2  -6   25.11    1.53
  -6  -2  -6    6.48    0.55
  -6   2  -6    6.65    0.56
   6   2   6    5.21    0.50
  -7  -2  -6    0.85    0.24
  -7   2  -6    1.07    0.27
   7   2   6    0.99    0.23
  -8  -2  -6    0.17    0.16
   8   2   6    0.15    0.17
  -8   2  -6    0.18    0.18
  -9   2  -6    0.21    0.22
  -9  -3   6    0.24    0.46
  -9   3   6    0.04    0.19
  -8  -3   6    1.32    0.56
  -8   3   6    1.33    0.32
  -7  -3   6    4.96    0.86
  -7  -3   6    5.20    0.47
  -7   3   6    6.11    0.63
   7   3  -6    5.31    0.45
  -6  -3   6    0.58    0.37
   6  -3  -6    1.01    0.15
  -6  -3   6    0.97    0.19
  -6   3   6    0.66    0.22
   6   3  -6    0.81    0.17
   5  -3  -6    0.27    0.09
  -5  -3   6   -0.28    0.21
  -5  -3   6    0.20    0.10
  -5   3   6    0.10    0.14
   5   3  -6    0.10    0.09
  -4  -3   6   40.24    2.09
   4  -3  -6   36.95    2.10
   4  -3  -6   39.23    2.12
  -4  -3   6   36.73    2.47
  -4   3   6   41.48    2.24
   4   3  -6   38.62    2.13
  -3  -3   6    2.36    0.17
   3  -3  -6    2.36    0.23
   3  -3  -6    2.21    0.22
  -3  -3   6    2.31    0.43
  -3   3   6    2.23    0.29
   3   3  -6    1.96    0.22
  -2  -3   6   23.39    1.58
   2  -3  -6   23.95    1.31
   2  -3  -6   22.94    1.32
  -2   3   6   25.93    1.56
   2   3  -6   23.80    1.34
   1  -3  -6   35.33    1.90
   1  -3  -6   35.89    1.87
  -1  -3   6   35.21    2.11
  -1   3   6   34.34    2.05
  -1   3   6   35.90    2.06
   1   3  -6   33.22    1.89
   0  -3  -6   59.43    3.06
   0  -3  -6   60.30    3.11
   0  -3   6   55.94    3.25
   0   3   6   56.28    3.17
   0   3  -6   61.36    3.09
   0   3   6   56.63    3.27
  -1  -3  -6  100.87    5.42
  -1  -3  -6  106.16    5.37
   1   3   6   99.73    5.58
  -1   3  -6  101.75    5.39
   1   3   6  106.82    5.41
  -1   3  -6  105.68    5.38
  -2  -3  -6    0.24    0.08
  -2  -3  -6    0.31    0.07
   2  -3   6    0.37    0.17
   2   3   6    0.36    0.16
  -2   3  -6    0.34    0.10
  -2   3  -6    0.38    0.08
  -3  -3  -6    6.20    0.48
   3  -3   6    7.20    0.57
   3   3   6    6.50    0.58
  -3   3  -6    7.59    0.51
  -3   3  -6    7.13    0.42
   4  -3   6    1.57    0.25
  -4  -3  -6    1.75    0.24
   4   3   6    1.13    0.25
  -4   3  -6    1.99    0.27
  -5  -3  -6   31.19    1.85
   5   3   6   32.91    1.89
  -5   3  -6   30.96    1.85
  -6  -3  -6    0.37    0.16
  -6   3  -6    0.34    0.16
   6   3   6    0.09    0.16
  -7  -3  -6    0.08    0.14
  -7   3  -6    0.18    0.16
   7   3   6   -0.09    0.13
  -8  -3  -6    0.05    0.14
  -8   3  -6   -0.05    0.16
   8   3   6    0.00    0.15
  -9  -4   6    1.33    0.57
  -9   4   6    0.40    0.26
  -8  -4   6    0.19    0.37
   8   4  -6    0.31    0.16
  -8   4   6    0.23    0.20
  -7  -4   6   -0.01    0.29
  -7   4   6    0.04    0.16
   7   4  -6    0.00    0.11
  -6  -4   6   -0.05    0.29
  -6  -4   6    0.21    0.11
  -6   4   6    0.15    0.15
   6   4  -6    0.16    0.12
  -5  -4   6    1.24    0.17
   5  -4  -6    0.87    0.14
  -5  -4   6    0.58    0.32
  -5   4   6    0.69    0.21
   5   4  -6    0.62    0.16
  -4  -4   6   24.60    1.76
   4  -4  -6   24.78    1.40
   4  -4  -6   24.57    1.42
  -4  -4   6   25.65    1.38
   4   4  -6   25.49    1.43
  -4   4   6   25.13    1.54
   3  -4  -6    0.28    0.08
   3  -4  -6    0.48    0.11
  -3  -4   6    0.30    0.22
  -3  -4   6    0.29    0.06
  -3   4   6    0.30    0.14
   3   4  -6    0.34    0.10
   2  -4  -6    0.56    0.11
   2  -4  -6    0.41    0.09
  -2  -4   6    0.30    0.20
  -2   4   6    0.59    0.20
   2   4  -6    0.42    0.11
   1  -4  -6    0.78    0.11
   1  -4  -6    0.71    0.13
  -1  -4   6    0.44    0.19
  -1   4   6    0.80    0.23
   1   4  -6    0.48    0.11
  -1   4   6    0.71    0.21
   0  -4  -6   11.54    0.68
   0  -4   6   12.36    0.64
   0  -4  -6   11.77    0.73
   0  -4   6   11.36    0.86
   0   4   6   12.23    0.87
   0   4  -6   12.21    0.71
   0   4   6   11.31    0.77
  -1  -4  -6   13.01    0.75
  -1   4  -6   12.71    0.76
   1   4   6   13.33    0.94
  -1   4  -6   13.65    0.76
  -2  -4  -6    2.60    0.27
  -2  -4  -6    2.74    0.21
   2   4   6    3.06    0.39
  -2   4  -6    2.90    0.25
  -2   4  -6    2.79    0.21
  -3  -4  -6    3.20    0.24
  -3  -4  -6    3.17    0.30
   3  -4   6    3.81    0.40
   3   4   6    3.23    0.42
  -3   4  -6    3.09    0.23
  -3   4  -6    3.25    0.34
   4  -4   6    0.02    0.11
  -4  -4  -6    0.03    0.08
  -4   4  -6    0.20    0.12
   4   4   6    0.10    0.14
  -5  -4  -6    0.29    0.14
  -5   4  -6    0.62    0.20
   5   4   6    0.04    0.15
  -6  -4  -6    2.30    0.34
  -6   4  -6    3.08    0.41
   6   4   6    2.96    0.40
  -7  -4  -6    0.10    0.13
  -7   4  -6    0.11    0.16
   7   4   6    0.14    0.16
  -8  -4  -6    0.13    0.17
  -8   4  -6    0.13    0.19
   8   4   6    0.17    0.18
  -9  -5   6    0.61    0.51
  -9   5   6   -0.08    0.20
  -8  -5   6    1.14    0.53
   8   5  -6    2.10    0.30
  -8   5   6    1.81    0.39
  -7  -5   6    1.26    0.51
   7   5  -6    1.12    0.21
  -7   5   6    1.32    0.33
  -6  -5   6    1.50    0.47
   6   5  -6    0.84    0.18
  -6   5   6    1.13    0.29
   5  -5  -6    3.62    0.28
   5  -5  -6    3.76    0.36
  -5  -5   6    2.75    0.56
  -5   5   6    2.47    0.41
   5   5  -6    3.52    0.35
  -4  -5   6    4.53    0.32
   4  -5  -6    3.96    0.34
  -4  -5   6    3.88    0.63
   4  -5  -6    4.42    0.33
   4   5  -6    4.48    0.36
  -4   5   6    3.95    0.48
   3  -5  -6    1.56    0.19
   3  -5  -6    1.31    0.18
  -3  -5   6    1.77    0.40
  -3   5   6    1.35    0.28
   3   5  -6    1.25    0.18
  -3   5   6    1.34    0.26
   2  -5  -6    0.01    0.06
  -2  -5   6   -0.10    0.14
   2  -5  -6    0.07    0.06
  -2   5   6    0.02    0.14
   2   5  -6    0.09    0.07
  -1  -5   6   17.97    1.24
   1  -5  -6   17.92    1.06
   1  -5  -6   18.47    1.03
  -1   5   6   18.10    1.19
   1   5  -6   18.33    1.05
   0  -5   6    0.27    0.16
   0  -5  -6    0.07    0.06
   0  -5   6    0.18    0.04
   0   5   6    0.17    0.14
   0   5   6    0.01    0.10
   0   5  -6    0.09    0.06
   0   5  -6    0.14    0.08
   1  -5   6    2.83    0.18
  -1  -5  -6    3.06    0.23
   1   5   6    2.46    0.36
  -1   5  -6    2.86    0.25
  -1   5  -6    2.86    0.23
  -2  -5  -6    2.48    0.21
   2  -5   6    2.52    0.17
  -2   5  -6    2.78    0.21
  -2   5  -6    2.69    0.29
   2   5   6    2.77    0.37
  -3  -5  -6    0.82    0.13
   3  -5   6    1.01    0.22
  -3  -5  -6    0.97    0.17
  -3   5  -6    0.84    0.11
  -3   5  -6    0.86    0.18
   3   5   6    0.86    0.23
  -4  -5  -6   11.95    0.79
  -4   5  -6   11.71    0.80
   4   5   6   10.89    0.85
  -5  -5  -6    0.75    0.19
   5   5   6    0.54    0.20
  -5   5  -6    0.82    0.21
  -6  -5  -6    1.35    0.27
  -6   5  -6    1.31    0.29
   6   5   6    1.36    0.28
  -7  -5  -6    3.42    0.46
  -7   5  -6    3.17    0.46
   7   5   6    2.82    0.42
  -8  -5  -6    0.02    0.13
   8   5   6   -0.17    0.14
  -8   5  -6    0.11    0.18
  -8  -6   6    3.16    0.73
   8   6  -6    4.50    0.46
  -8   6   6    5.04    0.67
  -7  -6   6    0.44    0.39
   7   6  -6    0.00    0.12
  -7   6   6    0.15    0.21
  -6  -6   6    7.79    0.96
  -6   6   6    6.71    0.75
   6   6  -6    7.40    0.56
   6   6  -6    7.46    0.63
   5  -6  -6   13.29    0.88
  -5  -6   6   15.22    1.25
   5   6  -6   15.32    0.98
  -5   6   6   14.89    1.07
   5   6  -6   12.86    0.88
   4  -6  -6    0.14    0.09
  -4  -6   6   -0.08    0.21
   4  -6  -6    0.17    0.09
  -4   6   6    0.12    0.15
  -4   6   6    0.20    0.18
   4   6  -6    0.12    0.09
   3  -6  -6   15.83    0.96
  -3  -6   6   16.61    1.24
  -3   6   6   16.76    1.13
  -3   6   6   16.08    1.07
  -2  -6   6   24.73    1.65
   2  -6  -6   24.41    1.41
   2   6  -6   25.51    1.44
  -2   6   6   26.31    1.55
   1  -6  -6   37.17    2.02
  -1  -6   6   36.67    1.97
  -1  -6   6   34.35    2.22
   1   6  -6   39.89    2.05
  -1   6   6   38.13    2.17
   0  -6  -6    7.23    0.46
   0  -6   6    7.03    0.63
   0  -6   6    7.73    0.41
   0   6   6    5.39    0.50
   0   6   6    7.14    0.60
   0   6  -6    7.10    0.47
   0   6  -6    6.82    0.46
   1  -6   6    9.02    0.50
  -1  -6  -6    8.56    0.54
  -1   6  -6    9.07    0.55
  -1   6  -6    8.03    0.57
   1   6   6    8.68    0.69
  -2  -6  -6    4.84    0.35
   2   6   6    4.63    0.52
  -2   6  -6    5.23    0.34
  -2   6  -6    4.55    0.39
  -3  -6  -6   13.45    0.80
   3   6   6   14.11    0.97
  -3   6  -6   12.93    0.88
  -4  -6  -6    3.75    0.40
  -4  -6  -6    3.14    0.30
   4   6   6    3.77    0.48
  -4   6  -6    3.64    0.41
  -5  -6  -6    0.95    0.21
  -5   6  -6    0.96    0.24
   5   6   6    1.30    0.28
  -6  -6  -6   -0.09    0.10
  -6   6  -6    0.32    0.19
   6   6   6    0.17    0.16
  -7  -6  -6    5.37    0.60
   7   6   6    5.63    0.61
  -7   6  -6    5.06    0.62
   8   6   6    3.56    0.49
  -8   6  -6    3.59    0.54
  -8  -7   6    0.48    0.46
   8   7  -6    0.16    0.15
  -8   7   6    0.08    0.25
  -7  -7   6    3.26    0.67
   7   7  -6    3.24    0.38
  -7   7   6    3.51    0.58
   7   7  -6    3.30    0.46
   6  -7  -6    2.03    0.28
  -6  -7   6    2.80    0.58
   6   7  -6    2.13    0.34
   6   7  -6    1.90    0.27
  -6   7   6    1.31    0.36
  -5  -7   6    0.35    0.27
   5  -7  -6   -0.05    0.08
   5   7  -6    0.27    0.15
  -5   7   6    0.03    0.16
   4  -7  -6    7.42    0.52
  -4  -7   6    6.73    0.82
  -4   7   6    7.30    0.77
   3  -7  -6    1.80    0.22
  -3  -7   6    2.08    0.42
  -3   7   6    2.07    0.30
  -2  -7   6    5.82    0.68
   2  -7  -6    5.92    0.44
  -2   7   6    7.05    0.55
  -1  -7   6    5.57    0.35
  -1  -7   6    5.18    0.62
   1  -7  -6    5.09    0.38
  -1   7   6    5.37    0.49
   0  -7   6   11.04    0.59
   0  -7  -6   10.12    0.64
   0   7  -6    8.95    0.65
   0   7  -6   10.22    0.65
   0   7   6   10.36    0.76
   1  -7   6    0.43    0.08
  -1  -7  -6    0.51    0.11
  -1   7  -6    0.34    0.12
   1   7   6    0.35    0.19
  -1   7  -6    0.45    0.11
  -2  -7  -6    0.52    0.12
  -2   7  -6    0.49    0.11
   2   7   6    0.38    0.20
  -2   7  -6    0.42    0.14
  -3  -7  -6    1.34    0.19
   3   7   6    1.26    0.28
  -3   7  -6    1.65    0.27
  -4  -7  -6    0.52    0.16
  -4  -7  -6    0.60    0.14
  -4   7  -6    0.51    0.19
   4   7   6    0.52    0.21
  -5  -7  -6    0.18    0.13
  -5  -7  -6    0.00    0.09
  -5   7  -6    0.15    0.15
   5   7   6    0.04    0.16
  -6  -7  -6    4.77    0.52
  -6   7  -6    4.49    0.56
   6   7   6    5.44    0.60
  -7  -7  -6    4.04    0.50
  -7   7  -6    3.91    0.54
   7   7   6    3.59    0.48
  -7  -8   6    6.04    0.89
  -7   8   6    7.07    0.82
   7   8  -6    6.25    0.67
   7   8  -6    5.73    0.56
  -6  -8   6    1.36    0.46
   6  -8  -6    2.03    0.27
  -6   8   6    1.24    0.37
   6   8  -6    1.74    0.27
   6   8  -6    2.02    0.33
  -5  -8   6    0.18    0.27
   5  -8  -6    0.27    0.12
   5   8  -6    0.39    0.16
  -5   8   6    0.44    0.24
  -4  -8   6    4.93    0.66
   4  -8  -6    4.43    0.38
  -4   8   6    4.38    0.60
   4   8  -6    4.21    0.45
  -3  -8   6    0.67    0.30
   3  -8  -6    0.55    0.14
  -2  -8   6    0.96    0.30
  -2  -8   6    0.86    0.13
   2  -8  -6    0.97    0.16
  -2   8   6    0.54    0.19
  -1  -8   6   49.45    2.47
  -1  -8   6   43.83    2.72
   1  -8  -6   46.18    2.51
  -1   8   6   44.43    2.60
   0  -8   6    5.94    0.39
   0  -8  -6    5.46    0.43
   0   8   6    7.46    0.58
  -1  -8  -6    2.92    0.29
   1   8   6    3.30    0.41
  -1   8  -6    2.98    0.28
  -1   8  -6    2.40    0.41
  -2  -8  -6    0.67    0.14
  -2   8  -6    0.38    0.16
   2   8   6    0.84    0.23
  -2   8  -6    0.67    0.13
  -3  -8  -6   24.42    1.49
   3   8   6   28.16    1.67
  -3   8  -6   27.63    1.62
  -4  -8  -6    0.08    0.10
   4   8   6    0.07    0.15
  -4   8  -6   -0.02    0.13
  -5  -8  -6    8.12    0.55
   5   8   6    6.98    0.65
  -5   8  -6    6.60    0.64
  -6  -8  -6    0.14    0.13
  -6  -8  -6    0.13    0.15
   6   8   6    0.17    0.17
  -6   8  -6   -0.12    0.18
  -7  -8  -6   15.03    1.14
  -7  -8  -6   17.53    1.04
  -7   8  -6   14.86    1.18
   7   8   6   16.32    1.17
   7   9  -6    0.90    0.28
  -7   9   6    0.85    0.36
   7   9  -6    0.78    0.22
   6  -9  -6    0.67    0.17
  -6  -9   6    0.23    0.31
  -6   9   6    0.05    0.22
   6   9  -6    0.39    0.20
   5  -9  -6    0.13    0.12
  -5  -9   6   -0.09    0.24
   5   9  -6    0.08    0.14
  -5   9   6    0.36    0.26
   4  -9  -6    0.29    0.12
  -4  -9   6    0.42    0.28
  -4   9   6   -0.06    0.17
   3  -9  -6    3.11    0.32
  -3  -9   6    2.73    0.49
   2  -9  -6    0.29    0.11
  -2  -9   6    0.49    0.25
  -2  -9   6    0.24    0.09
  -1  -9   6    0.55    0.12
   1  -9  -6    0.55    0.14
  -1   9   6    0.58    0.19
   0  -9  -6    0.13    0.09
   0   9   6    0.00    0.13
  -1  -9  -6    2.70    0.28
   1   9   6    2.50    0.37
  -1   9  -6    2.23    0.26
  -2  -9  -6    0.69    0.15
   2   9   6    0.62    0.20
  -3  -9  -6    3.58    0.35
   3   9   6    3.38    0.45
  -4  -9  -6    0.09    0.09
   4   9   6    0.07    0.16
  -4   9  -6    0.32    0.20
  -5  -9  -6    2.05    0.28
  -5   9  -6    2.22    0.40
   5   9   6    2.10    0.38
  -6  -9  -6    0.20    0.13
  -6   9  -6    0.46    0.29
   6   9   6    0.18    0.20
   6 -10  -6    1.18    0.24
   6  10  -6    1.10    0.29
  -6  10   6    0.75    0.36
  -5 -10   6    1.31    0.40
   5 -10  -6    1.28    0.22
  -5  10   6    0.82    0.36
   5  10  -6    0.52    0.21
  -4 -10   6    0.08    0.24
   4 -10  -6    0.00    0.09
  -4  10   6   -0.12    0.21
  -3 -10   6   -0.07    0.08
  -3 -10   6    0.40    0.24
   3 -10  -6   -0.04    0.08
  -2 -10   6    0.99    0.17
   2 -10  -6    1.42    0.22
   1 -10  -6    6.87    0.50
  -1 -10   6    6.30    0.46
   0 -10  -6    3.41    0.36
   0  10   6    3.82    0.44
  -1 -10  -6   -0.03    0.08
   1  10   6    0.13    0.15
  -1  10  -6   -0.07    0.08
  -2 -10  -6    0.37    0.14
   2  10   6    0.51    0.20
  -3 -10  -6    4.14    0.41
   3  10   6    4.57    0.53
  -4 -10  -6   -0.03    0.09
   4  10   6   -0.20    0.14
  -5 -10  -6   -0.03    0.10
   5  10   6   -0.13    0.13
  -6 -10  -6    0.53    0.18
   5 -11  -6    0.16    0.13
  -5  11   6    0.21    0.29
  -4 -11   6    0.02    0.10
  -4 -11   6   -0.02    0.25
   4 -11  -6   -0.11    0.08
  -4  11   6   -0.10    0.20
   3 -11  -6    0.78    0.18
  -3 -11   6    1.07    0.19
  -2 -11   6    2.67    0.32
   2 -11  -6    2.13    0.29
   1 -11  -6    4.09    0.41
   0 -11  -6    0.04    0.09
   0  11   6    0.18    0.16
  -1 -11  -6    2.26    0.28
   1  11   6    2.21    0.35
  -1  11  -6    2.21    0.27
  -2 -11  -6    5.43    0.45
   2  11   6    4.69    0.54
  -3 -11  -6    3.89    0.41
   3  11   6    4.64    0.53
  -4 -11  -6    0.67    0.19
   4  11   6    0.76    0.25
  -5 -11  -6    1.04    0.22
   5  11   6    0.68    0.28
  -4 -12   6    0.16    0.12
   4 -12  -6    0.05    0.12
  -4  12   6   -0.10    0.25
   3 -12  -6    0.29    0.14
  -3  12   6    0.43    0.29
   2 -12  -6    0.48    0.16
   1 -12  -6    1.11    0.22
   0 -12  -6    1.08    0.21
  -1 -12  -6   10.76    0.74
   1  12   6    9.83    0.83
  -2 -12  -6    3.44    0.40
   2  12   6    3.78    0.47
  -3 -12  -6   -0.01    0.12
   3  12   6    0.10    0.18
  -4 -12  -6    0.19    0.13
   4  12   6   -0.03    0.17
   2 -13  -6    0.25    0.15
   1 -13  -6    0.91    0.22
   0 -13  -6    0.22    0.15
  -1 -13  -6    2.48    0.34
  -2 -13  -6    3.48    0.46
  -9   0   7    0.26    0.52
  -8   0   7    0.06    0.41
  -8   0   7   -0.03    0.17
  -7   0   7    9.94    1.32
   7   0  -7   11.30    0.74
  -7   0   7   11.03    0.82
   6   0  -7    0.04    0.09
  -6   0   7    0.36    0.36
  -6   0   7   -0.06    0.12
   5   0  -7   69.61    3.58
  -5   0   7   67.60    3.61
  -5   0   7   60.66    4.04
  -4   0   7    0.21    0.26
   4   0  -7    0.10    0.08
  -4   0   7   -0.03    0.08
  -3   0   7    5.05    0.70
  -3   0   7    5.26    0.39
   3   0  -7    5.77    0.40
   2   0  -7    0.04    0.06
  -2   0   7    0.02    0.05
  -2   0   7   -0.01    0.16
   1   0  -7   91.49    4.83
  -1   0   7   92.94    5.05
   0   0   7   -0.15    0.09
   0   0  -7   -0.04    0.04
  -1   0  -7   15.89    0.87
   1   0   7   15.70    0.99
   1   0   7   15.03    1.07
  -1   0  -7   15.44    0.89
  -2   0  -7   -0.01    0.05
  -2   0  -7   -0.01    0.04
   2   0   7    0.05    0.14
  -3   0  -7    8.92    0.55
   3   0   7    9.03    0.72
  -3   0  -7    9.19    0.59
  -4   0  -7   -0.03    0.07
   4   0   7   -0.05    0.13
   5   0   7    1.40    0.28
  -5   0  -7    1.73    0.28
   6   0   7    0.00    0.13
  -6   0  -7    0.15    0.14
  -7   0  -7    2.93    0.42
  -8   0  -7   -0.15    0.11
  -9  -1   7    1.19    0.63
  -9   1   7    1.78    0.75
  -8  -1   7    3.81    0.84
  -8   1   7    2.76    0.44
  -8   1   7    3.50    0.84
  -7  -1   7   -0.43    0.29
  -7  -1   7   -0.05    0.13
  -7   1   7    0.05    0.15
  -7   1   7    0.30    0.39
   7   1  -7    0.03    0.11
   6  -1  -7    1.34    0.20
  -6  -1   7    0.96    0.45
  -6  -1   7    1.33    0.24
  -6   1   7    1.53    0.27
  -6   1   7    0.69    0.40
   6   1  -7    1.29    0.21
  -5  -1   7    2.44    0.57
  -5  -1   7    3.19    0.33
   5  -1  -7    2.97    0.31
  -5   1   7    3.18    0.37
   5   1  -7    2.93    0.31
  -5   1   7    3.34    0.65
   4  -1  -7    0.06    0.08
  -4  -1   7   -0.05    0.22
  -4  -1   7    0.10    0.09
  -4   1   7    0.16    0.24
  -4   1   7   -0.02    0.09
   4   1  -7    0.08    0.08
  -3  -1   7   55.85    3.05
  -3  -1   7   57.88    3.48
   3  -1  -7   57.34    3.10
  -3   1   7   61.29    3.48
   3   1  -7   58.73    3.11
  -3   1   7   58.96    3.13
   2  -1  -7    9.46    0.60
  -2  -1   7    8.64    0.82
   2   1  -7   10.15    0.61
  -2   1   7    9.96    0.85
  -2   1   7    9.43    0.60
   1  -1  -7    2.37    0.23
  -1  -1   7    2.05    0.37
   1  -1  -7    2.42    0.17
   1   1  -7    1.97    0.21
  -1   1   7    2.64    0.39
   0  -1  -7    0.57    0.07
   0  -1  -7    0.42    0.10
   0  -1   7    0.53    0.19
   0   1  -7    0.60    0.11
   0   1   7    0.69    0.19
  -1  -1  -7    8.27    0.44
   1  -1   7    7.66    0.60
  -1  -1  -7    8.06    0.49
  -1  -1  -7    7.96    0.51
   1   1   7    6.92    0.66
   1   1   7    8.18    0.57
  -1   1  -7    7.89    0.46
  -1   1  -7    7.95    0.50
  -2  -1  -7   14.30    0.81
  -2  -1  -7   14.24    0.81
   2  -1   7   13.10    0.96
  -2  -1  -7   13.11    0.74
  -2   1  -7   14.21    0.79
  -2   1  -7   13.65    0.79
   2   1   7   12.42    0.96
  -3  -1  -7    3.92    0.32
  -3  -1  -7    3.57    0.29
  -3  -1  -7    3.63    0.24
   3  -1   7    3.47    0.44
  -3   1  -7    4.06    0.32
  -3   1  -7    4.24    0.28
   3   1   7    3.98    0.48
   4  -1   7    1.91    0.30
  -4  -1  -7    1.98    0.26
  -4   1  -7    1.77    0.26
   4   1   7    1.97    0.33
   5  -1   7   -0.04    0.12
  -5  -1  -7    0.16    0.13
  -5   1  -7    0.18    0.13
   5   1   7    0.56    0.21
  -6  -1  -7    1.09    0.24
   6  -1   7    1.25    0.25
  -6   1  -7    1.45    0.28
   6   1   7    1.29    0.27
  -7  -1  -7    7.07    0.64
   7   1   7    8.07    0.63
  -7   1  -7    7.10    0.63
  -8  -1  -7    3.37    0.49
  -8   1  -7    3.93    0.52
  -9  -2   7    0.14    0.50
  -9   2   7    1.56    0.67
  -9   2   7    0.41    0.25
  -8  -2   7    1.28    0.60
  -8   2   7    1.14    0.58
  -8   2   7    1.63    0.35
  -7  -2   7    2.68    0.69
   7   2  -7    2.66    0.32
  -7   2   7    1.57    0.60
  -7   2   7    2.90    0.41
  -6  -2   7    3.74    0.73
  -6  -2   7    3.84    0.45
   6  -2  -7    3.51    0.33
   6   2  -7    3.13    0.34
  -6   2   7    3.79    0.45
  -6   2   7    1.85    0.58
  -5  -2   7   16.81    1.00
   5  -2  -7   16.84    1.00
  -5  -2   7   15.01    1.40
   5   2  -7   17.94    1.03
  -5   2   7   18.90    1.48
  -5   2   7   15.91    1.09
   4  -2  -7    0.02    0.07
  -4  -2   7   -0.15    0.22
  -4  -2   7    0.29    0.09
  -4   2   7    0.01    0.10
  -4   2   7   -0.07    0.20
   4   2  -7    0.27    0.11
   3  -2  -7   16.62    0.98
   3  -2  -7   18.19    1.01
  -3  -2   7   16.64    0.93
   3   2  -7   17.51    1.02
  -3   2   7   17.83    1.32
  -3   2   7   17.27    1.05
  -2  -2   7    9.59    0.85
   2  -2  -7   10.51    0.59
   2  -2  -7    9.65    0.62
   2   2  -7    9.70    0.62
  -2   2   7   10.09    0.65
  -2   2   7    9.55    0.84
   1  -2  -7    3.66    0.29
  -1  -2   7    3.56    0.48
   1  -2  -7    3.52    0.24
  -1   2   7    4.11    0.49
   1   2  -7    3.16    0.27
   0  -2  -7   32.81    1.84
   0  -2   7   31.89    1.99
   0  -2  -7   36.19    1.79
   0   2   7   32.68    2.03
   0   2   7   32.89    1.95
   0   2  -7   34.88    1.83
  -1  -2  -7    0.20    0.08
   1  -2   7    0.22    0.14
  -1  -2  -7    0.19    0.05
  -1   2  -7    0.20    0.07
   1   2   7    0.24    0.18
  -1   2  -7    0.27    0.05
   1   2   7    0.37    0.12
  -2  -2  -7    5.41    0.37
   2  -2   7    4.93    0.55
  -2  -2  -7    4.89    0.37
  -2  -2  -7    5.01    0.31
   2   2   7    5.09    0.57
  -2   2  -7    5.15    0.34
  -2   2  -7    5.32    0.36
   3  -2   7    4.08    0.48
  -3  -2  -7    4.20    0.35
  -3  -2  -7    4.25    0.28
  -3   2  -7    4.39    0.30
   3   2   7    4.07    0.49
  -3   2  -7    4.44    0.35
  -4  -2  -7   40.41    2.17
   4  -2   7   41.79    2.23
  -4   2  -7   36.08    2.06
  -4   2  -7   37.95    2.16
   4   2   7   37.08    2.25
  -5  -2  -7    0.08    0.10
   5  -2   7    0.04    0.16
   5   2   7    0.26    0.17
  -5   2  -7    0.30    0.14
  -6  -2  -7    8.79    0.69
  -6   2  -7    8.68    0.69
   6   2   7    8.51    0.69
  -7  -2  -7    1.98    0.34
   7   2   7    2.84    0.39
  -7   2  -7    2.11    0.35
  -8  -2  -7    5.12    0.58
   8   2   7    4.34    0.51
  -8   2  -7    4.76    0.58
  -9  -3   7    0.94    0.61
  -9   3   7    1.35    0.35
  -8  -3   7   11.51    1.46
   8   3  -7   13.26    0.95
  -8   3   7   12.60    0.99
  -7  -3   7    0.00    0.33
   7   3  -7    0.16    0.12
  -7   3   7    0.03    0.16
   6  -3  -7    1.44    0.19
  -6  -3   7    1.05    0.43
  -6   3   7    1.60    0.32
   6   3  -7    1.75    0.25
  -5  -3   7    0.65    0.37
   5  -3  -7    1.01    0.16
   5   3  -7    0.91    0.18
  -5   3   7    1.11    0.24
   4  -3  -7    0.06    0.08
  -4  -3   7   -0.04    0.22
   4   3  -7    0.03    0.09
  -4   3   7    0.13    0.12
   3  -3  -7    0.41    0.11
  -3  -3   7    0.22    0.23
   3  -3  -7    0.48    0.10
   3   3  -7    0.41    0.11
  -3   3   7    0.38    0.25
  -3   3   7    0.45    0.16
   2  -3  -7    1.52    0.17
   2  -3  -7    1.27    0.18
  -2  -3   7    1.37    0.34
  -2   3   7    1.22    0.32
   2   3  -7    1.51    0.19
  -1  -3   7    3.73    0.50
   1  -3  -7    3.45    0.29
   1  -3  -7    3.32    0.25
   1   3  -7    3.78    0.29
  -1   3   7    3.22    0.44
  -1   3   7    4.31    0.49
   0  -3  -7   29.61    1.62
   0  -3   7   28.17    1.78
   0  -3  -7   30.36    1.56
   0   3  -7   29.73    1.60
   0   3   7   27.87    1.69
   0   3   7   28.51    1.81
  -1  -3  -7    0.97    0.15
  -1  -3  -7    1.01    0.12
   1  -3   7    1.03    0.24
  -1   3  -7    0.80    0.13
   1   3   7    1.14    0.17
   1   3   7    0.58    0.23
  -1   3  -7    1.16    0.11
  -2  -3  -7    1.46    0.14
   2  -3   7    0.93    0.25
  -2  -3  -7    1.43    0.19
  -2   3  -7    1.26    0.15
  -2   3  -7    1.22    0.17
   2   3   7    1.14    0.28
  -3  -3  -7   49.26    2.72
  -3  -3  -7   50.91    2.81
   3  -3   7   50.03    2.90
   3   3   7   51.74    2.95
  -3   3  -7   53.71    2.73
  -3   3  -7   54.44    2.80
  -4  -3  -7   16.57    1.03
   4  -3   7   15.53    1.06
   4   3   7   17.51    1.15
  -4   3  -7   16.46    1.03
  -5  -3  -7    2.23    0.31
   5   3   7    2.13    0.35
  -5   3  -7    2.19    0.32
  -6  -3  -7    0.18    0.14
  -6   3  -7   -0.04    0.12
   6   3   7    0.11    0.16
  -7  -3  -7    0.30    0.17
   7   3   7    0.25    0.18
  -7   3  -7    0.31    0.19
  -8  -3  -7    0.40    0.20
  -8   3  -7    0.28    0.21
   8   3   7    0.21    0.19
  -9  -4   7   -0.14    0.48
  -9   4   7    0.33    0.27
  -8  -4   7    2.94    0.75
  -8   4   7    2.33    0.43
   8   4  -7    4.07    0.42
  -7  -4   7    0.22    0.39
  -7   4   7    0.51    0.23
   7   4  -7    0.06    0.13
  -6  -4   7    1.34    0.52
   6   4  -7    2.98    0.32
  -6   4   7    2.96    0.43
  -5  -4   7    0.57    0.34
   5  -4  -7    0.35    0.11
  -5   4   7    0.35    0.18
   5   4  -7    0.28    0.13
  -4  -4   7    8.80    1.04
   4  -4  -7   10.83    0.67
   4  -4  -7   10.18    0.66
   4   4  -7    9.79    0.68
  -4   4   7   11.77    0.80
   3  -4  -7   -0.03    0.06
   3  -4  -7    0.04    0.06
  -3  -4   7    0.00    0.18
  -3   4   7    0.02    0.11
   3   4  -7    0.03    0.07
   2  -4  -7    1.51    0.17
  -2  -4   7    1.93    0.39
   2  -4  -7    1.55    0.20
  -2   4   7    1.80    0.36
  -2   4   7    1.59    0.33
   2   4  -7    1.73    0.20
  -1  -4   7    0.62    0.24
   1  -4  -7    0.79    0.12
   1  -4  -7    0.72    0.14
   1   4  -7    1.16    0.16
  -1   4   7    0.96    0.26
  -1   4   7    0.74    0.22
   0  -4  -7    1.20    0.18
   0  -4  -7    1.21    0.14
   0  -4   7    1.30    0.28
   0   4   7    1.66    0.32
   0   4  -7    1.94    0.20
   0   4   7    1.54    0.25
  -1  -4  -7   13.26    0.76
  -1  -4  -7   12.96    0.82
  -1   4  -7   13.14    0.75
   1   4   7   14.38    1.00
   1   4   7   13.78    0.77
  -1   4  -7   12.62    0.77
  -2  -4  -7   13.28    0.79
   2   4   7   13.98    1.01
  -2   4  -7   13.63    0.83
  -2   4  -7   15.16    0.81
   3  -4   7    2.63    0.37
  -3  -4  -7    2.18    0.27
  -3  -4  -7    2.33    0.20
  -3   4  -7    2.56    0.20
  -3   4  -7    2.81    0.30
   3   4   7    2.09    0.36
   4  -4   7    3.15    0.39
  -4  -4  -7    3.68    0.38
  -4  -4  -7    3.26    0.26
  -4   4  -7    4.23    0.42
   4   4   7    2.97    0.42
  -5  -4  -7    0.68    0.18
  -5   4  -7    0.82    0.21
   5   4   7    0.47    0.22
  -6  -4  -7    2.88    0.39
   6   4   7    2.49    0.38
  -6   4  -7    2.72    0.38
  -7  -4  -7    7.59    0.65
  -7   4  -7    6.97    0.65
   7   4   7    6.92    0.63
  -8  -4  -7    0.15    0.17
   8   4   7   -0.08    0.15
  -8   4  -7    0.32    0.21
  -8  -5   7    1.71    0.60
  -8   5   7    0.83    0.30
   8   5  -7    1.31    0.26
  -7  -5   7    1.34    0.51
  -7   5   7    0.76    0.28
   7   5  -7    1.67    0.26
  -6  -5   7    0.30    0.34
  -6   5   7    0.08    0.16
   6   5  -7    0.05    0.12
  -5  -5   7    6.53    0.91
   5  -5  -7    7.78    0.53
   5  -5  -7    6.32    0.47
   5   5  -7    6.94    0.53
  -5   5   7    7.07    0.65
  -4  -5   7   10.11    0.97
   4  -5  -7    9.34    0.61
   4  -5  -7    9.96    0.63
  -4   5   7   10.10    0.79
   4   5  -7    8.54    0.63
  -4   5   7    8.34    0.73
  -3  -5   7    6.07    0.77
   3  -5  -7    6.99    0.48
   3  -5  -7    6.70    0.46
  -3   5   7    6.53    0.58
  -3   5   7    6.87    0.69
   3   5  -7    6.97    0.50
  -2  -5   7    1.02    0.29
   2  -5  -7    0.90    0.13
   2  -5  -7    0.80    0.15
  -2   5   7    0.50    0.21
  -2   5   7    0.54    0.22
   2   5  -7    0.69    0.15
   1  -5  -7   11.79    0.70
   1  -5  -7   11.27    0.74
  -1  -5   7   11.22    0.92
  -1   5   7   11.71    0.86
   1   5  -7   12.29    0.74
  -1   5   7   12.60    0.91
   0  -5   7   16.25    1.17
   0  -5   7   17.21    0.92
   0  -5  -7   16.72    0.97
   0   5  -7   18.67    1.01
   0   5   7   17.33    1.19
   0   5   7   17.01    1.06
  -1  -5  -7   28.47    1.49
   1   5   7   25.06    1.69
  -1   5  -7   26.89    1.48
  -1   5  -7   27.96    1.51
  -2  -5  -7   12.69    0.75
   2   5   7   12.77    0.95
  -2   5  -7   13.69    0.76
  -2   5  -7   12.03    0.78
  -3  -5  -7    3.78    0.34
  -3  -5  -7    3.09    0.26
   3  -5   7    3.20    0.41
  -3   5  -7    3.67    0.33
  -3   5  -7    3.44    0.26
   3   5   7    3.65    0.48
  -4  -5  -7    9.89    0.61
  -4  -5  -7    9.33    0.69
  -4   5  -7   10.61    0.72
   4   5   7    9.81    0.79
  -5  -5  -7    5.94    0.51
   5   5   7    5.45    0.61
  -5   5  -7    5.19    0.54
  -6  -5  -7    1.36    0.28
   6   5   7    1.36    0.32
  -6   5  -7    1.51    0.30
  -7  -5  -7   -0.04    0.12
   7   5   7   -0.04    0.15
  -7   5  -7    0.29    0.19
  -8  -5  -7    0.83    0.39
   8   5   7    1.13    0.30
  -8   5  -7    1.05    0.31
  -8  -6   7    0.02    0.39
   8   6  -7    0.37    0.18
  -8   6   7    0.54    0.29
  -7  -6   7    0.61    0.41
   7   6  -7    0.37    0.16
  -7   6   7    0.52    0.26
  -6  -6   7    3.89    0.71
   6   6  -7    3.93    0.41
  -6   6   7    3.41    0.51
   5  -6  -7   13.22    0.87
   5  -6  -7   14.45    0.85
  -5  -6   7   13.06    1.22
   5   6  -7   13.63    0.89
  -5   6   7   14.36    1.06
   4  -6  -7   16.00    1.05
   4  -6  -7   18.02    1.05
  -4  -6   7   18.61    1.42
   4   6  -7   18.62    1.09
  -4   6   7   19.26    1.25
  -4   6   7   16.21    1.18
   3  -6  -7   13.24    0.83
  -3  -6   7   11.76    1.07
   3  -6  -7   13.51    0.82
  -3   6   7   14.22    1.00
   3   6  -7   12.65    0.84
  -3   6   7   15.02    1.00
   2  -6  -7    2.48    0.25
   2  -6  -7    2.69    0.29
  -2  -6   7    2.25    0.44
  -2   6   7    2.44    0.39
   2   6  -7    2.71    0.29
   1  -6  -7   -0.03    0.06
  -1  -6   7   -0.01    0.05
  -1  -6   7    0.00    0.16
  -1   6   7    0.02    0.16
  -1   6   7    0.13    0.15
   1   6  -7    0.00    0.07
   0  -6   7    8.98    0.76
   0  -6  -7    9.22    0.56
   0   6  -7    8.87    0.57
   0   6   7    7.38    0.71
  -1  -6  -7   22.86    1.27
  -1   6  -7   22.24    1.28
   1   6   7   23.16    1.47
  -2  -6  -7    5.46    0.38
  -2   6  -7    5.04    0.41
  -2   6  -7    5.46    0.37
   2   6   7    5.66    0.60
  -3  -6  -7   -0.02    0.06
  -3   6  -7    0.03    0.10
   3   6   7    0.11    0.17
  -4  -6  -7    7.82    0.51
  -4  -6  -7    6.95    0.58
  -4   6  -7    8.02    0.60
   4   6   7    7.23    0.67
  -5  -6  -7    2.95    0.30
  -5  -6  -7    2.48    0.36
  -5   6  -7    3.24    0.41
   5   6   7    3.23    0.45
  -6  -6  -7    0.89    0.24
  -6   6  -7    1.07    0.27
   6   6   7    0.58    0.24
  -7  -6  -7   -0.07    0.12
   7   6   7    0.03    0.18
  -7   6  -7    0.26    0.21
  -8  -7   7   -0.09    0.38
   8   7  -7   -0.02    0.14
  -8   7   7   -0.32    0.21
  -7  -7   7    2.34    0.60
   7   7  -7    2.61    0.34
  -7   7   7    1.45    0.39
   6  -7  -7   -0.02    0.09
  -6  -7   7    0.60    0.39
   6   7  -7    0.10    0.11
  -6   7   7    0.12    0.20
   5  -7  -7    0.26    0.11
  -5  -7   7    0.40    0.31
   5   7  -7    0.08    0.10
  -5   7   7    0.20    0.19
   4  -7  -7    1.29    0.20
  -4  -7   7    0.88    0.35
  -4   7   7    1.02    0.31
   4   7  -7    1.14    0.21
  -3  -7   7   17.00    1.31
   3  -7  -7   16.66    1.02
  -3   7   7   19.10    1.17
   3   7  -7   16.69    1.06
  -2  -7   7   24.09    1.73
   2  -7  -7   26.60    1.49
  -2   7   7   28.34    1.65
   2   7  -7   26.49    1.52
  -1  -7   7    7.18    0.70
   1  -7  -7    7.99    0.52
  -1  -7   7    7.73    0.46
   1   7  -7    7.05    0.52
  -1   7   7    8.12    0.67
   0  -7  -7    2.57    0.25
   0   7   7    2.49    0.39
   0   7  -7    2.44    0.27
  -1  -7  -7   28.77    1.64
   1   7   7   31.62    1.86
  -1   7  -7   29.53    1.65
  -2  -7  -7   12.62    0.78
   2   7   7   12.21    0.96
  -2   7  -7   13.64    0.78
  -3  -7  -7    0.01    0.08
   3   7   7    0.07    0.16
  -4  -7  -7    2.47    0.27
  -4   7  -7    2.87    0.37
   4   7   7    2.96    0.44
  -5  -7  -7    1.47    0.27
  -5  -7  -7    1.62    0.22
  -5   7  -7    1.24    0.28
   5   7   7    1.47    0.33
  -6  -7  -7   15.88    1.01
  -6  -7  -7   17.13    1.15
   6   7   7   16.98    1.19
  -6   7  -7   16.36    1.16
  -7  -7  -7    3.25    0.47
  -7  -7  -7    4.18    0.40
  -7   7  -7    2.87    0.50
   7   7   7    2.81    0.45
  -7  -8   7    0.00    0.34
   7   8  -7   -0.06    0.12
  -7   8   7    0.06    0.22
  -6  -8   7    5.54    0.86
   6  -8  -7    6.70    0.54
   6   8  -7    7.50    0.58
  -6   8   7    7.22    0.84
   5  -8  -7    3.76    0.38
  -5  -8   7    3.75    0.65
   5   8  -7    3.39    0.39
  -5   8   7    3.39    0.56
   4  -8  -7    0.08    0.10
  -4  -8   7   -0.04    0.21
   4   8  -7   -0.06    0.09
  -4   8   7   -0.25    0.13
   3  -8  -7    0.24    0.11
  -3  -8   7    0.09    0.21
   3   8  -7    0.31    0.13
  -2  -8   7    4.11    0.57
  -2  -8   7    4.20    0.30
   2  -8  -7    3.15    0.33
   2   8  -7    4.01    0.39
  -2   8   7    4.09    0.46
  -1  -8   7    1.95    0.39
   1  -8  -7    2.14    0.24
   1   8  -7    1.85    0.24
  -1   8   7    1.62    0.31
   0  -8  -7    0.22    0.09
   0   8  -7    0.17    0.09
   0   8   7    0.41    0.20
  -1  -8  -7    0.81    0.16
   1   8   7    0.96    0.27
  -1   8  -7    1.09    0.17
  -2  -8  -7    3.74    0.34
  -2   8  -7    3.26    0.31
   2   8   7    2.85    0.44
  -3  -8  -7    2.70    0.29
   3   8   7    2.75    0.44
  -4  -8  -7    0.76    0.16
   4   8   7    0.48    0.22
  -5  -8  -7    1.51    0.23
   5   8   7    0.94    0.28
  -6  -8  -7   -0.24    0.10
  -6  -8  -7    0.16    0.13
   6   8   7    0.00    0.18
  -7  -8  -7    0.54    0.18
   6  -9  -7    1.36    0.25
  -6  -9   7    1.26    0.46
  -6   9   7    2.11    0.46
   6   9  -7    1.55    0.27
  -5  -9   7    0.93    0.39
   5  -9  -7    0.45    0.15
  -5   9   7    0.65    0.31
   5   9  -7    0.64    0.19
  -4  -9   7   -0.04    0.25
   4  -9  -7   -0.06    0.08
  -4   9   7   -0.08    0.19
   4   9  -7    0.02    0.10
   3  -9  -7    1.45    0.22
  -3  -9   7    0.84    0.31
   3   9  -7    1.21    0.22
   2  -9  -7    1.61    0.22
  -2  -9   7    0.97    0.33
   2   9  -7    1.53    0.23
   1  -9  -7    0.33    0.12
   1   9  -7    0.44    0.14
  -1   9   7    0.11    0.16
   0  -9  -7    0.97    0.18
   0   9   7    1.33    0.29
   0   9  -7    1.03    0.18
  -1  -9  -7    6.02    0.46
  -1   9  -7    6.28    0.46
   1   9   7    6.59    0.60
  -2  -9  -7   15.18    0.92
   2   9   7   14.19    1.06
  -3  -9  -7    1.89    0.25
   3   9   7    1.91    0.37
  -4  -9  -7    0.82    0.17
   4   9   7    0.35    0.21
  -5  -9  -7    0.11    0.11
   5   9   7    0.32    0.21
  -6  -9  -7    9.32    0.65
   6   9   7    7.45    0.80
  -6  10   7    1.67    0.45
   6  10  -7    2.20    0.38
  -5 -10   7    1.80    0.45
   5 -10  -7    1.53    0.26
  -5  10   7    1.79    0.47
   5  10  -7    1.58    0.28
   4 -10  -7    2.34    0.30
  -4 -10   7    2.51    0.50
   4  10  -7    2.04    0.31
  -4  10   7    3.10    0.56
   3 -10  -7    2.82    0.32
  -3 -10   7    1.86    0.43
   2 -10  -7    4.85    0.41
   1 -10  -7    3.36    0.35
  -1  10   7    3.66    0.57
   1  10  -7    2.64    0.32
   0 -10  -7    1.66    0.24
   0  10  -7    1.21    0.21
   0  10   7    1.84    0.32
  -1 -10  -7    5.30    0.42
  -1  10  -7    4.63    0.39
   1  10   7    4.82    0.55
  -2 -10  -7    1.72    0.24
   2  10   7    1.39    0.30
  -3 -10  -7    1.77    0.26
   3  10   7    2.15    0.38
  -4 -10  -7    1.03    0.20
   4  10   7    0.89    0.29
  -5 -10  -7    1.14    0.22
   5  10   7    0.85    0.29
   5 -11  -7    0.06    0.17
  -5  11   7   -0.07    0.24
   5  11  -7   -0.08    0.16
   4 -11  -7    2.06    0.30
  -4 -11   7    2.42    0.51
  -4  11   7    2.28    0.52
   3 -11  -7    2.65    0.33
   2 -11  -7    0.32    0.14
   1 -11  -7    9.73    0.67
   1  11  -7    8.64    0.66
   0 -11  -7    0.26    0.13
   0  11  -7    0.44    0.15
   0  11   7    1.04    0.25
  -1 -11  -7    2.56    0.31
   1  11   7    2.72    0.40
  -2 -11  -7    4.56    0.44
   2  11   7    4.40    0.53
  -3 -11  -7    2.50    0.32
   3  11   7    2.06    0.39
  -4 -11  -7    0.23    0.14
   4  11   7    0.58    0.25
   3 -12  -7    0.24    0.14
  -3  12   7    0.09    0.28
   2 -12  -7    0.25    0.14
   1 -12  -7    0.03    0.12
   1  12  -7    0.12    0.12
   0 -12  -7    1.49    0.25
   0  12  -7    1.58    0.25
  -1 -12  -7    0.46    0.16
   1  12   7    0.16    0.18
  -2 -12  -7    0.71    0.20
   2  12   7    0.62    0.25
  -3 -12  -7    5.70    0.53
   3  12   7    4.89    0.59
   2  13  -7    0.39    0.18
   1  13  -7    1.34    0.26
   0 -13  -7    0.41    0.20
  -8   0   8    1.50    0.66
   7   0  -8   -0.05    0.12
  -7   0   8   -0.28    0.33
  -6   0   8   13.48    1.58
   6   0  -8   14.52    0.91
   5   0  -8   -0.06    0.09
  -5   0   8   -0.04    0.10
  -5   0   8    0.00    0.30
   4   0  -8   96.74    5.12
  -4   0   8   98.66    5.10
  -4   0   8   94.01    5.60
   3   0  -8   -0.04    0.06
  -3   0   8   -0.09    0.21
  -3   0   8   -0.06    0.08
   2   0  -8   37.57    2.06
  -2   0   8   37.52    2.00
  -2   0   8   37.25    2.36
  -1   0   8    0.06    0.16
   1   0  -8    0.03    0.06
   0   0  -8   85.88    4.73
   0   0   8   95.22    4.92
   1   0   8    0.00    0.15
  -1   0  -8   -0.04    0.05
  -1   0  -8   -0.01    0.04
   1   0   8   -0.09    0.09
   2   0   8   45.85    2.84
  -2   0  -8   49.33    2.62
  -2   0  -8   50.56    2.61
  -3   0  -8    0.05    0.07
   3   0   8    0.01    0.16
  -3   0  -8    0.01    0.07
  -4   0  -8   52.25    2.95
   4   0   8   56.86    3.10
  -5   0  -8   -0.01    0.08
   5   0   8   -0.07    0.14
   6   0   8    5.31    0.59
  -6   0  -8    6.78    0.57
  -7   0  -8    0.05    0.14
  -8   0  -8    1.21    0.29
  -8  -1   8    2.70    0.80
  -8   1   8    2.10    0.76
   7  -1  -8    2.72    0.33
  -7  -1   8    2.99    0.78
   7   1  -8    2.13    0.30
  -7   1   8    1.70    0.65
   6  -1  -8    2.04    0.25
  -6  -1   8    1.34    0.51
  -6   1   8    1.61    0.28
  -6   1   8    1.97    0.60
   6   1  -8    2.08    0.27
  -5  -1   8    3.72    0.72
   5  -1  -8    5.04    0.41
  -5   1   8    5.15    0.45
  -5   1   8    4.39    0.77
   5   1  -8    5.55    0.43
   4  -1  -8    3.19    0.32
  -4  -1   8    3.01    0.62
  -4   1   8    3.18    0.34
  -4   1   8    3.11    0.63
   4   1  -8    2.71    0.31
   3  -1  -8   -0.02    0.07
  -3  -1   8   -0.09    0.21
  -3   1   8   -0.16    0.08
   3   1  -8    0.01    0.07
  -3   1   8    0.38    0.25
   2  -1  -8    0.04    0.07
  -2  -1   8   -0.10    0.14
  -2   1   8    0.07    0.08
   2   1  -8   -0.03    0.05
  -2   1   8    0.23    0.23
   1  -1  -8   15.29    0.82
  -1  -1   8   14.47    1.09
   1  -1  -8   14.91    0.89
  -1   1   8   15.14    1.08
   1   1  -8   14.13    0.88
   0  -1  -8    1.27    0.11
   0  -1  -8    0.91    0.15
   0  -1   8    1.04    0.25
   0   1   8    1.08    0.27
   0   1  -8    1.16    0.16
   0   1   8    1.41    0.27
   1  -1   8    1.12    0.24
  -1  -1  -8    0.98    0.15
  -1  -1  -8    1.14    0.10
   1  -1   8    0.87    0.27
  -1   1  -8    0.99    0.14
   1   1   8    0.70    0.27
  -1   1  -8    1.11    0.11
   1   1   8    1.34    0.22
   2  -1   8    2.18    0.39
  -2  -1  -8    2.31    0.24
  -2  -1  -8    2.24    0.23
  -2  -1  -8    2.25    0.15
   2   1   8    1.58    0.35
  -2   1  -8    2.09    0.21
  -2   1  -8    2.14    0.19
  -3  -1  -8   11.78    0.77
   3  -1   8   12.44    0.94
  -3  -1  -8   12.27    0.76
  -3   1  -8   13.07    0.74
   3   1   8   13.40    0.97
  -3   1  -8   12.14    0.77
   4  -1   8    6.42    0.59
  -4  -1  -8    5.50    0.47
  -4   1  -8    5.81    0.41
  -4   1  -8    7.11    0.50
   4   1   8    5.73    0.62
  -5  -1  -8    0.35    0.14
   5  -1   8    0.29    0.18
   5   1   8    0.31    0.20
  -5   1  -8    0.43    0.16
   6  -1   8    3.68    0.44
  -6  -1  -8    3.10    0.42
  -6   1  -8    3.42    0.43
   6   1   8    3.80    0.48
  -7  -1  -8    0.40    0.17
  -7   1  -8    0.24    0.17
   7   1   8    0.39    0.21
  -8  -1  -8    0.30    0.17
  -8   1  -8    0.18    0.17
  -8  -2   8    0.28    0.45
  -8   2   8    0.89    0.55
  -7  -2   8    0.42    0.43
  -7   2   8    0.23    0.18
  -7   2   8   -0.08    0.36
   7   2  -8    0.05    0.13
   6  -2  -8    4.18    0.38
  -6  -2   8    3.97    0.82
  -6   2   8    3.00    0.42
  -6   2   8    3.87    0.80
   6   2  -8    3.93    0.39
   5  -2  -8    0.15    0.10
  -5  -2   8   -0.11    0.25
  -5   2   8    0.29    0.32
  -5   2   8   -0.06    0.11
   5   2  -8    0.03    0.09
  -4  -2   8   40.15    2.72
   4  -2  -8   42.23    2.27
   4   2  -8   41.48    2.28
  -4   2   8   39.46    2.69
  -4   2   8   41.59    2.33
   3  -2  -8   16.50    1.01
  -3  -2   8   15.65    1.34
  -3   2   8   17.50    1.05
   3   2  -8   17.68    1.03
  -3   2   8   17.36    1.35
   2  -2  -8    0.01    0.05
  -2  -2   8   -0.21    0.14
   2  -2  -8    0.01    0.07
  -2   2   8    0.02    0.09
  -2   2   8    0.00    0.18
   2   2  -8    0.00    0.06
  -1  -2   8    2.75    0.46
   1  -2  -8    2.85    0.28
   1  -2  -8    2.72    0.20
  -1   2   8    2.94    0.43
   1   2  -8    2.67    0.27
   0  -2  -8   56.56    2.86
   0  -2   8   49.25    3.01
   0  -2  -8   56.23    2.78
   0   2   8   52.15    2.97
   0   2   8   53.35    3.08
   0   2  -8   50.02    2.83
  -1  -2  -8    2.25    0.24
   1  -2   8    2.01    0.33
  -1  -2  -8    2.40    0.17
   1   2   8    2.51    0.29
   1   2   8    1.97    0.38
  -1   2  -8    2.27    0.16
  -1   2  -8    2.07    0.22
  -2  -2  -8    0.88    0.15
   2  -2   8    0.40    0.22
  -2  -2  -8    0.86    0.14
  -2  -2  -8    0.90    0.10
  -2   2  -8    0.85    0.13
  -2   2  -8    0.66    0.11
   2   2   8    0.92    0.28
  -3  -2  -8    4.49    0.30
  -3  -2  -8    5.11    0.39
   3  -2   8    4.37    0.53
  -3   2  -8    5.22    0.38
  -3   2  -8    5.57    0.35
   3   2   8    3.58    0.52
  -4  -2  -8    0.71    0.16
   4  -2   8    0.74    0.24
   4   2   8    0.84    0.27
  -4   2  -8    0.66    0.16
  -5  -2  -8    1.39    0.25
   5  -2   8    1.14    0.27
   5   2   8    1.37    0.31
  -5   2  -8    1.51    0.26
  -6  -2  -8    4.27    0.50
   6   2   8    4.30    0.52
  -6   2  -8    5.41    0.55
  -7  -2  -8    3.67    0.49
  -7   2  -8    4.55    0.52
   7   2   8    4.67    0.54
  -8  -2  -8    0.08    0.14
  -8   2  -8    0.08    0.17
  -8  -3   8    0.15    0.46
  -8   3   8   -0.21    0.17
  -8   3   8    0.17    0.42
   8   3  -8   -0.02    0.14
  -7  -3   8    0.20    0.39
  -7   3   8    0.53    0.49
   7   3  -8    1.22    0.23
  -7   3   8    0.95    0.28
   6  -3  -8    0.53    0.14
  -6  -3   8    0.11    0.36
   6   3  -8    0.50    0.16
  -6   3   8    0.29    0.35
  -6   3   8    0.29    0.20
  -5  -3   8    0.45    0.35
   5  -3  -8    1.23    0.20
  -5   3   8    1.43    0.28
   5   3  -8    1.32    0.22
  -5   3   8    1.70    0.51
  -4  -3   8    9.01    1.07
   4  -3  -8    9.96    0.66
   4   3  -8   10.83    0.69
  -4   3   8   10.93    1.04
  -4   3   8    9.72    0.74
  -3  -3   8    0.78    0.34
   3  -3  -8    0.59    0.12
   3  -3  -8    0.64    0.14
  -3   3   8    0.73    0.31
   3   3  -8    0.69    0.14
  -3   3   8    0.66    0.18
   2  -3  -8    6.56    0.47
   2  -3  -8    7.02    0.43
  -2  -3   8    5.93    0.74
  -2   3   8    6.44    0.75
   2   3  -8    6.28    0.47
  -1  -3   8    0.77    0.26
   1  -3  -8    0.83    0.15
   1  -3  -8    0.89    0.11
  -1   3   8    0.41    0.22
  -1   3   8    0.99    0.28
   1   3  -8    0.70    0.13
   0  -3  -8    5.18    0.39
   0  -3  -8    5.45    0.34
   0  -3   8    4.86    0.57
   0   3   8    4.74    0.46
   0   3  -8    5.37    0.38
   0   3   8    5.76    0.63
  -1  -3  -8    2.57    0.19
   1  -3   8    2.48    0.37
  -1  -3  -8    2.14    0.24
   1   3   8    2.35    0.27
   1   3   8    2.80    0.45
  -1   3  -8    2.24    0.23
   2  -3   8   13.48    0.96
  -2  -3  -8   13.04    0.73
  -2  -3  -8   12.81    0.80
  -2  -3  -8   13.13    0.79
  -2   3  -8   12.52    0.75
  -2   3  -8   13.71    0.77
   2   3   8   10.65    0.96
  -3  -3  -8    0.35    0.11
  -3  -3  -8    0.38    0.08
   3  -3   8    0.39    0.21
  -3   3  -8    0.41    0.12
  -3   3  -8    0.61    0.11
   3   3   8    0.52    0.23
   4  -3   8   28.02    1.78
  -4  -3  -8   28.31    1.70
  -4  -3  -8   29.02    1.59
   4   3   8   30.79    1.86
  -4   3  -8   31.63    1.71
  -5  -3  -8    0.30    0.14
  -5   3  -8    0.23    0.13
   5   3   8    0.13    0.17
  -6  -3  -8    0.35    0.16
  -6   3  -8    0.35    0.17
   6   3   8    0.75    0.25
  -7  -3  -8    3.45    0.45
   7   3   8    2.22    0.39
  -7   3  -8    2.82    0.43
  -8  -3  -8    0.58    0.22
   8   3   8    0.59    0.25
  -8   3  -8    0.41    0.23
  -8  -4   8   -0.30    0.43
  -8   4   8    0.96    0.29
  -8   4   8   -0.19    0.39
   8   4  -8    1.21    0.25
  -7  -4   8    4.44    0.90
  -7   4   8    6.54    0.72
   7   4  -8    7.56    0.56
  -7   4   8    6.10    1.06
   6  -4  -8    3.76    0.36
  -6  -4   8    3.81    0.76
  -6   4   8    4.46    0.54
  -6   4   8    4.19    0.81
   6   4  -8    3.81    0.41
  -5  -4   8    0.29    0.33
   5  -4  -8    0.06    0.09
  -5   4   8   -0.04    0.29
   5   4  -8   -0.05    0.08
  -5   4   8   -0.04    0.13
   4  -4  -8    0.38    0.12
   4  -4  -8    0.42    0.12
  -4  -4   8    0.37    0.31
  -4   4   8    0.07    0.29
  -4   4   8    0.39    0.17
   4   4  -8    0.28    0.12
  -3  -4   8    3.58    0.60
   3  -4  -8    3.46    0.34
   3  -4  -8    4.21    0.31
   3   4  -8    3.69    0.37
  -3   4   8    4.16    0.45
  -3   4   8    2.88    0.53
   2  -4  -8    7.92    0.53
  -2  -4   8    6.73    0.79
   2  -4  -8    7.26    0.48
  -2   4   8    7.21    0.71
  -2   4   8    8.21    0.72
   2   4  -8    7.19    0.52
  -1  -4   8    0.47    0.22
   1  -4  -8    0.73    0.14
   1  -4  -8    0.54    0.10
   1   4  -8    0.52    0.12
  -1   4   8    0.46    0.21
  -1   4   8    0.70    0.26
   0  -4  -8    8.39    0.48
   0  -4  -8    7.50    0.54
   0  -4   8    7.55    0.68
   0   4   8    7.65    0.60
   0   4   8    7.83    0.72
   0   4  -8    7.45    0.51
  -1  -4  -8    0.18    0.09
  -1  -4  -8    0.31    0.08
  -1   4  -8    0.23    0.08
   1   4   8    0.06    0.19
   2  -4   8    7.43    0.66
  -2  -4  -8    7.41    0.46
   2   4   8    6.02    0.69
  -2   4  -8    8.29    0.49
   3  -4   8    9.55    0.76
  -3  -4  -8    8.19    0.53
  -3  -4  -8    8.94    0.62
  -3   4  -8    9.42    0.55
   3   4   8    8.47    0.75
  -3   4  -8    8.62    0.60
  -4  -4  -8    1.00    0.14
   4  -4   8    1.03    0.40
  -4  -4  -8    1.17    0.21
  -4   4  -8    1.60    0.25
   4   4   8    1.28    0.30
  -5  -4  -8    1.51    0.27
   5   4   8    1.79    0.35
  -5   4  -8    1.35    0.25
  -6  -4  -8    0.03    0.12
   6   4   8    0.21    0.19
  -6   4  -8    0.08    0.14
  -7  -4  -8    0.33    0.19
  -7   4  -8    0.49    0.21
   7   4   8    0.26    0.20
  -8   4  -8    0.60    0.25
   8   4   8    0.43    0.24
  -8  -5   8    1.26    0.59
   8   5  -8    0.91    0.22
  -8   5   8    0.68    0.29
  -7  -5   8    2.03    0.61
   7   5  -8    3.85    0.42
  -7   5   8    4.17    0.56
  -6  -5   8    3.24    0.70
   6   5  -8    2.57    0.32
  -6   5   8    2.46    0.41
  -5  -5   8    0.71    0.39
   5  -5  -8    0.87    0.17
  -5   5   8    0.79    0.26
   5   5  -8    0.75    0.19
   4  -5  -8    9.64    0.60
  -4  -5   8    7.37    0.98
   4  -5  -8    9.02    0.60
  -4   5   8    8.80    0.73
   4   5  -8    7.85    0.61
  -4   5   8    8.86    0.78
   3  -5  -8    1.04    0.18
   3  -5  -8    1.23    0.17
  -3  -5   8    1.05    0.37
  -3   5   8    1.01    0.24
  -3   5   8    0.93    0.29
  -3   5   8    1.04    0.36
   3   5  -8    1.00    0.19
   2  -5  -8   32.65    1.69
  -2  -5   8   29.57    2.00
   2  -5  -8   29.69    1.72
  -2   5   8   29.88    1.94
  -2   5   8   29.66    1.93
   2   5  -8   31.22    1.73
   1  -5  -8   24.23    1.28
   1  -5  -8   21.24    1.32
  -1  -5   8   21.81    1.53
   1   5  -8   24.12    1.32
  -1   5   8   23.10    1.53
  -1   5   8   21.47    1.45
   0  -5   8   13.76    1.10
   0  -5  -8   15.58    0.90
   0  -5  -8   15.70    0.97
   0   5   8   17.26    1.18
   0   5  -8   16.34    0.94
  -1  -5  -8    8.42    0.49
   1   5   8    5.80    0.71
  -1   5  -8    7.55    0.51
  -2  -5  -8   20.32    1.19
   2   5   8   22.29    1.46
  -2   5  -8   22.46    1.21
   3  -5   8    0.68    0.24
  -3  -5  -8    0.65    0.12
   3   5   8    0.27    0.22
  -4  -5  -8    0.17    0.11
  -4  -5  -8    0.11    0.08
   4   5   8    0.04    0.17
  -4   5  -8    0.04    0.13
  -5  -5  -8   -0.04    0.08
  -5  -5  -8    0.02    0.10
  -5   5  -8    0.04    0.13
   5   5   8    0.28    0.22
  -6  -5  -8    0.10    0.13
   6   5   8    0.05    0.16
  -6   5  -8    0.16    0.14
  -7  -5  -8    0.27    0.19
  -7   5  -8    0.85    0.27
   7   5   8    0.20    0.21
  -8  -6   8    3.12    0.76
  -8   6   8    2.73    0.52
   8   6  -8    2.95    0.39
  -7  -6   8   -0.11    0.36
   7   6  -8    0.29    0.16
  -7   6   8   -0.01    0.20
  -6  -6   8    0.19    0.31
   6   6  -8    0.61    0.18
  -6   6   8    0.51    0.25
   5  -6  -8    0.96    0.19
  -5  -6   8    0.62    0.36
   5  -6  -8    1.11    0.19
   5   6  -8    1.62    0.25
  -5   6   8    1.30    0.31
   4  -6  -8    2.85    0.29
   4  -6  -8    2.02    0.26
  -4  -6   8    2.14    0.52
  -4   6   8    1.71    0.35
  -4   6   8    2.14    0.39
   4   6  -8    2.08    0.28
   3  -6  -8    1.72    0.24
  -3  -6   8    2.54    0.51
   3  -6  -8    1.54    0.21
  -3   6   8    2.01    0.36
   3   6  -8    1.29    0.23
  -3   6   8    1.90    0.39
  -2  -6   8    0.68    0.29
   2  -6  -8    0.82    0.17
   2  -6  -8    1.00    0.16
  -2   6   8    0.56    0.25
   2   6  -8    0.67    0.17
  -2   6   8    0.74    0.26
   1  -6  -8    6.73    0.48
  -1  -6   8    6.99    0.70
   1   6  -8    7.82    0.53
  -1   6   8    8.14    0.71
   0  -6   8    1.76    0.35
   0  -6  -8    1.35    0.17
   0   6  -8    1.40    0.20
   0   6   8    1.10    0.31
  -1  -6  -8   11.92    0.71
  -1   6  -8   11.20    0.73
   1   6   8   12.09    0.94
  -2  -6  -8    0.86    0.14
  -2   6  -8    1.03    0.16
   2   6   8    0.67    0.26
  -3  -6  -8   12.62    0.77
   3   6   8   13.52    1.01
  -4  -6  -8    0.07    0.10
  -4  -6  -8    0.13    0.08
   4   6   8    0.15    0.18
  -5  -6  -8    6.34    0.45
  -5  -6  -8    6.17    0.55
   5   6   8    5.75    0.66
  -6  -6  -8    1.22    0.28
   6   6   8    2.01    0.39
  -7  -6  -8    1.30    0.30
   7   6   8    0.94    0.29
  -7  -7   8   11.11    1.33
  -7   7   8   11.91    1.03
   7   7  -8   11.67    0.84
  -6  -7   8    0.75    0.42
   6   7  -8    1.03    0.23
  -6   7   8    0.75    0.31
  -5  -7   8    1.37    0.46
   5  -7  -8    0.63    0.17
   5   7  -8    0.54    0.18
  -5   7   8    0.97    0.31
  -4  -7   8    3.79    0.62
   4  -7  -8    2.23    0.28
   4   7  -8    2.41    0.31
  -4   7   8    2.27    0.42
  -3  -7   8    1.62    0.41
   3  -7  -8    1.74    0.23
  -3   7   8    2.04    0.38
   3   7  -8    1.76    0.26
   2  -7  -8    5.19    0.39
  -2  -7   8    5.23    0.67
  -2   7   8    4.35    0.55
   2   7  -8    5.82    0.44
  -1  -7   8    5.75    0.68
   1  -7  -8    5.76    0.43
  -1   7   8    6.07    0.65
   1   7  -8    6.26    0.47
   0  -7  -8   15.91    0.93
   0   7  -8   15.01    0.95
   0   7   8   16.48    1.14
  -1  -7  -8    5.83    0.43
   1   7   8    6.69    0.68
  -1   7  -8    6.18    0.45
  -2  -7  -8   13.45    0.84
  -2   7  -8   14.84    0.85
   2   7   8   13.53    1.05
  -3  -7  -8   21.57    1.22
   3   7   8   20.55    1.44
  -4  -7  -8    8.32    0.55
   4   7   8    7.30    0.79
  -5  -7  -8    1.28    0.26
  -5  -7  -8    1.57    0.22
   5   7   8    1.80    0.36
  -6  -7  -8    0.65    0.22
  -6  -7  -8    0.65    0.21
   6   7   8    0.90    0.29
  -7  -8   8    0.63    0.45
   7   8  -8    1.07    0.25
  -7   8   8    0.89    0.34
  -6  -8   8    2.57    0.65
   6  -8  -8    3.35    0.39
  -6   8   8    3.54    0.58
   6   8  -8    4.14    0.45
   5  -8  -8    0.62    0.17
  -5  -8   8    0.37    0.31
  -5   8   8    0.18    0.22
   5   8  -8    0.17    0.13
  -4  -8   8    6.41    0.83
   4  -8  -8    6.01    0.48
   4   8  -8    5.71    0.51
  -4   8   8    7.75    0.81
  -3  -8   8    0.23    0.24
   3  -8  -8   -0.02    0.08
   3   8  -8    0.01    0.10
   2  -8  -8    0.27    0.11
  -2  -8   8    0.16    0.21
   2   8  -8    0.10    0.10
  -2   8   8    0.23    0.19
   1  -8  -8    1.68    0.22
  -1  -8   8    0.83    0.31
  -1   8   8    1.64    0.32
   1   8  -8    1.52    0.23
   0  -8  -8    2.12    0.25
   0   8  -8    2.64    0.30
   0   8   8    2.53    0.41
  -1  -8  -8    2.45    0.27
  -1   8  -8    2.82    0.30
   1   8   8    3.52    0.49
  -2  -8  -8    2.00    0.24
   2   8   8    1.60    0.35
  -3  -8  -8    0.30    0.11
   3   8   8    0.40    0.23
  -4  -8  -8    0.02    0.09
   4   8   8    0.21    0.20
  -5  -8  -8    3.41    0.35
   5   8   8    3.70    0.53
  -6  -8  -8    0.82    0.19
   6   8   8    1.01    0.30
   6  -9  -8   -0.10    0.10
  -6  -9   8   -0.26    0.28
  -6   9   8    0.15    0.25
   6   9  -8   -0.12    0.11
   5  -9  -8    0.08    0.12
  -5  -9   8    0.09    0.29
  -5   9   8    0.11    0.23
   5   9  -8    0.32    0.15
   4  -9  -8    3.64    0.39
  -4  -9   8    3.87    0.64
   4   9  -8    3.63    0.40
  -4   9   8    4.13    0.64
  -3  -9   8    3.29    0.56
   3  -9  -8    3.66    0.36
   3   9  -8    3.16    0.37
   2  -9  -8    6.25    0.47
  -2  -9   8    4.95    0.68
   2   9  -8    6.66    0.51
   1  -9  -8   16.46    1.01
   1   9  -8   16.94    1.04
  -1   9   8   15.93    1.13
   0  -9  -8    7.46    0.52
   0   9  -8    6.40    0.52
   0   9   8    8.13    0.69
  -1  -9  -8    0.82    0.17
   1   9   8    1.06    0.30
  -1   9  -8    1.00    0.18
  -2  -9  -8    6.12    0.48
   2   9   8    7.35    0.74
  -3  -9  -8    8.37    0.61
   3   9   8    9.60    0.81
  -4  -9  -8    0.08    0.11
   4   9   8    0.28    0.21
  -5  -9  -8    5.11    0.44
   5   9   8    6.11    0.71
  -6  -9  -8    0.25    0.14
   5 -10  -8    1.19    0.24
  -5 -10   8    1.30    0.41
   5  10  -8    1.15    0.25
  -5  10   8    0.47    0.32
   4 -10  -8    0.29    0.14
  -4 -10   8    0.31    0.29
  -4  10   8   -0.20    0.19
   4  10  -8    0.25    0.15
  -3 -10   8    0.08    0.23
   3 -10  -8    0.06    0.09
   3  10  -8   -0.05    0.10
   2 -10  -8    1.69    0.26
   2  10  -8    2.30    0.30
   1 -10  -8    0.03    0.10
  -1  10   8    0.22    0.22
   1  10  -8    0.20    0.12
   0 -10  -8    3.42    0.36
   0  10  -8    3.31    0.36
   0  10   8    3.68    0.49
  -1 -10  -8    7.83    0.59
  -1  10  -8    8.85    0.65
   1  10   8    8.67    0.75
  -2 -10  -8    5.96    0.48
   2  10   8    6.89    0.72
  -3 -10  -8    2.78    0.32
   3  10   8    2.12    0.41
  -4 -10  -8    2.93    0.34
   4  10   8    3.07    0.50
  -5 -10  -8    0.01    0.13
  -5 -11   8    0.88    0.40
   4 -11  -8    0.16    0.12
  -4 -11   8    0.20    0.32
  -4  11   8   -0.04    0.23
   4  11  -8    0.08    0.14
   3 -11  -8    1.16    0.22
   3  11  -8    1.29    0.25
  -3  11   8    0.96    0.37
   2 -11  -8    2.44    0.32
   2  11  -8    2.40    0.32
   1 -11  -8    1.74    0.27
   1  11  -8    1.83    0.27
   0 -11  -8    2.76    0.33
   0  11  -8    2.39    0.31
   0  11   8    2.24    0.39
  -1 -11  -8    0.82    0.19
   1  11   8    0.89    0.27
  -2 -11  -8    3.19    0.36
   2  11   8    2.98    0.46
  -3 -11  -8    0.68    0.18
   3  11   8    0.55    0.25
  -4 -11  -8    0.18    0.14
   4  11   8    0.68    0.37
  -3  12   8   -0.27    0.31
   3  12  -8    0.09    0.16
   2 -12  -8    1.00    0.22
   2  12  -8    0.46    0.18
   1 -12  -8    2.46    0.32
   1  12  -8    1.84    0.30
   0 -12  -8    2.40    0.32
   0  12  -8    2.72    0.35
  -1 -12  -8    0.63    0.18
   1  12   8    0.93    0.31
  -2 -12  -8    0.29    0.16
   2  12   8    0.78    0.27
  -8   0   9   -0.11    0.43
  -7   0   9    4.29    0.96
   7   0  -9    5.89    0.49
   6   0  -9    0.00    0.11
  -6   0   9   -0.26    0.31
  -5   0   9    2.62    0.64
   5   0  -9    2.29    0.30
   4   0  -9    0.00    0.09
  -4   0   9    0.03    0.28
  -3   0   9   14.33    1.22
   3   0  -9   12.93    0.84
  -2   0   9    0.06    0.19
   2   0  -9    0.10    0.09
  -1   0   9   55.80    3.22
   1   0  -9   54.17    2.96
   0   0  -9   -0.06    0.05
   0   0   9   -0.08    0.13
   1   0   9    1.69    0.36
   1   0   9    1.29    0.26
  -1   0  -9    1.30    0.18
  -2   0  -9    0.01    0.06
  -2   0  -9    0.00    0.06
   2   0   9    0.31    0.23
   3   0   9    9.64    0.79
  -3   0  -9    8.53    0.56
  -3   0  -9    8.13    0.56
   4   0   9   -0.20    0.16
  -4   0  -9    0.13    0.09
   5   0   9    3.88    0.51
  -5   0  -9    4.28    0.44
   6   0   9    0.23    0.19
  -6   0  -9    0.01    0.11
  -7   0  -9    1.97    0.34
  -8   0  -9    0.05    0.16
  -8  -1   9   -0.10    0.39
  -8   1   9   -0.13    0.38
   7  -1  -9    1.35    0.24
  -7  -1   9    1.48    0.59
  -7   1   9    1.08    0.56
   7   1  -9    1.97    0.28
  -6  -1   9    4.19    0.85
   6  -1  -9    3.95    0.42
  -6   1   9    3.39    0.81
   6   1  -9    5.22    0.46
   5  -1  -9   21.10    1.25
  -5  -1   9   17.58    1.69
   5   1  -9   21.78    1.27
  -5   1   9   21.51    1.78
   4  -1  -9    0.01    0.09
  -4  -1   9    0.02    0.28
  -4   1   9    0.31    0.31
   4   1  -9    0.17    0.10
  -3  -1   9    0.38    0.31
   3  -1  -9    0.66    0.15
  -3   1   9    1.07    0.37
   3   1  -9    0.96    0.17
  -3   1   9    0.88    0.23
  -2  -1   9   24.54    1.79
   2  -1  -9   26.09    1.49
  -2   1   9   28.07    1.47
   2   1  -9   24.99    1.48
  -2   1   9   25.54    1.78
   1  -1  -9   49.95    2.66
  -1  -1   9   47.01    2.90
  -1   1   9   49.99    2.90
   1   1  -9   49.02    2.66
   0  -1  -9    0.08    0.04
   0  -1  -9    0.16    0.08
   0  -1   9   -0.16    0.14
   0   1  -9    0.12    0.08
   0   1   9    0.15    0.20
   0   1   9    0.13    0.17
   1  -1   9   15.73    1.06
  -1  -1  -9   14.08    0.92
   1  -1   9   14.68    1.14
   1   1   9   16.48    1.03
  -1   1  -9   16.56    0.93
   1   1   9   16.00    1.18
   2  -1   9    2.84    0.46
  -2  -1  -9    2.01    0.22
  -2  -1  -9    1.83    0.23
   2   1   9    1.83    0.39
  -2   1  -9    2.01    0.22
  -2   1  -9    2.07    0.19
   3  -1   9   32.48    2.11
  -3  -1  -9   33.36    1.90
  -3  -1  -9   34.23    1.91
  -3   1  -9   37.88    1.90
  -3   1  -9   34.75    1.90
   3   1   9   33.23    2.14
  -4  -1  -9    4.67    0.39
   4  -1   9    4.80    0.58
   4   1   9    4.37    0.56
  -4   1  -9    4.12    0.35
  -4   1  -9    4.80    0.39
   5  -1   9    0.11    0.19
  -5  -1  -9    0.08    0.11
  -5   1  -9    0.06    0.09
   5   1   9    0.16    0.20
  -6  -1  -9    3.03    0.40
   6   1   9    4.30    0.52
  -6   1  -9    3.20    0.42
  -7  -1  -9    0.06    0.14
  -7   1  -9    0.11    0.15
   7   1   9   -0.03    0.18
  -8  -1  -9    2.28    0.38
  -8   1  -9    1.69    0.34
  -8  -2   9    0.90    0.62
  -8   2   9    1.49    0.72
  -7  -2   9    4.03    0.89
  -7   2   9    2.48    0.74
   7   2  -9    2.10    0.32
  -6  -2   9   12.84    1.51
   6  -2  -9   12.21    0.82
   6   2  -9   12.96    0.86
  -6   2   9   12.57    1.53
   5  -2  -9   -0.02    0.09
  -5  -2   9   -0.19    0.26
  -5   2   9   -0.22    0.25
   5   2  -9    0.32    0.14
  -5   2   9    0.03    0.14
   4  -2  -9   16.03    0.98
  -4  -2   9   13.38    1.34
  -4   2   9   16.57    1.42
   4   2  -9   16.50    1.00
  -4   2   9   15.96    1.02
   3  -2  -9    0.76    0.16
  -3  -2   9    0.34    0.32
  -3   2   9    0.15    0.26
  -3   2   9    0.37    0.15
   3   2  -9    0.48    0.14
   2  -2  -9   32.11    1.68
   2  -2  -9   28.81    1.73
  -2  -2   9   28.92    2.06
  -2   2   9   32.92    1.76
   2   2  -9   31.03    1.74
  -2   2   9   31.34    2.04
   1  -2  -9   22.61    1.15
  -1  -2   9   23.02    1.49
   1  -2  -9   20.11    1.21
   1   2  -9   17.94    1.19
  -1   2   9   22.09    1.44
   0  -2  -9    2.18    0.25
   0  -2   9    1.20    0.31
   0  -2  -9    2.19    0.16
   0   2  -9    1.85    0.22
   0   2   9    2.03    0.34
   0   2   9    1.66    0.38
   1  -2   9   25.48    1.68
  -1  -2  -9   26.00    1.54
  -1  -2  -9   28.49    1.46
   1   2   9   27.44    1.60
  -1   2  -9   29.01    1.53
   1   2   9   27.16    1.81
  -2  -2  -9    0.29    0.09
  -2  -2  -9    0.10    0.09
   2  -2   9    0.25    0.22
   2   2   9    0.02    0.19
  -2   2  -9    0.20    0.08
  -3  -2  -9    5.21    0.39
   3  -2   9    5.24    0.61
  -3   2  -9    4.54    0.35
   3   2   9    4.31    0.60
  -3   2  -9    4.71    0.36
   4  -2   9    2.48    0.40
  -4  -2  -9    2.06    0.27
   4   2   9    2.31    0.41
  -4   2  -9    1.87    0.26
  -5  -2  -9    0.03    0.10
   5  -2   9    0.29    0.20
   5   2   9   -0.08    0.18
  -5   2  -9    0.00    0.10
  -6  -2  -9    0.55    0.18
   6   2   9    0.82    0.28
  -6   2  -9    0.76    0.22
  -7  -2  -9    0.11    0.13
   7   2   9    0.00    0.20
  -7   2  -9    0.03    0.15
  -8   2  -9    0.00    0.16
  -8  -3   9    3.71    0.90
   8   3  -9    3.35    0.41
  -8   3   9    3.51    0.95
  -7  -3   9    4.27    0.92
  -7   3   9    5.44    1.05
   7   3  -9    5.58    0.53
  -6  -3   9    1.11    0.51
   6  -3  -9    0.83    0.18
   6   3  -9    1.08    0.21
  -6   3   9    0.56    0.44
  -6   3   9    1.12    0.29
   5  -3  -9    0.04    0.10
  -5  -3   9   -0.06    0.30
  -5   3   9    0.04    0.13
   5   3  -9    0.01    0.09
  -5   3   9    0.24    0.33
   4  -3  -9    2.47    0.29
  -4  -3   9    2.83    0.61
  -4   3   9    2.91    0.37
  -4   3   9    2.01    0.53
   4   3  -9    3.17    0.34
   3  -3  -9    4.09    0.31
  -3  -3   9    3.43    0.62
   3  -3  -9    3.62    0.36
  -3   3   9    3.71    0.41
  -3   3   9    4.22    0.68
   3   3  -9    3.45    0.35
   2  -3  -9   27.94    1.63
  -2  -3   9   24.58    1.90
   2  -3  -9   29.95    1.58
   2   3  -9   30.02    1.64
  -2   3   9   30.04    1.92
  -1  -3   9    7.66    0.74
   1  -3  -9    7.79    0.54
   1  -3  -9    7.81    0.48
  -1   3   9    7.60    0.79
   1   3  -9    7.15    0.52
  -1   3   9    7.99    0.70
   0  -3  -9    5.69    0.44
   0  -3   9    4.75    0.59
   0  -3  -9    6.19    0.37
   0   3   9    6.52    0.54
   0   3   9    5.03    0.66
   0   3  -9    5.45    0.41
  -1  -3  -9    0.14    0.06
  -1  -3  -9    0.15    0.09
   1  -3   9    0.08    0.16
   1   3   9    0.09    0.12
   1   3   9   -0.17    0.17
  -1   3  -9    0.19    0.08
  -2  -3  -9    1.86    0.17
  -2  -3  -9    1.46    0.22
   2  -3   9    1.41    0.34
  -2   3  -9    1.71    0.20
   2   3   9    1.81    0.38
   3  -3   9    1.05    0.30
  -3  -3  -9    1.01    0.17
  -3   3  -9    0.69    0.13
   3   3   9    0.77    0.28
   4  -3   9   -0.11    0.15
  -4  -3  -9    0.14    0.10
   4   3   9    0.19    0.22
  -5  -3  -9    1.16    0.23
   5   3   9    0.65    0.27
  -5   3  -9    0.78    0.20
  -6  -3  -9    2.28    0.35
   6   3   9    3.19    0.47
  -6   3  -9    2.53    0.38
  -7  -3  -9    0.25    0.17
   7   3   9    0.19    0.22
  -7   3  -9    0.23    0.23
  -8  -4   9    1.77    0.69
   8   4  -9    1.84    0.31
  -8   4   9    2.41    0.81
  -7  -4   9    1.34    0.59
  -7   4   9    0.38    0.35
   7   4  -9    1.09    0.23
  -7   4   9    0.44    0.44
  -6  -4   9    0.60    0.45
   6  -4  -9    0.16    0.12
   6   4  -9    0.08    0.12
  -6   4   9    0.06    0.34
  -6   4   9   -0.01    0.17
  -5  -4   9    3.97    0.78
   5  -4  -9    4.67    0.43
  -5   4   9    4.61    0.53
   5   4  -9    4.18    0.43
  -5   4   9    4.11    0.75
  -4  -4   9    0.93    0.40
   4  -4  -9    0.84    0.18
   4  -4  -9    1.18    0.18
  -4   4   9    1.13    0.40
  -4   4   9    1.10    0.25
   4   4  -9    0.86    0.19
   3  -4  -9   14.81    0.88
  -3  -4   9   15.42    1.31
   3  -4  -9   14.74    0.92
  -3   4   9   14.14    1.21
  -3   4   9   15.25    1.01
   3   4  -9   13.80    0.93
  -3   4   9   15.80    1.16
  -2  -4   9    0.06    0.21
   2  -4  -9    0.06    0.10
   2  -4  -9    0.02    0.06
  -2   4   9   -0.21    0.19
   2   4  -9    0.11    0.09
  -2   4   9    0.11    0.20
  -1  -4   9    5.18    0.67
   1  -4  -9    6.40    0.41
   1  -4  -9    6.66    0.47
   1   4  -9    5.60    0.44
  -1   4   9    6.00    0.60
  -1   4   9    5.14    0.68
   0  -4  -9   10.79    0.59
   0  -4   9    8.90    0.79
   0  -4  -9    9.87    0.65
   0   4  -9    9.24    0.62
   0   4   9    8.59    0.71
   0   4   9    9.45    0.86
  -1  -4  -9   38.72    2.21
  -1  -4  -9   38.77    2.12
   1   4   9   38.38    2.45
  -1   4  -9   42.92    2.18
  -2  -4  -9    1.25    0.15
   2  -4   9    0.51    0.25
   2   4   9    0.78    0.29
  -2   4  -9    1.09    0.16
   3  -4   9    6.75    0.70
  -3  -4  -9    6.87    0.50
  -3  -4  -9    6.40    0.42
  -3   4  -9    6.64    0.47
   3   4   9    6.65    0.72
  -4  -4  -9    8.38    0.63
   4   4   9    9.28    0.81
  -5  -4  -9    1.05    0.22
   5   4   9    0.55    0.26
  -6  -4  -9    0.08    0.12
   6   4   9   -0.01    0.20
  -7  -4  -9    0.01    0.14
   7   4   9    0.50    0.25
  -8  -5   9    0.78    0.56
   8   5  -9    0.54    0.21
  -7  -5   9    0.39    0.44
  -7   5   9    1.63    0.62
   7   5  -9    1.72    0.29
  -7   5   9    1.53    0.38
  -6  -5   9    1.03    0.48
  -6   5   9    0.92    0.49
  -6   5   9    0.47    0.22
   6   5  -9    1.02    0.21
  -5  -5   9   -0.11    0.27
   5  -5  -9    0.00    0.09
   5   5  -9   -0.18    0.08
  -5   5   9    0.00    0.29
  -5   5   9   -0.03    0.16
   4  -5  -9    5.05    0.41
  -4  -5   9    4.32    0.75
   4  -5  -9    4.82    0.39
  -4   5   9    3.97    0.52
  -4   5   9    5.80    0.67
   4   5  -9    6.10    0.46
  -4   5   9    3.93    0.69
  -3  -5   9   22.52    1.85
   3  -5  -9   26.57    1.55
   3  -5  -9   27.66    1.51
  -3   5   9   29.54    1.69
   3   5  -9   28.40    1.58
  -3   5   9   27.23    1.78
  -3   5   9   23.84    1.81
   2  -5  -9    0.99    0.18
   2  -5  -9    1.10    0.16
  -2  -5   9    0.52    0.28
   2   5  -9    1.04    0.19
  -2   5   9    0.42    0.27
  -2   5   9    1.93    0.40
  -1  -5   9    0.13    0.19
   1  -5  -9    0.11    0.08
   1  -5  -9    0.28    0.12
  -1   5   9    0.18    0.25
  -1   5   9    0.04    0.17
   1   5  -9    0.04    0.08
   0  -5  -9   37.07    1.95
   0  -5  -9   34.80    2.02
   0  -5   9   32.40    2.19
   0   5   9   39.65    2.30
   0   5  -9   36.62    2.00
  -1  -5  -9   11.74    0.72
  -1   5  -9   13.26    0.77
   1   5   9   11.94    1.00
   2  -5   9   -0.32    0.14
  -2  -5  -9    0.08    0.07
   2   5   9    0.00    0.17
  -2   5  -9    0.01    0.08
   3  -5   9    2.49    0.42
  -3  -5  -9    2.98    0.24
   3   5   9    2.93    0.48
  -4  -5  -9    0.39    0.15
   4   5   9    0.37    0.25
  -5  -5  -9    2.28    0.32
   5   5   9    2.16    0.42
  -6  -5  -9    2.22    0.35
   6   5   9    2.54    0.44
  -7  -5  -9    0.52    0.21
   7   5   9    0.22    0.24
  -7  -6   9    2.96    0.75
  -7   6   9    2.43    0.69
  -7   6   9    3.06    0.53
   7   6  -9    4.12    0.45
  -6  -6   9    1.21    0.54
   6   6  -9    2.95    0.37
  -6   6   9    3.22    0.48
  -6   6   9    2.48    0.69
   5  -6  -9    0.16    0.12
  -5  -6   9    0.66    0.41
   5  -6  -9    0.51    0.15
  -5   6   9    0.87    0.42
  -5   6   9    0.58    0.24
   5   6  -9    0.56    0.17
   4  -6  -9    1.90    0.25
  -4  -6   9    2.41    0.57
   4  -6  -9    2.10    0.27
  -4   6   9    2.70    0.42
   4   6  -9    2.00    0.29
  -4   6   9    1.87    0.42
  -4   6   9    1.75    0.47
   3  -6  -9    4.51    0.43
   3  -6  -9    4.85    0.37
  -3  -6   9    3.29    0.61
  -3   6   9    3.13    0.58
  -3   6   9    4.51    0.62
   3   6  -9    4.67    0.43
  -3   6   9    5.03    0.57
   2  -6  -9    0.06    0.09
  -2  -6   9   -0.04    0.18
   2  -6  -9   -0.05    0.06
   2   6  -9    0.04    0.09
  -2   6   9   -0.07    0.19
  -2   6   9   -0.20    0.17
   1  -6  -9    1.62    0.20
  -1  -6   9    1.26    0.34
   1  -6  -9    1.68    0.25
   1   6  -9    1.76    0.24
  -1   6   9    1.58    0.38
   0  -6  -9    0.28    0.09
   0  -6   9    0.08    0.18
   0   6   9    0.03    0.19
   0   6  -9    0.28    0.11
  -1  -6  -9   20.42    1.14
   1   6   9   18.16    1.38
  -1   6  -9   20.39    1.17
  -2  -6  -9    0.22    0.09
   2   6   9   -0.07    0.19
  -2   6  -9    0.42    0.12
  -3  -6  -9    0.37    0.10
   3   6   9    0.42    0.26
  -4  -6  -9    1.31    0.19
   4   6   9    1.52    0.36
  -5  -6  -9    6.04    0.54
   5   6   9    5.83    0.72
  -6  -6  -9    0.79    0.23
   6   6   9    0.87    0.30
  -7  -7   9    0.09    0.39
   7   7  -9    0.32    0.18
  -7   7   9    0.24    0.27
  -6  -7   9    3.62    0.77
   6   7  -9    4.40    0.47
  -6   7   9    4.67    0.64
  -5  -7   9    5.84    0.92
   5  -7  -9    8.43    0.58
   5   7  -9    7.18    0.59
  -5   7   9    7.82    0.82
   4  -7  -9    1.31    0.22
  -4  -7   9    0.72    0.36
  -4   7   9    0.87    0.39
   4   7  -9    1.83    0.28
  -4   7   9    1.39    0.36
   3  -7  -9    0.31    0.11
  -3  -7   9    0.57    0.30
   3   7  -9    0.24    0.13
  -3   7   9    0.31    0.22
  -3   7   9    0.22    0.30
  -3   7   9    0.04    0.21
   2  -7  -9    1.63    0.22
  -2   7   9    2.10    0.40
   2   7  -9    1.37    0.23
   1  -7  -9    0.01    0.07
  -1  -7   9    0.05    0.18
  -1   7   9   -0.04    0.17
   1   7  -9   -0.05    0.07
   0  -7  -9   -0.08    0.07
   0   7   9   -0.09    0.16
   0   7  -9   -0.01    0.08
  -1  -7  -9   27.83    1.59
  -1   7  -9   29.63    1.62
   1   7   9   27.92    1.85
  -2  -7  -9    6.52    0.47
  -2   7  -9    6.91    0.69
   2   7   9    6.94    0.76
  -3  -7  -9    0.12    0.09
   3   7   9    0.35    0.25
  -4  -7  -9    7.27    0.52
   4   7   9    8.03    0.84
   5   7   9    5.45    0.67
  -6  -7  -9    1.40    0.30
   6   7   9    1.32    0.35
  -6  -8   9   -0.08    0.33
  -6   8   9    0.03    0.25
   6   8  -9    0.20    0.16
  -5  -8   9    0.42    0.35
   5  -8  -9    0.22    0.13
   5   8  -9    0.14    0.14
  -5   8   9   -0.02    0.20
  -4  -8   9    1.55    0.46
   4  -8  -9    1.47    0.23
   4   8  -9    1.58    0.27
  -4   8   9    1.44    0.37
  -3  -8   9    1.59    0.44
   3  -8  -9    2.10    0.27
   3   8  -9    2.36    0.32
  -2  -8   9    0.07    0.20
   2  -8  -9    0.10    0.08
   2   8  -9    0.15    0.11
  -2   8   9   -0.10    0.17
  -1  -8   9    0.91    0.31
   1  -8  -9    1.10    0.18
  -1   8   9    0.85    0.27
   1   8  -9    0.70    0.18
   0  -8  -9    1.46    0.20
   0   8   9    1.39    0.34
   0   8  -9    1.09    0.21
  -1  -8  -9    0.11    0.09
   1   8   9   -0.03    0.20
  -1   8  -9    0.09    0.09
  -2  -8  -9    0.02    0.08
   2   8   9   -0.05    0.19
  -3  -8  -9   -0.07    0.08
   3   8   9   -0.08    0.19
  -4  -8  -9    3.09    0.33
   4   8   9    4.02    0.56
   5   8   9   -0.23    0.17
  -6  -9   9   -0.08    0.34
  -6   9   9   -0.11    0.25
  -5  -9   9    0.35    0.34
   5  -9  -9    0.19    0.14
   5   9  -9    0.38    0.18
  -5   9   9    0.21    0.25
   4  -9  -9    2.83    0.34
  -4  -9   9    3.87    0.67
  -4   9   9    3.99    0.62
   4   9  -9    3.00    0.38
   3  -9  -9    1.95    0.26
  -3  -9   9    1.27    0.38
   3   9  -9    1.60    0.27
  -2  -9   9    1.82    0.44
   2  -9  -9    1.71    0.25
   2   9  -9    2.51    0.31
   1  -9  -9    0.10    0.10
  -1   9   9    0.26    0.22
   1   9  -9    0.09    0.11
   0  -9  -9    1.67    0.24
   0   9   9    2.43    0.43
   0   9  -9    2.46    0.30
  -1  -9  -9    1.78    0.23
  -1   9  -9    1.84    0.26
   1   9   9    1.22    0.35
  -2  -9  -9    1.21    0.20
   2   9   9    1.44    0.37
  -3  -9  -9    2.47    0.29
   3   9   9    1.91    0.43
  -4  -9  -9    1.17    0.20
   4   9   9    1.03    0.32
   5   9   9    2.04    0.66
  -5 -10   9    0.55    0.38
  -5  10   9    0.92    0.35
   4 -10  -9    0.19    0.12
  -4 -10   9    0.29    0.31
   4  10  -9    0.14    0.14
  -4  10   9   -0.03    0.24
  -3 -10   9    0.61    0.34
   3 -10  -9    0.99    0.20
  -3  10   9    0.57    0.30
   3  10  -9    0.31    0.16
   2 -10  -9    1.46    0.23
   2  10  -9    1.79    0.28
   1 -10  -9    0.25    0.13
  -1  10   9   -0.21    0.20
   1  10  -9   -0.11    0.08
   0 -10  -9    2.51    0.30
   0  10  -9    3.10    0.34
   0  10   9    2.47    0.42
  -1 -10  -9    8.20    0.59
   1  10   9    8.30    0.76
  -2 -10  -9    2.27    0.28
   2  10   9    2.50    0.45
  -3 -10  -9    2.84    0.34
   3  10   9    4.42    0.58
  -4 -10  -9    1.00    0.21
   4  10   9    1.10    0.33
  -4 -11   9    0.08    0.31
  -4  11   9    0.49    0.35
   3 -11  -9    0.59    0.17
  -3  11   9    0.50    0.31
   3  11  -9    0.46    0.19
   2 -11  -9    2.45    0.31
   2  11  -9    2.35    0.34
   1 -11  -9    1.12    0.22
   1  11  -9    1.96    0.29
   0 -11  -9    7.79    0.61
   0  11   9    9.74    0.81
   0  11  -9    8.00    0.62
  -1 -11  -9    5.97    0.50
   1  11   9    7.21    0.76
  -2 -11  -9    1.62    0.26
   2  11   9    2.55    0.44
  -3 -11  -9   -0.14    0.11
   3  11   9   -0.13    0.19
   2  12  -9    2.67    0.38
   1 -12  -9    0.55    0.18
   1  12  -9    0.36    0.17
   0 -12  -9    0.31    0.15
  -1 -12  -9    0.10    0.12
   1  12   9    0.03    0.30
  -8   0  10    4.03    1.04
  -7   0  10    0.35    0.44
   7   0 -10    0.05    0.13
   6   0 -10    0.09    0.12
  -6   0  10    0.30    0.38
  -5   0  10    0.12    0.34
   5   0 -10    0.00    0.10
   4   0 -10    2.09    0.28
  -4   0  10    1.20    0.49
  -3   0  10   -0.13    0.23
   3   0 -10    0.01    0.09
   2   0 -10   21.38    1.28
  -2   0  10   22.39    1.62
  -1   0  10    0.03    0.20
   1   0 -10   -0.04    0.07
   0   0 -10    3.23    0.32
   0   0  10    3.21    0.46
   1   0  10   -0.20    0.11
   1   0  10   -0.20    0.17
  -1   0 -10    0.04    0.07
   2   0  10    7.44    0.81
  -2   0 -10    7.17    0.51
  -3   0 -10    0.03    0.07
   3   0  10   -0.05    0.20
  -3   0 -10   -0.01    0.08
  -4   0 -10    2.54    0.29
   4   0  10    3.04    0.48
  -5   0 -10    0.27    0.13
   5   0  10   -0.09    0.20
  -6   0 -10    1.56    0.28
   6   0  10    1.27    0.33
  -7   0 -10   -0.16    0.13
  -8  -1  10    0.81    0.61
  -8   1  10    2.24    0.82
  -7  -1  10    1.62    0.67
   7  -1 -10    1.84    0.30
   7   1 -10    2.03    0.31
  -7   1  10    1.45    0.64
  -6  -1  10    4.42    0.91
   6  -1 -10    5.53    0.51
  -6   1  10    4.37    0.93
   6   1 -10    4.95    0.49
   5  -1 -10    8.44    0.62
  -5  -1  10    6.96    1.09
  -5   1  10    7.07    1.07
   5   1 -10    8.81    0.63
   4  -1 -10    6.44    0.51
  -4  -1  10    6.42    0.99
   4   1 -10    6.57    0.51
  -4   1  10    6.65    0.98
   3  -1 -10   28.69    1.66
  -3  -1  10   28.96    2.08
  -3   1  10   29.52    2.08
   3   1 -10   28.44    1.66
   2  -1 -10   35.16    1.98
  -2  -1  10   34.50    2.33
  -2   1  10   35.44    2.31
   2   1 -10   36.13    1.99
  -1  -1  10   22.77    1.60
   1  -1 -10   22.86    1.35
  -1   1  10   25.33    1.62
   1   1 -10   22.61    1.34
   0  -1  10   50.06    2.92
   0  -1 -10   51.47    2.72
   0   1  10   47.03    2.99
   0   1 -10   50.87    2.72
   0   1  10   49.90    2.88
  -1  -1 -10    1.31    0.20
   1  -1  10    1.53    0.38
   1  -1  10    1.11    0.26
   1   1  10    0.90    0.35
   1   1  10    1.63    0.28
  -1   1 -10    1.26    0.18
   2  -1  10   33.83    2.06
  -2  -1 -10   28.87    1.75
  -2   1 -10   32.47    1.75
   2   1  10   31.47    2.04
  -3  -1 -10    2.49    0.27
  -3  -1 -10    2.85    0.30
   3  -1  10    3.15    0.50
   3   1  10    1.86    0.42
  -3   1 -10    2.68    0.27
   4  -1  10    3.93    0.54
  -4  -1 -10    3.96    0.35
   4   1  10    2.70    0.48
   5  -1  10   -0.21    0.19
  -5  -1 -10    0.06    0.10
   5   1  10   -0.01    0.22
  -6  -1 -10   11.82    0.87
   6   1  10   13.26    1.01
  -7  -1 -10    0.83    0.23
  -8  -2  10   -0.07    0.51
  -8   2  10    0.49    0.61
  -7  -2  10    1.37    0.66
   7   2 -10    1.90    0.30
  -7   2  10    1.45    0.63
   6  -2 -10    0.25    0.14
  -6  -2  10   -0.03    0.37
  -6   2  10    0.15    0.43
   6   2 -10    0.48    0.17
  -5  -2  10    0.02    0.32
   5  -2 -10    0.41    0.15
   5   2 -10    0.51    0.17
  -5   2  10    0.06    0.34
   4  -2 -10    1.76    0.25
  -4  -2  10    0.83    0.43
   4   2 -10    1.61    0.25
  -4   2  10    0.88    0.40
   3  -2 -10    3.62    0.37
  -3  -2  10    4.29    0.73
   3   2 -10    4.33    0.41
  -3   2  10    3.76    0.67
   2  -2 -10   14.97    0.98
  -2  -2  10   16.56    1.33
   2   2 -10   17.05    1.00
  -2   2  10   16.05    1.28
   1  -2 -10   14.20    0.76
  -1  -2  10   12.90    1.07
   1  -2 -10   14.03    0.85
   1   2 -10   11.79    0.82
  -1   2  10   12.66    1.08
  -1   2  10   14.18    1.07
   0  -2  10   11.44    0.94
   0  -2 -10   12.94    0.78
   0   2  10   11.83    0.90
   0   2  10   11.66    1.02
   0   2 -10   12.10    0.76
  -1  -2 -10    6.66    0.46
   1  -2  10    5.67    0.57
   1  -2  10    4.52    0.63
  -1   2 -10    5.93    0.43
   1   2  10    5.32    0.71
   1   2  10    6.06    0.51
   2  -2  10    2.31    0.45
  -2  -2 -10    2.33    0.27
   2   2  10    2.71    0.48
  -2   2 -10    2.36    0.25
  -3  -2 -10    2.45    0.27
   3  -2  10    2.12    0.43
   3   2  10    1.92    0.43
  -3   2 -10    2.53    0.26
   4  -2  10    0.06    0.20
  -4  -2 -10    0.06    0.10
   4   2  10    0.26    0.22
  -5  -2 -10    1.03    0.22
   5  -2  10    0.70    0.26
   5   2  10    1.38    0.36
  -6  -2 -10    3.04    0.39
   6   2  10    2.60    0.48
  -7  -2 -10    5.00    0.56
   7   2  10    5.63    0.64
   8   3 -10    0.47    0.20
  -7  -3  10    1.56    0.67
   7   3 -10    1.15    0.25
  -7   3  10    0.84    0.57
  -6  -3  10    1.14    0.56
   6  -3 -10    1.65    0.27
   6   3 -10    2.11    0.31
  -6   3  10    2.25    0.70
   5  -3 -10    9.07    0.65
  -5  -3  10    8.21    1.20
   5   3 -10    9.44    0.68
  -5   3  10    8.91    1.21
   4  -3 -10   -0.02    0.10
  -4  -3  10    0.08    0.28
  -4   3  10   -0.04    0.30
   4   3 -10    0.08    0.11
   3  -3 -10   11.69    0.75
  -3  -3  10   11.58    1.14
   3   3 -10   10.52    0.74
  -3   3  10   10.54    1.15
   2  -3 -10    0.70    0.12
   2  -3 -10    0.73    0.17
  -2  -3  10    0.41    0.30
  -2   3  10    0.43    0.29
  -2   3  10    0.39    0.27
   2   3 -10    0.34    0.12
   1  -3 -10   22.22    1.16
   1  -3 -10   20.83    1.25
  -1  -3  10   21.32    1.50
  -1   3  10   19.74    1.42
  -1   3  10   20.81    1.51
   1   3 -10   19.61    1.22
   0  -3 -10    1.54    0.22
   0  -3  10    0.97    0.28
   0  -3 -10    1.16    0.14
   0   3  10    1.47    0.40
   0   3 -10    1.16    0.19
   0   3  10    1.57    0.30
  -1  -3 -10    0.34    0.12
   1   3  10    0.66    0.29
  -1   3 -10    0.33    0.11
   2  -3  10    4.90    0.63
  -2  -3 -10    4.23    0.42
   2   3  10    3.83    0.61
  -2   3 -10    5.04    0.36
   3  -3  10    1.01    0.31
  -3  -3 -10    0.66    0.15
  -3   3 -10    0.63    0.13
   3   3  10    0.33    0.26
  -4  -3 -10    0.00    0.08
   4  -3  10    0.00    0.19
   4   3  10   -0.11    0.18
  -5  -3 -10    0.08    0.11
   5   3  10    0.00    0.21
  -6  -3 -10    3.00    0.40
   6   3  10    3.14    0.51
  -7  -3 -10   -0.01    0.13
   7   3  10    0.08    0.23
   8   4 -10   -0.04    0.15
  -7  -4  10    0.09    0.43
  -7   4  10    0.25    0.43
   7   4 -10   -0.03    0.14
   6  -4 -10    0.47    0.16
  -6  -4  10    0.70    0.48
  -6   4  10    0.29    0.42
   6   4 -10    0.64    0.19
   5  -4 -10    0.00    0.10
  -5  -4  10   -0.10    0.32
  -5   4  10   -0.05    0.30
   5   4 -10    0.02    0.12
   4  -4 -10    0.45    0.15
  -4  -4  10    0.27    0.35
   4   4 -10    0.54    0.16
  -4   4  10    0.55    0.35
  -4   4  10    0.57    0.21
   3  -4 -10    3.37    0.30
   3  -4 -10    2.36    0.31
  -3  -4  10    3.46    0.66
  -3   4  10    2.54    0.49
   3   4 -10    2.99    0.34
  -3   4  10    2.68    0.37
  -3   4  10    2.60    0.55
   2  -4 -10    4.08    0.39
   2  -4 -10    3.83    0.29
  -2  -4  10    3.57    0.61
  -2   4  10    3.25    0.56
   2   4 -10    3.32    0.36
  -2   4  10    3.06    0.53
   1  -4 -10    6.97    0.44
   1  -4 -10    6.97    0.52
  -1  -4  10    6.02    0.74
  -1   4  10    7.12    0.83
   1   4 -10    5.42    0.47
  -1   4  10    7.61    0.68
   0  -4  10    4.75    0.62
   0  -4 -10    5.98    0.46
   0  -4 -10    6.27    0.39
   0   4 -10    5.32    0.43
   0   4  10    6.06    0.73
  -1  -4 -10    0.64    0.17
  -1  -4 -10    0.94    0.13
  -1   4 -10    0.98    0.16
   1   4  10    0.82    0.33
   2  -4  10   -0.29    0.16
  -2   4 -10   -0.04    0.07
   2   4  10   -0.06    0.21
   3  -4  10    1.63    0.38
   3   4  10    1.42    0.37
  -4  -4 -10    4.28    0.41
   4   4  10    5.52    0.67
  -5  -4 -10    0.97    0.22
   5   4  10    1.11    0.34
  -6  -4 -10   -0.05    0.12
   6   4  10    0.07    0.21
  -7  -4 -10   -0.05    0.14
   7   4  10    0.06    0.22
  -7  -5  10   -0.49    0.36
  -7   5  10   -0.32    0.40
   7   5 -10   -0.05    0.14
  -6  -5  10    0.16    0.41
   6   5 -10    0.25    0.16
  -6   5  10   -0.22    0.34
  -5  -5  10    0.95    0.48
   5  -5 -10    1.50    0.25
   5   5 -10    1.46    0.26
  -5   5  10    2.02    0.38
  -5   5  10    2.09    0.47
  -5   5  10    1.81    0.55
  -4  -5  10    0.16    0.30
   4  -5 -10    0.38    0.12
   4  -5 -10    0.24    0.13
   4   5 -10    0.68    0.18
  -4   5  10    0.59    0.22
  -4   5  10    0.17    0.25
  -4   5  10    0.43    0.33
   3  -5 -10    1.52    0.23
   3  -5 -10    1.21    0.19
  -3  -5  10    1.21    0.43
  -3   5  10    0.73    0.22
  -3   5  10    0.71    0.36
  -3   5  10    0.64    0.30
   3   5 -10    1.30    0.22
   2  -5 -10    0.03    0.08
  -2  -5  10    0.06    0.21
   2  -5 -10    0.22    0.12
   2   5 -10    0.08    0.09
  -2   5  10   -0.15    0.18
  -2   5  10    0.00    0.25
   1  -5 -10    1.14    0.21
  -1  -5  10    1.18    0.35
   1  -5 -10    1.15    0.16
  -1   5  10    0.98    0.34
   1   5 -10    1.66    0.23
   0  -5 -10    0.02    0.06
   0  -5  10   -0.10    0.15
   0  -5 -10   -0.09    0.08
   0   5  10   -0.07    0.23
   0   5 -10    0.00    0.08
  -1  -5 -10   10.42    0.64
  -1   5 -10   10.89    0.69
   1   5  10    9.94    0.94
   2  -5  10    0.52    0.25
  -2   5 -10    0.28    0.11
   2   5  10    0.26    0.24
   3   5  10    1.38    0.38
   4   5  10    3.06    0.52
  -5  -5 -10    2.79    0.37
   5   5  10    2.98    0.51
  -6  -5 -10    0.55    0.19
   6   5  10    0.31    0.24
  -7  -6  10    8.31    1.26
  -7   6  10    8.93    1.35
   7   6 -10   10.97    0.78
  -6  -6  10    4.36    0.86
   6   6 -10    5.59    0.53
  -6   6  10    3.74    0.69
  -6   6  10    2.17    0.66
   5  -6 -10    0.03    0.11
  -5  -6  10   -0.22    0.30
  -5   6  10   -0.11    0.35
   5   6 -10    0.07    0.13
  -5   6  10    0.11    0.19
   4  -6 -10    0.38    0.15
   4  -6 -10    0.71    0.16
  -4  -6  10    0.57    0.35
  -4   6  10    0.99    0.28
   4   6 -10    0.77    0.20
  -4   6  10    0.97    0.34
  -4   6  10    0.94    0.39
  -3  -6  10   10.43    1.04
   3  -6 -10   10.00    0.71
   3  -6 -10   10.11    0.67
  -3   6  10   11.38    0.86
  -3   6  10    9.87    1.02
  -3   6  10    9.27    0.96
   3   6 -10   10.72    0.74
   2  -6 -10    2.77    0.28
  -2  -6  10    1.75    0.45
   2  -6 -10    2.56    0.33
   2   6 -10    2.69    0.32
  -2   6  10    2.56    0.49
   1  -6 -10    4.43    0.33
   1  -6 -10    3.42    0.40
  -1  -6  10    4.10    0.61
  -1   6  10    4.32    0.63
   1   6 -10    3.95    0.39
   0  -6 -10    6.17    0.43
   0  -6  10    5.63    0.70
   0   6  10    6.51    0.76
   0   6 -10    6.50    0.48
  -1  -6 -10    1.02    0.15
   1   6  10    0.55    0.30
  -1   6 -10    1.13    0.19
  -2  -6 -10    4.71    0.35
   2  -6  10    5.26    0.63
  -2   6 -10    4.41    0.37
   2   6  10    4.69    0.66
   3   6  10    4.97    0.67
   4   6  10    4.53    0.63
   5   6  10    1.92    0.43
  -6  -6 -10    0.18    0.16
   6   6  10   -0.20    0.20
  -6  -7  10    0.39    0.43
  -6   7  10    0.72    0.47
  -6   7  10    0.20    0.25
   6   7 -10    0.27    0.17
  -5  -7  10    1.39    0.52
   5  -7 -10    2.02    0.27
  -5   7  10    1.26    0.50
  -5   7  10    1.81    0.39
   5   7 -10    1.62    0.28
  -4  -7  10    0.81    0.42
   4  -7 -10    1.70    0.27
   4  -7 -10    0.97    0.21
   4   7 -10    1.93    0.30
  -4   7  10    0.91    0.29
  -3  -7  10    0.44    0.31
   3  -7 -10    0.04    0.08
  -3   7  10    0.64    0.30
  -3   7  10    0.29    0.22
   3   7 -10    0.28    0.15
  -2  -7  10    1.80    0.43
   2  -7 -10    1.86    0.24
  -2   7  10    2.70    0.48
   2   7 -10    2.44    0.31
   1  -7 -10    0.28    0.11
  -1  -7  10    0.21    0.24
   1   7 -10    0.08    0.10
  -1   7  10    0.16    0.24
   0  -7 -10    4.29    0.34
   0   7  10    3.01    0.55
   0   7 -10    4.18    0.40
  -1  -7 -10    3.41    0.30
   1   7  10    3.30    0.53
  -1   7 -10    3.86    0.38
  -2  -7 -10    1.05    0.17
   2   7  10    1.00    0.34
   3   7  10    2.72    0.50
   4   7  10    0.51    0.28
   5   7  10   -0.25    0.17
  -6  -8  10    0.22    0.39
  -6   8  10   -0.11    0.24
  -6   8  10    0.62    0.49
   5  -8 -10   13.22    0.90
  -5  -8  10   13.20    1.30
   5   8 -10   13.49    0.96
  -5   8  10   15.18    1.17
   4  -8 -10    0.21    0.12
  -4  -8  10    0.29    0.34
   4   8 -10    0.44    0.17
  -4   8  10    0.29    0.24
  -3  -8  10   17.29    1.42
   3  -8 -10   15.76    1.05
  -3   8  10   19.21    1.34
   3   8 -10   18.20    1.13
  -2  -8  10    0.66    0.31
   2  -8 -10    1.62    0.22
  -2   8  10    0.98    0.33
   2   8 -10    1.50    0.25
   1  -8 -10    5.03    0.40
  -1  -8  10    4.18    0.64
   1   8 -10    5.47    0.45
  -1   8  10    4.27    0.61
   0  -8 -10    0.84    0.16
   0   8 -10    0.50    0.16
   0   8  10    0.52    0.27
  -1  -8 -10    3.57    0.36
   1   8  10    5.88    0.70
  -1   8 -10    4.82    0.40
  -2  -8 -10    1.31    0.20
   2   8  10    1.01    0.35
  -3  -8 -10    3.76    0.37
   3   8  10    3.47    0.57
   4   8  10    0.60    0.30
   5   8  10    0.22    0.38
  -5  -9  10    0.30    0.37
   5  -9 -10    0.34    0.16
  -5   9  10    0.21    0.25
   5   9 -10    0.25    0.19
   4  -9 -10    0.85    0.19
  -4  -9  10    0.51    0.35
   4   9 -10    0.38    0.17
  -4   9  10    0.07    0.24
  -3  -9  10   -0.02    0.27
   3  -9 -10    0.08    0.10
  -3   9  10    0.14    0.25
   3   9 -10   -0.01    0.11
  -2  -9  10   -0.09    0.23
   2  -9 -10    0.05    0.10
   2   9 -10    0.38    0.16
   1  -9 -10    0.23    0.11
   1   9 -10   -0.11    0.10
  -1   9  10   -0.09    0.21
   0  -9 -10   -0.02    0.10
   0   9 -10    0.20    0.14
   0   9  10    0.30    0.25
  -1  -9 -10    1.34    0.21
   1   9  10    1.07    0.35
  -2  -9 -10    0.02    0.10
   2   9  10    0.32    0.28
  -3  -9 -10    3.73    0.38
   3   9  10    4.27    0.62
   4   9  10    0.24    0.22
   4 -10 -10    0.66    0.18
  -4 -10  10    0.35    0.31
  -4  10  10    0.13    0.28
   3 -10 -10    4.16    0.43
  -3 -10  10    4.36    0.70
   3  10 -10    4.59    0.49
  -3  10  10    4.49    0.69
   2 -10 -10    0.81    0.19
   2  10 -10    1.00    0.23
   1 -10 -10    0.16    0.12
   1  10 -10   -0.03    0.11
  -1  10  10    0.30    0.35
   0 -10 -10    5.27    0.45
   0  10  10    6.83    0.74
   0  10 -10    5.18    0.51
  -1 -10 -10    0.64    0.17
   1  10  10    0.19    0.25
  -2 -10 -10    1.37    0.23
   2  10  10    1.80    0.41
  -3 -10 -10    1.11    0.21
   3  10  10    1.25    0.36
  -3  11  10    0.95    0.40
   2 -11 -10    0.11    0.13
   2  11 -10    0.19    0.14
   1 -11 -10    7.65    0.58
   1  11 -10    7.11    0.60
   0 -11 -10    0.03    0.12
   0  11  10   -0.26    0.26
  -1 -11 -10    5.34    0.45
   1  11  10    5.14    0.65
  -2 -11 -10    0.26    0.15
   2  11  10    0.26    0.23
  -7   0  11    0.80    0.56
   7   0 -11    0.48    0.20
   6   0 -11   -0.11    0.11
  -6   0  11    0.27    0.37
  -5   0  11    7.74    1.18
   5   0 -11    7.83    0.61
   4   0 -11   -0.06    0.09
  -4   0  11   -0.15    0.30
  -3   0  11    8.38    1.07
   3   0 -11    9.15    0.65
  -2   0  11    0.03    0.25
   2   0 -11    0.08    0.09
  -1   0  11    1.98    0.44
   1   0 -11    2.50    0.29
   0   0  11   -0.08    0.20
   0   0 -11    0.02    0.07
   0   0  11    0.12    0.19
   1   0  11    8.59    0.70
   1   0  11    6.79    0.84
  -1   0 -11    8.30    0.57
  -2   0 -11    0.06    0.09
   2   0  11    0.00    0.24
  -3   0 -11    2.67    0.30
   3   0  11    2.47    0.49
   4   0  11   -0.31    0.18
   5   0  11   27.42    1.82
   6   0  11    0.41    0.27
   7  -1 -11    4.94    0.50
  -7  -1  11    3.47    0.95
  -7   1  11    3.24    0.89
   7   1 -11    4.14    0.48
  -6  -1  11    3.84    0.89
   6  -1 -11    3.67    0.43
  -6   1  11    4.12    0.90
   6   1 -11    4.42    0.48
   5  -1 -11    1.86    0.29
  -5  -1  11    2.68    0.72
   5   1 -11    1.62    0.28
  -5   1  11    0.87    0.49
  -4  -1  11   -0.01    0.30
   4  -1 -11    0.17    0.13
  -4   1  11    0.18    0.32
   4   1 -11    0.13    0.12
   3  -1 -11    0.05    0.11
  -3  -1  11   -0.27    0.23
  -3   1  11    0.12    0.28
   3   1 -11    0.03    0.10
  -2  -1  11   19.56    1.56
   2  -1 -11   18.51    1.21
  -2   1  11   21.74    1.58
   2   1 -11   21.66    1.23
   1  -1 -11   17.25    1.03
  -1  -1  11   17.04    1.28
   1   1 -11   15.35    1.01
  -1   1  11   17.10    1.27
   0  -1 -11    5.19    0.42
   0  -1  11    5.06    0.62
   0   1  11    5.07    0.68
   0   1  11    5.63    0.63
   0   1 -11    5.90    0.43
   1  -1  11    5.41    0.59
  -1  -1 -11    4.92    0.41
   1  -1  11    5.33    0.69
   1   1  11    5.27    0.56
   1   1  11    4.64    0.67
  -1   1 -11    4.89    0.39
   2  -1  11    7.53    0.88
  -2  -1 -11    9.82    0.63
   2   1  11    9.03    0.94
  -2   1 -11    8.55    0.60
   3  -1  11    0.94    0.33
  -3  -1 -11    0.51    0.14
  -3   1 -11    0.27    0.12
   3   1  11    0.14    0.26
   4  -1  11   -0.08    0.22
   4   1  11    0.22    0.24
   5  -1  11   -0.04    0.21
   5   1  11    0.20    0.25
   6   1  11   -0.22    0.20
  -7  -2  11    0.19    0.52
   7   2 -11    0.07    0.14
  -7   2  11    0.51    0.50
  -6  -2  11    2.51    0.75
   6  -2 -11    2.55    0.34
   6   2 -11    2.19    0.33
  -6   2  11    2.87    0.78
  -5  -2  11    0.33    0.39
   5  -2 -11    1.04    0.22
  -5   2  11    1.22    0.53
   5   2 -11    0.45    0.17
   4  -2 -11    2.55    0.32
  -4  -2  11    1.47    0.53
  -4   2  11    2.37    0.60
   4   2 -11    1.77    0.29
   3  -2 -11    0.05    0.10
  -3  -2  11   -0.10    0.27
  -3   2  11    0.13    0.32
   3   2 -11    0.21    0.12
   2  -2 -11   20.18    1.24
  -2  -2  11   20.88    1.59
   2   2 -11   21.33    1.25
  -2   2  11   19.14    1.51
   1  -2 -11    0.22    0.11
  -1  -2  11    0.14    0.23
  -1   2  11    0.46    0.29
  -1   2  11    0.48    0.28
   1   2 -11    0.58    0.14
   0  -2  11   11.72    0.98
   0  -2 -11   12.85    0.83
   0   2  11   13.06    0.96
   0   2  11   12.01    1.08
   0   2 -11   13.13    0.81
   1  -2  11    3.94    0.52
  -1  -2 -11    4.12    0.39
   1  -2  11    3.08    0.53
  -1   2 -11    4.23    0.34
   1   2  11    3.43    0.60
   2  -2  11    0.52    0.31
  -2  -2 -11    0.23    0.11
  -2   2 -11    0.55    0.13
   2   2  11    0.08    0.25
   3  -2  11    2.62    0.48
   3   2  11    2.30    0.49
  -3   2 -11    1.62    0.23
   4  -2  11    2.47    0.46
  -4  -2 -11    2.27    0.36
   4   2  11    3.59    0.54
  -5  -2 -11   13.15    1.00
   5   2  11   17.80    1.24
  -6  -2 -11   -0.03    0.16
   6   2  11    0.45    0.30
  -7  -3  11   -0.31    0.44
  -7   3  11   -0.21    0.44
   7   3 -11    0.06    0.16
  -6  -3  11   13.02    1.66
   6  -3 -11   12.84    0.86
   6   3 -11   12.86    0.89
  -6   3  11    9.79    1.42
   5  -3 -11    4.10    0.43
  -5  -3  11    3.39    0.82
  -5   3  11    2.99    0.73
   5   3 -11    4.04    0.44
  -4  -3  11    0.01    0.32
   4  -3 -11   -0.01    0.10
   4   3 -11    0.05    0.13
  -4   3  11    0.21    0.32
  -3  -3  11   13.78    1.30
   3  -3 -11   14.11    0.91
  -3   3  11   12.82    1.22
   3   3 -11   14.06    0.92
   2  -3 -11   10.32    0.60
   2  -3 -11    8.54    0.66
  -2  -3  11    8.64    1.03
  -2   3  11    8.69    0.98
  -2   3  11    9.21    0.99
   2   3 -11   10.69    0.69
   1  -3 -11    0.05    0.09
  -1  -3  11    0.14    0.23
  -1   3  11    0.05    0.23
  -1   3  11   -0.01    0.20
   1   3 -11    0.06    0.09
   0  -3  11    6.00    0.71
   0  -3 -11    6.13    0.49
   0   3 -11    6.29    0.47
   0   3  11    6.96    0.82
  -1  -3 -11    1.73    0.25
   1   3  11    2.78    0.53
  -1   3 -11    1.96    0.25
   2  -3  11    3.47    0.56
  -2  -3 -11    3.51    0.38
   2   3  11    3.44    0.59
  -2   3 -11    3.66    0.31
   3  -3  11    0.19    0.24
   3   3  11   -0.17    0.20
   4  -3  11    0.89    0.31
  -4  -3 -11    0.77    0.18
   4   3  11    1.23    0.36
  -5  -3 -11    4.33    0.46
   5   3  11    4.16    0.62
  -6  -3 -11   -0.09    0.12
   6   3  11   -0.08    0.22
  -7  -4  11   -0.17    0.45
   7   4 -11    0.06    0.15
  -7   4  11    0.40    0.52
   6  -4 -11    0.16    0.15
  -6  -4  11    0.13    0.41
   6   4 -11    0.17    0.16
  -6   4  11   -0.22    0.31
  -5  -4  11    4.44    0.90
   5  -4 -11    4.70    0.47
  -5   4  11    3.68    0.82
   5   4 -11    5.23    0.52
   4  -4 -11    0.25    0.14
  -4  -4  11   -0.10    0.31
  -4   4  11    0.14    0.30
   4   4 -11    0.11    0.13
  -3  -4  11    0.33    0.33
   3  -4 -11    0.49    0.17
   3  -4 -11    0.35    0.10
  -3   4  11   -0.14    0.23
   3   4 -11    0.15    0.11
  -3   4  11    0.58    0.33
   2  -4 -11   11.33    0.67
   2  -4 -11    9.90    0.73
  -2  -4  11    8.49    1.04
  -2   4  11   10.85    0.98
   2   4 -11   11.72    0.75
  -2   4  11   10.02    1.07
  -1  -4  11   -0.09    0.20
   1  -4 -11   -0.02    0.06
   1  -4 -11    0.10    0.10
  -1   4  11    0.09    0.25
   1   4 -11   -0.08    0.08
   0  -4 -11    1.31    0.23
   0  -4  11    1.70    0.39
   0   4  11    2.10    0.47
   0   4 -11    1.93    0.25
  -1  -4 -11    4.76    0.46
   1   4  11    4.21    0.65
  -1   4 -11    4.86    0.39
   2  -4  11    4.59    0.66
   2   4  11    6.00    0.78
  -2   4 -11    6.86    0.47
   3  -4  11    0.92    0.34
   3   4  11    1.66    0.42
   4   4  11    2.10    0.47
  -5  -4 -11    0.05    0.12
   5   4  11    0.38    0.29
  -6  -4 -11    0.17    0.14
   6   4  11   -0.16    0.22
   7   5 -11    1.59    0.30
  -7   5  11    1.07    0.62
  -6  -5  11    0.30    0.46
  -6   5  11    0.69    0.49
   6   5 -11    0.31    0.17
   5  -5 -11    8.75    0.64
  -5  -5  11    7.56    1.13
  -5   5  11    7.10    1.06
  -5   5  11    7.91    0.96
   5   5 -11    8.87    0.67
  -4  -5  11    1.86    0.56
   4  -5 -11    1.38    0.22
   4  -5 -11    1.36    0.25
  -4   5  11    1.13    0.41
   4   5 -11    1.42    0.26
  -4   5  11    1.26    0.48
  -3  -5  11    0.44    0.35
   3  -5 -11    0.65    0.18
   3  -5 -11    0.86    0.17
  -3   5  11    0.31    0.32
  -3   5  11    0.61    0.34
   3   5 -11    0.55    0.17
   2  -5 -11    0.08    0.09
   2  -5 -11   -0.04    0.10
  -2  -5  11    0.06    0.24
   2   5 -11    0.10    0.10
  -2   5  11    0.30    0.29
   1  -5 -11    0.45    0.11
  -1  -5  11    0.67    0.31
   1  -5 -11    0.28    0.13
  -1   5  11    0.26    0.27
   1   5 -11    0.33    0.13
   0  -5 -11    2.62    0.34
   0  -5  11    2.48    0.48
   0   5 -11    3.76    0.36
   0   5  11    3.24    0.57
  -1   5 -11    0.14    0.10
   1   5  11   -0.10    0.22
   2  -5  11    2.10    0.42
  -2   5 -11    1.73    0.24
   2   5  11    1.68    0.41
   3   5  11    7.71    0.88
   4   5  11    1.36    0.39
   5   5  11    4.70    0.67
  -6  -5 -11    5.06    0.56
   6   5  11    5.94    0.99
  -6  -6  11    0.49    0.47
  -6   6  11    0.18    0.41
   6   6 -11    0.35    0.18
   5  -6 -11    1.66    0.27
  -5  -6  11    1.89    0.61
   5   6 -11    1.27    0.27
  -5   6  11    1.14    0.51
  -4  -6  11    5.31    0.88
   4  -6 -11    6.09    0.48
   4  -6 -11    6.39    0.53
  -4   6  11    8.36    0.92
   4   6 -11    6.45    0.55
  -4   6  11    5.35    0.87
   3  -6 -11    7.00    0.51
   3  -6 -11    7.67    0.58
  -3  -6  11    5.86    0.88
  -3   6  11    6.94    0.76
   3   6 -11    7.11    0.57
  -3   6  11    7.12    0.88
   2  -6 -11    7.90    0.57
   2  -6 -11    6.75    0.48
  -2  -6  11    5.23    0.78
   2   6 -11    6.57    0.53
  -2   6  11    5.75    0.79
   1  -6 -11    2.05    0.22
  -1  -6  11    1.48    0.38
   1  -6 -11    1.16    0.23
  -1   6  11    1.80    0.44
   1   6 -11    1.87    0.27
   0  -6 -11    0.23    0.10
   0   6  11    0.37    0.30
   0   6 -11    0.18    0.12
   1   6  11    2.33    0.48
  -1   6 -11    1.85    0.26
   2   6  11    0.21    0.26
   3   6  11    0.11    0.25
   4   6  11   -0.21    0.21
   5   6  11    0.86    0.35
  -6  -7  11   -0.40    0.52
  -6   7  11    0.19    0.42
   5  -7 -11    1.10    0.24
  -5  -7  11    1.12    0.48
   5  -7 -11    1.30    0.25
   5   7 -11    1.55    0.28
  -4  -7  11    1.78    0.55
   4  -7 -11    2.04    0.31
   4  -7 -11    2.33    0.29
   4   7 -11    1.91    0.31
  -4   7  11    2.19    0.51
  -3  -7  11    1.22    0.45
   3  -7 -11    1.78    0.24
   3   7 -11    1.64    0.29
  -3   7  11    1.42    0.42
  -3   7  11    1.64    0.37
   2  -7 -11    2.41    0.27
  -2  -7  11    1.94    0.46
  -2   7  11    2.64    0.52
   2   7 -11    2.47    0.33
   1  -7 -11    3.96    0.34
  -1  -7  11    4.02    0.62
   1   7 -11    4.27    0.43
  -1   7  11    4.34    0.65
   0  -7 -11    4.27    0.35
   0   7  11    5.03    0.71
   0   7 -11    4.36    0.43
   1   7  11    6.64    0.84
  -1   7 -11    8.25    0.58
   2   7  11   -0.02    0.21
   3   7  11    0.19    0.26
   4   7  11   -0.06    0.24
   5  -8 -11    0.02    0.12
  -5  -8  11    0.34    0.43
   5   8 -11   -0.06    0.13
   4  -8 -11   13.22    0.84
  -4  -8  11   10.12    1.26
  -4   8  11   13.12    1.06
   4   8 -11   12.11    0.89
  -3  -8  11    1.16    0.43
   3  -8 -11    1.65    0.24
   3   8 -11    1.57    0.29
  -3   8  11    1.36    0.37
   2  -8 -11    0.22    0.12
  -2  -8  11    0.24    0.26
  -2   8  11    0.31    0.29
   2   8 -11    0.24    0.15
  -1  -8  11    0.18    0.24
   1  -8 -11    0.06    0.09
  -1   8  11    0.09    0.23
   1   8 -11    0.09    0.12
   0  -8 -11    3.03    0.31
   0   8 -11    3.02    0.36
   0   8  11    2.89    0.52
  -1  -8 -11    0.29    0.12
   1   8  11    0.26    0.29
  -1   8 -11    0.26    0.14
   2   8  11    0.08    0.23
   3   8  11    0.18    0.26
   4   8  11    2.31    0.51
   4  -9 -11    8.80    0.67
  -4  -9  11    8.77    1.08
  -4   9  11   10.55    0.95
   4   9 -11    9.26    0.75
  -3  -9  11    0.04    0.29
   3  -9 -11    0.28    0.14
   3   9 -11   -0.03    0.14
  -3   9  11    0.42    0.29
   2  -9 -11    0.06    0.11
  -2  -9  11   -0.02    0.24
   2   9 -11    0.11    0.14
   1  -9 -11    1.71    0.24
   1   9 -11    1.57    0.28
  -1   9  11    1.93    0.44
   0  -9 -11    0.01    0.10
   0   9 -11   -0.14    0.12
   0   9  11   -0.22    0.23
  -1  -9 -11    0.02    0.10
   1   9  11   -0.01    0.26
   2   9  11    1.54    0.42
   3   9  11    1.43    0.41
  -3 -10  11   -0.18    0.35
   3 -10 -11   -0.05    0.11
  -3  10  11    0.17    0.24
   2 -10 -11    2.41    0.30
   2  10 -11    2.44    0.35
   1 -10 -11    0.38    0.15
   1  10 -11    0.41    0.18
   0 -10 -11    2.15    0.29
   0  10 -11    2.44    0.33
   0  10  11    1.90    0.46
  -1 -10 -11    0.07    0.12
   1  10  11    0.13    0.29
   2  10  11    0.00    0.24
   7   0 -12    0.37    0.19
  -7   0  12    0.03    0.50
  -6   0  12    6.47    1.18
   6   0 -12   11.18    0.77
  -5   0  12   -0.14    0.33
   5   0 -12   -0.10    0.10
  -4   0  12    1.82    0.59
   4   0 -12    1.80    0.29
  -3   0  12   -0.22    0.26
   3   0 -12   -0.09    0.08
   2   0 -12    0.33    0.14
  -2   0  12    0.53    0.31
   1   0 -12   -0.02    0.08
  -1   0  12    0.24    0.24
   0   0  12    3.76    0.52
   0   0 -12    3.15    0.33
   0   0  12    2.20    0.50
   1   0  12   -0.18    0.15
  -1   0 -12   -0.04    0.08
   1   0  12   -0.13    0.23
   2   0  12    5.13    0.73
  -2   0 -12    5.74    0.45
   3   0  12   -0.08    0.22
  -3   0 -12    0.03    0.09
   4   0  12    2.46    0.49
   5   0  12    0.25    0.28
  -7  -1  12    0.29    0.71
   7  -1 -12    1.77    0.32
   7   1 -12    1.84    0.32
  -7   1  12    1.20    0.66
  -6  -1  12   -0.12    0.39
   6  -1 -12    0.05    0.15
   6   1 -12    0.05    0.14
  -6   1  12    0.47    0.48
  -5  -1  12   -0.07    0.34
   5  -1 -12    0.22    0.15
   5   1 -12   -0.17    0.09
  -5   1  12    0.66    0.49
  -4  -1  12    3.03    0.74
   4  -1 -12    3.58    0.41
   4   1 -12    3.22    0.38
  -4   1  12    3.25    0.72
   3  -1 -12    0.32    0.14
  -3  -1  12    0.03    0.31
  -3   1  12    0.22    0.36
   3   1 -12    0.22    0.13
   2  -1 -12    0.10    0.10
  -2  -1  12   -0.07    0.22
  -2   1  12   -0.28    0.22
   2   1 -12   -0.13    0.07
  -1  -1  12    0.22    0.23
   1  -1 -12    0.52    0.15
   1   1 -12    0.51    0.15
  -1   1  12    0.32    0.26
  -1   1  12   -0.17    0.23
   0  -1 -12    1.53    0.24
   0  -1  12    1.26    0.39
   0  -1  12    1.33    0.34
   0   1  12    1.89    0.37
   0   1  12    1.94    0.47
   0   1 -12    1.79    0.25
   1  -1  12    5.59    0.74
  -1  -1 -12    5.10    0.42
   1   1  12    4.60    0.70
  -1   1 -12    4.32    0.42
  -2  -1 -12    2.15    0.28
   2  -1  12    2.18    0.49
   2   1  12    2.45    0.51
  -2   1 -12    2.72    0.30
  -3  -1 -12    3.06    0.35
   3  -1  12    3.24    0.57
  -3   1 -12    3.46    0.35
   3   1  12    3.42    0.59
   4  -1  12    9.48    0.95
   4   1  12    8.32    0.93
   5  -1  12    0.06    0.24
   5   1  12    0.34    0.28
   6   1  12    5.65    0.73
  -7   2  12    3.71    1.01
   7   2 -12    2.99    0.42
   6  -2 -12    5.41    0.52
  -6  -2  12    4.27    0.94
   6   2 -12    4.51    0.51
  -6   2  12    3.14    0.83
   5  -2 -12    0.24    0.16
  -5  -2  12    0.32    0.45
   5   2 -12    0.28    0.16
  -5   2  12   -0.12    0.36
   4  -2 -12    1.29    0.25
  -4  -2  12    0.53    0.40
   4   2 -12    1.45    0.26
  -4   2  12    1.02    0.47
   3  -2 -12    2.91    0.35
  -3  -2  12    3.39    0.68
  -3   2  12    2.65    0.60
   3   2 -12    2.22    0.32
   2  -2 -12    0.52    0.16
  -2  -2  12    0.52    0.33
  -2   2  12    0.06    0.26
   2   2 -12    0.19    0.12
  -2   2  12    0.48    0.31
   1  -2 -12    0.39    0.14
  -1  -2  12    0.02    0.22
  -1   2  12    0.55    0.33
   1   2 -12    0.69    0.16
  -1   2  12    0.07    0.24
   0  -2 -12    2.77    0.32
   0  -2  12    2.73    0.47
   0   2  12    1.95    0.49
   0   2 -12    2.71    0.32
  -1  -2 -12    9.41    0.66
   1  -2  12    7.80    0.92
   1   2  12    9.37    1.02
  -1   2 -12    9.52    0.64
  -2  -2 -12    0.14    0.11
   2  -2  12    0.68    0.33
  -2   2 -12    0.20    0.11
   2   2  12   -0.01    0.23
   3  -2  12    0.83    0.34
   3   2  12    0.63    0.32
  -3   2 -12    1.23    0.24
   4  -2  12    2.61    0.49
   4   2  12    1.98    0.48
   5   2  12    0.11    0.26
   6   2  12    6.55    0.80
   7   3 -12    1.20    0.27
   6  -3 -12    0.02    0.13
  -6  -3  12    0.18    0.39
  -6   3  12    0.38    0.49
   6   3 -12   -0.03    0.15
   5  -3 -12    0.09    0.13
  -5  -3  12    0.16    0.42
  -5   3  12    0.17    0.39
   5   3 -12    0.56    0.19
   4  -3 -12   11.80    0.82
  -4  -3  12   10.23    1.35
   4   3 -12   11.60    0.82
  -4   3  12   11.23    1.34
   3  -3 -12    0.05    0.11
  -3  -3  12    0.03    0.28
  -3   3  12   -0.08    0.28
   3   3 -12    0.05    0.10
  -3   3  12   -0.25    0.23
   2  -3 -12   12.84    0.85
  -2  -3  12   10.25    1.21
  -2   3  12   13.22    1.13
   2   3 -12   12.37    0.84
  -2   3  12   13.38    1.16
   1  -3 -12    0.14    0.12
  -1  -3  12    0.03    0.23
  -1   3  12    0.32    0.31
   1   3 -12   -0.02    0.08
   0  -3 -12    0.68    0.18
   0  -3  12    1.26    0.35
   0   3  12    1.00    0.40
   0   3 -12    1.28    0.22
  -1  -3 -12   -0.02    0.09
   1  -3  12   -0.14    0.23
  -1   3 -12    0.22    0.11
   1   3  12    0.17    0.27
  -2  -3 -12    0.82    0.19
   2  -3  12    1.06    0.39
   2   3  12    1.06    0.39
  -2   3 -12    1.25    0.20
   3  -3  12    0.06    0.25
   3   3  12    0.40    0.31
   4   3  12    0.75    0.34
   5   3  12    0.34    0.32
   6   3  12    1.05    0.38
   6  -4 -12    3.17    0.40
  -6  -4  12    2.56    0.80
   6   4 -12    3.67    0.44
  -6   4  12    1.56    0.63
  -5  -4  12    1.15    0.58
   5  -4 -12    0.97    0.23
  -5   4  12    0.87    0.48
   5   4 -12    0.60    0.20
   4  -4 -12    0.67    0.20
  -4  -4  12    0.81    0.47
  -4   4  12    0.47    0.39
  -4   4  12    0.44    0.37
   4   4 -12    0.36    0.17
  -3  -4  12    1.23    0.47
   3  -4 -12    1.18    0.23
  -3   4  12    1.34    0.47
  -3   4  12    0.91    0.40
   3   4 -12    1.25    0.24
  -2  -4  12    3.90    0.68
   2  -4 -12    4.36    0.46
  -2   4  12    4.12    0.71
   2   4 -12    5.46    0.45
   1  -4 -12    0.03    0.10
  -1  -4  12   -0.15    0.19
  -1   4  12    0.20    0.29
   1   4 -12   -0.04    0.09
   0  -4  12    0.60    0.26
   0  -4 -12    0.58    0.17
   0   4 -12    0.50    0.15
   0   4  12    0.21    0.28
  -1  -4 -12    1.17    0.23
   1   4  12    1.12    0.39
  -1   4 -12    0.96    0.20
   2  -4  12    4.15    0.66
  -2   4 -12    5.17    0.41
   2   4  12    4.66    0.72
   3  -4  12    0.35    0.29
   3   4  12    0.72    0.35
   4   4  12    2.40    0.52
   5   4  12    1.35    0.42
   6  -5 -12    4.03    0.64
  -6  -5  12    4.32    1.07
   6   5 -12    4.78    0.52
  -6   5  12    3.55    0.85
   5  -5 -12    0.79    0.21
  -5  -5  12    0.87    0.51
  -5   5  12    0.89    0.48
   5   5 -12    0.60    0.21
  -5   5  12    1.38    0.56
  -4  -5  12    1.59    0.53
   4  -5 -12    1.97    0.31
  -4   5  12    1.49    0.48
   4   5 -12    1.87    0.29
  -4   5  12    1.38    0.51
   3  -5 -12    1.14    0.19
  -3  -5  12    1.45    0.49
   3  -5 -12    1.28    0.26
  -3   5  12    1.71    0.49
   3   5 -12    1.10    0.23
   2  -5 -12    1.38    0.26
  -2  -5  12    0.24    0.30
   2   5 -12    1.07    0.22
  -2   5  12    0.69    0.38
  -1  -5  12    0.37    0.27
   1  -5 -12    0.17    0.12
  -1   5  12    0.18    0.29
   1   5 -12    0.35    0.14
   0  -5 -12    0.85    0.20
   0  -5  12    0.33    0.24
   0   5 -12    0.97    0.20
   0   5  12    0.17    0.29
  -1   5 -12    5.02    0.40
   1   5  12    3.17    0.61
   2  -5  12    0.79    0.36
   2   5  12    1.88    0.46
   3   5  12    0.40    0.29
   4   5  12    0.36    0.30
   5   5  12    1.11    0.40
  -6   6  12    0.70    0.57
  -5  -6  12    0.89    0.50
   5  -6 -12    0.85    0.22
   5   6 -12    1.15    0.26
  -4  -6  12    1.21    0.50
   4  -6 -12    1.35    0.22
   4  -6 -12    1.25    0.25
  -4   6  12    0.67    0.41
   4   6 -12    0.97    0.24
  -3  -6  12    6.78    0.96
   3  -6 -12    6.26    0.48
   3  -6 -12    5.98    0.58
   3   6 -12    7.13    0.57
  -3   6  12    5.64    0.83
   2  -6 -12    4.40    0.48
  -2  -6  12    3.34    0.64
   2  -6 -12    4.08    0.38
  -2   6  12    3.73    0.66
   2   6 -12    4.23    0.44
   1  -6 -12    3.71    0.44
  -1  -6  12    3.95    0.65
  -1   6  12    3.84    0.68
   1   6 -12    4.91    0.47
   0   6  12    4.11    0.68
   0   6 -12    3.05    0.36
  -1   6 -12    0.92    0.20
   1   6  12    0.43    0.34
   2   6  12    2.42    0.51
   3   6  12    0.82    0.35
   4   6  12    2.36    0.52
  -5  -7  12   12.45    2.04
   5  -7 -12   12.72    0.90
   4  -7 -12    0.06    0.11
  -4  -7  12    0.07    0.33
   4  -7 -12    0.18    0.16
   4   7 -12    0.10    0.14
  -3  -7  12    4.49    0.79
   3  -7 -12    5.06    0.42
   3   7 -12    5.41    0.54
  -3   7  12    4.55    0.76
   2  -7 -12    3.46    0.33
  -2  -7  12    2.57    0.56
  -2   7  12    2.36    0.53
   2   7 -12    3.12    0.39
  -1  -7  12    6.40    0.84
   1   7 -12    7.29    0.58
  -1   7  12    6.87    0.87
   0   7 -12    2.10    0.31
   0   7  12    2.85    0.57
   1   7  12   -0.23    0.24
  -1   7 -12    0.01    0.11
   2   7  12    0.69    0.35
   3   7  12    7.58    0.93
  -4  -8  12    0.43    0.42
   4  -8 -12    0.02    0.11
   4   8 -12    0.06    0.21
   3  -8 -12    0.05    0.11
  -3  -8  12    0.35    0.33
   3   8 -12    0.07    0.14
   2  -8 -12    0.18    0.12
  -2  -8  12   -0.10    0.21
   2   8 -12    0.02    0.13
  -2   8  12    0.38    0.32
   1  -8 -12    0.23    0.13
   1   8 -12    0.30    0.17
  -1   8  12    0.11    0.30
   0   8  12    0.31    0.32
   0   8 -12    0.72    0.19
   1   8  12    0.86    0.36
   2   8  12    3.00    0.58
   3   8  12    1.04    0.46
   3  -9 -12    6.22    0.50
   2  -9 -12    0.70    0.18
  -2  -9  12    0.98    0.41
   2   9 -12    0.65    0.21
   1  -9 -12    5.39    0.44
  -1   9  12    4.80    0.71
   1   9 -12    5.22    0.53
   0   9  12    0.26    0.31
   0   9 -12    0.45    0.18
   1   9  12    0.37    0.31
   2   9  12    0.42    0.39
   1 -10 -12    0.47    0.16
   1  10 -12    0.36    0.18
   0  10  12    0.38    0.33
  -6   0  13    0.35    0.54
   6   0 -13    0.09    0.15
   5   0 -13    0.06    0.14
  -5   0  13    0.46    0.47
  -4   0  13   -0.40    0.31
   4   0 -13   -0.18    0.09
   3   0 -13   11.22    0.80
  -3   0  13   11.38    1.31
  -2   0  13   -0.08    0.25
   2   0 -13    0.00    0.09
   1   0 -13    6.98    0.53
  -1   0  13    6.75    0.87
  -1   0  13    5.87    0.78
   0   0  13   -0.23    0.21
   0   0  13    0.08    0.21
   0   0 -13    0.20    0.12
  -1   0 -13    0.19    0.12
   1   0  13    0.20    0.31
  -2   0 -13   -0.08    0.09
   2   0  13   -0.10    0.25
   3   0  13    3.61    0.62
  -3   0 -13    3.37    0.37
   4   0  13    0.10    0.29
   5   0  13    1.23    0.40
  -6  -1  13    0.49    0.52
   6  -1 -13    0.34    0.19
   6   1 -13    0.78    0.23
  -6   1  13    1.00    0.64
  -5  -1  13   -0.19    0.38
   5  -1 -13    0.46    0.19
  -5   1  13    0.54    0.46
   5   1 -13    0.78    0.22
   4  -1 -13    1.83    0.30
  -4  -1  13    1.94    0.63
  -4   1  13    2.01    0.60
   4   1 -13    1.53    0.28
   3  -1 -13    0.18    0.14
  -3  -1  13    0.10    0.35
  -3   1  13    0.48    0.40
   3   1 -13    0.18    0.14
  -2  -1  13   -0.04    0.26
   2  -1 -13    0.15    0.11
   2   1 -13   -0.11    0.09
  -2   1  13    0.14    0.28
   1  -1 -13    0.12    0.11
  -1  -1  13    0.16    0.26
   1   1 -13   -0.03    0.09
  -1   1  13    0.50    0.32
  -1   1  13   -0.05    0.22
   0  -1  13    3.12    0.51
   0  -1 -13    3.39    0.36
   0  -1  13    2.43    0.53
   0   1  13    2.86    0.60
   0   1 -13    3.25    0.35
  -1  -1 -13    1.46    0.24
   1  -1  13    1.58    0.46
  -1   1 -13    1.67    0.24
   1   1  13    1.07    0.42
   2  -1  13    0.14    0.28
  -2  -1 -13    0.10    0.11
  -2   1 -13   -0.03    0.09
   2   1  13    0.00    0.26
  -3  -1 -13    6.60    0.52
   3  -1  13    6.17    0.81
   3   1  13    6.78    0.85
  -3   1 -13    6.33    0.52
   4  -1  13    1.16    0.42
   4   1  13    0.61    0.33
   5   1  13   19.23    1.48
   6  -2 -13    0.22    0.17
  -6  -2  13   -0.15    0.45
  -6   2  13    0.36    0.48
   6   2 -13    0.41    0.20
   5  -2 -13    1.81    0.31
  -5  -2  13    1.89    0.68
  -5   2  13    0.57    0.50
   5   2 -13    1.63    0.30
   4  -2 -13    3.39    0.40
  -4  -2  13    3.15    0.77
  -4   2  13    3.57    0.77
   4   2 -13    2.84    0.38
  -3  -2  13    0.17    0.33
   3  -2 -13    0.19    0.14
  -3   2  13   -0.25    0.27
   3   2 -13    0.09    0.12
  -2  -2  13    0.87    0.41
   2  -2 -13    0.79    0.20
  -2   2  13    1.67    0.46
  -2   2  13    0.22    0.31
   2   2 -13    0.56    0.17
  -1  -2  13   -0.31    0.18
   1  -2 -13    0.00    0.10
  -1   2  13    0.34    0.32
   1   2 -13    0.02    0.10
   0  -2 -13    0.74    0.19
   0  -2  13    0.72    0.31
   0   2  13    0.88    0.39
   0   2 -13    1.05    0.20
  -1  -2 -13    0.01    0.11
   1  -2  13   -0.03    0.27
   1   2  13    0.12    0.29
  -1   2 -13   -0.04    0.09
  -2  -2 -13    1.39    0.24
   2  -2  13    1.99    0.51
  -2   2 -13    1.28    0.23
   2   2  13    1.36    0.43
   3  -2  13   -0.39    0.24
   3   2  13   -0.30    0.22
   4  -2  13    0.29    0.33
   4   2  13    0.17    0.32
   5   2  13    1.17    0.42
   6  -3 -13    0.10    0.16
  -6   3  13    0.05    0.42
   6   3 -13    0.05    0.15
  -5  -3  13    0.20    0.45
   5  -3 -13    0.14    0.14
   5   3 -13    0.28    0.18
  -5   3  13    0.48    0.49
  -4  -3  13   -0.09    0.34
   4  -3 -13   -0.02    0.11
  -4   3  13    0.05    0.41
   4   3 -13   -0.12    0.10
  -3  -3  13    0.43    0.37
   3  -3 -13    0.33    0.16
   3   3 -13    0.27    0.15
  -3   3  13   -0.35    0.27
  -3   3  13    0.03    0.32
  -2  -3  13    0.18    0.29
   2  -3 -13    0.21    0.15
   2   3 -13    0.44    0.16
  -2   3  13    0.49    0.34
  -1  -3  13    0.87    0.36
   1  -3 -13    1.03    0.22
   1   3 -13    0.78    0.19
  -1   3  13    0.84    0.40
   0  -3  13   14.93    1.14
   0  -3 -13   13.07    0.90
   0   3 -13   13.28    0.88
   0   3  13   12.10    1.29
  -1  -3 -13    2.08    0.30
   1  -3  13    2.23    0.51
   1   3  13    2.63    0.57
  -1   3 -13    2.69    0.32
   2  -3  13    3.78    0.66
  -2  -3 -13    4.51    0.46
  -2   3 -13    5.13    0.42
   2   3  13    5.00    0.75
   3  -3  13    1.65    0.45
   3   3  13    1.01    0.38
   4   3  13    1.12    0.39
   5   3  13    1.31    0.44
   6  -4 -13    3.93    0.46
  -6   4  13    2.27    0.76
   5  -4 -13    8.49    0.67
  -5  -4  13    8.03    1.25
  -5   4  13    7.56    1.15
   5   4 -13    7.82    0.66
  -5   4  13    6.83    0.97
   4  -4 -13    0.01    0.13
  -4  -4  13    0.40    0.42
   4   4 -13    0.19    0.16
  -4   4  13    0.10    0.31
  -4   4  13    0.31    0.40
  -3  -4  13    1.01    0.45
   3  -4 -13    0.57    0.20
  -3   4  13    0.36    0.37
   3   4 -13    0.38    0.17
   2  -4 -13    0.06    0.13
  -2  -4  13   -0.03    0.23
  -2   4  13   -0.13    0.33
   2   4 -13    0.03    0.11
   1  -4 -13    0.01    0.12
  -1  -4  13   -0.09    0.20
   1   4 -13   -0.06    0.08
  -1   4  13   -0.08    0.26
   0  -4 -13    1.49    0.26
   0  -4  13    1.11    0.35
   0   4 -13    1.66    0.25
   0   4  13    1.45    0.48
   1  -4  13    0.01    0.28
  -1  -4 -13    0.42    0.16
  -1   4 -13    0.34    0.14
   1   4  13    0.17    0.29
   2  -4  13    0.27    0.35
  -2   4 -13    0.89    0.20
   2   4  13    0.85    0.37
   3   4  13    0.38    0.32
   4   4  13   -0.10    0.28
   5  -5 -13    0.09    0.15
  -5  -5  13    1.01    0.55
   5   5 -13    0.29    0.19
  -4  -5  13   -0.25    0.30
   4  -5 -13    0.64    0.20
   4   5 -13    0.70    0.21
  -4   5  13    0.18    0.37
   3  -5 -13    9.77    0.73
  -3  -5  13    8.46    1.12
   3   5 -13    9.01    0.71
  -3   5  13    8.94    1.10
  -2  -5  13    2.80    0.60
   2  -5 -13    3.53    0.41
   2   5 -13    2.79    0.37
  -2   5  13    2.54    0.59
   1  -5 -13    4.69    0.50
  -1  -5  13    3.83    0.65
  -1   5  13    5.06    0.78
   1   5 -13    5.36    0.51
   0  -5 -13    0.09    0.13
   0   5  13    0.15    0.32
   0   5 -13    0.14    0.12
   1  -5  13   -0.23    0.24
   1   5  13   -0.17    0.27
  -1   5 -13   -0.02    0.11
   2  -5  13    1.47    0.46
   2   5  13    2.92    0.58
   3   5  13   -0.05    0.26
   4   5  13    0.29    0.35
   5  -6 -13    2.17    0.34
   4  -6 -13    0.31    0.18
  -4  -6  13   -0.06    0.37
  -4   6  13   -0.07    0.37
   4   6 -13    0.27    0.17
  -3  -6  13   -0.28    0.27
   3  -6 -13    0.13    0.15
   3   6 -13    0.04    0.13
  -3   6  13    0.47    0.37
   2  -6 -13    4.23    0.48
  -2  -6  13    3.51    0.67
   2   6 -13    3.74    0.43
  -2   6  13    4.32    0.74
  -1  -6  13    0.05    0.24
   1  -6 -13    0.57    0.20
   1   6 -13    0.40    0.16
  -1   6  13    0.39    0.38
   0   6  13    0.29    0.33
   0   6 -13    1.28    0.25
   1   6  13    0.41    0.34
  -1   6 -13    0.63    0.18
   2   6  13    6.90    0.92
   3   6  13    5.62    0.81
   4  -7 -13    3.28    0.44
  -3  -7  13    1.21    0.47
   3   7 -13    1.75    0.31
  -3   7  13    1.40    0.49
  -2  -7  13   -0.12    0.25
  -2   7  13    0.34    0.34
   2   7 -13    0.33    0.17
  -1  -7  13    0.32    0.31
  -1   7  13    0.47    0.36
   1   7 -13    0.31    0.17
   0   7 -13   -0.03    0.12
   0   7  13   -0.34    0.25
   1   7  13   -0.19    0.26
   2   7  13   -0.43    0.27
  -2  -8  13    0.76    0.46
   2   8 -13    0.82    0.23
  -2   8  13    1.17    0.45
  -1   8  13    0.33    0.34
   1   8 -13   -0.02    0.13
   0   8  13    0.02    0.29
   0   8 -13    0.42    0.18
   1   8  13    1.06    0.42
  -5   0  14   -0.31    0.37
   5   0 -14   -0.02    0.13
   4   0 -14    0.30    0.17
  -4   0  14    0.19    0.44
   3   0 -14    0.06    0.12
  -3   0  14    0.57    0.39
   2   0 -14    1.57    0.27
  -2   0  14    2.16    0.55
  -1   0  14    0.37    0.33
   1   0 -14    0.14    0.12
  -1   0  14    0.02    0.28
   0   0 -14    3.90    0.41
   0   0  14    2.67    0.60
   1   0  14   -0.22    0.26
  -1   0 -14   -0.02    0.10
   2   0  14    1.09    0.44
  -2   0 -14    0.64    0.19
   3   0  14    0.11    0.31
  -3   0 -14   -0.24    0.10
   4   0  14    1.94    0.48
  -5  -1  14    0.97    0.56
   5  -1 -14    0.25    0.18
   5   1 -14    1.09    0.28
  -5   1  14    0.66    0.53
  -4  -1  14   11.17    1.42
   4  -1 -14   11.17    0.84
   4   1 -14   11.35    0.84
  -4   1  14   12.60    1.45
   3  -1 -14    3.66    0.43
  -3  -1  14    2.72    0.71
  -3   1  14    4.04    0.78
   3   1 -14    4.69    0.47
   2  -1 -14    0.12    0.13
  -2  -1  14    0.14    0.31
  -2   1  14    0.10    0.31
   2   1 -14    0.31    0.15
  -2   1  14    0.26    0.33
   1  -1 -14    1.97    0.29
  -1  -1  14    0.90    0.36
   1   1 -14    1.30    0.24
  -1   1  14    1.05    0.42
   0  -1  14    0.76    0.38
   0  -1  14    0.24    0.26
   0  -1 -14    0.33    0.15
   0   1 -14    0.46    0.16
   0   1  14   -0.04    0.30
   1  -1  14    0.19    0.34
  -1  -1 -14    0.69    0.18
  -1   1 -14    0.31    0.15
   1   1  14    0.76    0.40
   2  -1  14    4.52    0.73
  -2  -1 -14    4.20    0.44
   2   1  14    3.83    0.70
  -2   1 -14    4.99    0.46
   3  -1  14    2.11    0.51
  -3  -1 -14    1.20    0.24
   3   1  14    0.50    0.36
   4  -1  14    0.04    0.31
   4   1  14   -0.02    0.29
   5  -2 -14    0.10    0.15
  -5  -2  14   -0.26    0.45
   5   2 -14   -0.17    0.13
  -5   2  14    0.34    0.44
  -4  -2  14   -0.39    0.32
   4  -2 -14    0.07    0.14
  -4   2  14    0.34    0.45
   4   2 -14   -0.16    0.10
  -3  -2  14    0.27    0.38
   3  -2 -14    0.28    0.17
   3   2 -14   -0.04    0.12
  -3   2  14   -0.24    0.33
  -3   2  14    0.28    0.34
   2  -2 -14   -0.01    0.12
  -2  -2  14   -0.39    0.26
   2   2 -14   -0.01    0.11
  -2   2  14    0.21    0.31
  -1  -2  14    2.52    0.54
   1  -2 -14    2.77    0.36
  -1   2  14    2.62    0.58
   1   2 -14    2.62    0.34
   0  -2  14    2.93    0.53
   0  -2 -14    3.63    0.41
   0  -2  14    2.94    0.62
   0   2  14    3.33    0.66
   0   2 -14    3.67    0.39
  -1  -2 -14    5.30    0.51
   1  -2  14    5.35    0.81
   1   2  14    4.23    0.74
  -1   2 -14    5.70    0.47
   2  -2  14    2.81    0.60
  -2  -2 -14    2.86    0.37
  -2   2 -14    3.97    0.40
   2   2  14    2.89    0.62
   3  -2  14    1.59    0.48
   3   2  14    1.13    0.43
   4  -2  14    0.37    0.42
   4   2  14    0.43    0.33
   5  -3 -14    0.14    0.17
  -5   3  14    0.42    0.48
   4  -3 -14    0.05    0.14
  -4  -3  14   -0.16    0.37
   4   3 -14    0.01    0.12
  -4   3  14   -0.30    0.33
  -4   3  14   -0.20    0.32
  -3  -3  14    0.23    0.36
   3  -3 -14    0.11    0.14
  -3   3  14   -0.62    0.19
   3   3 -14   -0.08    0.10
   2  -3 -14    0.31    0.16
  -2  -3  14    0.21    0.32
  -2   3  14    0.18    0.35
   2   3 -14    0.09    0.13
   1  -3 -14    7.38    0.62
  -1  -3  14    8.18    0.96
   1   3 -14    8.26    0.62
  -1   3  14    6.99    0.95
   0  -3  14    5.14    0.78
   0  -3  14    4.02    0.65
   0  -3 -14    5.36    0.53
   0   3  14    6.68    0.89
   0   3 -14    6.50    0.50
  -1  -3 -14    1.64    0.28
   1  -3  14    2.35    0.55
  -1   3 -14    1.82    0.28
   1   3  14    1.98    0.52
  -2  -3 -14    1.16    0.25
   2  -3  14    1.24    0.47
   2   3  14    0.47    0.34
  -2   3 -14    0.65    0.18
   3  -3  14    3.07    0.62
   3   3  14    3.56    0.65
   5  -4 -14    1.34    0.32
  -5   4  14    1.58    0.53
   4  -4 -14    1.29    0.28
  -4  -4  14    1.18    0.54
  -4   4  14    1.46    0.52
   4   4 -14    0.90    0.25
   3  -4 -14   -0.05    0.13
  -3  -4  14   -0.12    0.31
  -3   4  14   -0.11    0.33
   3   4 -14   -0.07    0.12
   2  -4 -14    5.57    0.57
  -2  -4  14    5.94    0.88
  -2   4  14    6.04    0.89
   2   4 -14    5.18    0.53
   1  -4 -14    0.97    0.23
  -1  -4  14    0.87    0.36
  -1   4  14    0.19    0.33
   1   4 -14    0.58    0.18
   0  -4 -14    2.09    0.31
   0  -4  14    1.99    0.46
   0   4  14    2.76    0.61
   0   4 -14    2.07    0.30
   1  -4  14    2.31    0.54
  -1  -4 -14    2.43    0.35
   1   4  14    3.20    0.64
  -1   4 -14    2.74    0.34
   2  -4  14    1.73    0.51
   2   4  14    2.71    0.59
   3   4  14    0.06    0.32
   4  -5 -14    0.05    0.15
  -4   5  14   -0.17    0.37
  -3  -5  14    3.58    0.78
   3  -5 -14    2.97    0.41
  -3   5  14    1.40    0.51
   3   5 -14    3.79    0.44
   2  -5 -14    0.09    0.15
  -2  -5  14    0.01    0.27
  -2   5  14   -0.14    0.30
   2   5 -14    0.23    0.16
  -1  -5  14    0.50    0.32
   1  -5 -14    0.99    0.24
   1   5 -14    0.63    0.19
  -1   5  14    0.36    0.37
   0  -5 -14    0.02    0.12
   0   5  14    0.33    0.31
   0   5 -14    0.35    0.16
   1  -5  14    2.87    0.58
  -1   5 -14    2.38    0.33
   1   5  14    2.54    0.60
   2   5  14    0.32    0.33
   3  -6 -14   -0.01    0.14
  -3   6  14   -0.30    0.28
   3   6 -14    0.00    0.19
   2  -6 -14    5.05    0.56
  -2  -6  14    3.54    0.70
   2   6 -14    5.19    0.54
  -2   6  14    5.13    0.82
   1  -6 -14    0.13    0.15
  -1  -6  14   -0.16    0.26
  -1   6  14    0.12    0.35
   1   6 -14    0.04    0.13
   0   6  14    0.36    0.36
   0   6 -14    0.21    0.16
   1  -6  14    7.17    0.95
   1   6  14    9.25    1.07
  -2   7  14    1.64    0.52
   1   7 -14    0.32    0.17
  -1   7  14    0.41    0.40
   0   7  14    0.32    0.40
   0   7 -14   -0.08    0.12
   4   0 -15   -0.12    0.15
  -4   0  15   -0.26    0.37
   3   0 -15    0.85    0.23
  -3   0  15    0.65    0.45
   2   0 -15    0.16    0.14
  -2   0  15    0.19    0.34
  -2   0  15    0.02    0.30
  -1   0  15    7.18    1.02
   1   0 -15   11.49    0.77
   0   0  15   -0.29    0.29
   0   0 -15    0.08    0.12
  -1   0 -15    1.97    0.30
   1   0  15    2.55    0.60
  -2   0 -15    0.05    0.13
   2   0  15   -0.56    0.26
   3   0  15    4.30    0.74
  -4  -1  15    0.26    0.45
   4  -1 -15    0.67    0.29
  -4   1  15   -0.12    0.41
   3  -1 -15    3.12    0.40
  -3  -1  15    1.21    0.51
   3   1 -15    1.76    0.33
  -3   1  15    2.50    0.67
  -3   1  15    1.55    0.53
  -2  -1  15    0.33    0.36
   2  -1 -15    0.28    0.17
   2   1 -15    0.44    0.17
  -2   1  15    0.27    0.34
  -1  -1  15   -0.15    0.32
  -1  -1  15   -0.11    0.25
   1  -1 -15    0.02    0.13
   1   1 -15   -0.06    0.11
  -1   1  15    0.22    0.33
   0  -1 -15    0.57    0.18
   0  -1  15    0.93    0.42
   0   1  15    0.77    0.42
   0   1 -15    0.85    0.20
   1  -1  15    1.04    0.46
  -1  -1 -15    0.57    0.19
  -1   1 -15    0.71    0.20
   1   1  15    0.41    0.39
  -2  -1 -15    0.16    0.14
   2  -1  15    0.32    0.34
   2   1  15   -0.15    0.30
  -2   1 -15    0.10    0.14
   3  -1  15    0.11    0.35
   3   1  15    0.63    0.47
  -4  -2  15   -0.09    0.43
  -4   2  15    0.46    0.46
  -4   2  15    0.03    0.36
   3  -2 -15    0.80    0.24
  -3  -2  15    0.58    0.45
  -3   2  15    1.05    0.45
   3   2 -15    0.81    0.22
  -2  -2  15    0.65    0.42
   2  -2 -15    0.54    0.19
   2   2 -15    0.66    0.20
  -2   2  15    0.44    0.38
   1  -2 -15    3.21    0.41
  -1  -2  15    3.77    0.64
   1   2 -15    3.26    0.41
  -1   2  15    3.75    0.72
   0  -2  15    2.93    0.56
   0  -2  15    1.76    0.55
   0  -2 -15    2.96    0.37
   0   2 -15    3.74    0.40
   0   2  15    1.90    0.56
  -1  -2 -15    0.67    0.19
   1  -2  15    1.05    0.47
   1   2  15    0.47    0.39
  -1   2 -15    0.76    0.20
   2  -2  15    0.68    0.42
  -2  -2 -15    0.07    0.13
  -2   2 -15    0.13    0.15
   2   2  15    0.37    0.40
   3  -2  15    0.42    0.37
  -4   3  15   -0.08    0.44
   3  -3 -15    4.72    0.54
  -3  -3  15    4.15    0.82
  -3   3  15    4.34    0.81
   3   3 -15    4.26    0.51
  -2  -3  15    0.12    0.29
   2  -3 -15   -0.06    0.13
  -2   3  15   -0.05    0.35
   2   3 -15    0.26    0.16
  -1  -3  15    3.37    0.66
   1  -3 -15    4.49    0.48
   1   3 -15    3.96    0.45
  -1   3  15    4.54    0.81
   0  -3  15    0.31    0.34
   0  -3 -15    0.64    0.20
   0   3  15    0.55    0.39
   0   3 -15    0.67    0.19
   1  -3  15    0.27    0.37
  -1  -3 -15    0.72    0.22
  -1   3 -15    1.15    0.23
   1   3  15    1.20    0.47
   2  -3  15    2.48    0.59
   2   3  15    2.81    0.73
  -3  -4  15    4.18    1.08
  -3   4  15    4.06    0.77
  -2  -4  15    2.77    0.64
   2  -4 -15    2.65    0.39
  -2   4  15    2.61    0.64
   2   4 -15    2.16    0.35
   1  -4 -15    0.19    0.15
  -1  -4  15    0.30    0.30
   1   4 -15    0.15    0.15
  -1   4  15    0.18    0.33
   0  -4  15    1.31    0.49
   0  -4 -15    1.51    0.30
   0   4  15    2.82    0.64
   0   4 -15    2.11    0.31
  -1  -4 -15    0.01    0.13
   1  -4  15    0.06    0.33
  -1   4 -15   -0.06    0.12
   1   4  15   -0.25    0.29
   2  -4  15    0.54    0.42
  -2   5  15    0.69    0.48
  -1  -5  15    3.67    0.69
  -1   5  15    4.06    0.76
   1   5 -15    3.59    0.44
   0   5 -15    2.07    0.32
   0   5  15    0.76    0.70
   1  -5  15    0.45    0.38
   1   0 -16    0.07    0.20
   0   0 -16    4.52    0.51
  -1   0 -16   -0.06    0.12
  -2  -1  16    1.94    0.55
   0  -1 -16    1.89    0.42
   0   1 -16    1.89    0.31
  -1  -1 -16    1.05    0.37
  -1   1 -16    0.83    0.24
  -2  -2  16    0.94    0.45
  -1  -2  16    0.94    0.40
   0   2 -16    1.80    0.32
   0   0   0    0.00    0.00
;
_shelx_hkl_checksum              17473
loop_
_space_group_symop_operation_xyz
'x, y, z'
'-x+1/2, y+1/2, -z+1/2'
'-x, -y, -z'
'x-1/2, -y-1/2, z-1/2'
loop_
_atom_site_label
_atom_site_type_symbol
_atom_site_fract_x
_atom_site_fract_y
_atom_site_fract_z
_atom_site_U_iso_or_equiv
_atom_site_adp_type
_atom_site_occupancy
_atom_site_site_symmetry_order
_atom_site_calc_flag
_atom_site_refinement_flags_posn
_atom_site_refinement_flags_adp
_atom_site_refinement_flags_occupancy
_atom_site_disorder_assembly
_atom_site_disorder_group
O1 O 0.63797(12) 0.59155(8) 0.38915(7) 0.0259(2) Uani 1 1 d . . . . .
C1 C 0.64356(15) 0.73157(11) 0.38357(9) 0.0209(2) Uani 1 1 d . . . . .
O2 O 0.33610(12) 0.84080(8) 0.36251(7) 0.02478(19) Uani 1 1 d . . . . .
C2 C 0.44443(17) 0.54854(11) 0.34435(10) 0.0247(2) Uani 1 1 d . . . . .
H2A H 0.349853 0.557305 0.408742 0.030 Uiso 1 1 calc R U . . .
H2AB H 0.445773 0.453751 0.315936 0.030 Uiso 1 1 calc R U . . .
C3 C 0.39339(17) 0.64354(11) 0.23878(10) 0.0233(2) Uani 1 1 d . . . . .
H3A H 0.249468 0.649894 0.221014 0.028 Uiso 1 1 calc R U . . .
H3AB H 0.455194 0.614712 0.163620 0.028 Uiso 1 1 calc R U . . .
O3 O 0.57960(12) 0.78597(9) 0.49805(7) 0.0272(2) Uani 1 1 d . . . . .
O4 O 0.31668(15) 0.89337(10) 0.56109(9) 0.0381(3) Uani 1 1 d . . . . .
C4 C 0.47885(15) 0.77702(10) 0.28719(9) 0.0197(2) Uani 1 1 d . . . . .
C5 C 0.40358(17) 0.84469(11) 0.48057(11) 0.0255(2) Uani 1 1 d . . . . .
C7 C 0.53417(18) 0.87709(11) 0.19199(10) 0.0255(2) Uani 1 1 d . . . . .
H7A H 0.638173 0.839009 0.144889 0.038 Uiso 1 1 calc R U . . .
H7B H 0.581450 0.960240 0.232541 0.038 Uiso 1 1 calc R U . . .
H7C H 0.418933 0.897244 0.136505 0.038 Uiso 1 1 calc R U . . .
C6 C 0.85105(16) 0.77729(13) 0.36969(11) 0.0290(3) Uani 1 1 d . . . . .
H6A H 0.857005 0.875962 0.373439 0.043 Uiso 1 1 calc R U . . .
H6B H 0.893688 0.746564 0.290435 0.043 Uiso 1 1 calc R U . . .
H6C H 0.937659 0.739127 0.436134 0.043 Uiso 1 1 calc R U . . .
loop_
_atom_site_aniso_label
_atom_site_aniso_U_11
_atom_site_aniso_U_22
_atom_site_aniso_U_33
_atom_site_aniso_U_23
_atom_site_aniso_U_13
_atom_site_aniso_U_12
O1 0.0224(4) 0.0246(4) 0.0302(4) 0.0057(3) -0.0019(3) 0.0016(3)
C1 0.0192(5) 0.0246(5) 0.0188(5) 0.0010(4) 0.0003(4) -0.0016(3)
O2 0.0212(4) 0.0272(4) 0.0263(4) -0.0023(3) 0.0042(3) 0.0026(3)
C2 0.0254(5) 0.0221(5) 0.0265(5) 0.0007(4) 0.0008(4) -0.0026(4)
C3 0.0260(5) 0.0223(5) 0.0210(5) -0.0016(4) -0.0029(4) -0.0017(4)
O3 0.0266(4) 0.0361(4) 0.0186(4) -0.0027(3) 0.0004(3) -0.0043(3)
O4 0.0444(6) 0.0365(5) 0.0355(5) -0.0129(4) 0.0190(4) -0.0083(4)
C4 0.0174(4) 0.0216(4) 0.0200(4) -0.0005(3) 0.0015(3) 0.0013(3)
C5 0.0269(5) 0.0247(5) 0.0256(5) -0.0044(4) 0.0065(4) -0.0075(4)
C7 0.0278(5) 0.0244(5) 0.0244(5) 0.0051(4) 0.0030(4) 0.0020(4)
C6 0.0182(5) 0.0377(6) 0.0306(6) 0.0039(5) -0.0013(4) -0.0030(4)
loop_
_atom_type_symbol
_atom_type_description
_atom_type_scat_dispersion_real
_atom_type_scat_dispersion_imag
_atom_type_scat_source
C C 0.0033 0.0016 'International Tables Vol C Tables 4.2.6.8 and 6.1.1.4'
H H 0.0000 0.0000 'International Tables Vol C Tables 4.2.6.8 and 6.1.1.4'
O O 0.0106 0.0060 'International Tables Vol C Tables 4.2.6.8 and 6.1.1.4'
loop_
_geom_angle_atom_site_label_1
_geom_angle_atom_site_label_2
_geom_angle_atom_site_label_3
_geom_angle
_geom_angle_site_symmetry_1
_geom_angle_site_symmetry_3
_geom_angle_publ_flag
C1 O1 C2 107.93(8) . . ?
O1 C1 O3 108.77(8) . . ?
O1 C1 C6 109.53(9) . . ?
O3 C1 C6 108.31(9) . . ?
O1 C1 C4 107.38(8) . . ?
O3 C1 C4 103.23(8) . . ?
C6 C1 C4 119.14(9) . . ?
C5 O2 C4 110.82(9) . . ?
O1 C2 C3 103.46(9) . . ?
O1 C2 H2A 111.1 . . ?
C3 C2 H2A 111.1 . . ?
O1 C2 H2AB 111.1 . . ?
C3 C2 H2AB 111.1 . . ?
H2A C2 H2AB 109.0 . . ?
C2 C3 C4 102.34(9) . . ?
C2 C3 H3A 111.3 . . ?
C4 C3 H3A 111.3 . . ?
C2 C3 H3AB 111.3 . . ?
C4 C3 H3AB 111.3 . . ?
H3A C3 H3AB 109.2 . . ?
C5 O3 C1 110.97(8) . . ?
O2 C4 C7 108.17(8) . . ?
O2 C4 C3 108.46(8) . . ?
C7 C4 C3 116.16(9) . . ?
O2 C4 C1 102.93(8) . . ?
C7 C4 C1 117.11(9) . . ?
C3 C4 C1 102.99(8) . . ?
O4 C5 O3 123.84(11) . . ?
O4 C5 O2 124.34(12) . . ?
O3 C5 O2 111.81(9) . . ?
C4 C7 H7A 109.5 . . ?
C4 C7 H7B 109.5 . . ?
H7A C7 H7B 109.5 . . ?
C4 C7 H7C 109.5 . . ?
H7A C7 H7C 109.5 . . ?
H7B C7 H7C 109.5 . . ?
C1 C6 H6A 109.5 . . ?
C1 C6 H6B 109.5 . . ?
H6A C6 H6B 109.5 . . ?
C1 C6 H6C 109.5 . . ?
H6A C6 H6C 109.5 . . ?
H6B C6 H6C 109.5 . . ?
loop_
_geom_bond_atom_site_label_1
_geom_bond_atom_site_label_2
_geom_bond_distance
_geom_bond_site_symmetry_2
_geom_bond_publ_flag
O1 C1 1.3903(13) . ?
O1 C2 1.4412(14) . ?
C1 O3 1.4553(13) . ?
C1 C6 1.5041(16) . ?
C1 C4 1.5532(15) . ?
O2 C5 1.3395(15) . ?
O2 C4 1.4608(13) . ?
C2 C3 1.5108(15) . ?
C2 H2A 0.9900 . ?
C2 H2AB 0.9900 . ?
C3 C4 1.5262(15) . ?
C3 H3A 0.9900 . ?
C3 H3AB 0.9900 . ?
O3 C5 1.3367(15) . ?
O4 C5 1.1952(14) . ?
C4 C7 1.5036(15) . ?
C7 H7A 0.9800 . ?
C7 H7B 0.9800 . ?
C7 H7C 0.9800 . ?
C6 H6A 0.9800 . ?
C6 H6B 0.9800 . ?
C6 H6C 0.9800 . ?
loop_
_geom_torsion_atom_site_label_1
_geom_torsion_atom_site_label_2
_geom_torsion_atom_site_label_3
_geom_torsion_atom_site_label_4
_geom_torsion
_geom_torsion_site_symmetry_1
_geom_torsion_site_symmetry_2
_geom_torsion_site_symmetry_3
_geom_torsion_site_symmetry_4
_geom_torsion_publ_flag
C2 O1 C1 O3 88.77(9) . . . . ?
C2 O1 C1 C6 -153.02(9) . . . . ?
C2 O1 C1 C4 -22.30(11) . . . . ?
C1 O1 C2 C3 38.70(10) . . . . ?
O1 C2 C3 C4 -38.49(10) . . . . ?
O1 C1 O3 C5 -109.76(10) . . . . ?
C6 C1 O3 C5 131.27(10) . . . . ?
C4 C1 O3 C5 4.06(11) . . . . ?
C5 O2 C4 C7 -120.39(10) . . . . ?
C5 O2 C4 C3 112.83(10) . . . . ?
C5 O2 C4 C1 4.18(10) . . . . ?
C2 C3 C4 O2 -83.85(10) . . . . ?
C2 C3 C4 C7 154.13(9) . . . . ?
C2 C3 C4 C1 24.76(10) . . . . ?
O1 C1 C4 O2 110.09(9) . . . . ?
O3 C1 C4 O2 -4.74(10) . . . . ?
C6 C1 C4 O2 -124.78(10) . . . . ?
O1 C1 C4 C7 -131.43(10) . . . . ?
O3 C1 C4 C7 113.74(10) . . . . ?
C6 C1 C4 C7 -6.30(14) . . . . ?
O1 C1 C4 C3 -2.64(11) . . . . ?
O3 C1 C4 C3 -117.47(9) . . . . ?
C6 C1 C4 C3 122.49(11) . . . . ?
C1 O3 C5 O4 177.66(11) . . . . ?
C1 O3 C5 O2 -1.62(12) . . . . ?
C4 O2 C5 O4 178.88(11) . . . . ?
C4 O2 C5 O3 -1.85(12) . . . . ?
