#------------------------------------------------------------------------------
#$Date: 2022-03-03 22:20:49 +0200 (Thu, 03 Mar 2022) $
#$Revision: 273242 $
#$URL: file:///home/coder/svn-repositories/cod/cif/4/51/93/4519332.cif $
#------------------------------------------------------------------------------
#
# This file is available in the Crystallography Open Database (COD),
# http://www.crystallography.net/
#
# All data on this site have been placed in the public domain by the
# contributors.
#
data_4519332
loop_
_publ_author_name
'Li, Xuetong'
'Villar-Yanez, Alba'
'Ngassam Tounzoua, Charlene'
'Benet-Buchholz, Jordi'
'Grignard, Bruno'
'Bo, Carles'
'Detrembleur, Christophe'
'Kleij, Arjan W.'
_publ_section_title
;
 Cascade Transformation of Carbon Dioxide and Alkyne-1,n-diols into
 Densely Substituted Cyclic Carbonates
;
_journal_name_full               'ACS Catalysis'
_journal_page_first              2854
_journal_page_last               2860
_journal_paper_doi               10.1021/acscatal.1c05773
_journal_year                    2022
_chemical_formula_sum            'C11 H10 O4'
_chemical_formula_weight         206.19
_space_group_crystal_system      monoclinic
_space_group_IT_number           14
_space_group_name_Hall           '-P 2ybc'
_space_group_name_H-M_alt        'P 1 21/c 1'
_atom_sites_solution_hydrogens   geom
_audit_creation_method           SHELXL-2018/3
_cell_angle_alpha                90
_cell_angle_beta                 109.335(2)
_cell_angle_gamma                90
_cell_formula_units_Z            4
_cell_length_a                   7.4832(7)
_cell_length_b                   16.3724(16)
_cell_length_c                   8.0317(8)
_cell_measurement_reflns_used    6172
_cell_measurement_temperature    100(2)
_cell_measurement_theta_max      29.89
_cell_measurement_theta_min      2.49
_cell_volume                     928.53(16)
_computing_cell_refinement       'Bruker APEX2 v2014.9-0'
_computing_data_collection       'Bruker APEX2 v2014.9-0'
_computing_data_reduction        'Bruker APEX2 v2014.9-0'
_computing_molecular_graphics
'shelXle (H&#x00FC;bschle, Sheldrick and Dittirch, 2011)'
_computing_publication_material  'SHELXL-2018/3 (Sheldrick, 2018)'
_computing_structure_refinement  'SHELXL-2018/3 (Sheldrick, 2018)'
_computing_structure_solution    'SHELXT (Sheldrick, 2018)'
_diffrn_ambient_temperature      100(2)
_diffrn_detector_area_resol_mean 512
_diffrn_detector_type            '4K CCD area detector APEX II'
_diffrn_measured_fraction_theta_full 1.000
_diffrn_measured_fraction_theta_max 0.935
_diffrn_measurement_device_type  'APEX DUO Kappa 4-axis goniometer'
_diffrn_measurement_method
;
 Fullsphere data collection, phi and omega scans
;
_diffrn_radiation_monochromator  'Quazar MX Multilayer Optics'
_diffrn_radiation_type           MoK\a
_diffrn_radiation_wavelength     0.71073
_diffrn_reflns_av_R_equivalents  0.0236
_diffrn_reflns_av_unetI/netI     0.0185
_diffrn_reflns_Laue_measured_fraction_full 1.000
_diffrn_reflns_Laue_measured_fraction_max 0.935
_diffrn_reflns_limit_h_max       10
_diffrn_reflns_limit_h_min       -10
_diffrn_reflns_limit_k_max       23
_diffrn_reflns_limit_k_min       -22
_diffrn_reflns_limit_l_max       11
_diffrn_reflns_limit_l_min       -11
_diffrn_reflns_number            14506
_diffrn_reflns_point_group_measured_fraction_full 1.000
_diffrn_reflns_point_group_measured_fraction_max 0.935
_diffrn_reflns_theta_full        25.242
_diffrn_reflns_theta_max         30.127
_diffrn_reflns_theta_min         2.488
_diffrn_source                   'Microfocus source E025 IuS'
_diffrn_source_current           0.6
_diffrn_source_power             50
_diffrn_source_size              '0.2 mm x 0.2 mm fine focus'
_diffrn_source_type              'Bruker APEX DUO'
_exptl_absorpt_coefficient_mu    0.113
_exptl_absorpt_correction_T_max  0.7460
_exptl_absorpt_correction_T_min  0.7211
_exptl_absorpt_correction_type   multi-scan
_exptl_absorpt_process_details   SADABS-2016/2
_exptl_crystal_density_diffrn    1.475
_exptl_crystal_description       Plate
_exptl_crystal_F_000             432
_exptl_crystal_size_max          0.400
_exptl_crystal_size_mid          0.200
_exptl_crystal_size_min          0.030
_refine_diff_density_max         0.441
_refine_diff_density_min         -0.204
_refine_diff_density_rms         0.049
_refine_ls_extinction_method     none
_refine_ls_goodness_of_fit_ref   1.137
_refine_ls_hydrogen_treatment    constr
_refine_ls_matrix_type           full
_refine_ls_number_parameters     137
_refine_ls_number_reflns         2573
_refine_ls_number_restraints     0
_refine_ls_restrained_S_all      1.137
_refine_ls_R_factor_all          0.0415
_refine_ls_R_factor_gt           0.0359
_refine_ls_shift/su_max          0.000
_refine_ls_shift/su_mean         0.000
_refine_ls_structure_factor_coef Fsqd
_refine_ls_weighting_details
'w=1/[\s^2^(Fo^2^)+(0.0485P)^2^+0.2846P] where P=(Fo^2^+2Fc^2^)/3'
_refine_ls_weighting_scheme      calc
_refine_ls_wR_factor_gt          0.0964
_refine_ls_wR_factor_ref         0.1004
_reflns_Friedel_coverage         0.000
_reflns_number_gt                2265
_reflns_number_total             2573
_reflns_threshold_expression     'I > 2\s(I)'
_cod_data_source_file            cs1c05773_si_003.cif
_cod_data_source_block           mo_XLI68_0m
_cod_original_sg_symbol_H-M      'P 21/c'
_cod_database_code               4519332
_shelx_shelxl_version_number     2018/3
_shelx_space_group_comment
;
The symmetry employed for this shelxl refinement is uniquely defined
by the following loop, which should always be used as a source of
symmetry information in preference to the above space-group names.
They are only intended as comments.
;
_shelx_estimated_absorpt_t_min   0.956
_shelx_estimated_absorpt_t_max   0.997
_shelx_res_file
;
TITL mo_XLI68_0m
    mo_XLI68_0m.res
    created by SHELXL-2018/3 at 14:09:38 on 28-May-2021
CELL 0.71073   7.48320  16.37240   8.03170  90.0000 109.3352  90.0000
ZERR    4.00   0.00070   0.00160   0.00080   0.0000   0.0023   0.0000
LATT  1
SYMM -X, 1/2+Y, 1/2-Z
SFAC C H O
UNIT 44 40 16
TEMP -173.150
SIZE 0.03 0.20 0.40
L.S. 10
BOND $H
LIST 4
FMAP 2
PLAN 20
acta
conf
WGHT    0.048500    0.284600
FVAR       0.26653
O2    3    0.108831    0.374295    0.593663    11.00000    0.01270    0.01809 =
         0.01026    0.00161    0.00053   -0.00083
O3    3   -0.015128    0.420923    0.316301    11.00000    0.02118    0.03065 =
         0.01164    0.00232    0.00261    0.00677
O4    3    0.285772    0.469293    1.008934    11.00000    0.01634    0.01479 =
         0.01472   -0.00198    0.00294    0.00073
C2    1    0.366824    0.464239    0.684290    11.00000    0.01604    0.01495 =
         0.01435    0.00379    0.00486   -0.00034
AFIX  23
H2A   2    0.373619    0.514719    0.753979    11.00000   -1.20000
H2B   2    0.496704    0.447712    0.692416    11.00000   -1.20000
AFIX   0
C1    1    0.265783    0.395287    0.749435    11.00000    0.01083    0.01215 =
         0.01038    0.00048    0.00192   -0.00068
O1    3    0.249706    0.476158    0.502875    11.00000    0.02370    0.01520 =
         0.01254    0.00298    0.00602    0.00062
C3    1    0.104723    0.423484    0.458112    11.00000    0.01705    0.01726 =
         0.01229    0.00096    0.00633    0.00629
C4    1    0.188506    0.424547    0.895457    11.00000    0.01261    0.01049 =
         0.01157    0.00291    0.00296    0.00329
C5    1    0.000881    0.392039    0.892705    11.00000    0.01464    0.01997 =
         0.01663   -0.00060    0.00720   -0.00137
AFIX 137
H5A   2   -0.100688    0.422137    0.805247    11.00000   -1.50000
H5B   2   -0.011621    0.398704    1.009607    11.00000   -1.50000
H5C   2   -0.008054    0.333965    0.861457    11.00000   -1.50000
AFIX   0
C6    1    0.387069    0.320572    0.819947    11.00000    0.01226    0.01147 =
         0.01083    0.00050    0.00500    0.00052
C7    1    0.564458    0.330987    0.947853    11.00000    0.01306    0.01237 =
         0.01453   -0.00009    0.00345   -0.00083
AFIX  43
H7    2    0.608756    0.384324    0.987063    11.00000   -1.20000
AFIX   0
C8    1    0.676574    0.263452    1.018073    11.00000    0.01307    0.01766 =
         0.01628    0.00213    0.00318    0.00203
AFIX  43
H8    2    0.797083    0.270607    1.105777    11.00000   -1.20000
AFIX   0
C9    1    0.612250    0.185308    0.959862    11.00000    0.01972    0.01383 =
         0.01810    0.00312    0.00845    0.00478
AFIX  43
H9    2    0.689650    0.139167    1.006402    11.00000   -1.20000
AFIX   0
C10   1    0.434940    0.174905    0.833779    11.00000    0.02137    0.01119 =
         0.01858   -0.00167    0.00940   -0.00085
AFIX  43
H10   2    0.390943    0.121516    0.794708    11.00000   -1.20000
AFIX   0
C006  1    0.321046    0.242305    0.764141    11.00000    0.01460    0.01387 =
         0.01355   -0.00184    0.00501   -0.00190
AFIX  43
H006  2    0.199001    0.234921    0.679045    11.00000   -1.20000
AFIX   0
HKLF 4




REM  mo_XLI68_0m
REM wR2 = 0.100442, GooF = S = 1.13711, Restrained GooF = 1.13711 for all data
REM R1 = 0.035876 for 2265 Fo > 4sig(Fo) and 0.041512 for all 2573 data
REM 137 parameters refined using 0 restraints

END

WGHT      0.0443      0.4228

REM Highest difference peak  0.441,  deepest hole -0.204,  1-sigma level  0.049
Q1    1   0.3172  0.4284  0.7241  11.00000  0.05    0.44
Q2    1   0.3264  0.3572  0.7848  11.00000  0.05    0.40
Q3    1   0.2279  0.4105  0.8227  11.00000  0.05    0.39
Q4    1   0.3571  0.2837  0.8003  11.00000  0.05    0.36
Q5    1   0.0841  0.4107  0.8807  11.00000  0.05    0.36
Q6    1   0.4800  0.3248  0.8760  11.00000  0.05    0.33
Q7    1   0.3783  0.2090  0.8025  11.00000  0.05    0.33
Q8    1   0.6178  0.2952  0.9792  11.00000  0.05    0.33
Q9    1   0.6460  0.2283  0.9655  11.00000  0.05    0.31
Q10   1   0.5087  0.1820  0.9174  11.00000  0.05    0.31
Q11   1   0.1928  0.3841  0.6761  11.00000  0.05    0.20
Q12   1  -0.0581  0.3528  0.8272  11.00000  0.05    0.18
Q13   1   0.1039  0.4035  0.5315  11.00000  0.05    0.18
Q14   1   0.1639  0.4573  0.4939  11.00000  0.05    0.18
Q15   1  -0.0530  0.3782  0.2986  11.00000  0.05    0.17
Q16   1   0.0175  0.4430  0.4012  11.00000  0.05    0.16
Q17   1   0.2320  0.4392  0.4676  11.00000  0.05    0.15
Q18   1   0.1039  0.3302  0.5678  11.00000  0.05    0.14
Q19   1   0.3060  0.4692  0.5933  11.00000  0.05    0.14
Q20   1   0.4505  0.4282  0.6395  11.00000  0.05    0.14
;
_shelx_res_checksum              51684
_shelx_hkl_file
;
  -1   0   0   15.55    0.38
  -1   0   0   17.12    0.33
  -1   0   0   16.88    0.31
   1   0   0   15.68    0.36
   1   0   0   16.65    0.38
   1   0   0   16.66    0.33
   1   0   0   17.16    0.32
   2   0   0   18.01    0.46
   2   0   0   20.41    0.51
   2   0   0   18.45    0.41
   2   0   0   19.50    0.38
  -2   0   0   19.43    0.37
  -2   0   0   17.79    0.46
  -2   0   0   19.47    0.40
   3   0   0  322.68    5.84
   3   0   0  331.94    6.06
   3   0   0  330.83    5.89
  -3   0   0  315.71    5.82
  -3   0   0  327.67    6.00
  -3   0   0  317.20    5.87
   4   0   0    0.00    0.08
  -4   0   0    0.01    0.06
  -4   0   0    0.08    0.05
   5   0   0    3.18    0.26
  -5   0   0    2.76    0.27
   5   0   0    3.30    0.31
  -5   0   0    2.79    0.15
   6   0   0    4.58    0.35
  -6   0   0    3.97    0.19
   6   0   0    4.20    0.39
   7   0   0   25.52    0.94
   8   0   0   10.15    0.60
   9   0   0    5.91    0.55
   0  -1   0    0.00    0.00
   0  -1   0    0.00    0.00
   0  -1   0   -0.01    0.02
   0  -1   0    0.00    0.00
   0   1   0   -0.02    0.01
   0   1   0    0.00    0.01
   0   1   0    0.00    0.01
  -1  -1   0  172.20    3.10
   1  -1   0  169.44    3.13
  -1  -1   0  166.90    3.13
   1  -1   0  162.57    3.12
   1  -1   0  174.80    3.12
   1   1   0  175.78    3.13
   1   1   0  174.70    3.15
  -1   1   0  169.82    3.07
   1   1   0  166.97    3.08
  -1   1   0  169.58    3.12
   2  -1   0   30.10    0.70
  -2  -1   0   29.85    0.58
   2  -1   0   27.98    0.68
  -2  -1   0   28.48    0.54
   2  -1   0   29.65    0.57
  -2  -1   0   27.73    0.69
   2   1   0   27.97    0.64
  -2   1   0   27.67    0.65
  -2   1   0   28.95    0.59
   2   1   0   28.56    0.68
   2   1   0   29.95    0.68
  -2   1   0   28.75    0.57
   2   1   0   29.17    0.58
  -3  -1   0   -0.05    0.04
  -3  -1   0    0.02    0.02
   3  -1   0    0.06    0.07
   3  -1   0   -0.04    0.02
   3   1   0    0.06    0.08
  -3   1   0    0.00    0.05
   3   1   0   -0.04    0.07
  -3   1   0    0.07    0.04
   3   1   0    0.00    0.04
  -3   1   0   -0.02    0.02
  -4  -1   0    0.96    0.09
   4  -1   0    1.07    0.17
   4  -1   0    0.95    0.08
  -4   1   0    1.08    0.10
  -4   1   0    0.87    0.14
   4   1   0    0.80    0.15
   4   1   0    0.78    0.15
   5  -1   0    0.21    0.11
   5  -1   0    0.11    0.04
  -5  -1   0    0.21    0.06
   5   1   0    0.17    0.10
  -5   1   0    0.22    0.10
   5   1   0    0.20    0.12
  -5   1   0    0.18    0.07
  -6  -1   0    6.68    0.25
   6  -1   0    6.70    0.43
   6  -1   0    6.90    0.40
  -6   1   0    6.50    0.38
  -6   1   0    6.97    0.27
   6   1   0    6.24    0.41
   6   1   0    6.79    0.44
   7  -1   0   10.00    0.56
   7  -1   0   10.16    0.55
   7   1   0   11.07    0.60
   7   1   0   10.97    0.57
   8  -1   0    0.47    0.21
   8   1   0    0.44    0.19
   9  -1   0    0.13    0.17
   9   1   0    0.01    0.15
   0  -2   0   70.66    1.33
   0  -2   0   72.21    1.39
   0  -2   0   72.75    1.33
   0   2   0   72.72    1.30
   0   2   0   71.92    1.33
   0   2   0   72.51    1.38
   0   2   0   72.52    1.39
   1  -2   0  318.20    5.88
  -1  -2   0  321.41    5.84
   1  -2   0  324.37    5.85
  -1  -2   0  316.31    5.94
  -1  -2   0  305.17    5.78
   1  -2   0  319.32    5.83
   1  -2   0  309.40    5.81
  -1  -2   0  321.58    5.85
   1   2   0  314.08    5.84
   1   2   0  325.09    5.87
  -1   2   0  325.64    5.80
  -1   2   0  325.92    5.90
   1   2   0  320.18    5.83
  -1   2   0  314.35    5.80
  -1   2   0  319.25    5.81
   1   2   0  326.78    5.84
   2  -2   0   55.94    1.05
  -2  -2   0   54.63    1.04
   2  -2   0   55.98    1.07
   2  -2   0   52.99    1.15
  -2  -2   0   52.93    1.15
  -2   2   0   54.36    1.07
   2   2   0   55.16    1.04
  -2   2   0   54.18    1.13
  -2   2   0   54.00    1.04
   2   2   0   54.79    1.14
   2   2   0   54.87    1.21
  -3  -2   0    0.25    0.05
   3  -2   0    0.32    0.05
   3  -2   0    0.44    0.11
  -3   2   0    0.31    0.08
   3   2   0    0.13    0.07
  -3   2   0    0.25    0.04
   3   2   0    0.35    0.06
  -3   2   0    0.16    0.05
   3   2   0    0.19    0.10
  -4  -2   0  107.83    2.01
   4  -2   0  104.20    2.25
   4  -2   0  104.84    2.02
   4   2   0  104.88    2.29
  -4   2   0  108.23    2.05
   4   2   0  112.48    2.25
  -4   2   0  102.76    2.19
   5  -2   0    0.59    0.15
   5  -2   0    1.22    0.11
  -5  -2   0    1.24    0.11
  -5   2   0    1.18    0.18
   5   2   0    1.25    0.23
   5   2   0    1.01    0.17
  -5   2   0    1.16    0.12
  -6  -2   0    3.48    0.18
   6  -2   0    3.47    0.36
   6   2   0    3.30    0.34
   6   2   0    3.31    0.37
  -6   2   0    3.36    0.33
  -6   2   0    3.70    0.20
   7  -2   0    0.35    0.16
  -7   2   0    0.60    0.18
   7   2   0    0.54    0.17
   7   2   0    0.83    0.24
  -8  -2   0   18.49    0.70
   8  -2   0   20.12    0.86
   8   2   0   21.51    0.87
  -9  -2   0    3.21    0.34
   9  -2   0    3.31    0.44
   9   2   0    3.56    0.43
   0  -3   0    0.00    0.02
   0  -3   0   -0.02    0.06
   0  -3   0    0.00    0.03
   0  -3   0    0.04    0.03
   0   3   0    0.00    0.03
   0   3   0   -0.04    0.06
   0   3   0   -0.03    0.06
   0   3   0    0.00    0.01
   0   3   0    0.04    0.02
   0   3   0    0.03    0.01
   1  -3   0  518.59    9.55
  -1  -3   0  523.68    9.59
  -1  -3   0  525.73    9.56
   1  -3   0  524.85    9.61
   1  -3   0  514.29    9.58
  -1  -3   0  513.47    9.51
   1  -3   0  512.99    9.54
  -1   3   0  523.03    9.41
  -1   3   0  531.82    9.65
   1   3   0  515.67    9.54
   1   3   0  523.34    9.50
  -1   3   0  539.52    9.69
   1   3   0  541.95    9.62
   1   3   0  508.19    9.52
  -1   3   0  503.46    9.59
   2  -3   0   21.02    0.55
  -2  -3   0   20.46    0.55
   2  -3   0   21.69    0.48
   2  -3   0   20.54    0.47
  -2  -3   0   21.31    0.50
  -2  -3   0   20.96    0.45
   2   3   0   21.87    0.46
   2   3   0   21.07    0.53
   2   3   0   22.21    0.64
  -2   3   0   21.74    0.56
  -2   3   0   21.37    0.47
   3  -3   0   10.27    0.31
   3  -3   0   11.17    0.41
   3  -3   0   11.29    0.30
  -3  -3   0   10.98    0.33
  -3  -3   0   11.33    0.28
   3   3   0   10.86    0.39
  -3   3   0   10.87    0.39
   3   3   0   10.87    0.46
  -3   3   0   11.35    0.32
   4  -3   0    1.47    0.11
  -4  -3   0    1.32    0.10
   4  -3   0    1.38    0.20
  -4   3   0    1.43    0.13
   4   3   0    1.04    0.15
  -4   3   0    1.25    0.17
   4   3   0    1.53    0.23
  -5  -3   0    0.28    0.06
   5  -3   0    0.20    0.12
   5  -3   0    0.31    0.07
   5   3   0    0.15    0.11
  -5   3   0    0.31    0.11
  -5   3   0    0.30    0.09
   5   3   0    0.20    0.14
   6  -3   0   10.98    0.55
   6  -3   0    9.94    0.32
  -6  -3   0   10.55    0.32
   6   3   0   10.08    0.58
  -6   3   0   11.06    0.51
  -6   3   0   10.39    0.36
   6   3   0   10.13    0.51
  -7  -3   0   18.46    0.65
   7  -3   0   19.08    0.79
   7   3   0   18.18    0.86
  -7   3   0   18.64    0.73
   7   3   0   18.48    0.76
  -8  -3   0    2.42    0.28
   8  -3   0    2.36    0.34
  -8   3   0    1.89    0.31
   8   3   0    2.39    0.32
   9  -3   0    0.76    0.25
  -9  -3   0    0.35    0.18
   9   3   0    0.47    0.21
   0  -4   0   22.06    0.58
   0  -4   0   21.49    0.47
   0   4   0   21.64    0.57
   0   4   0   22.13    0.48
   0   4   0   20.54    0.56
   0   4   0   22.27    0.42
   0   4   0   22.14    0.41
   1  -4   0  274.80    5.05
  -1  -4   0  276.67    4.98
  -1  -4   0  278.51    5.00
   1  -4   0  274.57    5.00
  -1  -4   0  270.64    4.97
   1  -4   0  278.17    5.00
   1   4   0  267.22    4.96
  -1   4   0  272.65    5.10
   1   4   0  274.27    5.00
  -1   4   0  272.95    5.04
   1   4   0  280.40    4.96
   1   4   0  268.23    5.17
  -1   4   0  277.82    5.02
   2  -4   0  427.51    7.72
   2  -4   0  412.57    7.70
  -2  -4   0  426.80    7.77
  -2  -4   0  433.73    7.73
  -2  -4   0  419.96    7.82
   2  -4   0  434.78    7.79
   2   4   0  419.37    7.73
  -2   4   0  436.85    7.83
  -2   4   0  425.67    7.70
   2   4   0  414.81    7.94
  -3  -4   0   38.61    0.81
  -3  -4   0   39.79    0.88
   3  -4   0   40.26    0.86
   3  -4   0   40.15    0.85
   3   4   0   40.47    0.93
  -3   4   0   40.52    0.97
   3   4   0   38.56    1.08
   4  -4   0    3.23    0.16
  -4  -4   0    3.20    0.20
   4  -4   0    3.35    0.25
  -4  -4   0    2.84    0.14
   4   4   0    3.09    0.32
  -4   4   0    3.25    0.23
   4   4   0    3.38    0.23
  -4   4   0    3.36    0.19
   5  -4   0   13.78    0.57
  -5  -4   0   13.42    0.37
   5  -4   0   13.30    0.40
  -5  -4   0   12.90    0.46
   5   4   0   13.68    0.65
  -5   4   0   13.91    0.43
   5   4   0   13.36    0.53
  -5   4   0   14.18    0.54
   6  -4   0    8.40    0.48
  -6  -4   0    8.71    0.39
   6  -4   0    8.04    0.30
  -6  -4   0    8.09    0.28
   6   4   0    7.73    0.44
  -6   4   0    7.71    0.32
   6   4   0    7.13    0.53
  -6   4   0    7.98    0.43
   7  -4   0    9.42    0.55
  -7  -4   0    9.25    0.45
  -7   4   0    9.16    0.50
   7   4   0    9.53    0.64
   7   4   0    9.47    0.53
   8  -4   0    8.22    0.56
  -8  -4   0    9.25    0.48
   8   4   0    8.43    0.54
   8   4   0    6.94    0.67
  -8   4   0    7.29    0.51
  -9  -4   0    2.55    0.32
   9  -4   0    2.52    0.39
   9   4   0    2.23    0.36
   0  -5   0    0.06    0.04
   0  -5   0    0.13    0.04
   0   5   0    0.08    0.03
   0   5   0    0.15    0.09
   0   5   0    0.01    0.09
   1  -5   0  173.25    3.03
  -1  -5   0  165.38    3.12
   1  -5   0  169.35    3.21
  -1  -5   0  171.01    3.09
   1  -5   0  166.85    3.10
   1  -5   0  164.16    3.12
  -1  -5   0  172.87    3.09
  -1  -5   0  167.29    3.07
  -1   5   0  165.71    3.24
   1   5   0  165.57    3.31
   1   5   0  169.12    3.05
  -1   5   0  165.07    3.13
  -1   5   0  164.49    3.18
   2  -5   0   31.67    0.76
  -2  -5   0   32.48    0.72
   2  -5   0   33.26    0.71
   2  -5   0   31.76    0.74
  -2  -5   0   31.03    0.75
  -2  -5   0   31.94    0.67
   2   5   0   31.94    0.71
  -2   5   0   32.67    0.72
   2   5   0   32.75    0.92
  -2   5   0   31.50    0.81
  -3  -5   0   58.41    1.12
  -3  -5   0   58.71    1.24
  -3  -5   0   60.31    1.16
   3  -5   0   60.00    1.21
   3   5   0   59.31    1.27
   3   5   0   56.54    1.47
  -3   5   0   57.11    1.34
  -4  -5   0    0.14    0.07
   4  -5   0   -0.06    0.07
   4  -5   0   -0.04    0.04
  -4  -5   0   -0.02    0.02
  -4  -5   0    0.09    0.04
   4   5   0    0.21    0.14
  -4   5   0   -0.06    0.07
   4   5   0   -0.02    0.07
  -4   5   0   -0.03    0.06
  -5  -5   0    1.55    0.18
   5  -5   0    1.25    0.21
  -5  -5   0    1.48    0.11
   5  -5   0    1.31    0.14
  -5   5   0    1.29    0.20
   5   5   0    1.47    0.28
  -5   5   0    1.08    0.14
   5   5   0    1.10    0.18
  -6  -5   0    0.08    0.06
  -6  -5   0    0.06    0.08
   6  -5   0    0.09    0.13
   6  -5   0    0.03    0.07
  -6   5   0    0.00    0.12
   6   5   0    0.13    0.12
  -6   5   0    0.11    0.09
   6   5   0    0.07    0.17
  -7  -5   0    0.15    0.12
   7  -5   0    0.02    0.12
   7   5   0    0.01    0.13
   7   5   0   -0.02    0.20
  -7   5   0   -0.01    0.13
  -8  -5   0   -0.09    0.10
   8  -5   0    0.00    0.16
   8   5   0    0.37    0.26
  -8   5   0    0.19    0.17
   8   5   0    0.19    0.17
  -9  -5   0    0.25    0.16
   9  -5   0    0.26    0.20
  -9   5   0    0.42    0.20
   9   5   0    0.02    0.17
   0  -6   0   28.13    0.62
   0  -6   0   26.78    0.61
   0   6   0   26.62    0.54
   0   6   0   27.52    0.52
   0   6   0   28.22    0.76
   0   6   0   28.02    0.75
  -1  -6   0  490.41    8.67
  -1  -6   0  477.99    8.48
   1  -6   0  476.43    8.70
  -1  -6   0  474.81    8.53
   1  -6   0  470.12    8.50
  -1  -6   0  449.95    8.55
   1  -6   0  471.54    8.69
  -1   6   0  452.44    8.69
  -1   6   0  467.63    8.64
   1   6   0  474.63    8.79
   1   6   0  489.97    8.49
   1   6   0  459.82    8.72
  -1   6   0  473.76    8.56
  -2  -6   0    1.42    0.10
  -2  -6   0    1.38    0.09
   2  -6   0    1.55    0.12
  -2  -6   0    1.45    0.14
   2  -6   0    1.03    0.12
  -2  -6   0    1.47    0.14
  -2   6   0    1.15    0.17
   2   6   0    1.44    0.11
  -2   6   0    1.39    0.13
   2   6   0    1.80    0.25
   3  -6   0   22.81    0.57
  -3  -6   0   20.98    0.58
   3  -6   0   22.27    0.65
  -3  -6   0   22.87    0.49
  -3  -6   0   22.05    0.52
   3   6   0   22.48    0.81
   3   6   0   21.80    0.58
  -3   6   0   22.37    0.68
  -3   6   0   22.49    0.56
  -4  -6   0   14.69    0.48
  -4  -6   0   15.42    0.35
   4  -6   0   15.14    0.45
   4  -6   0   15.12    0.56
  -4  -6   0   16.00    0.41
  -4   6   0   15.48    0.56
   4   6   0   15.09    0.51
  -4   6   0   15.19    0.47
   4   6   0   15.51    0.69
   5  -6   0   10.41    0.49
  -5  -6   0    9.61    0.31
  -5  -6   0    9.72    0.40
   5  -6   0    9.90    0.36
  -5   6   0    9.46    0.46
   5   6   0    9.55    0.58
  -5   6   0    9.82    0.38
   5   6   0    9.13    0.43
   6  -6   0   66.27    1.74
  -6  -6   0   71.02    1.42
   6  -6   0   69.44    1.49
  -6  -6   0   68.45    1.60
  -6   6   0   68.60    1.71
   6   6   0   70.10    1.68
   6   6   0   70.05    1.96
  -6   6   0   69.00    1.52
  -7  -6   0    0.53    0.15
   7  -6   0    0.62    0.19
   7   6   0    0.45    0.18
   7   6   0    0.40    0.27
  -7   6   0    0.72    0.21
   8  -6   0    0.49    0.22
  -8  -6   0    0.47    0.17
   8   6   0    0.77    0.22
   8   6   0    0.28    0.26
  -8   6   0    0.69    0.23
  -9  -6   0    8.29    0.57
  -9   6   0    8.48    0.60
   9   6   0    8.72    0.58
   0  -7   0    0.23    0.06
   0   7   0    0.19    0.10
   0   7   0    0.27    0.11
   1  -7   0   29.71    0.69
  -1  -7   0   29.61    0.68
   1  -7   0   29.22    0.64
   1  -7   0   29.74    0.56
  -1  -7   0   30.78    0.67
   1   7   0   28.22    0.87
  -1   7   0   29.72    0.78
  -1   7   0   30.74    0.83
  -1   7   0   28.06    0.67
   1   7   0   29.40    0.83
   2  -7   0   67.35    1.38
   2  -7   0   67.70    1.40
  -2  -7   0   66.29    1.33
  -2  -7   0   67.44    1.39
  -2  -7   0   67.41    1.32
  -2  -7   0   65.43    1.37
  -2   7   0   65.48    1.40
  -2   7   0   66.48    1.53
   2   7   0   67.58    1.66
   2   7   0   67.65    1.31
   3  -7   0   20.74    0.61
   3  -7   0   20.13    0.55
  -3  -7   0   20.39    0.47
  -3  -7   0   19.95    0.56
  -3  -7   0   20.21    0.49
   3   7   0   20.41    0.54
  -3   7   0   20.19    0.54
   3   7   0   20.72    0.79
  -3   7   0   18.80    0.65
  -4  -7   0    1.80    0.19
   4  -7   0    1.56    0.20
  -4  -7   0    1.95    0.13
  -4  -7   0    1.75    0.10
   4  -7   0    2.00    0.16
   4   7   0    1.76    0.29
   4   7   0    1.56    0.18
  -4   7   0    1.91    0.24
  -5  -7   0    1.44    0.13
   5  -7   0    1.27    0.16
   5  -7   0    1.40    0.22
  -5  -7   0    1.40    0.19
   5   7   0    1.44    0.31
  -5   7   0    1.17    0.17
  -5   7   0    1.09    0.20
   5   7   0    1.07    0.17
  -6  -7   0    5.75    0.33
  -6  -7   0    5.18    0.23
   6  -7   0    5.71    0.40
   6  -7   0    5.54    0.28
  -6   7   0    4.80    0.29
  -6   7   0    5.31    0.38
   6   7   0    4.44    0.51
   6   7   0    4.39    0.33
   7  -7   0    0.61    0.21
  -7  -7   0    0.54    0.15
   7   7   0    0.34    0.23
  -7   7   0    0.51    0.19
  -7   7   0    0.59    0.22
   7   7   0    0.26    0.14
   8  -7   0    1.69    0.32
  -8  -7   0    1.01    0.22
  -8   7   0    1.60    0.30
   8   7   0    1.84    0.43
   8   7   0    1.42    0.27
  -9   7   0    2.49    0.41
   9   7   0    2.28    0.35
   0  -8   0    5.04    0.22
   0  -8   0    4.90    0.21
   0   8   0    4.79    0.32
   0   8   0    4.78    0.12
   0   8   0    4.78    0.31
   1  -8   0   33.03    0.77
  -1  -8   0   33.20    0.74
  -1  -8   0   31.60    0.75
   1  -8   0   32.20    0.61
   1  -8   0   33.12    0.70
  -1   8   0   32.39    0.87
   1   8   0   32.51    0.66
   1   8   0   32.75    0.98
  -1   8   0   31.77    0.74
  -1   8   0   33.62    0.92
   1   8   0   34.13    0.94
   2  -8   0   82.67    1.67
  -2  -8   0   82.08    1.61
   2  -8   0   81.78    1.54
  -2  -8   0   79.89    1.61
  -2  -8   0   83.20    1.61
   2  -8   0   80.83    1.66
  -2  -8   0   82.56    1.67
  -2   8   0   78.91    1.83
   2   8   0   82.98    1.56
  -2   8   0   81.86    1.71
   2   8   0   79.75    1.96
  -3  -8   0   10.14    0.30
  -3  -8   0   10.15    0.32
   3  -8   0    9.76    0.39
  -3  -8   0   10.32    0.37
   3  -8   0   10.29    0.36
   3   8   0   10.41    0.57
  -3   8   0   10.28    0.36
   3   8   0   10.39    0.34
  -3   8   0   10.74    0.48
   4  -8   0    6.83    0.30
  -4  -8   0    6.76    0.22
  -4  -8   0    6.91    0.25
  -4  -8   0    6.10    0.31
   4  -8   0    6.71    0.36
   4   8   0    6.77    0.31
   4   8   0    6.46    0.49
  -4   8   0    6.27    0.38
  -5  -8   0   76.60    1.70
   5  -8   0   76.09    1.80
   5  -8   0   76.18    1.64
  -5  -8   0   75.35    1.54
  -5   8   0   72.64    1.65
   5   8   0   78.70    1.71
  -5   8   0   76.16    1.83
   5   8   0   75.65    2.09
  -6  -8   0    4.46    0.31
  -6  -8   0    4.16    0.21
   6  -8   0    4.59    0.27
   6  -8   0    3.91    0.38
  -6   8   0    4.40    0.36
  -6   8   0    4.84    0.30
   6   8   0    4.17    0.53
   6   8   0    4.28    0.32
   7  -8   0    0.21    0.15
  -7  -8   0    0.06    0.11
  -7   8   0    0.15    0.17
   7   8   0    0.09    0.24
   7   8   0   -0.16    0.11
  -7   8   0    0.00    0.18
  -8  -8   0    0.04    0.13
   8  -8   0    0.00    0.16
   8   8   0    0.27    0.16
  -8   8   0    0.01    0.16
   8   8   0   -0.11    0.24
  -9   8   0    5.88    0.64
   0  -9   0   -0.02    0.05
   0  -9   0    0.07    0.05
   0   9   0    0.08    0.12
   0   9   0   -0.01    0.02
   0   9   0   -0.01    0.11
   1  -9   0   58.52    1.26
  -1  -9   0   60.51    1.25
   1  -9   0   58.05    1.16
  -1  -9   0   58.11    1.23
   1  -9   0   58.41    1.07
   1   9   0   60.08    1.15
   1   9   0   58.08    1.52
   1   9   0   55.82    1.44
  -1   9   0   58.36    1.44
  -1   9   0   56.81    1.21
  -1   9   0   59.57    1.39
  -2  -9   0   12.18    0.37
  -2  -9   0   12.80    0.41
  -2  -9   0   12.41    0.32
   2  -9   0   12.36    0.41
  -2  -9   0   11.97    0.36
   2  -9   0   12.51    0.28
   2  -9   0   12.91    0.39
  -2   9   0   12.02    0.44
   2   9   0   12.26    0.55
   2   9   0   12.17    0.29
   2   9   0   12.63    0.61
  -2   9   0   11.61    0.51
   3  -9   0    8.13    0.33
  -3  -9   0    8.12    0.27
  -3  -9   0    7.35    0.32
   3  -9   0    6.81    0.32
  -3  -9   0    7.72    0.27
  -3   9   0    5.87    0.38
   3   9   0    7.23    0.26
   3   9   0    7.36    0.50
  -3   9   0    6.24    0.29
  -4  -9   0   27.06    0.66
   4  -9   0   27.40    0.74
  -4  -9   0   27.88    0.63
   4  -9   0   27.38    0.81
  -4  -9   0   26.56    0.75
  -4   9   0   25.96    0.88
   4   9   0   27.17    1.05
   4   9   0   27.22    0.71
  -5  -9   0    3.56    0.27
   5  -9   0    3.11    0.23
  -5  -9   0    3.40    0.19
   5  -9   0    3.46    0.34
   5   9   0    2.60    0.25
  -5   9   0    3.23    0.36
  -5   9   0    2.95    0.27
   5   9   0    3.27    0.46
   6  -9   0    0.12    0.09
   6  -9   0    0.29    0.14
  -6  -9   0    0.27    0.14
  -6  -9   0    0.47    0.10
   6   9   0    0.26    0.12
  -6   9   0    0.36    0.16
  -6   9   0    0.52    0.15
   6   9   0    0.08    0.19
  -7  -9   0    2.20    0.27
   7  -9   0    2.70    0.35
  -7   9   0    2.54    0.34
   7   9   0    1.88    0.40
   7   9   0    1.95    0.27
  -7   9   0    2.07    0.31
  -8  -9   0    1.86    0.29
   8  -9   0    2.15    0.34
   8   9   0    1.57    0.43
  -8   9   0    2.61    0.38
   0 -10   0    0.26    0.08
   0 -10   0    0.39    0.09
   0  10   0    0.15    0.13
   0  10   0    0.32    0.04
   0  10   0    0.24    0.14
   1 -10   0   22.27    0.62
  -1 -10   0   22.99    0.61
  -1 -10   0   21.68    0.59
  -1  10   0   22.36    0.74
   1  10   0   23.35    0.81
  -1  10   0   22.72    0.78
   1  10   0   23.97    0.85
  -1  10   0   23.41    0.58
   2 -10   0   12.93    0.28
  -2 -10   0   12.44    0.39
  -2 -10   0   12.42    0.43
   2 -10   0   12.78    0.40
   2 -10   0   13.33    0.44
   2  10   0   12.48    0.58
  -2  10   0   12.74    0.56
   2  10   0   13.36    0.65
  -2  10   0   13.22    0.49
   3 -10   0    0.02    0.03
   3 -10   0   -0.01    0.06
  -3 -10   0    0.05    0.06
  -3 -10   0    0.08    0.07
  -3 -10   0   -0.01    0.04
   3 -10   0    0.14    0.08
   3  10   0    0.51    0.21
   3  10   0    0.00    0.04
  -3  10   0    0.13    0.09
  -3  10   0   -0.04    0.10
  -4 -10   0    6.70    0.28
  -4 -10   0    6.87    0.26
  -4 -10   0    6.86    0.34
   4 -10   0    6.48    0.35
   4 -10   0    6.47    0.32
   4  10   0    6.38    0.28
  -4  10   0    6.85    0.31
   4  10   0    7.21    0.55
  -4  10   0    7.03    0.43
   5 -10   0   13.81    0.59
  -5 -10   0   14.77    0.55
  -5 -10   0   14.47    0.45
   5 -10   0   14.87    0.53
   5  10   0   14.66    0.51
  -5  10   0   14.62    0.54
  -5  10   0   14.97    0.66
   5  10   0   13.17    0.78
   6 -10   0    4.11    0.29
  -6 -10   0    4.83    0.25
  -6 -10   0    4.81    0.34
   6 -10   0    5.01    0.39
  -6  10   0    4.79    0.40
   6  10   0    5.70    0.64
   6  10   0    4.74    0.32
  -6  10   0    4.74    0.33
   7 -10   0    0.99    0.24
  -7 -10   0    1.16    0.22
   7  10   0    1.20    0.37
  -7  10   0    1.29    0.30
  -7  10   0    1.62    0.31
  -8 -10   0   13.09    0.64
   8 -10   0   15.58    0.78
  -8  10   0   15.22    0.77
   8  10   0   13.88    0.95
   0 -11   0    0.21    0.08
   0 -11   0    0.05    0.07
   0  11   0    0.05    0.12
   0  11   0    0.11    0.13
   0  11   0    0.01    0.02
  -1 -11   0   41.36    0.97
  -1 -11   0   39.90    0.95
   1 -11   0   40.07    0.98
   1  11   0   38.73    1.19
  -1  11   0   41.08    1.13
   1  11   0   42.10    1.25
  -1  11   0   41.18    1.19
  -1  11   0   40.62    0.91
   2 -11   0    4.37    0.12
   2 -11   0    4.49    0.26
   2 -11   0    4.25    0.21
  -2 -11   0    4.41    0.22
  -2 -11   0    4.81    0.26
   2  11   0    4.55    0.43
  -2  11   0    4.48    0.30
  -2  11   0    4.76    0.37
   2  11   0    4.07    0.45
  -3 -11   0   13.55    0.41
   3 -11   0   12.50    0.47
   3 -11   0   12.90    0.32
   3 -11   0   13.29    0.46
  -3 -11   0   12.65    0.46
  -3  11   0   12.64    0.60
  -3  11   0   12.70    0.47
   3  11   0   12.62    0.33
   3  11   0   13.34    0.66
   3  11   0   12.74    0.70
  -4 -11   0   10.34    0.44
   4 -11   0   11.68    0.46
   4 -11   0   11.70    0.36
  -4 -11   0   12.35    0.40
  -4 -11   0   11.31    0.37
   4 -11   0   11.71    0.48
   4  11   0   11.49    0.71
   4  11   0   11.32    0.38
  -4  11   0   12.26    0.60
  -4  11   0   11.52    0.43
  -5 -11   0   18.75    0.66
  -5 -11   0   19.69    0.56
   5 -11   0   19.15    0.64
   5 -11   0   20.47    0.73
   5  11   0   19.91    0.98
  -5  11   0   19.58    0.81
   6 -11   0    4.63    0.31
  -6 -11   0    5.18    0.35
   6 -11   0    5.98    0.42
  -6 -11   0    5.02    0.26
  -6  11   0    5.20    0.36
   6  11   0    5.90    0.66
  -6  11   0    4.57    0.46
  -7 -11   0    6.23    0.42
   7 -11   0    6.39    0.48
  -7  11   0    5.00    0.60
  -7  11   0    6.17    0.48
   7  11   0    6.04    0.70
   8 -11   0    3.62    0.46
  -8 -11   0    2.54    0.33
   8  11   0    2.27    0.52
  -8  11   0    2.32    0.39
   0 -12   0   26.74    0.74
   0 -12   0   27.71    0.75
   0  12   0   27.45    0.95
   0  12   0   28.04    0.95
   0  12   0   27.82    0.54
  -1 -12   0    1.76    0.19
   1 -12   0    1.22    0.16
  -1 -12   0    1.58    0.17
  -1  12   0    1.78    0.26
  -1  12   0    1.88    0.22
  -1  12   0    1.47    0.26
   1  12   0    1.74    0.29
   1  12   0    2.24    0.34
  -2 -12   0   17.23    0.52
   2 -12   0   16.28    0.47
   2 -12   0   17.30    0.57
  -2 -12   0   17.21    0.55
  -2  12   0   17.51    0.73
  -2  12   0   18.65    0.65
   2  12   0   17.88    0.82
  -3  12   0    0.36    0.17
   3  12   0    0.71    0.22
   3  12   0    0.84    0.24
  -3  12   0    0.54    0.14
  -4 -12   0    0.69    0.11
  -4 -12   0    0.76    0.15
   4 -12   0    0.68    0.15
   4 -12   0    0.62    0.14
  -4  12   0    0.57    0.19
   4  12   0    0.45    0.26
  -4  12   0    0.70    0.14
  -5 -12   0   12.20    0.52
  -5 -12   0   11.37    0.41
   5 -12   0   13.16    0.56
   5 -12   0   11.51    0.50
  -5  12   0   11.97    0.64
   5  12   0   12.80    0.81
  -6 -12   0    1.85    0.18
  -6 -12   0    1.81    0.24
   6 -12   0    2.30    0.26
   6  12   0    1.83    0.40
  -6  12   0    1.93    0.25
  -6  12   0    1.92    0.31
   7 -12   0    2.07    0.32
  -7 -12   0    2.09    0.29
  -7  12   0    1.89    0.34
   7  12   0    2.23    0.48
   8 -12   0   17.41    0.83
   8  12   0   17.67    1.10
  -8  12   0   17.83    0.96
   0 -13   0    0.09    0.08
   0  13   0    0.21    0.16
   0  13   0   -0.07    0.15
  -1 -13   0   25.80    0.72
  -1 -13   0   26.17    0.73
   1 -13   0   25.14    0.74
   1  13   0   24.95    0.97
  -1  13   0   25.55    0.89
  -1  13   0   25.34    0.94
   1  13   0   26.57    0.97
  -2 -13   0   16.89    0.56
  -2 -13   0   16.53    0.53
   2 -13   0   16.15    0.56
   2  13   0   17.96    0.80
  -2  13   0   16.21    0.64
   2  13   0   16.94    0.83
  -2  13   0   16.62    0.75
  -3 -13   0   28.35    0.75
   3 -13   0   29.19    0.83
  -3 -13   0   28.75    0.82
   3 -13   0   28.07    0.75
  -3  13   0   28.65    1.02
  -3  13   0   28.10    0.85
   3  13   0   27.95    1.06
   3  13   0   26.99    1.13
   4 -13   0    1.63    0.21
  -4 -13   0    1.95    0.18
  -4 -13   0    1.83    0.23
   4 -13   0    1.57    0.21
   4  13   0    1.70    0.39
   4  13   0    1.29    0.31
  -4  13   0    1.63    0.21
  -4  13   0    1.61    0.29
   5 -13   0    5.63    0.35
  -5 -13   0    5.57    0.36
   5 -13   0    4.87    0.35
  -5  13   0    4.55    0.47
   5  13   0    4.53    0.58
   6 -13   0    0.38    0.15
  -6 -13   0    0.41    0.15
   6 -13   0    0.14    0.14
  -6  13   0    0.39    0.17
   6  13   0    0.64    0.30
  -6  13   0    0.14    0.17
   7 -13   0    1.80    0.31
  -7 -13   0    1.14    0.24
  -7  13   0    1.91    0.35
   7  13   0    1.16    0.39
   8 -13   0    2.46    0.43
   0 -14   0  118.03    2.47
   0  14   0  119.09    2.78
   0  14   0  120.17    2.81
   1 -14   0   78.84    1.75
  -1 -14   0   78.23    1.72
  -1 -14   0   78.98    1.73
  -1  14   0   75.84    1.93
  -1  14   0   80.92    2.05
   1  14   0   76.79    2.07
   1  14   0   76.64    2.05
  -2 -14   0    5.34    0.31
  -2 -14   0    4.88    0.28
   2 -14   0    4.99    0.30
   2  14   0    5.28    0.53
  -2  14   0    5.12    0.50
   2  14   0    4.27    0.49
  -2  14   0    4.48    0.36
   3 -14   0   42.28    1.01
  -3 -14   0   42.46    1.03
  -3 -14   0   41.92    1.09
   3 -14   0   41.31    1.11
   3  14   0   40.49    1.38
   3  14   0   41.89    1.48
  -3  14   0   41.48    1.32
  -3  14   0   40.73    1.13
   4 -14   0    0.25    0.11
  -4 -14   0    0.11    0.08
  -4 -14   0    0.20    0.12
   4 -14   0    0.20    0.10
   4  14   0    0.30    0.26
  -4  14   0    0.19    0.14
  -4  14   0    0.01    0.18
   4  14   0    0.18    0.23
   5 -14   0    0.95    0.20
  -5 -14   0    0.82    0.18
   5 -14   0    0.70    0.16
   5  14   0    0.90    0.34
   5  14   0    0.92    0.31
  -5  14   0    0.88    0.25
   6 -14   0    5.15    0.40
  -6 -14   0    5.44    0.39
   6 -14   0    5.99    0.39
  -6  14   0    7.12    0.54
   6  14   0    5.81    0.70
  -6  14   0    5.97    0.43
  -7 -14   0    7.95    0.49
   7 -14   0    7.04    0.50
   7  14   0    6.72    0.81
  -7  14   0    6.93    0.58
   0 -15   0    0.14    0.09
   0  15   0    0.01    0.17
   0  15   0    0.05    0.19
  -1 -15   0    1.04    0.17
  -1 -15   0    0.89    0.17
   1 -15   0    0.97    0.17
   1  15   0    0.68    0.25
  -1  15   0    0.65    0.20
  -1  15   0    1.06    0.27
   1  15   0    0.85    0.26
   2 -15   0    2.36    0.26
  -2 -15   0    2.11    0.24
  -2 -15   0    2.54    0.25
  -2  15   0    2.65    0.38
   2  15   0    2.25    0.39
  -2  15   0    1.80    0.28
   2  15   0    2.58    0.40
   3 -15   0    8.25    0.42
  -3 -15   0    6.74    0.38
  -3 -15   0    7.91    0.36
  -3  15   0    8.15    0.57
   3  15   0    7.63    0.58
  -3  15   0    6.78    0.41
   3  15   0    6.59    0.66
  -4 -15   0    1.69    0.21
  -4 -15   0    1.67    0.24
   4 -15   0    1.48    0.22
   4  15   0    2.32    0.44
  -4  15   0    1.75    0.33
   4  15   0    1.81    0.39
   5 -15   0   -0.02    0.10
  -5 -15   0    0.12    0.13
   5  15   0    0.41    0.29
  -5  15   0   -0.03    0.21
   5  15   0    0.26    0.26
   6 -15   0    0.29    0.16
   6 -15   0   -0.06    0.14
  -6 -15   0    0.02    0.13
   6  15   0    0.24    0.28
  -6  15   0    0.13    0.19
  -6  15   0    0.26    0.19
   6  15   0    0.64    0.28
  -7 -15   0    0.40    0.19
   7  15   0   -0.08    0.29
   0 -16   0    0.34    0.12
   0  16   0   -0.08    0.17
   0  16   0    0.40    0.23
  -1 -16   0    0.02    0.10
  -1 -16   0    0.04    0.09
   1 -16   0   -0.02    0.09
   1  16   0   -0.03    0.17
   1  16   0   -0.08    0.18
  -1  16   0    0.04    0.19
  -1  16   0   -0.33    0.11
   2 -16   0    9.12    0.45
  -2 -16   0    9.11    0.42
  -2 -16   0    9.60    0.45
   2  16   0    8.67    0.64
  -2  16   0    9.17    0.53
   2  16   0    8.14    0.64
  -2  16   0   10.19    0.65
  -3 -16   0    1.61    0.20
   3 -16   0    1.86    0.26
  -3 -16   0    1.36    0.22
  -3  16   0    1.63    0.27
   3  16   0    1.65    0.39
  -3  16   0    1.70    0.34
   3  16   0    1.40    0.34
   4 -16   0   29.91    0.95
  -4 -16   0   28.91    0.91
   4  16   0   29.90    1.23
  -4  16   0   30.26    1.16
   4  16   0   27.05    1.27
  -5 -16   0    0.53    0.18
   5 -16   0    0.78    0.19
   5  16   0    0.00    0.27
  -5  16   0    0.22    0.23
   5  16   0    0.41    0.33
  -6 -16   0    0.20    0.16
   6 -16   0    0.36    0.16
   6  16   0    0.89    0.35
   6  16   0    0.32    0.36
  -6  16   0    0.25    0.20
  -6  16   0    0.52    0.26
   0 -17   0    0.23    0.11
   0  17   0   -0.09    0.19
   0  17   0    0.29    0.22
  -1 -17   0    4.26    0.31
   1 -17   0    3.92    0.31
  -1 -17   0    4.89    0.32
  -1  17   0    4.43    0.54
   1  17   0    4.93    0.56
   1  17   0    4.71    0.54
  -1  17   0    4.49    0.48
   2 -17   0   12.85    0.56
  -2 -17   0   12.17    0.53
  -2 -17   0   13.80    0.54
   2  17   0   12.09    0.76
  -2  17   0   14.15    0.79
  -2  17   0   13.44    0.66
   2  17   0   13.71    0.84
   3 -17   0    1.23    0.22
  -3 -17   0    1.17    0.22
  -3 -17   0    1.42    0.21
   3  17   0    0.69    0.31
  -3  17   0    1.38    0.26
  -3  17   0    1.38    0.35
   3  17   0    1.09    0.33
  -4 -17   0    1.33    0.23
   4 -17   0    1.16    0.22
   4  17   0    1.15    0.35
   4  17   0    1.56    0.36
  -4  17   0    1.48    0.34
  -5 -17   0    0.04    0.12
   5 -17   0    0.18    0.15
  -5  17   0    0.04    0.22
   5  17   0    0.57    0.34
   5  17   0    0.11    0.28
   6 -17   0    3.10    0.37
  -6 -17   0    3.05    0.36
   6  17   0    2.28    0.50
  -6  17   0    3.00    0.38
   0 -18   0   12.19    0.55
   0  18   0   13.14    0.81
   0  18   0   13.19    0.77
  -1 -18   0    1.99    0.26
   1 -18   0    2.37    0.29
  -1  18   0    2.16    0.37
   1  18   0    2.60    0.44
   1  18   0    3.27    0.47
  -1  18   0    2.54    0.44
   2 -18   0   16.48    0.68
  -2 -18   0   17.42    0.65
  -2 -18   0   17.18    0.66
   2  18   0   18.34    0.99
  -2  18   0   17.67    0.92
   2  18   0   16.92    0.93
  -2  18   0   17.61    0.79
  -3 -18   0    3.90    0.36
   3 -18   0    4.89    0.38
  -3 -18   0    5.18    0.33
  -3  18   0    3.56    0.48
   3  18   0    3.45    0.51
   3  18   0    3.14    0.52
   4 -18   0    0.83    0.21
  -4 -18   0    0.47    0.17
   4  18   0    0.99    0.36
  -4  18   0    0.72    0.28
   4  18   0    0.61    0.31
   5 -18   0    3.04    0.37
  -5 -18   0    2.43    0.31
   5  18   0    2.66    0.53
   5  18   0    3.78    0.60
  -5  18   0    3.35    0.50
  -6  18   0    1.58    0.31
   0 -19   0    0.24    0.13
   0  19   0   -0.13    0.19
   0  19   0    0.28    0.28
  -1 -19   0   -0.04    0.10
   1 -19   0   -0.07    0.11
  -1  19   0    0.00    0.20
   1  19   0    0.07    0.22
  -1  19   0   -0.31    0.21
   1  19   0   -0.03    0.23
  -2 -19   0    6.61    0.40
   2 -19   0    7.53    0.46
  -2 -19   0    6.81    0.42
  -2  19   0    6.39    0.52
   2  19   0    7.45    0.74
   2  19   0    6.53    0.71
  -2  19   0    6.78    0.67
  -3 -19   0    1.26    0.22
   3 -19   0    1.90    0.30
  -3 -19   0    1.47    0.25
  -3  19   0    1.00    0.33
   3  19   0    1.34    0.41
   3  19   0    1.53    0.43
  -4 -19   0    1.98    0.28
   4 -19   0    1.71    0.29
   4  19   0    1.45    0.46
   4  19   0    1.16    0.38
  -4  19   0    2.02    0.40
  -5 -19   0    0.40    0.17
   0 -20   0   66.73    1.68
   0  20   0   66.54    2.01
   0  20   0   61.19    2.01
   1 -20   0    0.30    0.15
  -1 -20   0    0.42    0.16
   1  20   0    0.00    0.28
  -1  20   0    0.21    0.29
  -1  20   0    0.86    0.31
   1  20   0    0.63    0.32
  -2 -20   0    0.42    0.17
  -2 -20   0    0.49    0.16
   2 -20   0    0.23    0.17
  -2  20   0    0.11    0.27
   2  20   0   -0.16    0.26
   2  20   0    0.43    0.30
  -2  20   0    0.37    0.23
  -3 -20   0    3.06    0.35
  -3 -20   0    3.45    0.35
   3 -20   0    3.35    0.39
   3  20   0    2.65    0.55
  -3  20   0    3.41    0.54
   3  20   0    2.90    0.54
  -4 -20   0    4.27    0.41
   0 -21   0    0.34    0.15
   0  21   0    0.08    0.26
   0  21   0    0.43    0.29
   1 -21   0    4.28    0.43
  -1 -21   0    2.96    0.35
   1  21   0    2.03    0.44
  -1  21   0    3.47    0.57
   1  21   0    2.47    0.49
  -1  21   0    3.01    0.48
  -2 -21   0    0.05    0.15
   2 -21   0    0.15    0.18
  -2 -21   0    0.14    0.15
   2  21   0    0.21    0.31
   2  21   0   -0.03    0.26
  -2  21   0    0.49    0.31
  -3 -21   0    8.64    0.51
   0  22   0    1.10    0.38
  -1 -22   0    8.02    0.51
   1  22   0    7.78    0.80
  -1  22   0    6.69    0.67
  -2 -22   0    5.91    0.44
  -1  23   0   14.81    1.25
   9   0  -1    0.08    0.16
   8   0  -1    0.01    0.11
  -7   0   1   -0.01    0.07
   7   0  -1   -0.13    0.12
   7   0  -1    0.05    0.12
   6   0  -1   -0.08    0.10
  -6   0   1    0.01    0.07
   6   0  -1   -0.04    0.08
  -5   0   1    0.12    0.09
   5   0  -1   -0.09    0.06
  -5   0   1   -0.09    0.05
   5   0  -1    0.01    0.08
   4   0  -1   -0.01    0.07
  -4   0   1    0.07    0.05
  -4   0   1   -0.03    0.06
   4   0  -1   -0.01    0.07
  -4   0   1    0.02    0.03
   3   0  -1   -0.02    0.06
  -3   0   1    0.02    0.03
  -3   0   1    0.01    0.04
  -3   0   1   -0.05    0.04
   3   0  -1   -0.04    0.05
  -2   0   1   -0.02    0.03
   2   0  -1    0.01    0.04
   2   0  -1    0.00    0.04
  -2   0   1    0.02    0.04
  -2   0   1    0.06    0.05
  -2   0   1    0.05    0.04
  -2   0   1   -0.03    0.05
   2   0  -1    0.07    0.04
   2   0  -1    0.01    0.05
  -1   0   1   -0.02    0.01
  -1   0   1   -0.02    0.03
   1   0  -1    0.06    0.03
   1   0  -1    0.00    0.03
   1   0  -1    0.01    0.01
  -1   0   1    0.02    0.03
  -1   0   1   -0.01    0.03
   1   0  -1    0.01    0.02
   0   0  -1   -0.01    0.02
   0   0   1    0.00    0.01
   0   0  -1   -0.01    0.01
   0   0  -1   -0.01    0.02
   0   0   1    0.02    0.02
   0   0   1   -0.03    0.03
   0   0  -1    0.00    0.01
   0   0   1    0.00    0.01
   0   0   1   -0.01    0.01
   0   0  -1    0.00    0.01
   1   0   1   -0.01    0.07
   1   0   1    0.02    0.04
  -1   0  -1    0.02    0.05
  -1   0  -1    0.00    0.06
  -2   0  -1   -0.01    0.02
   2   0   1   -0.02    0.07
  -2   0  -1    0.00    0.06
   3   0   1    0.00    0.02
  -3   0  -1    0.00    0.03
  -3   0  -1    0.06    0.07
   3   0   1   -0.01    0.07
   4   0   1   -0.06    0.08
  -4   0  -1    0.05    0.07
  -4   0  -1   -0.02    0.03
  -5   0  -1    0.00    0.04
  -5   0  -1    0.00    0.09
   5   0   1    0.08    0.10
   6   0   1    0.03    0.10
   7   0   1    0.05    0.16
   7   0   1    0.04    0.14
   8   0   1   -0.26    0.14
   9   0   1   -0.18    0.16
   9  -1  -1   13.43    0.71
   9   1  -1   14.23    0.72
   8  -1  -1   25.35    0.95
   8   1  -1   25.33    0.94
  -7  -1   1   15.24    0.46
   7   1  -1   15.62    0.66
   7   1  -1   13.78    0.65
  -7   1   1   14.27    0.47
   6  -1  -1    0.91    0.18
   6  -1  -1    0.96    0.20
  -6  -1   1    1.09    0.13
   6   1  -1    0.85    0.18
   6   1  -1    1.34    0.23
  -6   1   1    1.08    0.18
  -6   1   1    1.03    0.14
  -5  -1   1   11.99    0.36
   5  -1  -1   11.88    0.49
   5  -1  -1   11.91    0.45
  -5  -1   1   11.95    0.30
   5   1  -1   12.21    0.51
   5   1  -1   11.72    0.48
  -5   1   1   11.95    0.38
  -5   1   1   13.24    0.46
  -4  -1   1    5.06    0.20
   4  -1  -1    5.11    0.19
   4  -1  -1    4.87    0.24
  -4  -1   1    5.30    0.17
   4  -1  -1    5.18    0.28
   4   1  -1    5.43    0.30
  -4   1   1    5.45    0.26
  -4   1   1    5.41    0.22
   4   1  -1    5.49    0.28
  -3  -1   1    9.53    0.25
   3  -1  -1    9.27    0.29
   3  -1  -1    9.20    0.26
  -3  -1   1    9.26    0.27
   3   1  -1    9.61    0.33
  -3   1   1    9.48    0.28
  -3   1   1    9.44    0.30
   3   1  -1    9.13    0.35
  -3   1   1    9.55    0.26
   2  -1  -1    0.06    0.04
   2  -1  -1    0.01    0.04
   2  -1  -1    0.03    0.04
  -2  -1   1    0.08    0.07
   2  -1  -1    0.00    0.05
  -2  -1   1    0.10    0.04
   2  -1  -1    0.04    0.04
  -2  -1   1    0.05    0.04
  -2   1   1    0.03    0.04
  -2   1   1    0.06    0.05
   2   1  -1    0.04    0.06
   2   1  -1    0.01    0.04
  -2   1   1    0.00    0.03
   2   1  -1    0.04    0.04
   2   1  -1    0.04    0.04
  -1  -1   1  295.18    5.38
   1  -1  -1  286.42    5.32
   1  -1  -1  297.14    5.40
  -1  -1   1  275.55    5.22
   1  -1  -1  285.17    5.27
   1   1  -1  281.17    5.21
  -1   1   1  289.09    5.30
  -1   1   1  283.77    5.19
  -1   1   1  277.45    5.21
  -1   1   1  290.28    5.30
  -1   1   1  298.26    5.30
   0  -1  -1   29.75    0.57
   0  -1  -1   29.09    0.57
   0  -1   1   28.50    0.55
   0  -1   1   30.12    0.63
   0  -1  -1   29.46    0.58
   0  -1   1   29.13    0.59
   0  -1   1   29.02    0.56
   0   1  -1   29.74    0.56
   0   1  -1   28.26    0.56
   0   1  -1   29.09    0.62
   0   1   1   29.72    0.62
   0   1  -1   29.31    0.59
   0   1   1   29.91    0.57
   0   1  -1   29.70    0.61
   0   1   1   29.79    0.57
   0   1   1   29.62    0.58
   1  -1   1   46.89    1.01
   1  -1   1   46.64    0.94
  -1  -1  -1   45.77    1.01
   1   1   1   46.57    0.85
   1   1   1   45.76    1.01
   1   1   1   40.60    0.92
  -1   1  -1   46.80    1.02
   1   1   1   46.04    0.83
  -1   1  -1   46.42    0.94
  -1   1  -1   46.07    0.84
  -2  -1  -1    5.61    0.13
   2   1   1    5.71    0.13
   2   1   1    5.18    0.27
  -2   1  -1    5.50    0.15
  -2   1  -1    5.50    0.23
   3  -1   1    9.01    0.40
  -3  -1  -1    8.78    0.21
   3  -1   1    9.06    0.22
  -3   1  -1    9.18    0.35
   3   1   1    8.71    0.39
  -3   1  -1    8.91    0.23
   3   1   1    8.93    0.22
   4  -1   1   32.98    0.66
  -4  -1  -1   33.19    0.67
   4  -1   1   33.10    0.96
  -4   1  -1   32.71    0.69
   4   1   1   33.21    0.96
  -4   1  -1   34.09    0.90
   4   1   1   33.04    0.69
   5  -1   1    0.86    0.18
  -5  -1  -1    1.32    0.09
   5  -1   1    1.21    0.07
  -5   1  -1    1.27    0.21
   5   1   1    1.23    0.20
  -5   1  -1    1.15    0.10
   6  -1   1   43.56    1.28
   6   1   1   42.13    1.26
  -6   1  -1   42.30    1.20
   6   1   1   43.05    1.26
   7  -1   1    2.44    0.33
   7  -1   1    2.17    0.33
   7   1   1    2.15    0.31
   7   1   1    2.47    0.38
  -8  -1  -1    8.96    0.48
   8  -1   1    8.25    0.58
   8   1   1    8.63    0.59
   9  -1   1   -0.02    0.30
   9   1   1    0.02    0.19
  -9  -2   1    1.40    0.24
   9  -2  -1    1.09    0.28
   9   2  -1    1.38    0.30
   8  -2  -1   30.84    1.08
   8   2  -1   30.91    1.06
  -7  -2   1    3.51    0.21
   7  -2  -1    4.21    0.40
  -7   2   1    3.34    0.33
  -7   2   1    3.71    0.24
   7   2  -1    3.01    0.36
   7   2  -1    2.98    0.32
   6  -2  -1   13.46    0.58
  -6  -2   1   14.14    0.42
   6  -2  -1   12.99    0.51
   6  -2  -1   14.06    0.41
  -6   2   1   14.31    0.54
   6   2  -1   13.84    0.57
  -6   2   1   13.83    0.44
   6   2  -1   14.22    0.63
  -5  -2   1   11.20    0.35
   5  -2  -1   10.50    0.39
   5  -2  -1   11.79    0.34
  -5  -2   1   10.96    0.28
   5  -2  -1   11.94    0.49
  -5   2   1   11.43    0.37
  -5   2   1   10.98    0.43
   5   2  -1   11.28    0.46
   5   2  -1   11.09    0.51
  -4  -2   1    6.15    0.22
   4  -2  -1    6.06    0.24
   4  -2  -1    6.04    0.22
   4  -2  -1    6.30    0.31
  -4  -2   1    6.42    0.19
  -4   2   1    6.66    0.29
   4   2  -1    5.74    0.29
  -4   2   1    5.89    0.24
   4   2  -1    6.67    0.35
   3  -2  -1  120.33    2.22
   3  -2  -1  115.57    2.32
  -3  -2   1  117.04    2.21
   3   2  -1  113.43    2.37
  -3   2   1  116.49    2.27
   3   2  -1  120.80    2.30
  -3   2   1  115.93    2.24
   2  -2  -1  195.96    3.64
   2  -2  -1  195.28    3.60
  -2  -2   1  189.28    3.63
  -2  -2   1  197.23    3.59
  -2  -2   1  198.79    3.72
   2   2  -1  194.47    3.62
  -2   2   1  199.06    3.62
  -2   2   1  195.18    3.59
  -2   2   1  196.16    3.63
   2   2  -1  197.35    3.71
   2   2  -1  196.97    3.59
   1  -2  -1    8.63    0.21
   1  -2  -1    8.20    0.23
   1  -2  -1    9.14    0.25
  -1  -2   1    8.34    0.19
   1   2  -1    8.74    0.19
  -1   2   1    8.37    0.25
  -1   2   1    8.28    0.23
   1   2  -1    8.17    0.24
  -1   2   1    8.90    0.22
  -1   2   1    8.95    0.22
  -1   2   1    8.42    0.23
  -1   2   1    8.69    0.23
   1   2  -1    8.21    0.27
   0  -2  -1  120.95    2.13
   0  -2  -1  116.93    2.15
   0  -2   1  116.43    2.11
   0  -2   1  117.59    2.20
   0  -2  -1  119.74    2.15
   0  -2   1  116.12    2.18
   0  -2   1  116.64    2.13
   0  -2   1  100.74    2.18
   0   2   1  115.07    2.14
   0   2   1  117.80    2.14
   0   2   1  117.62    2.12
   0   2  -1  118.03    2.19
   0   2  -1  116.88    2.18
   0   2  -1  121.62    2.18
   0   2  -1  116.88    2.14
   0   2  -1  116.44    2.12
  -1  -2  -1   10.09    0.27
   1  -2   1    9.77    0.31
  -1  -2  -1   10.24    0.23
  -1  -2  -1   10.57    0.34
   1  -2   1   10.12    0.29
   1  -2   1   10.37    0.35
   1   2   1   10.23    0.21
   1   2   1   10.59    0.23
   1   2   1    9.77    0.34
  -1   2  -1   10.41    0.35
  -1   2  -1   10.40    0.31
  -1   2  -1   10.26    0.29
  -1   2  -1   10.04    0.22
  -2  -2  -1    0.35    0.07
   2  -2   1    0.41    0.10
  -2  -2  -1    0.57    0.04
  -2   2  -1    0.35    0.09
   2   2   1    0.54    0.12
   2   2   1    0.52    0.04
   3  -2   1   40.31    0.81
  -3  -2  -1   40.91    0.78
  -3   2  -1   40.12    0.82
   3   2   1   39.32    0.79
   3   2   1   41.11    1.03
  -3   2  -1   40.83    0.98
   4  -2   1    3.93    0.29
  -4  -2  -1    3.64    0.13
   4  -2   1    3.48    0.14
  -4   2  -1    3.76    0.16
  -4   2  -1    3.65    0.25
   4   2   1    3.96    0.15
   4   2   1    3.83    0.28
   5  -2   1    0.09    0.04
   5  -2   1    0.00    0.11
  -5  -2  -1    0.11    0.04
   5   2   1    0.25    0.12
  -5   2  -1    0.09    0.11
  -5   2  -1    0.15    0.06
   5   2   1    0.02    0.11
   6  -2   1   36.16    1.16
   6   2   1   39.75    1.24
  -6   2  -1   37.97    1.12
   6   2   1   38.55    1.17
   7  -2   1    8.43    0.55
  -7  -2  -1    9.14    0.45
  -7   2  -1    8.40    0.50
   7   2   1    9.63    0.55
   7   2   1    8.52    0.61
   8  -2   1    0.82    0.25
  -8  -2  -1    0.86    0.18
   8   2   1    0.76    0.25
   9   2   1    2.22    0.37
  -9  -3   1    1.57    0.25
   9  -3  -1    1.50    0.30
   9   3  -1    1.60    0.30
  -8  -3   1    0.23    0.12
   8  -3  -1    0.34    0.17
  -8   3   1    0.07    0.13
   8   3  -1   -0.02    0.13
   7  -3  -1    6.39    0.43
  -7  -3   1    6.00    0.27
   7   3  -1    4.67    0.37
   7   3  -1    6.70    0.49
  -7   3   1    6.23    0.30
  -7   3   1    6.02    0.38
   6  -3  -1    0.03    0.05
   6  -3  -1    0.05    0.09
   6  -3  -1   -0.07    0.10
  -6  -3   1   -0.04    0.05
  -6   3   1    0.05    0.09
   6   3  -1   -0.04    0.13
   6   3  -1    0.05    0.10
  -6   3   1   -0.04    0.07
   5  -3  -1   33.36    0.78
  -5  -3   1   32.18    0.74
   5  -3  -1   33.02    0.93
  -5  -3   1   32.26    0.67
   5  -3  -1   32.08    0.75
   5   3  -1   31.78    0.99
   5   3  -1   33.14    0.90
  -5   3   1   31.59    0.86
  -5   3   1   32.03    0.78
  -4  -3   1    3.75    0.15
  -4  -3   1    4.02    0.18
   4  -3  -1    3.77    0.15
   4  -3  -1    3.88    0.18
   4  -3  -1    3.63    0.24
   4   3  -1    3.97    0.23
  -4   3   1    3.93    0.21
   4   3  -1    3.94    0.28
  -4   3   1    3.99    0.23
   3  -3  -1    4.02    0.22
   3  -3  -1    4.30    0.13
  -3  -3   1    3.90    0.16
   3  -3  -1    4.13    0.18
  -3   3   1    4.03    0.21
   3   3  -1    3.47    0.26
  -3   3   1    3.77    0.19
   3   3  -1    3.80    0.20
   2  -3  -1   13.02    0.34
   2  -3  -1   12.03    0.38
  -2  -3   1   12.99    0.34
  -2  -3   1   12.89    0.32
   2  -3  -1   12.71    0.36
  -2  -3   1   12.92    0.32
   2  -3  -1   12.85    0.29
   2   3  -1   12.82    0.33
  -2   3   1   12.57    0.37
  -2   3   1   12.78    0.35
   2   3  -1   12.61    0.43
  -2   3   1   13.02    0.26
  -1  -3   1    3.31    0.12
   1  -3  -1    2.99    0.13
   1  -3  -1    3.41    0.15
   1  -3  -1    3.33    0.18
   1  -3  -1    3.35    0.11
  -1  -3   1    3.16    0.20
  -1  -3   1    3.44    0.11
  -1   3   1    3.42    0.13
   1   3  -1    3.23    0.17
  -1   3   1    3.39    0.18
  -1   3   1    3.16    0.13
  -1   3   1    3.50    0.15
   1   3  -1    3.38    0.11
   1   3  -1    3.45    0.19
  -1   3   1    3.54    0.12
  -1   3   1    3.33    0.13
   0  -3  -1    1.89    0.10
   0  -3  -1    1.82    0.10
   0  -3   1    2.23    0.14
   0  -3   1    2.07    0.06
   0  -3   1    2.23    0.13
   0  -3   1    2.05    0.09
   0  -3   1    2.36    0.15
   0  -3  -1    1.99    0.08
   0   3  -1    1.93    0.11
   0   3  -1    1.86    0.14
   0   3   1    1.73    0.14
   0   3  -1    2.08    0.08
   0   3  -1    2.13    0.14
   0   3   1    1.87    0.09
   0   3   1    2.01    0.10
   0   3  -1    2.12    0.06
   0   3  -1    1.97    0.08
   0   3   1    2.06    0.08
  -1  -3  -1    0.00    0.04
  -1  -3  -1    0.04    0.06
   1  -3   1    0.03    0.05
  -1  -3  -1    0.06    0.03
   1  -3   1   -0.03    0.06
  -1   3  -1    0.05    0.03
  -1   3  -1    0.03    0.06
  -1   3  -1    0.00    0.06
   1   3   1    0.00    0.06
   1   3   1    0.04    0.02
   1   3   1   -0.01    0.07
  -1   3  -1    0.03    0.05
   1   3   1    0.02    0.02
  -2  -3  -1   38.15    0.72
  -2  -3  -1   37.45    0.71
  -2  -3  -1   38.72    0.82
  -2   3  -1   36.96    0.88
   2   3   1   37.19    0.73
   2   3   1   36.68    0.91
  -3  -3  -1    0.91    0.11
  -3  -3  -1    0.89    0.06
   3  -3   1    1.15    0.17
   3  -3   1    1.03    0.08
  -3   3  -1    1.00    0.09
  -3   3  -1    1.04    0.15
   3   3   1    1.28    0.18
   3   3   1    1.20    0.19
   3   3   1    1.01    0.08
  -4  -3  -1   41.53    0.99
   4  -3   1   43.11    1.15
  -4  -3  -1   42.91    0.84
   4  -3   1   41.57    0.88
   4   3   1   42.91    1.13
  -4   3  -1   43.57    1.09
   4   3   1   43.22    1.18
  -4   3  -1   43.27    0.90
   5  -3   1   10.21    0.30
  -5  -3  -1    9.88    0.26
   5  -3   1   10.11    0.51
  -5  -3  -1    9.63    0.40
   5   3   1    9.34    0.52
  -5   3  -1   10.07    0.31
   5   3   1   10.65    0.50
  -5   3  -1    9.32    0.45
  -6  -3  -1   -0.01    0.08
   6  -3   1    0.05    0.12
   6   3   1   -0.15    0.16
   6   3   1    0.12    0.13
  -6   3  -1    0.11    0.12
  -7  -3  -1    9.60    0.47
   7  -3   1    9.00    0.56
   7   3   1    9.61    0.66
  -7   3  -1   10.71    0.58
   7   3   1    9.43    0.56
  -8  -3  -1    1.31    0.24
   8  -3   1    1.90    0.34
  -8   3  -1    1.74    0.33
   8   3   1    1.87    0.40
   8   3   1    1.57    0.31
   9   3   1    4.12    0.50
  -9  -4   1    5.52    0.40
   9  -4  -1    6.26    0.50
  -9   4   1    5.99    0.48
   9   4  -1    5.92    0.47
   8  -4  -1    0.22    0.18
  -8  -4   1   -0.02    0.11
   8   4  -1    0.10    0.14
  -8   4   1   -0.16    0.10
   7  -4  -1   27.28    0.96
  -7  -4   1   28.33    0.71
  -7  -4   1   28.97    0.84
  -7   4   1   29.09    0.93
   7   4  -1   26.92    1.04
   7   4  -1   28.02    0.92
  -7   4   1   27.89    0.76
  -6  -4   1   12.18    0.39
   6  -4  -1   12.06    0.41
   6  -4  -1   12.62    0.44
  -6  -4   1   12.20    0.46
  -6   4   1   13.51    0.54
   6   4  -1   12.61    0.53
   6   4  -1   12.27    0.63
  -6   4   1   12.95    0.45
  -5  -4   1    2.87    0.13
   5  -4  -1    2.67    0.17
  -5  -4   1    2.74    0.19
  -5  -4   1    3.15    0.17
   5  -4  -1    3.18    0.30
   5  -4  -1    2.82    0.15
   5   4  -1    2.99    0.23
   5   4  -1    3.80    0.37
  -5   4   1    2.84    0.21
  -5   4   1    2.57    0.25
   4  -4  -1    8.33    0.29
  -4  -4   1    8.32    0.27
   4  -4  -1    8.61    0.25
   4  -4  -1    8.55    0.37
  -4  -4   1    8.43    0.30
  -4   4   1    8.01    0.35
   4   4  -1    7.92    0.33
  -4   4   1    7.98    0.31
   4   4  -1    9.17    0.46
  -3  -4   1   70.63    1.39
  -3  -4   1   71.65    1.41
   3  -4  -1   72.37    1.43
   3  -4  -1   68.48    1.49
   3  -4  -1   70.48    1.35
   3   4  -1   69.79    1.62
   3   4  -1   71.64    1.44
  -3   4   1   68.94    1.50
  -3   4   1   70.25    1.44
   2  -4  -1   62.62    1.24
  -2  -4   1   63.08    1.25
   2  -4  -1   62.06    1.26
   2  -4  -1   63.25    1.23
  -2  -4   1   64.13    1.23
   2  -4  -1   62.76    1.28
  -2  -4   1   61.33    1.23
  -2   4   1   64.24    1.20
   2   4  -1   64.74    1.43
   2   4  -1   62.23    1.22
  -2   4   1   61.48    1.33
   1  -4  -1   51.84    1.06
   1  -4  -1   52.30    1.00
   1  -4  -1   52.99    1.09
  -1  -4   1   53.25    1.01
  -1  -4   1   52.29    1.02
  -1   4   1   51.62    1.09
  -1   4   1   53.54    1.13
   1   4  -1   51.85    1.11
   1   4  -1   52.57    1.01
   1   4  -1   52.11    1.17
  -1   4   1   52.44    1.01
  -1   4   1   52.37    1.04
   0  -4   1   14.54    0.48
   0  -4   1   13.80    0.36
   0  -4  -1   13.55    0.35
   0  -4   1   14.01    0.32
   0  -4   1   14.04    0.27
   0  -4  -1   14.21    0.42
   0  -4  -1   13.98    0.30
   0  -4  -1   13.99    0.34
   0   4   1   13.65    0.42
   0   4  -1   13.97    0.32
   0   4  -1   13.88    0.35
   0   4   1   13.16    0.43
   0   4   1   13.58    0.33
   0   4  -1   14.15    0.42
   0   4  -1   14.23    0.41
   0   4  -1   14.09    0.26
   0   4   1   14.10    0.30
   0   4  -1   13.91    0.32
  -1  -4  -1   50.40    1.07
  -1  -4  -1   50.93    1.03
  -1  -4  -1   50.89    0.99
   1  -4   1   49.80    1.09
   1   4   1   50.66    0.97
  -1   4  -1   50.12    1.11
  -1   4  -1   50.36    1.11
   1   4   1   50.16    1.18
   1   4   1   52.14    0.98
  -1   4  -1   49.80    0.98
  -1   4  -1   50.23    1.07
   1   4   1   50.14    1.08
  -2  -4  -1   38.12    0.74
  -2  -4  -1   37.43    0.74
   2  -4   1   37.64    0.93
  -2  -4  -1   38.84    0.84
   2  -4   1   38.46    0.79
   2   4   1   38.24    0.74
   2   4   1   38.05    0.91
  -2   4  -1   36.80    0.84
  -2   4  -1   36.50    0.91
   2   4   1   36.34    0.99
  -3  -4  -1    0.44    0.05
   3  -4   1    0.50    0.07
   3  -4   1    0.34    0.11
  -3  -4  -1    0.46    0.09
   3   4   1    0.51    0.12
  -3   4  -1    0.55    0.12
   3   4   1    0.54    0.06
   3   4   1    0.28    0.13
   4  -4   1    0.91    0.17
  -4  -4  -1    0.67    0.12
  -4  -4  -1    0.87    0.07
   4  -4   1    0.88    0.10
   4   4   1    0.97    0.21
  -4   4  -1    1.12    0.18
  -4   4  -1    0.85    0.10
   4   4   1    0.79    0.16
  -5  -4  -1   12.81    0.33
   5  -4   1   13.78    0.60
   5  -4   1   12.48    0.37
  -5  -4  -1   12.71    0.47
  -5   4  -1   12.36    0.38
   5   4   1   12.59    0.56
   5   4   1   13.46    0.66
  -5   4  -1   12.57    0.54
  -6  -4  -1    5.56    0.34
   6  -4   1    5.95    0.42
   6   4   1    5.78    0.40
   6   4   1    6.34    0.53
  -6   4  -1    5.68    0.35
  -6   4  -1    6.69    0.42
  -7  -4  -1   38.54    1.10
   7  -4   1   40.24    1.30
   7   4   1   41.51    1.44
  -7   4  -1   38.47    1.21
   7   4   1   40.05    1.26
   8  -4   1    8.11    0.58
  -8  -4  -1    7.35    0.45
  -8   4  -1    6.89    0.50
   8   4   1    7.68    0.54
   8   4   1    8.39    0.69
   9   4   1    5.33    0.56
  -9  -5   1    1.15    0.24
   9  -5  -1    1.20    0.29
  -9   5   1    1.70    0.30
   9   5  -1    0.99    0.26
   8  -5  -1    0.10    0.16
  -8  -5   1    0.16    0.13
  -8   5   1    0.07    0.15
   8   5  -1    0.21    0.15
   8   5  -1    0.22    0.23
  -7  -5   1    8.98    0.34
  -7  -5   1    9.28    0.43
   7  -5  -1    9.14    0.52
  -7   5   1    9.27    0.40
  -7   5   1    9.28    0.49
   7   5  -1    9.09    0.48
   7   5  -1    9.92    0.62
   6  -5  -1   17.09    0.67
   6  -5  -1   15.94    0.50
  -6  -5   1   16.10    0.47
  -6  -5   1   16.07    0.55
   6   5  -1   15.54    0.60
  -6   5   1   16.52    0.62
   6   5  -1   15.88    0.75
  -6   5   1   16.04    0.53
   5  -5  -1    8.99    0.43
   5  -5  -1    8.12    0.32
   5  -5  -1    9.18    0.29
  -5  -5   1    8.65    0.30
  -5  -5   1    9.03    0.26
  -5  -5   1    9.05    0.36
  -5   5   1    8.80    0.41
  -5   5   1    9.06    0.36
   5   5  -1    9.23    0.40
   5   5  -1    8.82    0.52
   4  -5  -1   14.48    0.43
   4  -5  -1   13.14    0.49
   4  -5  -1   14.29    0.37
  -4  -5   1   13.82    0.43
  -4  -5   1   13.97    0.39
  -4   5   1   14.34    0.45
  -4   5   1   14.65    0.51
   4   5  -1   14.34    0.46
   4   5  -1   13.21    0.59
  -3  -5   1   11.65    0.33
  -3  -5   1   11.39    0.35
   3  -5  -1   11.89    0.40
   3  -5  -1   11.41    0.36
   3  -5  -1   11.89    0.33
  -3   5   1   11.80    0.38
  -3   5   1   12.27    0.43
   3   5  -1   11.57    0.51
   3   5  -1   11.89    0.35
   2  -5  -1   49.47    1.06
   2  -5  -1   49.33    1.05
   2  -5  -1   49.86    1.01
   2  -5  -1   50.99    1.06
  -2  -5   1   52.07    1.02
  -2  -5   1   50.10    1.01
  -2  -5   1   49.99    1.02
  -2   5   1   50.45    1.02
   2   5  -1   50.53    0.99
  -2   5   1   50.35    1.14
   2   5  -1   50.49    1.23
  -1  -5   1   54.81    1.07
   1  -5  -1   54.57    1.03
  -1  -5   1   54.13    1.01
  -1  -5   1   54.32    1.07
   1  -5  -1   54.05    1.18
   1   5  -1   52.75    1.19
  -1   5   1   54.56    1.08
   1   5  -1   55.26    1.25
   1   5  -1   54.00    1.06
  -1   5   1   54.17    1.17
  -1   5   1   53.88    1.20
  -1   5   1   55.02    1.05
   0  -5  -1    1.29    0.07
   0  -5  -1    1.31    0.10
   0  -5   1    1.34    0.10
   0  -5  -1    1.39    0.10
   0  -5   1    1.39    0.09
   0   5  -1    1.37    0.10
   0   5  -1    1.35    0.09
   0   5   1    1.38    0.16
   0   5  -1    1.37    0.15
   0   5   1    1.32    0.17
   0   5  -1    1.43    0.16
   0   5   1    1.46    0.07
  -1  -5  -1    3.94    0.18
  -1  -5  -1    3.78    0.15
  -1  -5  -1    3.69    0.18
   1  -5   1    3.73    0.20
  -1   5  -1    3.71    0.21
   1   5   1    3.61    0.19
  -1   5  -1    3.49    0.20
  -1   5  -1    3.58    0.23
   1   5   1    4.25    0.28
   1   5   1    3.33    0.13
   2  -5   1   12.71    0.35
   2  -5   1   13.02    0.45
  -2  -5  -1   12.56    0.38
  -2  -5  -1   12.94    0.31
   2   5   1   12.97    0.43
   2   5   1   13.03    0.54
  -2   5  -1   12.74    0.40
  -2   5  -1   12.78    0.45
  -3  -5  -1    6.27    0.17
  -3  -5  -1    6.05    0.19
   3  -5   1    5.69    0.32
   3  -5   1    6.39    0.23
  -3  -5  -1    5.99    0.27
  -3   5  -1    5.73    0.31
   3   5   1    5.50    0.38
   3   5   1    5.73    0.30
   4  -5   1   15.43    0.60
  -4  -5  -1   15.54    0.50
   4  -5   1   15.23    0.43
  -4  -5  -1   15.62    0.38
  -4   5  -1   15.75    0.58
  -4   5  -1   15.77    0.45
   4   5   1   16.83    0.72
   4   5   1   14.98    0.57
  -5  -5  -1  118.67    2.20
  -5  -5  -1  113.88    2.41
   5  -5   1  117.29    2.28
   5  -5   1  114.13    2.58
  -5   5  -1  117.24    2.29
  -5   5  -1  117.68    2.54
   5   5   1  114.71    2.54
   5   5   1  115.52    2.76
   6  -5   1    1.74    0.28
  -6  -5  -1    3.02    0.28
  -6   5  -1    2.72    0.21
  -6   5  -1    2.70    0.34
   6   5   1    2.66    0.32
   6   5   1    2.57    0.40
   7  -5   1    0.37    0.18
  -7  -5  -1    0.32    0.14
  -7   5  -1    0.31    0.17
   7   5   1    0.19    0.24
   7   5   1    0.02    0.13
   8  -5   1    3.99    0.46
  -8  -5  -1    3.37    0.37
   8   5   1    4.94    0.49
  -8   5  -1    4.30    0.48
   8   5   1    3.66    0.56
   9   5   1    1.94    0.36
   9  -6  -1   10.19    0.65
  -9  -6   1   10.51    0.56
   9   6  -1   10.98    0.62
  -9   6   1   11.27    0.64
  -8  -6   1    0.93    0.20
   8  -6  -1    0.89    0.24
   8   6  -1    0.94    0.29
   8   6  -1    0.77    0.21
  -8   6   1    0.78    0.23
   7  -6  -1   21.76    0.83
  -7  -6   1   21.50    0.72
  -7  -6   1   21.39    0.59
  -7   6   1   21.50    0.67
  -7   6   1   21.14    0.79
   7   6  -1   22.81    0.98
   7   6  -1   21.61    0.77
  -6  -6   1    0.74    0.11
   6  -6  -1    0.61    0.12
  -6  -6   1    0.67    0.14
   6  -6  -1    0.59    0.17
   6   6  -1    0.87    0.25
  -6   6   1    0.64    0.15
  -6   6   1    0.62    0.16
   6   6  -1    0.63    0.15
  -5  -6   1    1.94    0.15
   5  -6  -1    2.38    0.18
  -5  -6   1    1.82    0.19
   5  -6  -1    1.65    0.21
   5   6  -1    1.92    0.20
  -5   6   1    1.69    0.22
  -5   6   1    1.85    0.20
   5   6  -1    2.35    0.33
  -4  -6   1    3.79    0.21
   4  -6  -1    3.88    0.19
  -4  -6   1    3.90    0.18
   4  -6  -1    3.89    0.21
   4  -6  -1    3.74    0.25
   4   6  -1    3.52    0.21
  -4   6   1    3.88    0.23
  -4   6   1    3.11    0.24
   4   6  -1    2.89    0.33
  -3  -6   1   14.15    0.39
   3  -6  -1   14.52    0.44
   3  -6  -1   14.78    0.47
  -3  -6   1   14.51    0.42
   3  -6  -1   15.01    0.42
  -3   6   1   15.28    0.52
   3   6  -1   15.38    0.41
   3   6  -1   14.59    0.60
  -3   6   1   15.21    0.37
   2  -6  -1    4.04    0.19
   2  -6  -1    4.24    0.15
  -2  -6   1    4.04    0.16
   2  -6  -1    4.02    0.19
  -2  -6   1    3.92    0.18
  -2  -6   1    3.88    0.17
   2  -6  -1    4.47    0.23
   2   6  -1    4.20    0.30
   2   6  -1    4.32    0.27
  -2   6   1    4.03    0.26
  -2   6   1    3.87    0.19
   1  -6  -1   20.66    0.42
  -1  -6   1   20.20    0.47
  -1  -6   1   20.64    0.47
  -1  -6   1   20.38    0.41
   1  -6  -1   19.57    0.51
  -1  -6   1   20.42    0.40
   1   6  -1   18.74    0.62
  -1   6   1   20.90    0.61
  -1   6   1   19.88    0.58
  -1   6   1   19.71    0.47
  -1   6   1   21.10    0.44
   1   6  -1   20.13    0.60
   0  -6   1   39.13    0.79
   0  -6  -1   38.83    0.74
   0  -6  -1   37.34    0.81
   0  -6  -1   37.36    0.82
   0  -6   1   37.70    0.78
   0   6  -1   36.49    0.92
   0   6   1   38.13    0.74
   0   6   1   36.14    0.96
   0   6  -1   38.01    0.93
   0   6  -1   38.19    0.79
   0   6   1   37.91    0.96
   1  -6   1   79.72    1.47
  -1  -6  -1   82.13    1.57
  -1  -6  -1   81.96    1.58
  -1  -6  -1   81.47    1.62
   1  -6   1   80.02    1.63
   1   6   1   83.77    1.63
   1   6   1   77.85    1.83
  -1   6  -1   80.90    1.68
  -1   6  -1   81.45    1.73
  -1   6  -1   79.53    1.68
   2  -6   1    3.62    0.17
   2  -6   1    3.36    0.22
  -2  -6  -1    3.35    0.14
  -2  -6  -1    3.26    0.19
   2   6   1    3.25    0.20
  -2   6  -1    3.02    0.24
   2   6   1    2.91    0.31
  -2   6  -1    2.98    0.19
   3  -6   1   13.73    0.51
   3  -6   1   14.00    0.40
  -3  -6  -1   14.42    0.36
  -3  -6  -1   13.88    0.33
   3   6   1   13.93    0.49
   3   6   1   14.30    0.64
  -3   6  -1   14.51    0.53
  -4  -6  -1   18.96    0.45
   4  -6   1   18.29    0.50
  -4  -6  -1   18.34    0.57
   4  -6   1   18.60    0.67
   4   6   1   20.77    0.83
   4   6   1   18.95    0.64
  -4   6  -1   17.07    0.64
  -5  -6  -1   12.51    0.48
   5  -6   1   11.51    0.56
  -5  -6  -1   12.98    0.34
   5  -6   1   11.84    0.40
  -5   6  -1   12.57    0.42
   5   6   1   11.68    0.67
   5   6   1   12.56    0.55
  -5   6  -1   12.72    0.56
  -6  -6  -1    4.58    0.32
   6  -6   1    4.87    0.46
  -6   6  -1    4.90    0.27
   6   6   1    5.60    0.39
   6   6   1    4.93    0.55
  -6   6  -1    5.02    0.39
   7  -6   1    2.30    0.34
  -7  -6  -1    2.60    0.29
  -7   6  -1    3.06    0.38
   7   6   1    2.69    0.36
   7   6   1    3.55    0.53
  -8  -6  -1    2.31    0.31
   8  -6   1    2.11    0.34
   8   6   1    2.82    0.37
  -8   6  -1    2.86    0.40
   8   6   1    1.88    0.47
   9   6   1    0.02    0.19
   9  -7  -1    0.39    0.20
  -9  -7   1   -0.07    0.12
  -9   7   1    0.06    0.19
   9   7  -1    0.07    0.17
  -8  -7   1    7.43    0.44
   8  -7  -1    7.18    0.51
  -8   7   1    7.46    0.49
   8   7  -1    5.97    0.64
   8   7  -1    6.27    0.44
   7  -7  -1   11.70    0.60
  -7  -7   1   11.67    0.40
   7  -7  -1   11.65    0.54
  -7  -7   1   12.40    0.52
  -7   7   1   12.10    0.49
   7   7  -1   11.97    0.73
   7   7  -1   11.15    0.53
  -7   7   1   12.57    0.60
  -6  -7   1    3.30    0.20
   6  -7  -1    3.45    0.24
   6  -7  -1    2.64    0.30
  -6  -7   1    3.55    0.26
  -6   7   1    3.02    0.33
   6   7  -1    4.24    0.48
   6   7  -1    3.01    0.28
  -6   7   1    3.13    0.26
  -5  -7   1    4.70    0.27
   5  -7  -1    4.60    0.32
   5  -7  -1    4.63    0.26
  -5  -7   1    4.46    0.22
   5   7  -1    3.97    0.42
   5   7  -1    5.12    0.28
  -5   7   1    4.52    0.28
  -5   7   1    4.17    0.30
   4  -7  -1    6.71    0.28
  -4  -7   1    7.16    0.30
   4  -7  -1    5.73    0.31
   4  -7  -1    6.55    0.29
  -4  -7   1    6.91    0.26
  -4   7   1    6.75    0.37
  -4   7   1    7.16    0.32
   4   7  -1    6.85    0.47
   4   7  -1    6.61    0.28
  -3  -7   1    2.92    0.15
   3  -7  -1    2.59    0.17
  -3  -7   1    2.63    0.17
   3  -7  -1    2.53    0.15
   3  -7  -1    2.88    0.20
   3  -7  -1    2.75    0.19
  -3   7   1    2.75    0.15
   3   7  -1    1.90    0.28
  -3   7   1    2.30    0.25
   3   7  -1    2.68    0.14
  -2  -7   1   39.17    0.79
  -2  -7   1   37.98    0.83
  -2  -7   1   38.15    0.84
   2  -7  -1   37.81    0.78
   2  -7  -1   38.66    0.85
   2  -7  -1   37.34    0.87
   2   7  -1   37.99    1.08
   2   7  -1   37.20    1.00
  -2   7   1   39.67    0.89
  -2   7   1   37.40    0.99
  -1  -7   1    0.05    0.05
   1  -7  -1    0.07    0.03
  -1  -7   1    0.05    0.04
   1  -7  -1    0.05    0.05
  -1   7   1    0.08    0.10
   1   7  -1    0.17    0.13
  -1   7   1    0.03    0.09
  -1   7   1    0.06    0.04
  -1   7   1    0.08    0.04
   1   7  -1   -0.04    0.09
   0  -7  -1    8.25    0.29
   0  -7  -1    8.35    0.28
   0  -7   1    8.47    0.23
   0   7  -1    7.38    0.36
   0   7  -1    8.09    0.37
   0   7   1    9.09    0.41
   0   7  -1    8.29    0.24
   0   7   1    8.28    0.40
   0   7   1    8.05    0.21
   1  -7   1    0.63    0.10
  -1  -7  -1    0.83    0.10
  -1  -7  -1    0.71    0.10
   1   7   1    0.95    0.20
  -1   7  -1    0.83    0.16
  -1   7  -1    0.88    0.14
   1   7   1    0.74    0.10
   2  -7   1   59.92    1.26
  -2  -7  -1   60.22    1.30
   2  -7   1   60.42    1.34
  -2  -7  -1   59.50    1.21
   2   7   1   59.36    1.57
   2   7   1   60.75    1.30
  -2   7  -1   63.06    1.34
  -2   7  -1   60.73    1.43
  -3  -7  -1   15.15    0.38
   3  -7   1   15.36    0.55
   3  -7   1   15.30    0.45
  -3  -7  -1   15.44    0.49
  -3  -7  -1   15.09    0.39
   3   7   1   15.46    0.51
   3   7   1   15.50    0.71
  -3   7  -1   15.32    0.49
  -3   7  -1   14.57    0.56
  -4  -7  -1    3.23    0.24
  -4  -7  -1    3.62    0.13
  -4  -7  -1    3.70    0.17
   4  -7   1    3.89    0.30
   4  -7   1    3.58    0.20
  -4   7  -1    3.63    0.29
   4   7   1    3.45    0.26
   4   7   1    2.93    0.39
  -5  -7  -1    1.74    0.21
   5  -7   1    1.42    0.16
   5  -7   1    1.45    0.23
  -5  -7  -1    1.66    0.12
   5   7   1    1.48    0.22
  -5   7  -1    1.62    0.25
   5   7   1    1.62    0.33
  -5   7  -1    1.57    0.18
   6  -7   1    7.09    0.48
  -6  -7  -1    7.33    0.40
   6  -7   1    7.45    0.33
  -6   7  -1    8.14    0.49
   6   7   1    7.42    0.71
   6   7   1    7.39    0.44
  -6   7  -1    7.20    0.34
   7  -7   1    0.24    0.17
  -7  -7  -1    0.48    0.17
   7   7   1    0.08    0.14
  -7   7  -1    0.13    0.15
   7   7   1    0.25    0.27
   8  -7   1    0.28    0.19
  -8  -7  -1    0.13    0.14
   8   7   1    0.02    0.30
  -8   7  -1    0.33    0.19
   8   7   1    0.05    0.16
   9   7   1    0.03    0.20
   9  -8  -1    1.30    0.36
  -9  -8   1    1.12    0.25
  -9   8   1    1.30    0.28
  -8  -8   1    1.21    0.23
   8  -8  -1    1.45    0.28
   8   8  -1    1.03    0.22
  -8   8   1    1.68    0.30
   8   8  -1    1.56    0.40
  -7  -8   1    4.02    0.31
   7  -8  -1    4.17    0.42
  -7  -8   1    4.02    0.23
   7  -8  -1    3.94    0.28
   7   8  -1    3.23    0.48
  -7   8   1    3.94    0.31
   7   8  -1    3.62    0.34
  -7   8   1    3.39    0.37
  -6  -8   1    0.46    0.14
   6  -8  -1    0.83    0.19
  -6  -8   1    0.66    0.11
   6  -8  -1    0.56    0.13
   6   8  -1    0.69    0.24
   6   8  -1    1.16    0.18
  -6   8   1    0.82    0.17
  -6   8   1    0.38    0.15
  -5  -8   1    3.83    0.25
  -5  -8   1    2.90    0.19
   5  -8  -1    2.58    0.27
   5  -8  -1    3.37    0.23
   5   8  -1    3.34    0.41
   5   8  -1    3.40    0.23
  -5   8   1    3.44    0.33
  -5   8   1    3.28    0.26
   4  -8  -1   11.30    0.41
  -4  -8   1   11.21    0.36
   4  -8  -1   11.58    0.45
  -4  -8   1   11.35    0.41
  -4   8   1   11.04    0.49
   4   8  -1   11.25    0.61
   4   8  -1   11.22    0.37
  -3  -8   1   11.35    0.38
   3  -8  -1   11.23    0.40
   3  -8  -1   11.30    0.40
  -3  -8   1   11.94    0.36
   3  -8  -1   11.60    0.33
   3   8  -1   11.86    0.32
   3   8  -1   11.26    0.58
  -3   8   1   11.72    0.50
  -3   8   1   11.97    0.37
  -2  -8   1    6.05    0.25
  -2  -8   1    6.28    0.20
   2  -8  -1    6.79    0.19
   2  -8  -1    6.04    0.27
  -2  -8   1    6.58    0.24
  -2   8   1    7.09    0.37
   2   8  -1    5.66    0.39
   2   8  -1    5.90    0.36
  -2   8   1    6.37    0.30
  -1  -8   1   -0.01    0.05
  -1  -8   1   -0.01    0.04
   1  -8  -1    0.01    0.02
   1  -8  -1    0.03    0.05
   1   8  -1    0.02    0.09
  -1   8   1   -0.01    0.04
  -1   8   1    0.09    0.11
  -1   8   1    0.01    0.09
   1   8  -1   -0.12    0.10
  -1   8   1   -0.02    0.03
   0  -8  -1    8.47    0.31
   0  -8  -1    8.42    0.30
   0  -8   1    8.64    0.23
   0   8  -1    8.43    0.41
   0   8   1    9.20    0.43
   0   8  -1    8.61    0.41
   0   8  -1    8.95    0.25
   0   8   1    9.16    0.25
   0   8   1    9.30    0.45
  -1  -8  -1    0.48    0.08
  -1  -8  -1    0.77    0.11
   1  -8   1    0.61    0.09
   1  -8   1    0.56    0.09
   1   8   1    0.31    0.15
   1   8   1    0.55    0.15
   1   8   1    0.48    0.08
  -1   8  -1    0.50    0.13
  -1   8  -1    0.83    0.17
  -2  -8  -1   17.00    0.44
   2  -8   1   16.56    0.52
   2  -8   1   17.36    0.49
  -2  -8  -1   16.27    0.50
  -2   8  -1   17.80    0.55
   2   8   1   15.66    0.70
   2   8   1   17.29    0.49
  -2   8  -1   17.62    0.63
   3  -8   1   17.87    0.52
   3  -8   1   17.64    0.60
  -3  -8  -1   17.90    0.56
  -3  -8  -1   18.82    0.46
  -3   8  -1   17.98    0.56
   3   8   1   20.18    0.83
  -3   8  -1   16.76    0.65
   3   8   1   20.01    0.58
  -4  -8  -1   73.46    1.49
   4  -8   1   74.02    1.76
  -4  -8  -1   75.50    1.66
   4  -8   1   74.68    1.58
  -4  -8  -1   75.10    1.45
  -4   8  -1   73.99    1.79
   4   8   1   74.86    2.04
   4   8   1   77.00    1.69
  -5  -8  -1   11.94    0.50
   5  -8   1   12.03    0.43
   5  -8   1   11.47    0.56
  -5  -8  -1   12.37    0.36
  -5   8  -1   11.39    0.44
   5   8   1   12.30    0.74
  -5   8  -1   12.47    0.58
   5   8   1   13.13    0.54
   6  -8   1   19.07    0.79
   6  -8   1   17.82    0.57
  -6  -8  -1   17.96    0.67
   6   8   1   19.08    0.72
   6   8   1   16.80    0.94
  -6   8  -1   19.63    0.79
  -6   8  -1   17.97    0.59
   7  -8   1    2.60    0.36
  -7  -8  -1    2.83    0.32
   7   8   1    3.94    0.58
   7   8   1    3.76    0.40
  -7   8  -1    2.93    0.38
   8  -8   1    0.02    0.17
  -8  -8  -1   -0.11    0.14
   8   8   1    0.41    0.30
  -8   8  -1   -0.06    0.18
   8   8   1    0.19    0.18
  -9  -9   1    0.20    0.19
  -9   9   1    0.35    0.23
  -8  -9   1    0.52    0.18
   8  -9  -1    0.67    0.23
   8   9  -1    0.78    0.34
  -8   9   1    0.49    0.19
  -7  -9   1    1.04    0.15
  -7  -9   1    1.48    0.23
   7  -9  -1    1.34    0.20
   7  -9  -1    1.04    0.22
  -7   9   1    1.37    0.27
   7   9  -1    0.86    0.18
  -7   9   1    1.31    0.21
   7   9  -1    1.49    0.37
  -6  -9   1   49.32    1.12
   6  -9  -1   51.01    1.36
  -6  -9   1   49.39    1.26
   6  -9  -1   49.69    1.23
   6   9  -1   48.41    1.60
  -6   9   1   50.77    1.27
   6   9  -1   51.75    1.24
  -6   9   1   49.15    1.38
   5  -9  -1    6.69    0.38
  -5  -9   1    7.65    0.30
  -5  -9   1    6.61    0.34
  -5  -9   1    6.77    0.24
   5  -9  -1    6.57    0.33
  -5   9   1    6.65    0.37
   5   9  -1    7.44    0.55
   5   9  -1    6.97    0.32
  -5   9   1    7.60    0.44
  -4  -9   1    1.33    0.16
   4  -9  -1    1.15    0.13
   4  -9  -1    1.21    0.17
   4  -9  -1    1.19    0.16
  -4  -9   1    1.19    0.13
  -4   9   1    1.43    0.23
   4   9  -1    0.91    0.26
   4   9  -1    1.07    0.12
  -4   9   1    1.50    0.14
  -3  -9   1   22.19    0.57
  -3  -9   1   21.53    0.59
   3  -9  -1   21.32    0.60
   3  -9  -1   22.03    0.63
   3  -9  -1   21.17    0.51
  -3  -9   1   22.24    0.57
  -3   9   1   21.33    0.58
   3   9  -1   20.66    0.83
  -3   9   1   21.09    0.74
   3   9  -1   21.68    0.76
  -2  -9   1    0.31    0.08
   2  -9  -1    0.28    0.08
  -2  -9   1    0.41    0.08
   2  -9  -1    0.33    0.05
  -2   9   1    0.29    0.10
   2   9  -1    0.22    0.15
  -2   9   1    0.11    0.11
   2   9  -1    0.37    0.14
   1  -9  -1    0.37    0.04
  -1  -9   1    0.29    0.07
  -1  -9   1    0.37    0.08
   1  -9  -1    0.31    0.09
  -1   9   1    0.27    0.05
  -1   9   1   -0.02    0.12
  -1   9   1    0.30    0.06
   1   9  -1    0.23    0.13
   1   9  -1    0.25    0.12
  -1   9   1    0.35    0.12
   0  -9   1    0.20    0.04
   0  -9  -1    0.29    0.09
   0  -9  -1    0.21    0.07
   0   9   1    0.21    0.04
   0   9  -1    0.16    0.13
   0   9   1    0.15    0.12
   0   9  -1    0.14    0.11
   0   9  -1    0.18    0.05
   0   9   1    0.10    0.12
   0   9   1    0.18    0.06
  -1  -9  -1    3.70    0.21
  -1  -9  -1    3.78    0.19
   1  -9   1    3.13    0.19
   1  -9   1    3.77    0.18
   1   9   1    3.16    0.35
  -1   9  -1    3.66    0.29
  -1   9  -1    3.79    0.26
   1   9   1    3.69    0.18
   1   9   1    3.75    0.36
   2  -9   1   20.03    0.55
  -2  -9  -1   19.94    0.51
   2  -9   1   19.17    0.57
  -2  -9  -1   19.26    0.57
  -2   9  -1   18.65    0.68
   2   9   1   20.41    0.82
  -2   9  -1   18.41    0.60
   2   9   1   19.81    0.53
   3  -9   1   16.25    0.56
  -3  -9  -1   14.46    0.51
   3  -9   1   16.31    0.50
  -3  -9  -1   15.92    0.43
  -3   9  -1   16.81    0.54
   3   9   1   15.84    0.77
  -3   9  -1   14.41    0.62
   3   9   1   16.18    0.51
   4  -9   1   -0.01    0.10
  -4  -9  -1    0.30    0.10
   4  -9   1    0.16    0.08
  -4  -9  -1    0.28    0.06
  -4   9  -1    0.15    0.14
   4   9   1    0.14    0.19
   4   9   1    0.19    0.10
  -5  -9  -1   22.61    0.75
   5  -9   1   24.43    0.85
   5  -9   1   24.14    0.69
   5   9   1   24.42    1.09
  -5   9  -1   23.67    0.70
   5   9   1   23.73    0.77
  -5   9  -1   23.97    0.88
   6  -9   1    1.00    0.17
   6  -9   1    0.66    0.20
  -6  -9  -1    0.97    0.19
   6   9   1    0.55    0.17
   6   9   1    0.77    0.33
  -6   9  -1    0.83    0.23
  -6   9  -1    0.36    0.13
  -7  -9  -1    0.51    0.18
   7  -9   1    0.54    0.22
  -7   9  -1    0.82    0.23
   7   9   1    0.36    0.27
   7   9   1    0.09    0.14
   8  -9   1    1.57    0.34
  -8  -9  -1    1.42    0.26
  -8   9  -1    2.07    0.37
   8   9   1    2.22    0.51
  -9  10   1    0.48    0.23
  -8 -10   1   10.92    0.56
   8 -10  -1   11.69    0.65
   8  10  -1   12.17    0.85
  -8  10   1   10.88    0.64
  -7 -10   1   10.07    0.39
   7 -10  -1   11.15    0.58
   7 -10  -1   10.00    0.47
  -7 -10   1   11.38    0.52
  -7  10   1   11.39    0.52
   7  10  -1   10.02    0.73
  -7  10   1    8.99    0.55
   6 -10  -1   30.49    0.97
  -6 -10   1   30.68    0.79
  -6 -10   1   30.24    0.89
   6 -10  -1   29.61    0.88
  -6  10   1   30.14    1.02
   6  10  -1   30.84    0.85
   6  10  -1   32.40    1.27
  -6  10   1   30.86    0.92
  -5 -10   1    6.76    0.30
   5 -10  -1    6.54    0.38
   5 -10  -1    7.07    0.31
   5 -10  -1    6.88    0.35
  -5 -10   1    6.85    0.26
  -5 -10   1    6.99    0.35
  -5  10   1    7.20    0.39
   5  10  -1    6.20    0.29
   5  10  -1    6.36    0.53
  -5  10   1    6.20    0.43
  -4 -10   1    2.28    0.21
   4 -10  -1    2.70    0.16
   4 -10  -1    3.03    0.23
  -4 -10   1    2.41    0.17
   4 -10  -1    2.62    0.25
   4  10  -1    2.55    0.16
  -4  10   1    2.61    0.18
   4  10  -1    3.04    0.40
  -4  10   1    2.66    0.32
  -3 -10   1    9.12    0.33
   3 -10  -1    8.85    0.37
   3 -10  -1    9.12    0.35
  -3 -10   1    8.91    0.35
  -3 -10   1    9.49    0.32
   3 -10  -1    9.19    0.27
   3  10  -1    9.34    0.57
  -3  10   1    9.18    0.36
   3  10  -1    9.18    0.50
  -3  10   1    8.80    0.47
  -2 -10   1   17.84    0.51
  -2 -10   1   17.92    0.50
   2 -10  -1   17.62    0.40
   2 -10  -1   18.32    0.56
   2  10  -1   18.61    0.76
   2  10  -1   18.15    0.70
  -2  10   1   17.71    0.60
  -2  10   1   17.31    0.67
  -1 -10   1    1.00    0.12
   1 -10  -1    1.02    0.14
   1 -10  -1    0.91    0.06
  -1  10   1    0.88    0.18
   1  10  -1    0.92    0.20
  -1  10   1    1.06    0.21
  -1  10   1    0.97    0.08
   1  10  -1    0.99    0.20
   0 -10  -1   16.01    0.49
   0 -10  -1   15.43    0.48
   0 -10   1   15.78    0.33
   0  10   1   15.47    0.64
   0  10  -1   14.95    0.61
   0  10   1   15.55    0.36
   0  10  -1   16.80    0.64
   0  10   1   15.48    0.66
   0  10   1   16.35    0.40
   1 -10   1   85.53    1.76
  -1 -10  -1   84.56    1.74
  -1 -10  -1   85.87    1.78
   1 -10   1   85.06    1.68
   1  10   1   84.50    2.09
   1  10   1   83.38    1.65
   1  10   1   87.38    2.04
  -1  10  -1   84.46    1.91
  -1  10  -1   85.19    1.98
  -2 -10  -1   38.40    0.95
   2 -10   1   38.41    0.73
   2 -10   1   38.01    0.92
  -2 -10  -1   36.77    0.87
   2 -10   1   37.52    0.92
   2  10   1   38.99    0.85
   2  10   1   37.47    1.15
   2  10   1   40.66    1.28
  -2  10  -1   38.17    1.00
  -2  10  -1   37.55    1.10
  -3 -10  -1    0.91    0.15
  -3 -10  -1    0.95    0.11
   3 -10   1    0.95    0.16
   3 -10   1    0.91    0.14
  -3  10  -1    0.89    0.20
   3  10   1    1.20    0.29
  -3  10  -1    0.95    0.16
   3  10   1    0.99    0.13
   4 -10   1    0.68    0.17
  -4 -10  -1    0.84    0.10
   4 -10   1    0.99    0.15
  -4 -10  -1    0.66    0.15
   4  10   1    0.95    0.16
   4  10   1    0.72    0.27
  -4  10  -1    1.13    0.23
   5 -10   1    8.63    0.48
   5 -10   1    8.60    0.38
  -5 -10  -1    8.13    0.42
   5  10   1    8.77    0.42
  -5  10  -1    8.52    0.51
   5  10   1    9.92    0.71
   6 -10   1   14.92    0.55
  -6 -10  -1   15.00    0.62
   6 -10   1   16.49    0.72
  -6  10  -1   15.04    0.56
  -6  10  -1   14.91    0.71
   6  10   1   14.26    0.61
   6  10   1   15.30    0.94
  -7 -10  -1    0.27    0.15
   7 -10   1    0.03    0.16
  -7  10  -1    0.20    0.18
   7  10   1    0.38    0.31
   8 -10   1    2.65    0.40
  -8  10  -1    2.54    0.40
   8  10   1    3.39    0.60
   8 -11  -1    1.80    0.31
  -8 -11   1    1.73    0.28
   8  11  -1    2.56    0.53
  -8  11   1    2.29    0.38
   7 -11  -1    0.39    0.15
  -7 -11   1    0.40    0.11
  -7 -11   1    0.38    0.16
   7 -11  -1    0.29    0.16
  -7  11   1    0.15    0.15
  -7  11   1    0.46    0.18
   7  11  -1    0.50    0.30
  -6 -11   1    4.60    0.32
   6 -11  -1    4.56    0.31
  -6 -11   1    4.73    0.26
   6 -11  -1    4.34    0.27
   6 -11  -1    4.35    0.35
   6  11  -1    4.11    0.54
  -6  11   1    4.52    0.44
  -6  11   1    4.68    0.36
  -5 -11   1    1.98    0.15
   5 -11  -1    1.84    0.18
  -5 -11   1    2.09    0.19
  -5 -11   1    2.23    0.24
   5 -11  -1    2.07    0.25
   5 -11  -1    1.95    0.24
   5  11  -1    2.28    0.41
  -5  11   1    1.57    0.28
  -5  11   1    1.88    0.24
  -4 -11   1    4.10    0.26
  -4 -11   1    3.97    0.21
   4 -11  -1    3.94    0.27
   4 -11  -1    3.85    0.19
   4 -11  -1    3.65    0.25
  -4 -11   1    3.61    0.21
  -4  11   1    4.01    0.23
   4  11  -1    4.03    0.42
  -4  11   1    4.08    0.41
   4  11  -1    4.67    0.51
   3 -11  -1    0.19    0.07
  -3 -11   1    0.16    0.08
  -3 -11   1    0.10    0.08
  -3 -11   1    0.23    0.08
   3 -11  -1    0.14    0.05
   3 -11  -1    0.19    0.10
   3  11  -1    0.27    0.19
  -3  11   1    0.16    0.13
   3  11  -1    0.17    0.18
  -3  11   1    0.21    0.10
   2 -11  -1    7.79    0.21
   2 -11  -1    8.17    0.35
  -2 -11   1    7.93    0.31
  -2 -11   1    7.94    0.32
  -2 -11   1    7.61    0.31
   2  11  -1    8.47    0.49
   2  11  -1    8.36    0.53
  -2  11   1    8.36    0.41
   1 -11  -1   -0.06    0.06
  -1 -11   1   -0.07    0.05
  -1 -11   1    0.08    0.06
   1 -11  -1    0.01    0.03
   1  11  -1   -0.17    0.12
   1  11  -1   -0.11    0.11
  -1  11   1    0.22    0.14
  -1  11   1   -0.01    0.04
  -1  11   1   -0.09    0.10
   1  11  -1    0.01    0.02
   0 -11  -1    1.06    0.14
   0 -11  -1    1.44    0.17
   0 -11   1    1.16    0.14
   0  11   1    0.95    0.24
   0  11   1    1.19    0.24
   0  11   1    1.06    0.08
   0  11   1    1.20    0.11
   0  11  -1    1.23    0.22
   0  11  -1    0.90    0.21
   1 -11   1   12.43    0.35
  -1 -11  -1   12.37    0.42
  -1 -11  -1   12.66    0.44
   1 -11   1   12.19    0.43
  -1  11  -1   11.75    0.52
   1  11   1   12.36    0.61
  -1  11  -1   11.83    0.57
   1  11   1   12.42    0.64
   1  11   1   12.32    0.31
   2 -11   1    0.28    0.10
  -2 -11  -1    0.31    0.08
  -2 -11  -1    0.26    0.10
   2 -11   1    0.30    0.08
  -2  11  -1    0.27    0.15
   2  11   1    0.27    0.07
   2  11   1    0.31    0.20
   2  11   1    0.32    0.18
  -2  11  -1    0.24    0.11
  -3 -11  -1   29.68    0.82
   3 -11   1   28.44    0.82
   3 -11   1   30.51    0.81
  -3 -11  -1   29.39    0.72
   3 -11   1   29.78    0.63
   3  11   1   29.18    1.14
   3  11   1   28.93    0.73
  -3  11  -1   27.97    0.97
  -3  11  -1   29.02    0.84
   4 -11   1    0.05    0.09
  -4 -11  -1    0.06    0.06
  -4 -11  -1    0.08    0.09
   4 -11   1    0.04    0.08
  -4  11  -1    0.15    0.16
  -4  11  -1    0.18    0.11
   4  11   1    0.06    0.09
   4  11   1   -0.16    0.19
   5 -11   1    2.94    0.28
  -5 -11  -1    1.94    0.25
   5 -11   1    1.62    0.26
   5  11   1    2.36    0.44
  -5  11  -1    2.26    0.33
   6 -11   1    3.61    0.40
  -6 -11  -1    3.53    0.34
   6 -11   1    3.34    0.27
  -6  11  -1    3.53    0.32
   6  11   1    3.95    0.57
  -6  11  -1    4.14    0.46
  -7 -11  -1    0.05    0.13
   7 -11   1   -0.09    0.15
  -7  11  -1    0.28    0.22
   7  11   1    0.38    0.29
   8 -11   1    7.93    0.76
   8  11   1    5.93    0.78
   8 -12  -1   12.87    0.68
  -8 -12   1   10.93    0.57
   8  12  -1   11.15    0.89
  -8  12   1   11.52    0.68
   7 -12  -1    0.26    0.16
  -7 -12   1    0.45    0.15
   7 -12  -1    0.33    0.14
  -7  12   1    0.25    0.19
   7  12  -1    0.17    0.25
  -7  12   1    0.25    0.18
   6 -12  -1    0.30    0.13
   6 -12  -1   -0.04    0.11
  -6 -12   1    0.22    0.10
  -6 -12   1    0.26    0.13
  -6  12   1    0.05    0.14
   6  12  -1    0.08    0.25
  -6  12   1    0.42    0.20
   5 -12  -1    6.77    0.39
  -5 -12   1    7.17    0.37
   5 -12  -1    7.81    0.40
  -5 -12   1    6.97    0.32
   5  12  -1    6.05    0.63
   5  12  -1    6.65    0.51
  -5  12   1    6.77    0.47
   4 -12  -1   19.62    0.67
  -4 -12   1   21.84    0.65
   4 -12  -1   19.63    0.63
  -4 -12   1   19.86    0.57
  -4 -12   1   20.61    0.60
   4 -12  -1   19.75    0.50
   4  12  -1   21.26    0.98
  -4  12   1   19.80    0.60
   4  12  -1   21.14    0.88
  -4  12   1   20.60    0.82
   3 -12  -1   48.05    1.20
  -3 -12   1   48.80    1.12
  -3 -12   1   48.05    1.11
  -3 -12   1   48.39    1.15
   3 -12  -1   49.02    0.98
  -3  12   1   50.86    1.41
   3  12  -1   47.95    1.52
  -3  12   1   49.01    1.20
   3  12  -1   49.47    1.44
   2 -12  -1   15.13    0.53
  -2 -12   1   15.16    0.49
  -2 -12   1   15.07    0.48
   2 -12  -1   15.08    0.34
  -2  12   1   14.76    0.67
   2  12  -1   15.58    0.73
  -2  12   1   15.24    0.60
  -1 -12   1    5.05    0.27
   1 -12  -1    5.05    0.29
  -1 -12   1    5.28    0.26
   1  12  -1    5.79    0.43
  -1  12   1    6.16    0.43
  -1  12   1    5.49    0.39
   1  12  -1    5.30    0.42
   1  12  -1    5.59    0.18
   0 -12  -1   24.39    0.69
   0 -12   1   24.88    0.69
   0 -12  -1   23.84    0.69
   0  12   1   25.32    0.91
   0  12   1   23.76    0.55
   0  12  -1   24.84    0.88
   0  12  -1   25.32    0.88
   0  12   1   25.02    0.92
   0  12   1   24.84    0.53
  -1 -12  -1    0.35    0.11
   1 -12   1    0.17    0.06
   1 -12   1    0.09    0.08
  -1 -12  -1    0.30    0.09
   1  12   1    0.19    0.17
   1  12   1    0.37    0.18
  -1  12  -1    0.07    0.13
  -1  12  -1    0.29    0.16
  -2 -12  -1    2.79    0.19
  -2 -12  -1    2.64    0.24
   2 -12   1    2.77    0.19
   2 -12   1    2.54    0.24
   2  12   1    2.54    0.39
   2  12   1    2.20    0.34
  -2  12  -1    2.02    0.25
  -2  12  -1    2.11    0.30
   3 -12   1    2.34    0.23
   3 -12   1    2.91    0.23
  -3 -12  -1    3.10    0.20
  -3 -12  -1    2.28    0.24
   3  12   1    3.44    0.43
   3  12   1    2.77    0.44
  -3  12  -1    2.77    0.28
  -3  12  -1    2.33    0.32
   4 -12   1    3.80    0.27
   4 -12   1    3.87    0.30
  -4 -12  -1    3.88    0.29
   4  12   1    4.45    0.55
  -4  12  -1    3.00    0.39
  -4  12  -1    3.70    0.29
   5 -12   1    7.57    0.39
   5 -12   1    7.94    0.46
  -5 -12  -1    7.99    0.43
  -5  12  -1    8.22    0.54
   5  12   1    6.64    0.70
   6 -12   1    1.68    0.29
   6 -12   1    2.63    0.29
  -6 -12  -1    2.38    0.30
  -6  12  -1    1.98    0.26
   6  12   1    1.73    0.41
  -6  12  -1    2.23    0.36
   7 -12   1    1.73    0.32
  -7 -12  -1    1.39    0.26
  -7  12  -1    1.96    0.36
   7  12   1    0.91    0.37
  -8 -13   1    4.38    0.42
   8 -13  -1    4.93    0.50
   8  13  -1    4.33    0.68
  -8  13   1    3.74    0.47
   7 -13  -1   28.16    0.99
   7 -13  -1   28.15    0.93
  -7 -13   1   28.52    0.94
   7  13  -1   28.65    1.33
  -7  13   1   28.22    1.08
  -7  13   1   28.11    0.96
   6 -13  -1    0.56    0.17
  -6 -13   1    0.47    0.15
   6 -13  -1    0.48    0.17
  -6 -13   1    0.39    0.12
   6  13  -1    0.25    0.27
  -6  13   1    0.41    0.19
  -6  13   1    0.26    0.17
  -5 -13   1    0.00    0.07
   5 -13  -1    0.18    0.11
  -5 -13   1   -0.01    0.10
   5 -13  -1   -0.02    0.09
   5  13  -1    0.01    0.24
   5  13  -1   -0.07    0.19
  -5  13   1   -0.15    0.12
   4 -13  -1    1.24    0.17
  -4 -13   1    1.39    0.19
   4 -13  -1    2.08    0.25
  -4 -13   1    1.34    0.17
  -4 -13   1    1.58    0.17
  -4  13   1    1.44    0.29
   4  13  -1    1.39    0.32
   4  13  -1    1.36    0.33
  -3 -13   1    0.14    0.09
  -3 -13   1    0.55    0.12
  -3 -13   1    0.33    0.10
   3 -13  -1    0.32    0.13
  -3  13   1    0.42    0.14
   3  13  -1    0.46    0.20
   3  13  -1    0.45    0.23
  -3  13   1    0.30    0.17
  -2 -13   1   23.26    0.68
  -2 -13   1   25.06    0.70
   2 -13  -1   23.89    0.74
  -2  13   1   26.57    0.85
  -2  13   1   24.35    0.93
   2  13  -1   24.22    0.94
   2  13  -1   24.61    0.99
  -1 -13   1    0.01    0.07
   1 -13  -1   -0.04    0.08
  -1 -13   1    0.09    0.08
  -1  13   1   -0.05    0.14
  -1  13   1   -0.17    0.13
   1  13  -1    0.22    0.18
   1  13  -1    0.07    0.16
   0 -13   1    3.29    0.23
   0 -13  -1    3.62    0.25
   0 -13  -1    3.91    0.25
   0  13  -1    3.61    0.38
   0  13  -1    4.17    0.43
   0  13   1    3.93    0.42
   0  13   1    2.86    0.37
  -1 -13  -1   38.34    0.97
  -1 -13  -1   38.82    1.00
   1 -13   1   39.14    0.82
   1 -13   1   39.55    1.00
   1  13   1   38.11    1.30
   1  13   1   39.71    1.27
  -1  13  -1   38.31    1.21
  -1  13  -1   37.79    1.14
  -2 -13  -1    0.21    0.11
   2 -13   1    0.19    0.07
  -2 -13  -1    0.15    0.09
   2 -13   1    0.09    0.09
   2  13   1   -0.03    0.17
  -2  13  -1    0.04    0.12
  -2  13  -1    0.40    0.18
   2  13   1    0.01    0.17
   3 -13   1   13.29    0.51
  -3 -13  -1   13.15    0.45
  -3 -13  -1   12.95    0.52
   3 -13   1   13.49    0.49
  -3  13  -1   12.99    0.55
  -3  13  -1   12.36    0.65
   3  13   1   12.86    0.78
   3  13   1   14.12    0.74
   4 -13   1   21.69    0.70
  -4 -13  -1   19.68    0.70
   4 -13   1   20.30    0.71
   4  13   1   22.31    1.07
  -4  13  -1   20.92    0.87
  -4  13  -1   20.44    0.70
   5 -13   1    6.96    0.43
   5 -13   1    6.43    0.38
  -5 -13  -1    7.62    0.43
   5  13   1    6.99    0.76
  -5  13  -1    7.20    0.52
   6 -13   1    0.63    0.17
  -6 -13  -1    0.57    0.18
   6 -13   1    0.41    0.17
  -6  13  -1    0.40    0.17
  -6  13  -1    0.69    0.24
   6  13   1   -0.32    0.23
  -7 -13  -1    0.07    0.15
   7 -13   1    0.39    0.21
   7  13   1    1.22    0.44
  -7  13  -1    0.61    0.26
   8 -14  -1   -0.26    0.14
   7 -14  -1    0.23    0.17
  -7 -14   1    0.35    0.16
   7 -14  -1    0.09    0.14
  -7  14   1   -0.02    0.18
   7  14  -1   -0.17    0.25
   7  14  -1    0.20    0.32
  -7  14   1    0.33    0.22
  -6 -14   1    1.50    0.23
   6 -14  -1    1.30    0.23
   6 -14  -1    1.07    0.22
  -6 -14   1    1.17    0.18
   6  14  -1    1.67    0.39
  -6  14   1    1.08    0.30
   6  14  -1    2.26    0.47
  -6  14   1    1.11    0.24
   5 -14  -1   -0.05    0.10
  -5 -14   1    0.07    0.09
  -5 -14   1    0.08    0.10
   5 -14  -1   -0.02    0.10
   5  14  -1    0.23    0.23
   5  14  -1    0.13    0.22
  -5  14   1   -0.11    0.13
  -4 -14   1    1.32    0.16
  -4 -14   1    1.49    0.20
   4 -14  -1    1.52    0.23
   4  14  -1    1.89    0.36
  -4  14   1    1.36    0.28
   4  14  -1    1.48    0.36
   3 -14  -1    1.13    0.19
  -3 -14   1    0.63    0.14
  -3 -14   1    1.11    0.16
  -3  14   1    1.04    0.20
   3  14  -1    0.74    0.27
   3  14  -1    0.96    0.26
  -3  14   1    1.36    0.29
  -2 -14   1    7.96    0.35
  -2 -14   1    7.71    0.36
   2 -14  -1    7.73    0.39
  -2  14   1    7.65    0.52
   2  14  -1    7.46    0.52
  -2  14   1    8.40    0.47
   2  14  -1    7.16    0.55
  -1 -14   1   11.64    0.45
   1 -14  -1   13.06    0.50
  -1 -14   1   12.35    0.46
   1  14  -1   12.44    0.67
   1  14  -1   12.71    0.67
  -1  14   1   11.46    0.64
  -1  14   1   12.09    0.62
   0 -14  -1    7.86    0.38
   0 -14  -1    8.67    0.40
   0 -14   1    9.00    0.39
   0  14   1    8.50    0.58
   0  14  -1    9.17    0.56
   0  14  -1    9.61    0.57
   0  14   1    9.16    0.57
   1 -14   1    0.32    0.12
  -1 -14  -1    0.63    0.14
  -1 -14  -1    0.37    0.11
  -1  14  -1    0.69    0.21
   1  14   1    0.67    0.25
   1  14   1    0.59    0.25
  -1  14  -1    0.15    0.21
  -2 -14  -1   22.12    0.71
  -2 -14  -1   22.51    0.67
   2 -14   1   22.50    0.72
   2  14   1   22.97    0.98
  -2  14  -1   23.83    0.82
   2  14   1   22.71    1.02
  -2  14  -1   21.98    0.91
  -3 -14  -1    2.68    0.22
   3 -14   1    2.86    0.23
  -3 -14  -1    2.87    0.29
   3 -14   1    2.60    0.27
  -3  14  -1    3.55    0.43
  -3  14  -1    3.41    0.33
   3  14   1    3.45    0.50
   3  14   1    2.76    0.42
   4 -14   1    0.01    0.10
   4 -14   1   -0.04    0.09
  -4 -14  -1    0.00    0.10
  -4  14  -1    0.23    0.18
   4  14   1   -0.17    0.22
   4  14   1    0.04    0.19
  -4  14  -1    0.21    0.12
   5 -14   1    5.92    0.37
  -5 -14  -1    5.71    0.39
   5 -14   1    5.55    0.39
  -5  14  -1    5.32    0.54
   5  14   1    5.76    0.68
   6 -14   1    0.34    0.18
   6 -14   1    0.33    0.14
  -6 -14  -1    0.12    0.14
  -6  14  -1    0.12    0.22
   6  14   1   -0.10    0.26
  -6  14  -1    0.18    0.17
   7 -14   1    0.27    0.20
   7 -15  -1   26.57    0.94
   7 -15  -1   27.03    0.97
  -7 -15   1   27.79    0.95
   7  15  -1   26.55    1.23
  -7  15   1   28.24    1.13
  -7  15   1   26.73    0.97
   7  15  -1   27.15    1.38
  -6 -15   1    1.89    0.27
   6 -15  -1    1.54    0.25
   6 -15  -1    1.72    0.27
   6  15  -1    1.85    0.44
   6  15  -1    0.74    0.32
  -6  15   1    1.51    0.31
  -6  15   1    1.41    0.27
   5 -15  -1    6.27    0.40
  -5 -15   1    5.87    0.37
  -5  15   1    6.35    0.60
   5  15  -1    5.88    0.64
   5  15  -1    6.62    0.72
   4 -15  -1    4.08    0.33
  -4 -15   1    4.33    0.27
  -4 -15   1    4.18    0.30
   4  15  -1    4.46    0.52
   4  15  -1    4.42    0.56
  -4  15   1    4.61    0.50
  -3 -15   1   15.63    0.56
   3 -15  -1   14.94    0.60
  -3 -15   1   14.79    0.53
   3  15  -1   15.22    0.79
  -3  15   1   15.45    0.77
  -3  15   1   15.10    0.62
   3  15  -1   17.19    0.90
  -2 -15   1    7.33    0.36
  -2 -15   1    6.97    0.35
   2 -15  -1    6.33    0.37
  -2  15   1    5.89    0.49
   2  15  -1    5.39    0.54
  -2  15   1    7.04    0.46
   2  15  -1    6.32    0.53
  -1 -15   1    0.27    0.10
  -1 -15   1    0.17    0.10
   1 -15  -1    0.14    0.10
   1  15  -1    0.28    0.21
  -1  15   1    0.02    0.18
  -1  15   1    0.20    0.16
   1  15  -1    0.19    0.20
   0 -15   1   29.52    0.85
   0 -15  -1   28.86    0.85
   0 -15  -1   28.72    0.85
   0  15  -1   28.52    1.05
   0  15   1   28.58    1.10
   0  15   1   28.94    1.09
   0  15  -1   29.44    1.09
  -1 -15  -1    0.68    0.15
   1 -15   1    1.04    0.18
  -1 -15  -1    1.20    0.19
   1  15   1    0.98    0.27
   1  15   1    1.01    0.29
  -1  15  -1    0.94    0.26
  -1  15  -1    1.14    0.26
  -2 -15  -1   -0.22    0.07
   2 -15   1    0.15    0.12
  -2 -15  -1    0.02    0.08
  -2  15  -1    0.07    0.15
   2  15   1    0.10    0.20
  -2  15  -1   -0.02    0.16
   2  15   1   -0.03    0.20
   3 -15   1    1.85    0.24
  -3 -15  -1    1.59    0.22
  -3 -15  -1    1.64    0.20
   3  15   1    1.73    0.41
  -3  15  -1    1.68    0.32
   3  15   1    2.15    0.41
  -3  15  -1    1.72    0.25
  -4 -15  -1    0.22    0.13
   4 -15   1    0.31    0.13
   4  15   1    0.26    0.24
   4  15   1   -0.12    0.22
  -4  15  -1    0.36    0.16
  -4  15  -1    0.04    0.16
  -5 -15  -1    9.23    0.50
   5 -15   1    8.97    0.48
   5  15   1   10.23    0.82
  -5  15  -1   10.14    0.65
   5  15   1   10.15    0.73
  -6 -15  -1    2.48    0.32
   6 -15   1    1.93    0.28
   6  15   1    2.67    0.54
  -6  15  -1    2.85    0.44
  -6  15  -1    2.32    0.38
  -7 -16   1   11.99    0.60
   7 -16  -1   10.46    0.58
   7  16  -1   10.30    0.83
  -7  16   1   10.18    0.61
  -6 -16   1    0.32    0.14
   6 -16  -1    0.37    0.17
  -6  16   1   -0.09    0.17
   6  16  -1    0.33    0.31
   6  16  -1    0.25    0.31
  -6  16   1    0.29    0.23
  -5 -16   1    2.19    0.27
   5 -16  -1    2.61    0.31
   5  16  -1    1.81    0.45
  -5  16   1    2.75    0.42
   5  16  -1    2.66    0.47
  -4 -16   1    8.71    0.40
   4 -16  -1    9.41    0.49
  -4 -16   1    9.26    0.45
   4  16  -1    9.23    0.67
  -4  16   1    9.31    0.62
   4  16  -1    9.39    0.72
   3 -16  -1    5.41    0.37
  -3 -16   1    6.17    0.35
  -3 -16   1    5.24    0.31
  -3  16   1    5.15    0.39
   3  16  -1    6.22    0.66
  -3  16   1    5.36    0.54
   3  16  -1    5.89    0.61
  -2 -16   1   19.39    0.65
  -2 -16   1   18.95    0.64
   2 -16  -1   19.88    0.71
   2  16  -1   20.40    0.96
  -2  16   1   18.66    0.89
   2  16  -1   19.75    0.93
  -2  16   1   19.29    0.80
  -1 -16   1    1.00    0.17
   1 -16  -1    1.16    0.21
  -1  16   1    1.32    0.32
   1  16  -1    0.61    0.25
  -1  16   1    0.56    0.23
   1  16  -1    0.39    0.22
   0 -16   1    4.61    0.31
   0 -16  -1    4.73    0.31
   0  16   1    4.17    0.49
   0  16  -1    4.07    0.47
   0  16   1    4.46    0.51
   0  16  -1    3.91    0.45
  -1 -16  -1    6.68    0.39
   1 -16   1    7.49    0.40
  -1 -16  -1    7.98    0.40
  -1  16  -1    8.72    0.59
   1  16   1    7.92    0.62
   1  16   1    7.68    0.59
  -1  16  -1    7.64    0.52
  -2 -16  -1    0.19    0.12
  -2 -16  -1    0.36    0.13
   2 -16   1    0.49    0.15
  -2  16  -1   -0.29    0.18
  -2  16  -1    0.31    0.17
   2  16   1    0.14    0.25
   2  16   1    0.67    0.27
  -3 -16  -1    9.11    0.47
  -3 -16  -1   10.52    0.44
   3 -16   1   10.31    0.49
   3  16   1    8.59    0.71
  -3  16  -1    9.49    0.63
   3  16   1    9.56    0.69
  -3  16  -1   10.46    0.53
  -4 -16  -1    0.02    0.12
   4 -16   1    0.07    0.12
   4  16   1   -0.34    0.21
   4  16   1    0.07    0.24
  -4  16  -1    0.09    0.18
   5 -16   1    1.71    0.27
  -5 -16  -1    1.31    0.23
   5  16   1    0.87    0.36
   5  16   1    0.66    0.35
  -5  16  -1    1.56    0.35
  -6 -16  -1    0.85    0.22
   6 -16   1    0.83    0.22
   6  16   1    0.95    0.39
   6 -17  -1    0.26    0.18
  -6 -17   1    0.26    0.16
  -6  17   1   -0.21    0.16
   6  17  -1   -0.05    0.32
   6  17  -1    0.00    0.34
  -6  17   1   -0.13    0.21
  -5 -17   1    3.08    0.32
   5 -17  -1    2.64    0.33
  -5  17   1    2.55    0.40
   5  17  -1    3.22    0.56
   5  17  -1    2.78    0.48
   4 -17  -1    0.24    0.14
  -4 -17   1    0.31    0.12
  -4 -17   1    0.46    0.15
  -4  17   1    0.16    0.20
   4  17  -1    0.46    0.27
   4  17  -1   -0.16    0.20
  -3 -17   1    3.39    0.32
  -3 -17   1    2.48    0.26
   3 -17  -1    3.07    0.34
  -3  17   1    3.11    0.45
   3  17  -1    2.77    0.45
   3  17  -1    2.99    0.46
  -2 -17   1    1.70    0.22
  -2 -17   1    1.42    0.21
   2 -17  -1    1.77    0.25
   2  17  -1    1.46    0.34
   2  17  -1    1.29    0.35
  -2  17   1    1.49    0.30
  -2  17   1    2.01    0.37
  -1 -17   1    0.16    0.12
   1 -17  -1    0.52    0.16
  -1  17   1    0.31    0.21
  -1  17   1    0.10    0.20
   1  17  -1    0.09    0.22
   1  17  -1    0.22    0.24
   0 -17   1    1.49    0.22
   0 -17  -1    1.34    0.21
   0  17  -1    1.55    0.35
   0  17  -1    1.37    0.29
   0  17   1    1.60    0.33
   0  17   1    1.86    0.37
   1 -17   1    0.71    0.17
  -1 -17  -1    1.05    0.20
  -1 -17  -1    1.13    0.20
  -1  17  -1    0.62    0.26
  -1  17  -1    0.40    0.20
   1  17   1    0.28    0.24
   1  17   1    0.32    0.25
  -2 -17  -1    2.86    0.30
   2 -17   1    2.33    0.28
  -2 -17  -1    3.13    0.30
   2  17   1    1.79    0.38
   2  17   1    3.04    0.48
  -2  17  -1    2.80    0.35
  -2  17  -1    3.06    0.44
   3 -17   1    1.03    0.22
  -3 -17  -1    1.36    0.22
  -3 -17  -1    1.27    0.20
   3  17   1    1.23    0.37
  -3  17  -1    1.22    0.25
   3  17   1    1.48    0.38
  -3  17  -1    1.30    0.33
  -4 -17  -1    1.66    0.26
   4 -17   1    1.06    0.22
   4  17   1    0.95    0.37
  -4  17  -1    1.49    0.33
   4  17   1    0.84    0.34
   5 -17   1    0.38    0.18
  -5 -17  -1    0.28    0.16
   5  17   1    0.48    0.36
   5  17   1    0.15    0.32
  -5  17  -1    1.12    0.32
   6 -17   1    0.94    0.23
  -6 -18   1   13.21    0.63
  -6  18   1   11.63    0.75
   6  18  -1   11.43    0.89
  -5 -18   1    0.21    0.15
   5 -18  -1    0.14    0.15
  -5  18   1    0.16    0.24
   5  18  -1    0.22    0.29
   5  18  -1    0.19    0.29
   4 -18  -1   16.17    0.71
  -4 -18   1   15.83    0.64
  -4 -18   1   14.04    0.78
   4  18  -1   15.71    0.97
   4  18  -1   15.85    0.91
  -4  18   1   15.17    0.84
  -3 -18   1    5.73    0.37
  -3 -18   1    5.08    0.34
   3 -18  -1    5.89    0.40
   3  18  -1    4.84    0.61
   3  18  -1    6.19    0.65
  -3  18   1    4.88    0.56
  -2 -18   1    1.89    0.25
  -2 -18   1    2.13    0.26
   2 -18  -1    1.45    0.23
  -2  18   1    2.21    0.42
  -2  18   1    1.80    0.34
   2  18  -1    0.76    0.30
   2  18  -1    2.07    0.40
  -1 -18   1    0.22    0.13
   1 -18  -1    0.30    0.15
  -1  18   1    0.40    0.24
   1  18  -1    0.34    0.25
   1  18  -1    0.48    0.26
  -1  18   1    0.55    0.25
   0 -18  -1    5.31    0.36
   0 -18   1    5.70    0.36
   0  18   1    4.61    0.53
   0  18  -1    4.62    0.53
   0  18   1    4.95    0.59
   0  18  -1    5.63    0.59
  -1 -18  -1    8.38    0.45
   1 -18   1    8.27    0.46
  -1 -18  -1    8.37    0.45
   1  18   1    9.43    0.69
   1  18   1    8.89    0.68
  -1  18  -1    8.26    0.58
  -1  18  -1    8.15    0.65
  -2 -18  -1    2.77    0.29
  -2 -18  -1    2.33    0.29
   2 -18   1    2.23    0.28
   2  18   1    1.80    0.39
  -2  18  -1    1.98    0.39
   2  18   1    2.65    0.49
  -2  18  -1    2.41    0.35
   3 -18   1    6.93    0.43
  -3 -18  -1    6.68    0.39
  -3 -18  -1    6.77    0.43
   3  18   1    5.81    0.66
   3  18   1    7.07    0.78
  -3  18  -1    7.49    0.60
  -3  18  -1    6.52    0.47
   4 -18   1    0.85    0.21
  -4 -18  -1    0.80    0.20
   4  18   1    0.41    0.37
   4  18   1    0.76    0.31
  -4  18  -1    1.17    0.33
   5 -18   1    1.91    0.29
  -5 -18  -1    2.27    0.32
  -5 -19   1    0.26    0.17
   5  19  -1    0.03    0.28
  -4 -19   1    4.28    0.39
   4 -19  -1    3.70    0.42
   4  19  -1    3.85    0.61
   4  19  -1    3.89    0.58
  -4  19   1    3.52    0.54
  -3 -19   1    5.15    0.36
   3 -19  -1    5.01    0.41
  -3 -19   1    4.39    0.33
  -3  19   1    5.06    0.60
   3  19  -1    4.10    0.58
   3  19  -1    4.34    0.60
  -2 -19   1   11.27    0.52
   2 -19  -1   10.77    0.57
  -2 -19   1   12.00    0.54
   2  19  -1   11.51    0.79
   2  19  -1   11.47    0.80
  -2  19   1   11.12    0.66
  -2  19   1   11.29    0.78
  -1 -19   1    2.54    0.29
   1 -19  -1    2.91    0.33
  -1  19   1    2.94    0.47
   1  19  -1    3.41    0.50
   1  19  -1    2.58    0.44
  -1  19   1    1.94    0.37
   0 -19   1    7.01    0.43
   0 -19  -1    6.78    0.43
   0  19   1    6.59    0.68
   0  19   1    6.85    0.70
   0  19  -1    7.42    0.62
   0  19  -1    6.25    0.66
  -1 -19  -1    3.82    0.36
  -1 -19  -1    3.33    0.35
   1 -19   1    3.70    0.37
  -1  19  -1    3.12    0.47
   1  19   1    2.80    0.47
  -1  19  -1    3.44    0.44
   1  19   1    3.13    0.51
  -2 -19  -1    7.32    0.43
   2 -19   1    6.44    0.43
  -2 -19  -1    6.82    0.43
   2  19   1    5.77    0.67
   2  19   1    5.99    0.73
  -2  19  -1    6.26    0.65
  -2  19  -1    7.01    0.53
   3 -19   1    6.12    0.44
  -3 -19  -1    7.28    0.46
   3  19   1    6.28    0.73
   3  19   1    7.32    0.81
  -3  19  -1    8.22    0.67
  -4 -19  -1    0.70    0.21
   4 -19   1    0.77    0.20
   4  19   1    1.17    0.46
  -4  19  -1    0.23    0.29
   4  19   1    0.34    0.33
  -5 -20   1    6.60    0.47
  -4 -20   1   15.38    0.66
   4  20  -1   14.94    0.96
   3 -20  -1    0.08    0.15
  -3 -20   1    0.14    0.14
  -3 -20   1    0.14    0.12
   3  20  -1    0.09    0.29
   3  20  -1    0.17    0.31
  -3  20   1   -0.02    0.27
   2 -20  -1    0.61    0.19
  -2 -20   1    0.26    0.15
   2  20  -1    0.25    0.28
   2  20  -1    0.82    0.32
  -2  20   1    0.40    0.30
   1 -20  -1   -0.11    0.13
  -1 -20   1    0.06    0.13
  -1  20   1   -0.22    0.22
   1  20  -1   -0.26    0.24
   1  20  -1    0.26    0.27
  -1  20   1   -0.03    0.23
   0 -20   1    2.44    0.31
   0 -20  -1    2.94    0.35
   0  20   1    2.04    0.44
   0  20   1    2.29    0.47
   0  20  -1    3.20    0.53
   0  20  -1    2.71    0.46
  -1 -20  -1    2.88    0.33
   1 -20   1    3.28    0.36
  -1  20  -1    2.82    0.43
  -1  20  -1    2.25    0.44
   1  20   1    3.21    0.54
   1  20   1    2.36    0.46
  -2 -20  -1    1.48    0.26
  -2 -20  -1    1.92    0.27
   2 -20   1    1.62    0.29
   2  20   1    1.68    0.43
  -2  20  -1    1.98    0.36
  -2  20  -1    1.50    0.39
   2  20   1    2.14    0.49
  -3 -20  -1    2.70    0.33
   3 -20   1    3.05    0.36
   3  20   1    3.37    0.64
   3  20   1    2.63    0.52
  -3  20  -1    2.79    0.52
  -4 -21   1    1.00    0.24
  -3 -21   1   -0.12    0.13
  -3 -21   1    0.22    0.15
   3  21  -1   -0.04    0.34
  -2 -21   1    0.26    0.15
   2 -21  -1   -0.06    0.14
   2  21  -1   -0.24    0.28
   2  21  -1    0.25    0.29
  -2  21   1    0.11    0.29
  -1 -21   1    6.04    0.42
   1 -21  -1    6.25    0.46
  -1  21   1    5.39    0.61
   1  21  -1    6.23    0.70
   1  21  -1    6.03    0.69
  -1  21   1    5.50    0.69
   0 -21  -1    0.28    0.17
   0 -21   1    0.21    0.15
   0  21  -1   -0.01    0.25
   0  21   1    0.02    0.28
   0  21  -1    0.65    0.30
   0  21   1    0.32    0.30
   1 -21   1    1.58    0.28
  -1 -21  -1    2.16    0.31
   1  21   1    2.05    0.44
   1  21   1    0.95    0.37
  -1  21  -1    1.12    0.33
  -1  21  -1    1.23    0.41
  -2 -21  -1    2.42    0.32
  -2 -21  -1    2.67    0.33
  -2  21  -1    2.51    0.41
   2  21   1    2.40    0.50
  -3 -22   1   15.64    0.70
  -3 -22   1   14.75    0.67
  -2 -22   1    2.27    0.31
  -1 -22   1    1.12    0.37
   1  22  -1    0.18    0.30
  -1  22   1    0.81    0.33
   0 -22  -1    0.51    0.24
   0  22  -1    0.52    0.31
   0  22   1    0.66    0.32
  -1 -22  -1    2.53    0.34
   1  22   1    1.37    0.47
  -1  22  -1    3.36    0.49
  -2 -22  -1    0.36    0.18
   9   0  -2   15.88    0.75
  -8   0   2    0.68    0.15
   8   0  -2    0.70    0.19
   7   0  -2    0.30    0.13
  -7   0   2    0.35    0.11
  -6   0   2   30.93    0.80
   6   0  -2   32.48    0.87
   6   0  -2   31.81    0.93
  -5   0   2   25.35    0.65
   5   0  -2   24.39    0.73
   5   0  -2   24.85    0.68
  -5   0   2   25.06    0.67
   4   0  -2   35.10    0.87
  -4   0   2   35.67    0.80
   4   0  -2   34.80    0.81
  -4   0   2   35.53    0.81
  -3   0   2    0.80    0.11
   3   0  -2    0.75    0.10
   3   0  -2    0.76    0.09
  -3   0   2    0.73    0.08
   3   0  -2    0.82    0.09
  -3   0   2    0.81    0.10
  -2   0   2   49.07    0.91
   2   0  -2   49.89    0.96
   2   0  -2   49.16    0.92
  -2   0   2   48.60    0.99
  -2   0   2   46.98    0.98
   2   0  -2   47.32    0.99
   1   0  -2    1.06    0.08
  -1   0   2    0.92    0.08
  -1   0   2    1.15    0.08
   1   0  -2    1.00    0.07
  -1   0   2    1.01    0.05
  -1   0   2    1.09    0.08
   1   0  -2    1.14    0.10
  -1   0   2    1.10    0.04
   0   0   2  142.83    2.63
   0   0   2  143.28    2.59
   0   0  -2  141.13    2.59
   0   0  -2  138.60    2.60
   0   0   2  138.68    2.60
   0   0   2  143.82    2.58
   0   0   2  139.03    2.74
   0   0  -2  143.38    2.63
   0   0  -2  146.62    2.59
   1   0   2    2.52    0.07
  -1   0  -2    2.58    0.16
   1   0   2    2.55    0.24
  -1   0  -2    2.57    0.07
  -2   0  -2  109.69    2.18
   2   0   2  107.38    2.32
  -3   0  -2   57.28    1.30
   3   0   2   53.90    1.40
   4   0   2   15.85    0.33
   4   0   2   16.55    0.66
  -4   0  -2   16.75    0.59
   5   0   2   21.53    0.83
   6   0   2    5.50    0.50
   7   0   2    8.46    0.57
   8   0   2    0.41    0.20
  -8   0  -2    0.37    0.17
   9  -1  -2    1.17    0.26
   9   1  -2    0.95    0.25
   8  -1  -2    0.77    0.20
  -8  -1   2    1.17    0.17
   8   1  -2    0.71    0.20
  -8   1   2    1.26    0.18
   7  -1  -2    0.90    0.19
  -7  -1   2    1.56    0.18
  -7   1   2    1.47    0.18
   7   1  -2    1.40    0.23
   7   1  -2    1.46    0.27
   6  -1  -2    0.14    0.09
  -6  -1   2    0.14    0.08
   6  -1  -2   -0.07    0.09
   6   1  -2    0.10    0.11
  -6   1   2    0.08    0.08
   6   1  -2   -0.07    0.07
  -6   1   2    0.05    0.08
  -5  -1   2   98.20    1.96
   5  -1  -2   99.13    2.10
   5  -1  -2   99.88    1.96
   5   1  -2   97.63    2.06
  -5   1   2   95.20    2.00
   5   1  -2   98.32    2.09
  -5   1   2   97.90    1.98
  -4  -1   2    5.98    0.25
   4  -1  -2    6.01    0.22
   4  -1  -2    6.10    0.29
   4   1  -2    6.07    0.28
  -4   1   2    6.48    0.25
  -4   1   2    5.76    0.25
   4   1  -2    6.56    0.29
   3  -1  -2    2.98    0.15
   3  -1  -2    3.17    0.11
  -3  -1   2    3.18    0.20
   3  -1  -2    3.06    0.16
  -3  -1   2    3.24    0.16
  -3   1   2    3.22    0.14
   3   1  -2    3.12    0.18
   3   1  -2    3.31    0.14
  -3   1   2    3.28    0.17
  -3   1   2    3.19    0.13
   2  -1  -2  948.33   17.66
  -2  -1   2  967.72   17.94
   2  -1  -2  969.27   17.93
   2  -1  -2  968.85   17.63
   2  -1  -2  955.18   18.01
  -2  -1   2 1000.00   17.88
  -2   1   2  989.91   17.62
   2   1  -2  957.83   17.76
  -2   1   2  959.53   17.68
   2   1  -2  993.14   17.51
   2   1  -2  963.01   17.76
  -1  -1   2  407.84    7.35
  -1  -1   2  415.17    7.40
   1  -1  -2  412.83    7.64
  -1  -1   2  395.56    7.33
   1  -1  -2  416.05    7.43
  -1  -1   2  414.28    7.58
   1   1  -2  401.11    7.58
   1   1  -2  403.26    7.35
  -1   1   2  404.62    7.36
  -1   1   2  412.52    7.48
  -1   1   2  401.37    7.43
   1   1  -2  397.62    7.47
   1   1  -2  412.57    7.38
   0  -1   2  196.15    3.57
   0  -1   2  201.58    3.71
   0  -1  -2  192.12    3.59
   0  -1   2  195.87    3.73
   0  -1   2  195.69    3.62
   0  -1  -2  194.19    3.58
   0  -1   2  196.76    3.58
   0  -1  -2  201.19    3.59
   0   1  -2  196.79    3.64
   0   1  -2  199.23    3.61
   0   1   2  196.79    3.58
   0   1  -2  194.52    3.69
   0   1   2  196.49    3.62
   0   1  -2  198.39    3.55
   0   1   2  189.68    3.71
   0   1   2  197.56    3.58
   0   1  -2  203.89    3.58
   1  -1   2   57.49    1.32
  -1  -1  -2   56.96    1.13
   1  -1   2   56.86    1.05
  -1   1  -2   57.89    1.06
   1   1   2   56.21    1.32
   1   1   2   57.03    1.05
  -1   1  -2   57.73    1.19
  -2  -1  -2  101.49    1.96
   2  -1   2  100.01    2.18
  -2   1  -2   98.87    2.04
   2   1   2  104.58    2.20
   3  -1   2   39.26    1.08
   3   1   2   38.36    0.73
  -3   1  -2   37.80    0.96
   3   1   2   37.17    1.06
   4  -1   2    2.38    0.10
   4  -1   2    2.10    0.28
   4   1   2    2.81    0.32
  -4   1  -2    2.24    0.25
  -4   1  -2    2.26    0.08
   5  -1   2   21.24    0.82
   5   1   2   21.11    0.82
  -5   1  -2   21.57    0.76
   6  -1   2   -0.04    0.12
   6   1   2    0.15    0.15
  -6   1  -2    0.26    0.15
  -7  -1  -2    9.53    0.48
   7  -1   2   10.26    0.63
   7   1   2   10.22    0.63
   7   1   2   10.23    0.62
  -8  -1  -2    0.08    0.13
   8  -1   2   -0.10    0.17
   8   1   2    0.04    0.18
   9  -2  -2    0.69    0.23
   9   2  -2    0.34    0.18
  -8  -2   2    0.23    0.11
   8  -2  -2    0.12    0.15
   8   2  -2    0.11    0.13
  -8   2   2   -0.09    0.10
   7  -2  -2    3.48    0.35
  -7  -2   2    3.06    0.22
   7   2  -2    3.25    0.34
  -7   2   2    3.50    0.25
   7   2  -2    3.05    0.31
  -7   2   2    3.35    0.28
   6  -2  -2    8.00    0.31
   6  -2  -2    7.73    0.41
  -6  -2   2    7.68    0.32
   6   2  -2    8.00    0.43
   6   2  -2    8.73    0.42
  -6   2   2    7.23    0.33
  -6   2   2    8.23    0.38
  -5  -2   2   27.05    0.68
   5  -2  -2   27.54    0.68
   5  -2  -2   27.19    0.63
   5  -2  -2   27.02    0.79
   5   2  -2   26.55    0.76
  -5   2   2   27.93    0.71
  -5   2   2   26.82    0.72
   5   2  -2   27.84    0.81
   4  -2  -2   74.99    1.53
  -4  -2   2   76.19    1.52
   4  -2  -2   74.12    1.40
   4  -2  -2   74.96    1.62
   4   2  -2   77.51    1.60
  -4   2   2   75.07    1.54
   4   2  -2   75.67    1.64
  -4   2   2   73.94    1.55
  -3  -2   2   -0.04    0.04
   3  -2  -2    0.10    0.06
   3  -2  -2   -0.10    0.04
   3  -2  -2    0.04    0.05
  -3   2   2    0.02    0.04
  -3   2   2    0.07    0.06
   3   2  -2    0.10    0.05
   3   2  -2   -0.08    0.06
  -2  -2   2  430.65    8.06
  -2  -2   2  432.29    7.81
   2  -2  -2  424.03    7.74
   2  -2  -2  418.46    7.72
  -2   2   2  429.51    7.71
  -2   2   2  428.17    7.74
  -2   2   2  413.38    7.74
   2   2  -2  431.30    7.79
   1  -2  -2   30.35    0.64
   1  -2  -2   30.38    0.62
  -1  -2   2   29.44    0.62
   1  -2  -2   30.56    0.62
  -1  -2   2   29.76    0.62
   1  -2  -2   29.45    0.66
  -1  -2   2   29.95    0.62
  -1  -2   2   29.49    0.70
   1   2  -2   29.51    0.63
  -1   2   2   29.31    0.65
   1   2  -2   30.17    0.61
  -1   2   2   30.14    0.61
   1   2  -2   30.25    0.69
   1   2  -2   29.95    0.61
  -1   2   2   29.97    0.65
   0  -2   2   50.45    1.05
   0  -2  -2   50.69    1.03
   0  -2   2   51.40    0.98
   0  -2  -2   49.59    1.00
   0  -2  -2   51.89    1.01
   0  -2   2   52.96    0.98
   0  -2   2   51.36    1.13
   0   2  -2   51.90    1.04
   0   2   2   52.92    1.02
   0   2  -2   50.37    0.98
   0   2  -2   51.81    1.10
   0   2  -2   50.76    1.08
   0   2   2   52.76    1.00
   0   2  -2   51.94    0.98
   0   2   2   49.10    1.11
   0   2   2   52.42    1.01
  -1  -2  -2    0.38    0.07
   1  -2   2    0.19    0.11
   1  -2   2    0.42    0.04
  -1   2  -2    0.31    0.08
  -1   2  -2    0.40    0.04
   1   2   2    0.40    0.04
   1   2   2    0.40    0.05
   1   2   2    0.31    0.12
  -2  -2  -2   20.99    0.52
   2  -2   2   21.21    0.68
   2   2   2   18.93    0.66
  -2   2  -2   19.92    0.40
  -2   2  -2   20.64    0.58
   2   2   2   20.51    0.43
  -3  -2  -2    8.07    0.31
   3  -2   2    9.14    0.45
  -3   2  -2    9.00    0.22
  -3   2  -2    8.83    0.20
   3   2   2    8.82    0.44
  -3   2  -2    8.42    0.37
  -4  -2  -2    3.87    0.23
   4  -2   2    3.84    0.15
   4  -2   2    4.17    0.39
  -4   2  -2    3.95    0.28
   4   2   2    3.66    0.35
  -4   2  -2    4.04    0.14
   5  -2   2   12.24    0.61
  -5  -2  -2   11.44    0.45
   5   2   2   11.77    0.60
  -5   2  -2   11.50    0.53
  -6  -2  -2   10.04    0.45
   6  -2   2    9.15    0.55
   6   2   2    9.57    0.58
   6   2   2   10.04    0.57
  -6   2  -2   10.39    0.54
  -7  -2  -2    1.92    0.26
   7  -2   2    1.95    0.34
   7   2   2    2.22    0.34
   7   2   2    1.83    0.37
  -8  -2  -2    0.12    0.14
   8  -2   2    0.37    0.22
   8   2   2    0.41    0.29
   8   2   2    0.12    0.19
   9  -3  -2    0.87    0.23
  -9  -3   2    0.54    0.18
   9   3  -2    0.73    0.22
  -8  -3   2    3.86    0.26
   8  -3  -2    4.50    0.42
  -8   3   2    4.05    0.29
  -8   3   2    3.33    0.35
   8   3  -2    3.76    0.37
  -7  -3   2   13.69    0.45
   7  -3  -2   13.65    0.61
  -7   3   2   13.32    0.54
  -7   3   2   13.52    0.49
   7   3  -2   12.25    0.56
   7   3  -2   12.22    0.61
  -6  -3   2    5.40    0.26
   6  -3  -2    5.14    0.34
   6  -3  -2    5.55    0.27
  -6   3   2    5.64    0.32
   6   3  -2    5.52    0.33
  -6   3   2    5.03    0.28
   6   3  -2    4.90    0.37
   5  -3  -2   18.91    0.42
   5  -3  -2   19.48    0.54
   5  -3  -2   19.77    0.40
   5  -3  -2   19.39    0.64
  -5  -3   2   19.10    0.53
  -5   3   2   19.17    0.56
   5   3  -2   19.06    0.67
  -5   3   2   19.20    0.58
   5   3  -2   19.44    0.61
   4  -3  -2  209.45    3.88
  -4  -3   2  201.46    3.85
   4  -3  -2  208.48    3.96
  -4   3   2  204.22    3.90
   4   3  -2  204.37    4.03
   4   3  -2  206.99    3.92
  -4   3   2  204.37    3.90
   3  -3  -2   20.50    0.52
   3  -3  -2   20.00    0.52
  -3  -3   2   19.36    0.49
  -3   3   2   20.30    0.52
  -3   3   2   19.09    0.52
   3   3  -2   19.24    0.59
  -2  -3   2   17.48    0.38
   2  -3  -2   18.04    0.47
  -2  -3   2   18.19    0.43
   2  -3  -2   18.36    0.46
   2  -3  -2   17.11    0.43
  -2  -3   2   18.52    0.46
  -2   3   2   17.87    0.40
   2   3  -2   17.07    0.44
   2   3  -2   17.83    0.52
  -2   3   2   17.71    0.46
  -2   3   2   17.83    0.47
   1  -3  -2  728.85   13.65
  -1  -3   2  761.59   13.42
   1  -3  -2  733.55   13.57
  -1  -3   2  716.08   13.56
  -1  -3   2  749.54   13.61
   1  -3  -2  745.73   13.78
  -1  -3   2  757.52   13.75
   1   3  -2  752.43   13.41
   1   3  -2  757.42   13.64
  -1   3   2  739.58   13.72
  -1   3   2  764.22   13.71
   1   3  -2  728.90   13.47
   1   3  -2  754.81   13.61
  -1   3   2  737.64   13.44
   0  -3  -2   53.67    1.07
   0  -3   2   54.93    1.01
   0  -3   2   53.26    1.12
   0  -3  -2   54.81    1.04
   0  -3   2   52.04    1.03
   0  -3  -2   52.47    1.07
   0  -3   2   52.90    1.18
   0   3  -2   54.39    1.14
   0   3  -2   53.41    1.01
   0   3  -2   53.88    1.14
   0   3  -2   53.27    1.03
   0   3   2   53.70    1.07
   0   3   2   53.09    1.15
   0   3  -2   52.12    1.10
   1  -3   2    3.51    0.12
   1  -3   2    3.90    0.25
   1  -3   2    3.73    0.13
  -1  -3  -2    3.82    0.15
  -1  -3  -2    3.91    0.17
   1   3   2    4.15    0.26
  -1   3  -2    3.87    0.20
   1   3   2    3.74    0.14
  -1   3  -2    3.78    0.20
  -1   3  -2    3.68    0.12
   2  -3   2    7.08    0.36
  -2  -3  -2    6.57    0.25
  -2   3  -2    6.64    0.17
  -2   3  -2    6.55    0.30
   2   3   2    6.64    0.36
   2   3   2    6.76    0.18
   2   3   2    6.47    0.16
  -3  -3  -2   -0.02    0.05
   3  -3   2    0.15    0.11
  -3   3  -2    0.01    0.08
  -3   3  -2    0.02    0.02
   3   3   2    0.02    0.02
   3   3   2    0.05    0.09
  -4  -3  -2    1.60    0.17
   4  -3   2    1.46    0.23
   4  -3   2    1.39    0.10
  -4   3  -2    0.99    0.18
   4   3   2    1.41    0.23
  -4   3  -2    1.27    0.10
   5  -3   2   35.59    0.76
   5  -3   2   35.10    1.13
  -5  -3  -2   35.59    0.94
  -5   3  -2   33.07    1.03
   5   3   2   36.22    1.13
  -6  -3  -2   27.17    0.82
   6  -3   2   27.00    1.01
  -6   3  -2   26.81    0.93
   6   3   2   25.33    1.02
   6   3   2   26.02    0.97
  -7  -3  -2    0.07    0.12
   7  -3   2    0.07    0.17
   7   3   2   -0.22    0.19
   7   3   2    0.33    0.19
  -7   3  -2    0.27    0.16
  -8  -3  -2    0.51    0.18
   8  -3   2    0.09    0.18
   8   3   2    0.36    0.28
   8   3   2    0.21    0.18
  10   4  -2    9.88    0.69
  -9  -4   2    5.40    0.38
   9  -4  -2    4.91    0.50
   9   4  -2    4.74    0.46
  -9   4   2    4.51    0.44
  -8  -4   2    3.07    0.23
   8  -4  -2    3.40    0.38
  -8  -4   2    3.94    0.30
  -8   4   2    3.80    0.28
   8   4  -2    4.04    0.39
  -8   4   2    3.80    0.37
  -7  -4   2    8.40    0.34
   7  -4  -2    7.75    0.34
   7  -4  -2    7.47    0.46
  -7  -4   2    7.87    0.38
  -7   4   2    7.72    0.38
   7   4  -2    7.63    0.51
   7   4  -2    9.01    0.46
  -7   4   2    8.01    0.42
  -6  -4   2    0.02    0.06
   6  -4  -2    0.12    0.10
   6  -4  -2    0.04    0.07
   6   4  -2    0.08    0.10
  -6   4   2    0.03    0.09
  -6   4   2    0.18    0.10
   6   4  -2    0.13    0.14
  -5  -4   2    2.44    0.17
  -5  -4   2    2.13    0.16
   5  -4  -2    2.31    0.24
   5  -4  -2    2.00    0.16
   5   4  -2    2.36    0.28
  -5   4   2    1.94    0.19
   5   4  -2    2.56    0.23
  -5   4   2    2.26    0.22
   4  -4  -2   49.04    1.14
   4  -4  -2   48.01    1.08
  -4  -4   2   49.32    1.04
  -4  -4   2   48.65    1.04
   4   4  -2   49.88    1.24
   4   4  -2   49.09    1.09
  -4   4   2   47.05    1.09
  -4   4   2   47.15    1.10
   3  -4  -2   -0.02    0.05
  -3  -4   2    0.00    0.04
  -3  -4   2    0.04    0.05
   3  -4  -2    0.07    0.06
  -3   4   2    0.12    0.07
  -3   4   2    0.04    0.07
   3   4  -2    0.14    0.11
   2  -4  -2  291.37    5.38
  -2  -4   2  291.17    5.32
  -2  -4   2  287.36    5.32
   2  -4  -2  289.29    5.32
  -2  -4   2  295.92    5.28
   2   4  -2  290.24    5.38
   2   4  -2  291.40    5.48
  -2   4   2  293.06    5.32
  -2   4   2  292.06    5.40
  -1  -4   2    6.59    0.21
  -1  -4   2    6.35    0.16
  -1  -4   2    6.38    0.25
   1  -4  -2    6.30    0.22
   1  -4  -2    6.39    0.19
   1  -4  -2    6.24    0.23
  -1   4   2    6.28    0.27
   1   4  -2    6.62    0.16
   1   4  -2    6.31    0.18
  -1   4   2    6.42    0.25
   1   4  -2    6.80    0.29
   1   4  -2    6.45    0.25
   0  -4  -2   36.49    0.78
   0  -4  -2   36.16    0.74
   0  -4   2   35.30    0.87
   0  -4   2   37.40    0.71
   0  -4   2   36.44    0.74
   0  -4  -2   36.82    0.78
   0   4  -2   35.64    0.83
   0   4  -2   35.69    0.83
   0   4  -2   37.61    0.86
   0   4  -2   36.27    0.70
   0   4   2   36.22    0.84
  -1  -4  -2    0.10    0.06
  -1  -4  -2   -0.01    0.04
   1  -4   2    0.04    0.03
   1  -4   2   -0.02    0.08
   1   4   2    0.04    0.07
  -1   4  -2   -0.03    0.05
  -1   4  -2    0.08    0.07
   1   4   2    0.01    0.03
   2  -4   2   23.23    0.73
  -2  -4  -2   23.39    0.51
   2   4   2   24.22    0.50
   2   4   2   23.16    0.48
  -2   4  -2   24.47    0.68
   2   4   2   23.08    0.73
  -3  -4  -2   32.42    0.79
   3  -4   2   30.06    0.93
   3   4   2   31.43    0.93
  -3   4  -2   31.55    0.87
   3   4   2   31.71    0.63
   4  -4   2   99.24    1.89
   4  -4   2   95.55    2.23
  -4  -4  -2   98.02    2.03
   4   4   2   99.28    2.23
  -4   4  -2   91.68    2.12
   4   4   2   96.04    1.81
  -4   4  -2   96.69    1.87
   4   4   2   97.53    2.27
   5  -4   2    0.87    0.10
   5  -4   2    0.82    0.22
  -5  -4  -2    0.72    0.15
   5   4   2    1.02    0.26
  -5   4  -2    0.83    0.19
  -5   4  -2    0.98    0.12
   5   4   2    0.92    0.22
   6  -4   2   15.34    0.74
  -6  -4  -2   16.29    0.62
   6   4   2   16.55    0.74
  -6   4  -2   16.99    0.71
   6   4   2   15.95    0.82
  -7  -4  -2    1.74    0.25
   7  -4   2    2.33    0.36
  -7   4  -2    2.40    0.34
   7   4   2    1.83    0.40
   7   4   2    1.87    0.32
  -8  -4  -2   -0.08    0.12
   8  -4   2    0.11    0.20
   8   4   2    0.16    0.26
  -8   4  -2    0.08    0.18
   8   4   2   -0.05    0.17
  10   5  -2    0.19    0.21
   9  -5  -2    1.93    0.32
  -9  -5   2    2.51    0.30
  -9   5   2    2.16    0.33
   9   5  -2    1.74    0.28
  -8  -5   2   12.92    0.46
   8  -5  -2   12.17    0.63
  -8  -5   2   12.14    0.53
  -8   5   2   12.95    0.60
   8   5  -2   12.76    0.59
  -8   5   2   12.48    0.51
   7  -5  -2   20.12    0.62
   7  -5  -2   19.16    0.76
  -7  -5   2   19.81    0.58
  -7  -5   2   19.21    0.65
   7   5  -2   20.76    0.86
  -7   5   2   20.03    0.72
  -7   5   2   19.89    0.65
   7   5  -2   20.90    0.73
   6  -5  -2    0.04    0.10
  -6  -5   2    0.01    0.07
  -6  -5   2    0.04    0.08
   6  -5  -2    0.04    0.07
   6   5  -2    0.14    0.14
  -6   5   2    0.06    0.09
  -6   5   2    0.04    0.10
   6   5  -2    0.03    0.09
   5  -5  -2   19.46    0.56
   5  -5  -2   18.91    0.63
  -5  -5   2   18.74    0.52
  -5  -5   2   19.23    0.55
  -5   5   2   19.63    0.59
   5   5  -2   18.34    0.73
  -5   5   2   18.47    0.60
   5   5  -2   18.50    0.58
  -4  -5   2   16.15    0.45
  -4  -5   2   15.39    0.44
   4  -5  -2   15.24    0.51
   4  -5  -2   15.19    0.48
  -4   5   2   15.90    0.52
   4   5  -2   15.49    0.46
   4   5  -2   16.48    0.63
  -4   5   2   15.86    0.50
  -3  -5   2   18.90    0.47
   3  -5  -2   19.27    0.53
   3  -5  -2   18.71    0.49
  -3   5   2   18.64    0.53
  -3   5   2   18.78    0.37
   3   5  -2   19.56    0.65
  -3   5   2   18.80    0.56
   2  -5  -2    2.74    0.17
   2  -5  -2    2.70    0.13
  -2  -5   2    2.47    0.12
  -2  -5   2    2.54    0.14
  -2  -5   2    2.31    0.12
  -2   5   2    2.44    0.16
   2   5  -2    2.61    0.19
   2   5  -2    2.64    0.11
  -2   5   2    2.55    0.19
   2   5  -2    2.78    0.25
  -1  -5   2  428.48    7.95
   1  -5  -2  409.53    7.79
  -1  -5   2  441.36    7.77
   1  -5  -2  419.31    7.84
  -1  -5   2  420.58    7.79
   1  -5  -2  429.73    7.77
   1   5  -2  432.08    7.92
   1   5  -2  428.23    7.84
  -1   5   2  428.03    7.87
   1   5  -2  429.65    7.69
  -1   5   2  425.52    7.88
   1   5  -2  434.49    7.80
   0  -5   2    5.78    0.19
   0  -5   2    5.68    0.15
   0  -5  -2    5.70    0.18
   0  -5  -2    5.58    0.22
   0  -5  -2    5.92    0.22
   0  -5   2    5.82    0.27
   0   5  -2    5.88    0.25
   0   5   2    5.48    0.24
   0   5   2    5.38    0.29
   0   5  -2    5.72    0.18
   0   5  -2    5.92    0.15
   0   5  -2    6.13    0.27
   0   5  -2    5.82    0.27
  -1  -5  -2   49.11    1.06
   1  -5   2   49.11    1.18
   1  -5   2   49.77    0.95
  -1  -5  -2   49.35    1.02
  -1   5  -2   51.88    1.16
   1   5   2   51.27    1.23
   1   5   2   50.13    1.18
  -1   5  -2   49.32    1.13
  -2  -5  -2    1.81    0.16
  -2  -5  -2    1.75    0.10
   2  -5   2    1.69    0.20
   2   5   2    1.65    0.09
  -2   5  -2    1.70    0.19
   2   5   2    1.64    0.22
   2   5   2    1.38    0.19
   2   5   2    1.56    0.09
   3  -5   2    4.51    0.32
   3  -5   2    4.35    0.19
  -3   5  -2    4.47    0.29
   3   5   2    4.34    0.15
   3   5   2    3.92    0.30
   3   5   2    4.26    0.34
   4  -5   2   14.18    0.41
   4  -5   2   14.23    0.62
  -4  -5  -2   14.68    0.50
   4   5   2   14.05    0.67
   4   5   2   15.44    0.62
  -4   5  -2   14.55    0.58
  -4   5  -2   14.10    0.40
   5  -5   2   74.06    1.55
  -5  -5  -2   76.41    1.72
   5  -5   2   78.80    1.94
   5   5   2   77.40    2.06
   5   5   2   76.88    1.90
  -5   5  -2   76.05    1.54
  -5   5  -2   73.28    1.83
   6  -5   2    4.39    0.46
  -6  -5  -2    4.68    0.33
  -6   5  -2    3.79    0.40
   6   5   2    3.97    0.41
   6   5   2    4.43    0.53
   7  -5   2    6.33    0.50
  -7  -5  -2    6.59    0.42
   7   5   2    6.46    0.49
   7   5   2    7.19    0.72
  -7   5  -2    7.05    0.49
   8  -5   2    7.41    0.59
  -8  -5  -2    7.72    0.49
  -8   5  -2    7.13    0.54
   8   5   2    7.70    0.58
   8   5   2    6.91    0.78
  10   6  -2    3.16    0.45
  -9  -6   2    7.38    0.45
   9  -6  -2    6.76    0.52
   9   6  -2    7.87    0.51
  -9   6   2    7.31    0.50
   8  -6  -2    1.16    0.26
  -8  -6   2    1.36    0.22
  -8  -6   2    0.94    0.16
  -8   6   2    1.04    0.23
   8   6  -2    1.34    0.23
   8   6  -2    0.97    0.35
  -8   6   2    1.10    0.20
   7  -6  -2   13.46    0.62
   7  -6  -2   12.74    0.49
  -7  -6   2   13.63    0.52
  -7  -6   2   13.68    0.46
   7   6  -2   13.32    0.56
  -7   6   2   13.37    0.53
  -7   6   2   13.50    0.58
   7   6  -2   12.36    0.69
   6  -6  -2    4.06    0.26
  -6  -6   2    3.88    0.25
  -6  -6   2    4.29    0.24
   6  -6  -2    4.32    0.33
  -6   6   2    4.14    0.30
  -6   6   2    3.89    0.28
   6   6  -2    3.87    0.43
   6   6  -2    4.23    0.29
   5  -6  -2    3.18    0.22
   5  -6  -2    3.55    0.27
  -5  -6   2    3.36    0.20
  -5  -6   2    3.23    0.21
   5   6  -2    3.56    0.39
  -5   6   2    3.02    0.24
  -5   6   2    3.08    0.25
   5   6  -2    3.31    0.23
  -4  -6   2   50.93    1.10
   4  -6  -2   51.80    1.13
  -4  -6   2   50.57    1.09
   4  -6  -2   51.62    1.20
   4  -6  -2   51.31    1.15
  -4   6   2   49.25    1.21
  -4   6   2   50.05    1.17
   4   6  -2   48.82    1.34
   3  -6  -2    3.30    0.20
   3  -6  -2    3.39    0.17
  -3  -6   2    3.54    0.17
  -3   6   2    3.69    0.22
  -3   6   2    3.65    0.24
   3   6  -2    3.48    0.29
  -3   6   2    3.51    0.14
   2  -6  -2    2.05    0.12
  -2  -6   2    2.02    0.11
  -2  -6   2    2.23    0.12
   2  -6  -2    2.17    0.15
  -2  -6   2    2.56    0.14
   2   6  -2    1.89    0.19
  -2   6   2    2.17    0.17
  -2   6   2    2.26    0.22
   2   6  -2    1.65    0.21
  -1  -6   2    9.84    0.29
   1  -6  -2    9.46    0.33
  -1  -6   2   10.41    0.27
  -1  -6   2    9.86    0.31
   1  -6  -2   10.06    0.27
   1   6  -2    9.85    0.38
   1   6  -2   10.28    0.25
   1   6  -2   10.35    0.27
   1   6  -2   10.17    0.42
  -1   6   2   10.04    0.41
  -1   6   2   10.25    0.41
   0  -6   2   71.93    1.41
   0  -6   2   67.81    1.51
   0  -6  -2   71.72    1.46
   0  -6  -2   72.88    1.46
   0  -6   2   71.03    1.34
   0  -6  -2   72.67    1.40
   0   6  -2   70.67    1.56
   0   6  -2   72.29    1.33
   0   6  -2   72.20    1.48
   0   6  -2   77.55    1.43
   0   6   2   72.08    1.60
   0   6   2   72.51    1.50
   0   6   2   72.60    1.65
   0   6  -2   71.55    1.55
   1  -6   2   22.54    0.46
  -1  -6  -2   21.71    0.54
  -1  -6  -2   22.03    0.58
   1  -6   2   22.60    0.66
   1   6   2   23.69    0.68
  -1   6  -2   23.31    0.65
  -1   6  -2   23.89    0.68
   1   6   2   22.25    0.75
  -2  -6  -2   37.40    0.89
   2  -6   2   37.75    1.00
  -2  -6  -2   37.29    0.80
   2   6   2   37.51    1.11
  -2   6  -2   37.57    0.93
  -2   6  -2   39.01    0.99
   2   6   2   36.42    1.00
   3  -6   2   24.33    0.60
  -3  -6  -2   24.19    0.53
   3  -6   2   24.88    0.80
  -3  -6  -2   23.79    0.67
  -3   6  -2   23.38    0.75
   3   6   2   24.77    0.89
   3   6   2   23.44    0.77
   4  -6   2   50.94    1.39
  -4  -6  -2   48.98    1.22
   4  -6   2   51.18    1.11
   4   6   2   51.76    1.53
  -4   6  -2   51.93    1.34
   4   6   2   52.81    1.36
   5  -6   2    3.96    0.21
   5  -6   2    3.63    0.38
  -5  -6  -2    3.94    0.28
  -5   6  -2    3.67    0.37
   5   6   2    4.00    0.50
  -5   6  -2    4.04    0.22
   5   6   2    3.22    0.36
  -6  -6  -2    0.66    0.16
   6  -6   2    0.20    0.16
   6   6   2    0.53    0.18
   6   6   2    0.48    0.25
  -6   6  -2    0.44    0.19
  -7  -6  -2    4.41    0.34
   7  -6   2    4.33    0.47
   7   6   2    3.93    0.43
  -7   6  -2    4.47    0.49
   7   6   2    4.05    0.56
   8  -6   2    3.27    0.45
  -8  -6  -2    3.25    0.37
   8   6   2    3.31    0.56
  -8   6  -2    3.47    0.46
   8   6   2    3.93    0.48
  -9  -7   2   -0.01    0.14
   9  -7  -2   -0.10    0.14
   9   7  -2    0.01    0.15
  -9   7   2    0.04    0.17
   8  -7  -2    0.81    0.21
  -8  -7   2    1.01    0.20
  -8  -7   2    0.95    0.16
   8   7  -2    0.78    0.31
  -8   7   2    0.73    0.19
   8   7  -2    0.55    0.17
  -8   7   2    0.78    0.19
  -7  -7   2    7.28    0.33
  -7  -7   2    6.94    0.38
   7  -7  -2    7.30    0.37
   7  -7  -2    7.54    0.46
  -7   7   2    7.38    0.40
   7   7  -2    6.94    0.39
   7   7  -2    7.65    0.57
  -7   7   2    7.62    0.45
   6  -7  -2  106.69    2.31
   6  -7  -2   98.99    2.16
  -6  -7   2  103.64    2.16
  -6  -7   2  103.34    2.09
   6   7  -2  105.19    2.20
   6   7  -2  102.65    2.52
  -6   7   2  102.21    2.20
  -6   7   2  100.24    2.27
  -5  -7   2    4.05    0.23
   5  -7  -2    4.27    0.26
   5  -7  -2    3.50    0.23
   5  -7  -2    3.53    0.31
  -5  -7   2    3.68    0.21
  -5   7   2    3.75    0.27
  -5   7   2    3.99    0.29
   5   7  -2    3.77    0.23
   5   7  -2    3.58    0.39
   4  -7  -2   11.70    0.39
   4  -7  -2   12.15    0.30
  -4  -7   2   11.81    0.38
  -4  -7   2   11.81    0.39
   4  -7  -2   11.77    0.43
   4  -7  -2   12.15    0.45
  -4   7   2   12.08    0.45
   4   7  -2   12.08    0.58
  -4   7   2   12.29    0.49
  -3  -7   2  522.56    9.47
   3  -7  -2  515.08    9.46
   3  -7  -2  525.69    9.57
  -3  -7   2  513.03    9.48
   3  -7  -2  516.22    9.46
   3   7  -2  523.41    9.67
   3   7  -2  522.85    9.81
  -3   7   2  519.55    9.44
  -3   7   2  534.49    9.67
  -2  -7   2    0.36    0.07
  -2  -7   2    0.21    0.05
  -2  -7   2    0.30    0.06
   2  -7  -2    0.26    0.08
   2  -7  -2    0.26    0.05
   2   7  -2    0.31    0.12
  -2   7   2    0.31    0.10
  -2   7   2    0.28    0.12
   2   7  -2    0.30    0.12
   1  -7  -2   13.67    0.41
   1  -7  -2   14.14    0.42
  -1  -7   2   13.48    0.38
  -1  -7   2   14.19    0.36
   1  -7  -2   13.53    0.34
  -1  -7   2   14.19    0.39
   1   7  -2   13.52    0.52
   1   7  -2   14.00    0.31
   1   7  -2   13.66    0.49
  -1   7   2   13.68    0.51
  -1   7   2   13.41    0.51
   0  -7   2   14.89    0.40
   0  -7  -2   15.03    0.37
   0  -7  -2   15.12    0.44
   0  -7   2   14.76    0.46
   0  -7  -2   15.55    0.44
   0   7  -2   16.17    0.54
   0   7  -2   14.82    0.43
   0   7   2   14.97    0.45
   0   7   2   15.19    0.56
   0   7  -2   14.85    0.52
   0   7   2   15.65    0.59
  -1  -7  -2  240.07    4.52
  -1  -7  -2  242.17    4.47
   1  -7   2  239.65    4.59
   1  -7   2  239.60    4.33
  -1   7  -2  242.28    4.65
   1   7   2  246.32    4.61
  -1   7  -2  243.69    4.61
   1   7   2  229.28    4.78
  -2  -7  -2    2.33    0.17
   2  -7   2    2.24    0.24
  -2  -7  -2    2.47    0.14
   2   7   2    1.73    0.21
   2   7   2    1.79    0.28
  -2   7  -2    2.16    0.22
  -2   7  -2    2.67    0.26
  -3  -7  -2  103.89    2.15
   3  -7   2  103.01    2.06
  -3  -7  -2  102.69    1.97
   3  -7   2  104.58    2.29
   3   7   2  103.31    2.49
  -3   7  -2  102.63    2.27
   3   7   2  105.27    2.27
   4  -7   2  130.03    2.54
  -4  -7  -2  129.93    2.66
   4  -7   2  126.90    2.82
  -4   7  -2  130.99    2.80
   4   7   2  128.22    2.78
   4   7   2  128.76    3.07
   5  -7   2    6.78    0.30
  -5  -7  -2    7.61    0.40
   5  -7   2    7.29    0.48
  -5   7  -2    7.73    0.32
   5   7   2    7.24    0.45
   5   7   2    6.85    0.57
  -5   7  -2    7.95    0.48
   6  -7   2    0.01    0.14
  -6  -7  -2    0.02    0.11
   6   7   2   -0.02    0.12
  -6   7  -2    0.01    0.12
   6   7   2   -0.01    0.21
   7  -7   2    1.48    0.31
  -7  -7  -2    1.15    0.22
  -7   7  -2    1.80    0.32
   7   7   2    2.52    0.49
   7   7   2    1.51    0.30
  -8  -7  -2    2.56    0.38
   8  -7   2    3.71    0.48
  -8   7  -2    2.81    0.41
   8   7   2    3.60    0.61
   8   7   2    4.06    0.48
   9  -8  -2    0.17    0.18
  -9  -8   2    0.43    0.18
  -9   8   2    0.00    0.18
   8  -8  -2   -0.08    0.12
  -8  -8   2    0.04    0.12
  -8  -8   2    0.01    0.08
   8   8  -2   -0.04    0.22
  -8   8   2    0.22    0.15
  -8   8   2    0.20    0.14
   8   8  -2   -0.08    0.11
   7  -8  -2    3.68    0.37
  -7  -8   2    3.36    0.31
  -7  -8   2    3.70    0.24
   7  -8  -2    3.64    0.28
  -7   8   2    4.07    0.35
  -7   8   2    3.83    0.38
   7   8  -2    3.39    0.47
   7   8  -2    3.74    0.33
   6  -8  -2    0.13    0.11
  -6  -8   2    0.07    0.08
  -6  -8   2   -0.05    0.07
   6  -8  -2    0.07    0.09
   6  -8  -2    0.19    0.10
   6   8  -2   -0.19    0.16
  -6   8   2   -0.02    0.12
  -6   8   2    0.18    0.13
   6   8  -2    0.03    0.09
  -5  -8   2    0.24    0.08
   5  -8  -2    0.04    0.07
   5  -8  -2    0.14    0.10
   5  -8  -2    0.16    0.09
  -5  -8   2    0.02    0.06
   5   8  -2    0.18    0.17
  -5   8   2    0.08    0.10
  -5   8   2    0.09    0.11
   4  -8  -2    0.07    0.07
  -4  -8   2    0.01    0.06
   4  -8  -2    0.04    0.06
  -4  -8   2    0.02    0.06
   4  -8  -2   -0.04    0.06
   4  -8  -2    0.09    0.06
  -4   8   2    0.02    0.04
   4   8  -2    0.10    0.14
  -4   8   2    0.04    0.10
  -4   8   2   -0.04    0.08
  -3  -8   2   23.36    0.59
   3  -8  -2   24.15    0.67
   3  -8  -2   23.20    0.57
  -3  -8   2   23.91    0.61
   3  -8  -2   23.40    0.62
  -3   8   2   24.34    0.60
   3   8  -2   24.26    0.76
  -3   8   2   24.29    0.76
   2  -8  -2   63.90    1.38
  -2  -8   2   63.40    1.23
   2  -8  -2   64.31    1.25
  -2  -8   2   62.52    1.28
  -2  -8   2   63.29    1.31
   2   8  -2   62.76    1.56
  -2   8   2   63.08    1.42
  -2   8   2   62.48    1.50
   2   8  -2   64.06    1.49
  -1  -8   2   52.76    1.09
   1  -8  -2   52.72    1.15
  -1  -8   2   51.88    1.07
   1  -8  -2   52.08    1.04
   1  -8  -2   50.89    1.15
   1   8  -2   51.80    1.27
   1   8  -2   50.17    1.30
  -1   8   2   52.56    1.30
  -1   8   2   54.04    1.32
   1   8  -2   52.90    0.99
   0  -8  -2    1.65    0.16
   0  -8  -2    1.48    0.15
   0  -8  -2    1.36    0.10
   0  -8   2    1.39    0.14
   0  -8   2    1.49    0.13
   0   8  -2    1.38    0.19
   0   8  -2    1.27    0.13
   0   8  -2    1.56    0.21
   0   8   2    1.33    0.21
   0   8   2    1.46    0.23
   0   8   2    1.51    0.15
  -1  -8  -2    2.57    0.16
  -1  -8  -2    2.38    0.18
   1  -8   2    2.52    0.20
   1  -8   2    2.39    0.08
   1   8   2    2.41    0.30
   1   8   2    2.61    0.24
  -1   8  -2    2.41    0.24
  -1   8  -2    2.60    0.26
   2  -8   2    9.06    0.23
  -2  -8  -2    8.28    0.29
   2  -8   2    8.45    0.39
  -2  -8  -2    8.36    0.34
  -2   8  -2    8.34    0.38
   2   8   2    8.28    0.39
   2   8   2    7.19    0.48
  -2   8  -2    8.41    0.42
  -3  -8  -2    1.67    0.12
   3  -8   2    1.66    0.17
   3  -8   2    1.74    0.24
  -3  -8  -2    1.29    0.17
   3   8   2    1.82    0.32
   3   8   2    1.36    0.20
  -3   8  -2    1.40    0.23
   4  -8   2   10.95    0.53
   4  -8   2   10.38    0.38
  -4  -8  -2    9.11    0.42
   4   8   2   10.06    0.49
  -4   8  -2   10.79    0.53
   4   8   2   10.19    0.65
  -5  -8  -2    2.25    0.26
   5  -8   2    2.43    0.19
   5  -8   2    3.09    0.37
   5   8   2    2.55    0.31
  -5   8  -2    2.91    0.22
  -5   8  -2    2.43    0.32
   6  -8   2    3.71    0.42
  -6  -8  -2    3.64    0.35
   6   8   2    3.74    0.56
   6   8   2    4.01    0.41
  -6   8  -2    2.84    0.37
  -7  -8  -2    3.08    0.34
   7  -8   2    3.83    0.47
   7   8   2    3.17    0.57
  -7   8  -2    4.73    0.50
   7   8   2    4.03    0.43
   8   8   2    3.59    0.45
   8   8   2    5.81    0.78
   9  -9  -2    0.16    0.16
   9  -9  -2    0.50    0.25
  -9  -9   2    0.27    0.16
  -9   9   2    0.52    0.23
   8  -9  -2    3.10    0.33
  -8  -9   2    3.53    0.35
  -8  -9   2    3.87    0.42
   8  -9  -2    2.93    0.38
  -8   9   2    3.01    0.33
  -8   9   2    3.77    0.41
   8   9  -2    3.09    0.50
   7  -9  -2   24.06    0.77
  -7  -9   2   22.51    0.67
   7  -9  -2   24.97    0.78
   7  -9  -2   24.49    0.88
  -7  -9   2   23.68    0.77
   7   9  -2   24.89    0.77
  -7   9   2   24.66    0.81
  -7   9   2   24.92    0.89
   7   9  -2   26.50    1.11
  -6  -9   2    1.40    0.17
  -6  -9   2    1.00    0.17
   6  -9  -2    0.95    0.19
   6  -9  -2    1.07    0.19
   6  -9  -2    0.96    0.16
  -6   9   2    0.97    0.22
  -6   9   2    1.30    0.22
   6   9  -2    1.23    0.30
   5  -9  -2    6.98    0.37
  -5  -9   2    6.80    0.30
  -5  -9   2    6.32    0.32
   5  -9  -2    6.87    0.31
   5  -9  -2    5.98    0.33
  -5   9   2    7.14    0.43
  -5   9   2    6.41    0.37
   5   9  -2    6.16    0.49
  -4  -9   2    0.17    0.08
   4  -9  -2   -0.01    0.05
   4  -9  -2   -0.03    0.07
  -4  -9   2    0.04    0.07
  -4   9   2    0.22    0.14
   4   9  -2    0.15    0.14
  -4   9   2    0.05    0.05
  -4   9   2    0.02    0.10
   4   9  -2    0.09    0.15
   3  -9  -2   28.61    0.79
  -3  -9   2   29.77    0.69
  -3  -9   2   30.45    0.73
   3  -9  -2   29.67    0.67
  -3  -9   2   29.16    0.72
  -3   9   2   30.91    0.75
   3   9  -2   29.66    1.00
  -3   9   2   29.14    0.90
   3   9  -2   29.47    0.91
  -2  -9   2   21.79    0.56
   2  -9  -2   21.95    0.64
  -2  -9   2   23.45    0.52
   2  -9  -2   22.84    0.51
  -2  -9   2   22.88    0.59
  -2  -9   2   22.26    0.49
   2   9  -2   23.11    0.81
  -2   9   2   22.70    0.76
  -2   9   2   22.45    0.69
   2   9  -2   22.59    0.74
  -1  -9   2    2.50    0.14
   1  -9  -2    2.67    0.12
   1  -9  -2    2.99    0.20
  -1  -9   2    2.98    0.17
  -1  -9   2    2.28    0.14
  -1   9   2    2.47    0.27
   1   9  -2    2.55    0.09
   1   9  -2    2.15    0.25
  -1   9   2    2.97    0.29
   1   9  -2    2.84    0.30
   0  -9  -2  224.52    4.22
   0  -9  -2  211.57    4.22
   0  -9   2  225.96    4.18
   0   9   2  214.31    4.50
   0   9   2  224.36    4.22
   0   9  -2  223.15    4.40
   0   9  -2  235.89    4.16
   0   9   2  224.28    4.48
   0   9  -2  220.78    4.39
   1  -9   2   47.28    1.10
  -1  -9  -2   48.79    1.06
  -1  -9  -2   46.68    1.09
   1   9   2   46.66    1.13
   1   9   2   46.59    1.37
  -1   9  -2   48.53    1.25
  -1   9  -2   47.35    1.19
  -2  -9  -2    0.05    0.08
   2  -9   2   -0.05    0.05
   2  -9   2    0.10    0.09
   2  -9   2    0.02    0.02
  -2  -9  -2    0.03    0.05
   2   9   2   -0.12    0.12
   2   9   2    0.16    0.09
  -2   9  -2   -0.12    0.09
  -2   9  -2    0.00    0.09
  -3  -9  -2   10.13    0.32
   3  -9   2   10.25    0.48
   3  -9   2    9.99    0.37
  -3  -9  -2    9.95    0.42
   3   9   2   10.22    0.45
  -3   9  -2    9.49    0.49
  -3   9  -2    9.76    0.44
   3   9   2   10.66    0.65
  -4  -9  -2   24.00    0.73
   4  -9   2   22.21    0.81
   4  -9   2   22.32    0.65
  -4   9  -2   22.70    0.83
   4   9   2   24.08    0.79
   4   9   2   22.50    1.03
   5  -9   2   41.61    1.25
   5  -9   2   39.60    1.01
  -5  -9  -2   42.70    1.14
   5   9   2   40.66    1.19
   5   9   2   40.07    1.52
  -5   9  -2   43.43    1.29
  -6  -9  -2    0.88    0.20
   6  -9   2    1.02    0.26
  -6   9  -2    0.53    0.20
   6   9   2    0.69    0.20
   6   9   2    1.49    0.39
  -7  -9  -2   18.77    0.76
   7  -9   2   18.84    0.89
   7   9   2   18.78    0.82
   7   9   2   20.47    1.16
  -7   9  -2   18.53    0.87
   8   9   2   18.40    1.18
  -9 -10   2    0.30    0.16
  -9  10   2    0.62    0.23
   8 -10  -2    0.27    0.17
  -8 -10   2    0.07    0.13
   8 -10  -2    0.22    0.14
  -8  10   2    0.18    0.19
   8  10  -2    0.42    0.28
  -8  10   2    0.05    0.16
  -7 -10   2    2.06    0.21
   7 -10  -2    1.49    0.26
   7 -10  -2    1.53    0.21
   7 -10  -2    1.73    0.24
  -7 -10   2    1.59    0.22
  -7  10   2    2.01    0.31
  -7  10   2    1.31    0.24
   7  10  -2    1.37    0.35
   6 -10  -2    2.11    0.27
   6 -10  -2    2.68    0.27
  -6 -10   2    2.84    0.27
  -6 -10   2    2.82    0.21
   6 -10  -2    2.65    0.25
  -6  10   2    2.61    0.29
   6  10  -2    3.47    0.48
  -6  10   2    2.89    0.34
   5 -10  -2    3.44    0.26
  -5 -10   2    2.88    0.20
   5 -10  -2    2.55    0.26
   5 -10  -2    2.85    0.20
  -5 -10   2    2.93    0.22
  -5  10   2    3.04    0.30
  -5  10   2    3.40    0.36
   5  10  -2    2.92    0.40
  -4 -10   2    5.00    0.25
   4 -10  -2    4.51    0.21
  -4 -10   2    4.56    0.24
   4 -10  -2    4.08    0.27
  -4  10   2    4.06    0.33
   4  10  -2    4.27    0.47
  -4  10   2    4.28    0.20
   4  10  -2    4.31    0.36
  -3 -10   2    0.30    0.07
   3 -10  -2    0.29    0.06
   3 -10  -2    0.18    0.10
  -3 -10   2    0.24    0.08
  -3 -10   2    0.18    0.08
  -3  10   2    0.11    0.14
   3  10  -2    0.12    0.15
  -3  10   2    0.33    0.11
   3  10  -2    0.47    0.20
   2 -10  -2    9.38    0.38
   2 -10  -2    9.41    0.27
  -2 -10   2    9.41    0.33
  -2 -10   2    8.89    0.32
   2  10  -2    9.55    0.52
  -2  10   2    9.89    0.50
  -2  10   2    9.57    0.43
   2  10  -2   10.03    0.49
  -1 -10   2    0.81    0.08
  -1 -10   2    0.70    0.10
   1 -10  -2    0.48    0.10
   1 -10  -2    0.71    0.08
  -1 -10   2    0.86    0.12
   1 -10  -2    0.97    0.15
   1  10  -2    0.73    0.05
   1  10  -2    0.49    0.16
  -1  10   2    0.68    0.18
  -1  10   2    0.77    0.18
   1  10  -2    0.48    0.15
   0 -10  -2    1.88    0.18
   0 -10  -2    2.10    0.20
   0 -10   2    2.21    0.14
   0  10   2    1.55    0.26
   0  10   2    2.15    0.20
   0  10   2    2.21    0.30
   0  10  -2    1.63    0.24
   0  10  -2    1.85    0.25
  -1 -10  -2    0.14    0.07
   1 -10   2    0.29    0.09
  -1 -10  -2    0.23    0.08
  -1  10  -2    0.14    0.10
   1  10   2    0.13    0.09
   1  10   2    0.20    0.14
  -1  10  -2    0.34    0.14
   1  10   2    0.20    0.17
   2 -10   2    3.22    0.24
  -2 -10  -2    2.88    0.18
  -2 -10  -2    3.56    0.24
   2 -10   2    2.94    0.20
   2  10   2    3.62    0.25
  -2  10  -2    2.81    0.32
  -2  10  -2    3.01    0.25
   2  10   2    2.82    0.39
   3 -10   2    1.83    0.19
  -3 -10  -2    1.97    0.22
   3 -10   2    1.68    0.23
  -3 -10  -2    1.76    0.14
  -3  10  -2    1.70    0.23
   3  10   2    2.22    0.39
  -3  10  -2    1.51    0.26
   3  10   2    1.72    0.22
  -4 -10  -2   10.39    0.47
   4 -10   2   10.98    0.53
   4 -10   2   11.06    0.43
  -4  10  -2   10.10    0.55
   4  10   2   11.30    0.50
   4  10   2   11.62    0.75
   5 -10   2    1.21    0.25
   5 -10   2    1.03    0.17
  -5 -10  -2    1.11    0.20
  -5  10  -2    1.42    0.29
   5  10   2    1.21    0.22
   5  10   2    0.54    0.26
   6 -10   2    2.16    0.33
  -6 -10  -2    1.70    0.25
  -6  10  -2    2.08    0.34
   6  10   2    2.34    0.48
   6  10   2    2.50    0.31
   7 -10   2    5.10    0.53
  -7 -10  -2    5.01    0.44
   7  10   2    6.20    0.77
  -7  10  -2    5.95    0.58
  -9 -11   2    5.40    0.52
  -9  11   2    5.49    0.54
   8 -11  -2    1.40    0.29
  -8 -11   2    1.32    0.24
  -8  11   2    0.88    0.26
   8  11  -2    2.78    0.48
  -8  11   2    1.75    0.28
  -7 -11   2    3.76    0.26
   7 -11  -2    3.77    0.29
   7 -11  -2    3.53    0.34
  -7 -11   2    3.63    0.33
   7 -11  -2    3.71    0.39
   7  11  -2    4.62    0.58
  -7  11   2    4.46    0.40
  -7  11   2    3.53    0.41
  -6 -11   2    2.82    0.28
   6 -11  -2    3.60    0.29
   6 -11  -2    3.29    0.23
  -6 -11   2    3.13    0.23
   6 -11  -2    3.94    0.35
  -6  11   2    3.67    0.36
  -6  11   2    3.05    0.36
   6  11  -2    2.92    0.45
   5 -11  -2    4.65    0.32
  -5 -11   2    4.47    0.28
  -5 -11   2    4.87    0.27
   5 -11  -2    5.13    0.25
   5  11  -2    4.69    0.52
  -5  11   2    4.62    0.35
   5  11  -2    5.04    0.48
  -5  11   2    4.45    0.37
   4 -11  -2   18.19    0.48
  -4 -11   2   17.48    0.54
   4 -11  -2   17.77    0.61
  -4 -11   2   17.51    0.55
   4  11  -2   18.85    0.77
  -4  11   2   18.10    0.73
  -4  11   2   17.37    0.50
   4  11  -2   18.68    0.84
   3 -11  -2    1.66    0.11
  -3 -11   2    1.57    0.16
   3 -11  -2    1.61    0.20
  -3 -11   2    1.71    0.17
   3  11  -2    1.66    0.26
  -3  11   2    1.84    0.21
  -3  11   2    1.57    0.27
   3  11  -2    1.74    0.31
   2 -11  -2   15.75    0.39
  -2 -11   2   15.60    0.48
   2 -11  -2   16.04    0.55
  -2 -11   2   15.88    0.47
   2  11  -2   15.58    0.66
  -2  11   2   15.86    0.60
   2  11  -2   14.98    0.69
  -2  11   2   16.02    0.67
   1 -11  -2   21.65    0.50
   1 -11  -2   21.38    0.64
   1 -11  -2   21.61    0.65
  -1 -11   2   21.26    0.59
  -1  11   2   22.16    0.82
  -1  11   2   22.18    0.80
   1  11  -2   22.67    0.79
   1  11  -2   22.18    0.81
   0 -11  -2   54.25    1.24
   0 -11  -2   53.86    1.23
   0 -11   2   53.90    1.10
   0  11  -2   54.03    1.42
   0  11   2   53.53    1.47
   0  11   2   52.31    1.19
   0  11   2   54.59    1.51
   0  11  -2   50.39    1.38
   1 -11   2   29.99    0.77
  -1 -11  -2   32.63    0.84
  -1 -11  -2   31.00    0.80
   1  11   2   30.74    1.11
  -1  11  -2   31.08    0.98
   1  11   2   32.27    1.06
   1  11   2   29.43    0.80
  -1  11  -2   31.04    0.93
   2 -11   2   11.81    0.44
  -2 -11  -2   12.26    0.42
   2 -11   2   11.72    0.46
  -2 -11  -2   12.49    0.48
   2  11   2   12.02    0.45
  -2  11  -2   12.48    0.53
   2  11   2   12.04    0.70
  -2  11  -2   12.82    0.60
  -3 -11  -2   27.00    0.81
   3 -11   2   26.49    0.83
   3 -11   2   27.53    0.77
  -3 -11  -2   28.05    0.70
   3  11   2   26.88    0.79
  -3  11  -2   27.76    0.84
   3  11   2   28.31    1.16
  -3  11  -2   27.10    0.95
   4 -11   2    0.62    0.17
   4 -11   2    0.81    0.15
  -4 -11  -2    0.70    0.17
  -4  11  -2    0.96    0.24
   4  11   2    0.85    0.17
   4  11   2    0.24    0.23
   5 -11   2    1.75    0.21
  -5 -11  -2    1.73    0.25
   5 -11   2    1.63    0.28
   5  11   2    1.62    0.42
  -5  11  -2    2.08    0.32
   6 -11   2   15.69    0.75
  -6 -11  -2   15.94    0.67
  -6  11  -2   14.93    0.77
   6  11   2   14.61    0.97
  -7 -11  -2    1.74    0.28
   7 -11   2    2.06    0.36
   7  11   2    2.06    0.54
  -7  11  -2    1.79    0.35
   8 -12  -2    1.70    0.30
  -8 -12   2    1.39    0.24
  -8  12   2    2.03    0.34
   8  12  -2    1.11    0.37
  -8  12   2    1.35    0.28
  -7 -12   2    0.16    0.10
   7 -12  -2    0.07    0.13
   7 -12  -2    0.07    0.12
  -7 -12   2    0.02    0.12
  -7  12   2    0.12    0.17
  -7  12   2    0.20    0.17
   7  12  -2   -0.03    0.21
   6 -12  -2    0.02    0.11
  -6 -12   2    0.11    0.09
  -6 -12   2    0.07    0.11
  -6  12   2    0.01    0.14
  -6  12   2    0.29    0.17
   6  12  -2   -0.17    0.16
   6  12  -2   -0.08    0.19
   5 -12  -2   10.12    0.36
  -5 -12   2   10.18    0.41
  -5 -12   2   10.66    0.44
   5 -12  -2   10.56    0.49
   5  12  -2   11.52    0.73
  -5  12   2   10.26    0.51
  -5  12   2   10.52    0.57
   5  12  -2   12.02    0.66
  -4 -12   2    7.44    0.33
  -4 -12   2    7.82    0.35
   4 -12  -2    6.83    0.26
   4 -12  -2    7.13    0.38
  -4  12   2    7.50    0.49
   4  12  -2    6.75    0.49
   4  12  -2    7.15    0.55
   3 -12  -2   29.81    0.67
  -3 -12   2   31.62    0.80
   3 -12  -2   29.40    0.87
  -3 -12   2   32.08    0.80
   3  12  -2   30.26    1.03
  -3  12   2   29.65    1.01
   3  12  -2   32.52    1.14
  -3  12   2   29.79    0.86
   2 -12  -2    0.04    0.04
  -2 -12   2    0.00    0.06
   2 -12  -2   -0.01    0.08
  -2 -12   2    0.17    0.08
   2  12  -2    0.01    0.14
   2  12  -2   -0.12    0.13
  -2  12   2    0.06    0.13
  -2  12   2   -0.10    0.13
   1 -12  -2   46.55    0.95
   1 -12  -2   46.13    1.14
   1  12  -2   46.14    1.32
  -1  12   2   46.31    1.34
   1  12  -2   46.33    1.35
  -1  12   2   47.37    1.37
   0 -12  -2    7.83    0.36
   0 -12  -2    8.18    0.36
   0 -12   2    7.64    0.24
   0  12  -2    7.94    0.47
   0  12   2    6.99    0.48
   0  12   2    7.58    0.51
   0  12   2    7.54    0.32
   0  12  -2    6.62    0.43
   1 -12   2   10.14    0.41
  -1 -12  -2   10.60    0.41
  -1 -12  -2   10.77    0.44
   1 -12   2   10.65    0.37
   1  12   2   11.48    0.41
   1  12   2    9.89    0.59
   1  12   2   11.20    0.65
  -1  12  -2   10.70    0.51
  -1  12  -2   11.89    0.59
  -2 -12  -2    7.03    0.32
   2 -12   2    6.66    0.34
   2 -12   2    7.43    0.35
  -2 -12  -2    6.73    0.36
   2  12   2    8.76    0.57
   2  12   2    6.97    0.32
   2  12   2    7.75    0.60
  -2  12  -2    7.28    0.42
  -2  12  -2    7.91    0.49
   3 -12   2    0.15    0.10
   3 -12   2    0.15    0.10
  -3 -12  -2    0.11    0.07
  -3 -12  -2    0.21    0.12
   3  12   2   -0.15    0.18
  -3  12  -2   -0.01    0.11
  -3  12  -2    0.33    0.17
  -4 -12  -2    7.43    0.41
   4 -12   2    8.20    0.46
   4 -12   2    8.92    0.41
   4  12   2    8.78    0.72
  -4  12  -2    8.63    0.54
  -5 -12  -2    2.35    0.28
   5 -12   2    2.79    0.35
   5 -12   2    2.08    0.24
   5  12   2    3.12    0.54
  -5  12  -2    2.70    0.37
  -6 -12  -2    1.08    0.23
   6 -12   2    0.85    0.23
  -6  12  -2    0.97    0.29
   6  12   2    0.65    0.35
   7 -12   2   10.63    0.66
   7  12   2    9.63    0.99
  -8 -13   2    0.16    0.15
  -8  13   2    0.75    0.24
  -8  13   2    0.11    0.21
   8  13  -2    0.10    0.42
   8  13  -2    0.19    0.35
   7 -13  -2    2.42    0.30
  -7 -13   2    2.88    0.27
  -7 -13   2    2.63    0.30
  -7  13   2    3.15    0.37
   7  13  -2    3.38    0.48
   7  13  -2    1.83    0.44
  -7  13   2    2.87    0.40
  -6 -13   2    1.77    0.20
  -6 -13   2    1.82    0.23
   6 -13  -2    1.53    0.24
  -6  13   2    1.08    0.24
  -6  13   2    1.65    0.31
   6  13  -2    1.39    0.35
   6  13  -2    1.21    0.36
  -5 -13   2    8.02    0.34
   5 -13  -2    7.32    0.42
  -5 -13   2    7.67    0.38
  -5 -13   2    8.15    0.36
   5  13  -2    7.62    0.55
  -5  13   2    8.21    0.52
  -5  13   2    7.79    0.46
   5  13  -2    8.33    0.63
  -4 -13   2   -0.01    0.08
  -4 -13   2    0.13    0.08
   4 -13  -2    0.02    0.09
  -4  13   2   -0.04    0.14
   4  13  -2   -0.10    0.15
   4  13  -2   -0.16    0.16
   3 -13  -2   22.76    0.54
  -3 -13   2   22.82    0.66
  -3 -13   2   23.01    0.67
   3 -13  -2   24.04    0.76
  -3  13   2   22.20    0.74
   3  13  -2   23.74    0.98
   3  13  -2   24.49    0.93
  -3  13   2   24.80    0.93
   2 -13  -2   53.73    1.33
   2 -13  -2   55.07    1.09
  -2 -13   2   53.52    1.24
  -2 -13   2   55.57    1.23
  -2  13   2   56.79    1.57
  -2  13   2   53.42    1.43
   2  13  -2   54.26    1.53
   2  13  -2   53.19    1.58
   1 -13  -2    6.55    0.35
  -1  13   2    7.48    0.50
  -1  13   2    8.18    0.52
   1  13  -2    7.02    0.49
   1  13  -2    7.12    0.49
   0 -13  -2   41.77    1.06
   0 -13   2   40.45    1.03
   0 -13  -2   40.88    1.06
   0  13   2   42.15    1.34
   0  13  -2   42.56    1.25
   0  13   2   41.93    1.03
   0  13  -2   40.95    1.25
   0  13   2   40.88    1.32
   1 -13   2    0.39    0.12
   1 -13   2    0.41    0.09
  -1 -13  -2    0.59    0.14
  -1 -13  -2    0.32    0.11
  -1  13  -2    0.83    0.20
   1  13   2    0.51    0.23
  -1  13  -2    1.07    0.25
   1  13   2   -0.04    0.17
   2 -13   2    0.15    0.09
  -2 -13  -2    0.22    0.09
  -2 -13  -2    0.20    0.11
   2 -13   2    0.02    0.08
  -2  13  -2    0.41    0.16
  -2  13  -2    0.13    0.16
   2  13   2    0.42    0.23
   2  13   2    0.24    0.23
  -3 -13  -2   19.03    0.67
   3 -13   2   19.47    0.67
  -3 -13  -2   18.38    0.57
   3 -13   2   17.59    0.62
  -3  13  -2   18.07    0.79
   3  13   2   18.43    0.99
  -3  13  -2   18.47    0.70
   3  13   2   20.33    0.91
  -4 -13  -2    7.01    0.41
   4 -13   2    6.36    0.36
   4 -13   2    6.95    0.42
   4  13   2    7.89    0.78
  -4  13  -2    6.68    0.41
  -4  13  -2    6.55    0.51
   5 -13   2    0.05    0.13
  -5 -13  -2    0.03    0.12
   5 -13   2    0.10    0.11
   5  13   2   -0.04    0.26
  -5  13  -2    0.11    0.17
  -6 -13  -2    4.41    0.42
   6 -13   2    4.74    0.48
  -6  13  -2    4.44    0.51
   6  13   2    4.78    0.71
   7 -13   2    3.92    0.47
  -8 -14   2    2.24    0.31
   8  14  -2    2.46    0.53
  -8  14   2    1.65    0.33
  -8  14   2    2.10    0.38
  -7 -14   2    3.42    0.27
  -7 -14   2    3.26    0.34
   7 -14  -2    3.57    0.38
  -7  14   2    4.11    0.46
   7  14  -2    3.30    0.50
  -7  14   2    3.46    0.40
   7  14  -2    3.60    0.58
  -6 -14   2    1.61    0.21
  -6 -14   2    1.86    0.25
   6 -14  -2    1.42    0.24
   6  14  -2    1.60    0.37
  -6  14   2    1.87    0.30
  -6  14   2    1.31    0.28
   6  14  -2    1.44    0.39
  -5 -14   2    0.20    0.10
   5 -14  -2    0.16    0.12
  -5 -14   2    0.29    0.11
  -5 -14   2    0.29    0.13
   5  14  -2    0.57    0.27
  -5  14   2    0.37    0.17
  -5  14   2    0.60    0.25
   5  14  -2    0.02    0.23
  -4 -14   2    6.93    0.36
  -4 -14   2    7.78    0.36
   4 -14  -2    7.71    0.43
  -4 -14   2    7.46    0.35
  -4  14   2    7.32    0.53
   4  14  -2    8.11    0.56
   4  14  -2    7.64    0.60
  -3 -14   2    0.20    0.10
   3 -14  -2    0.28    0.12
  -3 -14   2    0.31    0.11
  -3 -14   2    0.19    0.10
   3  14  -2    0.12    0.19
  -3  14   2    0.45    0.21
  -3  14   2    0.29    0.14
   3  14  -2    0.17    0.17
   2 -14  -2    4.14    0.31
  -2 -14   2    4.86    0.27
  -2 -14   2    4.54    0.28
   2  14  -2    4.76    0.48
  -2  14   2    4.44    0.38
  -2  14   2    3.85    0.43
   2  14  -2    4.08    0.47
   1 -14  -2    5.83    0.34
  -1 -14   2    6.07    0.32
   1  14  -2    6.55    0.48
  -1  14   2    6.46    0.49
  -1  14   2    6.62    0.49
   1  14  -2    6.26    0.47
   0 -14  -2   -0.01    0.08
   0 -14   2   -0.04    0.07
   0 -14  -2    0.02    0.10
   0  14   2    0.01    0.17
   0  14   2    0.25    0.19
   0  14  -2    0.02    0.15
   0  14  -2    0.21    0.19
  -1 -14  -2    1.54    0.20
   1 -14   2    2.14    0.24
  -1 -14  -2    1.42    0.19
   1  14   2    1.68    0.33
  -1  14  -2    1.46    0.27
  -1  14  -2    1.87    0.31
   1  14   2    2.01    0.36
  -2 -14  -2    0.48    0.15
   2 -14   2    0.17    0.11
  -2 -14  -2    0.36    0.11
  -2  14  -2    0.25    0.19
   2  14   2    0.49    0.25
   2  14   2    0.43    0.25
  -2  14  -2    0.33    0.15
  -3 -14  -2    4.23    0.36
  -3 -14  -2    3.87    0.25
   3 -14   2    4.17    0.29
   3 -14   2    4.02    0.29
  -3  14  -2    3.11    0.40
   3  14   2    4.09    0.50
   3  14   2    3.19    0.50
  -3  14  -2    4.03    0.34
   4 -14   2   11.94    0.51
  -4 -14  -2   11.17    0.54
   4 -14   2   11.14    0.53
  -4  14  -2   11.79    0.56
  -4  14  -2   10.96    0.67
   4  14   2   11.97    0.84
   5 -14   2    5.03    0.35
   5 -14   2    4.22    0.41
  -5 -14  -2    4.82    0.38
   5  14   2    3.94    0.62
  -5  14  -2    5.65    0.55
  -6 -14  -2   -0.16    0.13
   6 -14   2   -0.11    0.14
   6  14   2    0.23    0.31
  -6  14  -2   -0.27    0.18
   7 -14   2    1.82    0.34
  -8 -15   2    0.11    0.20
  -7 -15   2    6.34    0.42
  -7 -15   2    5.99    0.36
   7 -15  -2    6.24    0.45
   7  15  -2    5.44    0.67
  -7  15   2    5.46    0.55
   7  15  -2    6.42    0.69
  -7  15   2    7.05    0.52
  -6 -15   2    1.46    0.21
   6 -15  -2    2.14    0.29
  -6 -15   2    1.82    0.25
  -6  15   2    2.20    0.37
   6  15  -2    1.69    0.41
   6  15  -2    1.14    0.37
  -6  15   2    1.58    0.29
  -5 -15   2    1.19    0.18
  -5 -15   2    1.25    0.20
   5 -15  -2    1.31    0.24
   5  15  -2    1.16    0.36
   5  15  -2    1.65    0.35
  -5  15   2    1.78    0.33
   4 -15  -2    0.71    0.18
  -4 -15   2    0.47    0.14
  -4 -15   2    0.68    0.14
  -4 -15   2    0.67    0.14
  -4  15   2    0.64    0.23
   4  15  -2    0.34    0.24
   4  15  -2    0.81    0.27
  -3 -15   2    1.53    0.20
   3 -15  -2    1.44    0.22
  -3 -15   2    2.00    0.22
   3  15  -2    1.52    0.33
  -3  15   2    1.11    0.30
  -3  15   2    1.69    0.26
   3  15  -2    1.62    0.34
   2 -15  -2   20.74    0.72
  -2 -15   2   22.00    0.67
  -2 -15   2   19.92    0.63
  -2  15   2   20.23    0.89
   2  15  -2   20.15    0.90
   2  15  -2   20.51    0.93
  -2  15   2   20.13    0.81
   1 -15  -2  119.02    2.54
  -1 -15   2  118.20    2.48
  -1  15   2  119.86    2.81
   1  15  -2  116.97    2.80
   1  15  -2  116.58    2.82
  -1  15   2  118.12    2.87
   0 -15   2    0.04    0.08
   0 -15  -2    0.01    0.09
   0 -15  -2    0.22    0.12
   0  15  -2    0.23    0.18
   0  15   2   -0.15    0.15
   0  15   2    0.16    0.21
   0  15  -2    0.16    0.20
  -1 -15  -2    4.66    0.31
  -1 -15  -2    4.78    0.32
   1 -15   2    4.38    0.30
   1  15   2    4.09    0.51
  -1  15  -2    4.99    0.40
  -1  15  -2    3.68    0.44
   1  15   2    3.99    0.48
  -2 -15  -2    5.27    0.31
   2 -15   2    4.80    0.32
  -2 -15  -2    4.86    0.34
  -2  15  -2    4.61    0.39
   2  15   2    4.63    0.59
   2  15   2    4.30    0.52
  -2  15  -2    5.35    0.52
   3 -15   2    7.03    0.39
  -3 -15  -2    6.61    0.40
  -3 -15  -2    5.65    0.32
   3  15   2    5.40    0.60
  -3  15  -2    6.61    0.44
  -3  15  -2    7.10    0.52
   3  15   2    4.63    0.61
  -4 -15  -2    0.86    0.20
   4 -15   2    0.75    0.17
   4  15   2    0.60    0.29
  -4  15  -2    1.29    0.25
   4  15   2    0.52    0.29
  -4  15  -2    0.97    0.29
   5 -15   2    7.44    0.44
  -5 -15  -2    7.68    0.48
  -5  15  -2    7.89    0.58
   5  15   2    6.98    0.82
  -7 -16   2    8.85    0.51
   7 -16  -2    8.57    0.53
  -7 -16   2    9.19    0.45
   7  16  -2    8.96    1.02
  -7  16   2    9.19    0.66
  -7  16   2    8.85    0.58
   7  16  -2    9.00    0.84
  -6 -16   2    1.23    0.23
   6 -16  -2    1.58    0.28
  -6 -16   2    1.46    0.21
   6  16  -2    0.50    0.32
   6  16  -2    1.35    0.37
  -6  16   2    1.11    0.30
  -6  16   2    0.94    0.26
   5 -16  -2    2.25    0.31
  -5 -16   2    1.67    0.22
  -5 -16   2    1.47    0.22
  -5  16   2    1.31    0.33
   5  16  -2    1.92    0.40
   5  16  -2    1.18    0.38
   4 -16  -2    5.60    0.39
  -4 -16   2    5.84    0.35
  -4 -16   2    5.69    0.33
  -4  16   2    6.25    0.51
   4  16  -2    5.87    0.65
   4  16  -2    6.48    0.64
  -3 -16   2    0.53    0.14
   3 -16  -2    0.14    0.13
  -3 -16   2    0.23    0.11
  -3  16   2    0.22    0.21
   3  16  -2   -0.23    0.14
   3  16  -2    0.62    0.27
  -2 -16   2   26.07    0.79
  -2 -16   2   26.79    0.77
   2 -16  -2   25.93    0.86
   2  16  -2   26.42    1.07
  -2  16   2   25.98    1.07
  -2  16   2   24.60    0.95
   2  16  -2   25.51    1.08
  -1 -16   2   -0.07    0.07
   1 -16  -2    0.00    0.10
   1  16  -2    0.08    0.18
   1  16  -2    0.25    0.19
  -1  16   2   -0.22    0.18
  -1  16   2   -0.17    0.16
   0 -16   2    2.25    0.25
   0 -16  -2    2.01    0.25
   0 -16  -2    2.21    0.27
   0  16   2    2.04    0.38
   0  16  -2    2.47    0.36
   0  16   2    1.87    0.36
   0  16  -2    2.15    0.38
  -1 -16  -2    2.26    0.25
  -1 -16  -2    2.82    0.29
   1 -16   2    2.18    0.25
  -1  16  -2    1.82    0.34
   1  16   2    2.40    0.41
  -1  16  -2    1.70    0.31
   1  16   2    1.97    0.42
  -2 -16  -2    0.34    0.12
   2 -16   2    0.14    0.12
  -2 -16  -2    0.10    0.12
   2  16   2    0.27    0.26
  -2  16  -2    0.21    0.16
  -2  16  -2    0.07    0.18
   2  16   2   -0.05    0.21
   3 -16   2    1.46    0.23
  -3 -16  -2    1.71    0.26
   3  16   2    2.03    0.48
  -3  16  -2    1.69    0.29
   3  16   2    1.90    0.43
  -3  16  -2    1.66    0.33
  -4 -16  -2   12.41    0.59
   4 -16   2   12.69    0.57
   4  16   2   11.96    0.90
   4  16   2   12.78    0.84
  -4  16  -2   12.50    0.76
  -5 -16  -2    1.61    0.28
   5 -16   2    2.11    0.29
   5  16   2    1.27    0.45
  -5  16  -2    1.54    0.34
   5  16   2    1.91    0.44
   7  17  -2   11.92    0.86
  -6 -17   2    0.15    0.14
   6 -17  -2    0.25    0.16
   6  17  -2   -0.12    0.27
  -6  17   2    0.48    0.23
   6  17  -2   -0.11    0.23
  -6  17   2    0.05    0.24
   5 -17  -2   18.04    0.76
  -5 -17   2   17.56    0.66
   5  17  -2   18.09    1.02
   5  17  -2   19.33    1.01
  -5  17   2   17.99    0.90
   4 -17  -2    2.62    0.32
  -4 -17   2    2.93    0.28
  -4 -17   2    3.08    0.30
   4  17  -2    3.09    0.49
  -4  17   2    1.91    0.36
   4  17  -2    3.01    0.45
  -3 -17   2   -0.01    0.09
  -3 -17   2    0.05    0.10
   3 -17  -2    0.11    0.13
   3  17  -2    0.02    0.21
   3  17  -2    0.20    0.23
  -3  17   2   -0.12    0.19
  -2 -17   2    0.16    0.11
   2 -17  -2    0.15    0.13
  -2  17   2   -0.12    0.16
   2  17  -2    0.09    0.19
   2  17  -2    0.26    0.26
  -2  17   2    0.12    0.23
   1 -17  -2    3.59    0.35
  -1 -17   2    3.24    0.32
   1  17  -2    3.36    0.47
  -1  17   2    3.47    0.45
  -1  17   2    3.11    0.47
   1  17  -2    3.33    0.47
   0 -17  -2    1.64    0.24
   0 -17  -2    1.89    0.25
   0 -17   2    1.83    0.25
   0  17   2    1.15    0.32
   0  17  -2    1.50    0.34
   0  17   2    2.51    0.43
   0  17  -2    1.88    0.34
  -1 -17  -2    6.98    0.40
  -1 -17  -2    7.79    0.43
   1 -17   2    7.48    0.41
   1  17   2    7.09    0.72
   1  17   2    6.09    0.63
  -1  17  -2    7.25    0.56
  -1  17  -2    6.20    0.48
  -2 -17  -2   14.08    0.57
  -2 -17  -2   15.17    0.63
   2 -17   2   14.60    0.61
   2  17   2   14.54    0.87
  -2  17  -2   14.18    0.69
  -2  17  -2   14.72    0.79
   2  17   2   16.07    0.95
   3 -17   2    0.25    0.14
  -3 -17  -2    0.16    0.15
   3  17   2   -0.32    0.25
   3  17   2   -0.09    0.22
  -3  17  -2   -0.10    0.15
  -3  17  -2    0.32    0.23
   4 -17   2    0.47    0.17
  -4 -17  -2    0.09    0.14
  -4  17  -2    0.32    0.27
   4  17   2    0.36    0.32
   4  17   2   -0.04    0.26
   5 -17   2    1.42    0.25
  -6  18   2    4.79    0.64
   6  18  -2    4.03    0.59
  -5 -18   2    3.41    0.34
   5 -18  -2    3.03    0.36
   5  18  -2    4.02    0.56
  -5  18   2    3.11    0.47
   5  18  -2    3.17    0.54
  -4 -18   2    5.31    0.36
   4 -18  -2    5.62    0.42
  -4 -18   2    5.51    0.35
   4  18  -2    5.20    0.63
   4  18  -2    3.94    0.56
  -4  18   2    4.09    0.54
  -3 -18   2   -0.15    0.08
  -3 -18   2   -0.12    0.10
   3 -18  -2    0.18    0.15
   3  18  -2    0.01    0.23
   3  18  -2   -0.13    0.21
  -3  18   2    0.03    0.24
   2 -18  -2   30.18    0.99
  -2 -18   2   30.42    0.93
  -2  18   2   29.26    1.10
   2  18  -2   29.79    1.23
  -2  18   2   30.57    1.24
   2  18  -2   30.51    1.25
   1 -18  -2   -0.06    0.11
  -1 -18   2   -0.01    0.10
   1  18  -2   -0.04    0.22
  -1  18   2    0.09    0.24
  -1  18   2    0.17    0.22
   1  18  -2   -0.10    0.22
   0 -18  -2    6.46    0.41
   0 -18   2    6.88    0.42
   0  18   2    6.65    0.69
   0  18   2    6.63    0.67
   0  18  -2    7.51    0.56
   0  18  -2    8.07    0.63
  -1 -18  -2    0.11    0.12
   1 -18   2   -0.01    0.12
  -1 -18  -2    0.06    0.13
   1  18   2    0.01    0.23
  -1  18  -2    0.08    0.16
   1  18   2   -0.02    0.24
  -1  18  -2   -0.07    0.21
   2 -18   2    5.53    0.38
  -2 -18  -2    5.85    0.38
  -2 -18  -2    5.92    0.40
   2  18   2    5.47    0.70
  -2  18  -2    5.19    0.58
   2  18   2    5.48    0.64
  -2  18  -2    5.52    0.47
   3 -18   2    1.53    0.25
  -3 -18  -2    1.06    0.22
  -3  18  -2    1.04    0.31
   3  18   2    1.01    0.35
  -3  18  -2    1.40    0.28
   3  18   2    1.31    0.40
   4 -18   2    0.09    0.15
  -4 -18  -2   -0.16    0.13
  -4  18  -2    0.26    0.23
   4  18   2    0.05    0.29
   4  18   2    0.28    0.35
   5  19  -2    0.57    0.35
  -5  19   2   -0.19    0.20
  -4 -19   2    1.78    0.25
   4 -19  -2    2.18    0.33
  -4 -19   2    1.95    0.27
   4  19  -2    1.66    0.43
   4  19  -2    2.16    0.48
  -4  19   2    1.41    0.38
  -3 -19   2    0.32    0.14
   3 -19  -2    0.34    0.17
  -3 -19   2    0.32    0.15
  -3  19   2   -0.08    0.21
   3  19  -2    0.17    0.28
   3  19  -2    0.32    0.26
  -2 -19   2    4.47    0.33
   2 -19  -2    4.81    0.39
   2  19  -2    3.88    0.55
   2  19  -2    4.47    0.58
  -2  19   2    5.04    0.61
   1 -19  -2    2.95    0.33
  -1 -19   2    3.30    0.33
   1  19  -2    3.18    0.49
  -1  19   2    2.75    0.45
   1  19  -2    4.46    0.56
  -1  19   2    3.69    0.53
   0 -19  -2    7.99    0.46
   0 -19   2    8.77    0.48
   0  19   2    8.44    0.68
   0  19  -2    8.59    0.64
   0  19  -2    7.87    0.64
   0  19   2    8.53    0.70
  -1 -19  -2    9.73    0.52
   1 -19   2    8.96    0.49
  -1 -19  -2   10.13    0.51
  -1  19  -2    9.82    0.63
  -1  19  -2    8.86    0.69
   1  19   2    8.69    0.72
   1  19   2    9.16    0.74
  -2 -19  -2   -0.06    0.13
  -2 -19  -2    0.21    0.14
   2 -19   2   -0.06    0.11
  -2  19  -2   -0.03    0.25
   2  19   2   -0.29    0.24
   2  19   2   -0.10    0.27
  -2  19  -2    0.06    0.20
   3 -19   2    2.08    0.30
  -3 -19  -2    1.51    0.27
   3  19   2    1.81    0.49
  -3  19  -2    1.24    0.39
   3  19   2    1.90    0.45
  -3  19  -2    1.80    0.39
  -4 -20   2   10.59    0.62
  -4  20   2   13.39    0.92
   4  20  -2   12.42    0.87
   3 -20  -2    0.11    0.16
  -3 -20   2    0.00    0.13
   3  20  -2   -0.24    0.27
   3  20  -2    0.09    0.24
  -3  20   2    0.11    0.28
   2 -20  -2   10.01    0.56
  -2 -20   2   10.81    0.54
   2  20  -2   10.29    0.76
  -2  20   2   11.05    0.78
   2  20  -2   12.31    0.83
  -1 -20   2    0.55    0.17
   1 -20  -2    0.55    0.20
  -1  20   2    0.18    0.27
   1  20  -2   -0.40    0.21
  -1  20   2    0.47    0.29
   1  20  -2    0.32    0.29
   0 -20   2   18.42    0.74
   0 -20  -2   19.71    0.77
   0  20   2   20.66    1.07
   0  20   2   19.23    1.02
   0  20  -2   18.25    0.93
   0  20  -2   16.57    0.94
   1 -20   2    1.26    0.26
  -1 -20  -2    1.37    0.25
  -1 -20  -2    1.34    0.25
  -1  20  -2    1.33    0.32
   1  20   2    1.15    0.37
  -1  20  -2    1.05    0.33
   1  20   2    1.27    0.42
  -2 -20  -2   18.62    0.78
   2 -20   2   19.34    0.79
  -2 -20  -2   19.59    0.75
  -2  20  -2   20.45    1.02
   2  20   2   19.18    1.07
   2  20   2   20.31    1.14
  -2  20  -2   17.58    0.87
  -3 -21   2   16.06    0.68
   3  21  -2   16.37    0.98
   2 -21  -2    7.72    0.59
  -2 -21   2    8.07    0.49
   2  21  -2    8.27    0.82
   2  21  -2    8.70    0.84
  -2  21   2    7.78    0.78
  -1 -21   2    0.16    0.14
   1 -21  -2    0.01    0.15
  -1  21   2    0.17    0.29
   1  21  -2    0.48    0.30
   1  21  -2    0.17    0.28
  -1  21   2    0.37    0.28
   0 -21  -2    1.16    0.25
   0 -21   2    1.09    0.24
   0  21  -2    0.63    0.29
   0  21  -2    0.76    0.33
   0  21   2    0.73    0.38
   0  21   2    1.46    0.41
  -1 -21  -2   10.14    0.55
  -1  21  -2    8.87    0.67
   1  21   2    8.39    0.84
  -1  21  -2    9.74    0.93
  -2  21  -2    4.12    0.51
   0  22   2    0.82    0.37
  -1 -22  -2    0.17    0.16
  -1  22  -2   -0.30    0.24
  -9   0   3   -0.07    0.12
   9   0  -3    0.26    0.17
  -8   0   3    0.05    0.11
   8   0  -3   -0.06    0.12
   7   0  -3   -0.18    0.08
  -7   0   3   -0.05    0.09
   6   0  -3    0.04    0.07
   6   0  -3   -0.14    0.07
  -6   0   3   -0.02    0.08
  -5   0   3   -0.03    0.07
   5   0  -3    0.07    0.06
  -4   0   3    0.05    0.06
  -4   0   3    0.03    0.07
   4   0  -3   -0.03    0.04
   4   0  -3    0.04    0.05
   3   0  -3   -0.03    0.03
  -3   0   3   -0.01    0.06
   3   0  -3   -0.02    0.04
   3   0  -3    0.11    0.06
  -3   0   3    0.12    0.07
   2   0  -3   -0.01    0.04
  -2   0   3    0.02    0.04
   2   0  -3   -0.02    0.05
  -2   0   3    0.06    0.05
   1   0  -3   -0.01    0.03
  -1   0   3   -0.01    0.04
  -1   0   3    0.00    0.03
   1   0  -3    0.00    0.02
  -1   0   3    0.04    0.02
   0   0   3    0.03    0.09
   0   0  -3   -0.02    0.03
   0   0  -3   -0.04    0.03
   0   0   3   -0.03    0.03
   0   0  -3    0.07    0.04
  -1   0  -3   -0.03    0.04
   1   0   3   -0.01    0.02
  -1   0  -3    0.01    0.03
  -1   0  -3   -0.04    0.05
   1   0   3    0.09    0.09
   2   0   3   -0.01    0.09
  -2   0  -3   -0.01    0.05
  -2   0  -3   -0.03    0.06
  -3   0  -3   -0.08    0.07
   3   0   3    0.02    0.09
   4   0   3    0.10    0.13
   5   0   3   -0.13    0.12
   6   0   3    0.22    0.17
  -6   0  -3   -0.07    0.09
  -7   0  -3    0.09    0.12
   7   0   3   -0.06    0.15
  -8   0  -3    0.02    0.15
   8   0   3    0.06    0.19
  10   1  -3    0.58    0.24
   9  -1  -3    2.08    0.32
  -9  -1   3    2.04    0.24
   9   1  -3    2.61    0.34
  -9   1   3    2.34    0.26
   8  -1  -3   -0.11    0.11
  -8  -1   3    0.14    0.11
   8   1  -3    0.01    0.12
  -8   1   3   -0.03    0.10
  -7  -1   3    3.61    0.25
   7  -1  -3    3.61    0.35
   7   1  -3    3.40    0.32
  -7   1   3    3.93    0.27
  -6  -1   3    4.50    0.25
   6  -1  -3    4.58    0.30
   6  -1  -3    4.29    0.19
   6   1  -3    4.55    0.27
  -6   1   3    4.33    0.25
  -6   1   3    4.09    0.26
   6   1  -3    4.22    0.29
   5  -1  -3    6.54    0.21
  -5  -1   3    6.52    0.29
  -5   1   3    6.61    0.27
   5   1  -3    6.54    0.29
  -5   1   3    6.16    0.29
   4  -1  -3   12.91    0.43
   4  -1  -3   12.91    0.38
   4  -1  -3   12.73    0.31
  -4  -1   3   12.86    0.41
   4   1  -3   12.70    0.34
   4   1  -3   12.66    0.40
  -4   1   3   12.96    0.35
  -4   1   3   12.69    0.35
  -4   1   3   12.67    0.41
  -3  -1   3   42.41    0.94
   3  -1  -3   43.10    0.86
   3  -1  -3   42.14    0.94
   3  -1  -3   42.48    0.85
   3   1  -3   42.64    0.95
  -3   1   3   43.08    0.83
  -3   1   3   42.84    0.89
  -3   1   3   41.89    0.94
   3   1  -3   40.36    0.91
   3   1  -3   43.87    0.82
   2  -1  -3   -0.01    0.04
  -2  -1   3    0.02    0.05
   2   1  -3    0.14    0.06
  -2   1   3    0.03    0.03
  -2   1   3   -0.02    0.03
   2   1  -3    0.10    0.05
  -2   1   3   -0.07    0.04
  -2   1   3    0.06    0.06
   1  -1  -3    6.65    0.21
   1  -1  -3    6.59    0.19
  -1  -1   3    6.54    0.14
  -1  -1   3    6.77    0.19
  -1  -1   3    6.26    0.21
   1   1  -3    6.56    0.20
   1   1  -3    6.44    0.26
  -1   1   3    6.49    0.19
   1   1  -3    6.39    0.18
  -1   1   3    6.35    0.22
  -1   1   3    6.51    0.18
   0  -1  -3   25.79    0.57
   0  -1  -3   26.31    0.56
   0  -1   3   25.31    0.75
   0  -1   3   26.51    0.55
   0  -1  -3   26.89    0.56
   0   1  -3   25.81    0.57
   0   1   3   26.44    0.56
   0   1   3   26.12    0.74
   0   1  -3   26.32    0.60
   0   1  -3   27.04    0.54
   0   1  -3   25.13    0.55
   0   1   3   25.21    0.55
  -1  -1  -3   11.45    0.32
   1  -1   3   11.06    0.51
   1  -1   3   11.66    0.25
  -1   1  -3   11.77    0.27
  -1   1  -3   11.34    0.38
   1   1   3   11.25    0.25
   1   1   3   11.80    0.51
  -2  -1  -3  105.56    2.04
   2  -1   3  102.68    2.35
  -2   1  -3  104.79    2.14
   2   1   3  101.04    2.34
  -3  -1  -3   49.36    1.08
   3  -1   3   46.63    1.34
  -3   1  -3   46.78    1.18
   3   1   3   47.26    0.95
   3   1   3   47.47    1.34
  -4  -1  -3    1.30    0.16
   4  -1   3    1.19    0.23
  -4   1  -3    0.95    0.19
   4   1   3    0.64    0.19
  -5  -1  -3    7.14    0.36
   5  -1   3    7.51    0.52
   5   1   3    7.16    0.51
  -5   1  -3    7.33    0.46
  -6  -1  -3    8.81    0.44
   6  -1   3    9.99    0.62
   6   1   3    9.08    0.60
  -7  -1  -3    8.60    0.48
   7  -1   3    8.80    0.62
   7   1   3    9.12    0.63
  -7   1  -3    8.81    0.47
  -8  -1  -3    5.48    0.47
   8  -1   3    4.22    0.57
   8   1   3    4.87    0.55
   8   1   3    5.83    0.72
  -8   1  -3    4.74    0.42
  10   2  -3    1.16    0.27
  -9  -2   3   12.85    0.51
   9  -2  -3   12.97    0.67
  -9   2   3   13.95    0.54
   9   2  -3   11.73    0.62
  -8  -2   3    2.06    0.23
   8  -2  -3    2.15    0.30
  -8   2   3    2.31    0.26
   8   2  -3    2.16    0.29
   7  -2  -3    3.10    0.33
  -7  -2   3    2.70    0.24
  -7   2   3    2.82    0.27
  -7   2   3    2.88    0.26
   7   2  -3    2.06    0.26
   6  -2  -3    0.73    0.15
  -6  -2   3    0.67    0.13
  -6   2   3    0.61    0.13
   6   2  -3    0.82    0.16
   6   2  -3    0.82    0.15
  -6   2   3    0.84    0.14
  -5  -2   3    2.83    0.20
   5   2  -3    2.88    0.22
  -5   2   3    2.77    0.21
  -5   2   3    2.95    0.18
   4  -2  -3   -0.04    0.04
   4  -2  -3    0.05    0.07
  -4  -2   3    0.02    0.06
   4   2  -3   -0.02    0.04
  -4   2   3    0.09    0.05
  -4   2   3   -0.06    0.06
   4   2  -3    0.01    0.06
   3  -2  -3    7.18    0.27
   3  -2  -3    6.99    0.25
   3  -2  -3    7.31    0.29
  -3  -2   3    7.08    0.26
  -3   2   3    7.25    0.28
   3   2  -3    6.73    0.28
   3   2  -3    7.05    0.27
  -3   2   3    7.14    0.22
   3   2  -3    7.06    0.19
  -3   2   3    7.49    0.22
   2  -2  -3   14.38    0.44
   2  -2  -3   14.93    0.39
  -2  -2   3   15.29    0.40
   2   2  -3   14.65    0.43
  -2   2   3   14.47    0.41
   2   2  -3   15.40    0.31
  -2   2   3   14.76    0.37
   2   2  -3   14.86    0.39
  -2   2   3   15.27    0.37
   1  -2  -3   62.25    1.25
  -1  -2   3   64.63    1.26
   1  -2  -3   63.51    1.24
  -1  -2   3   65.89    1.25
  -1   2   3   64.58    1.24
   1   2  -3   63.42    1.34
   1   2  -3   63.96    1.24
   1   2  -3   63.17    1.23
  -1   2   3   62.88    1.28
   0  -2  -3   49.58    1.02
   0  -2   3   50.70    1.00
   0  -2   3   50.18    1.22
   0  -2  -3   49.49    1.03
   0   2   3   51.84    1.01
   0   2   3   52.39    1.22
   0   2  -3   50.46    1.01
   0   2  -3   49.69    1.06
   0   2  -3   51.60    0.97
   0   2  -3   53.38    1.04
  -1  -2  -3   65.45    1.33
   1  -2   3   67.04    1.59
   1  -2   3   64.99    1.24
  -1   2  -3   65.73    1.39
   1   2   3   66.95    1.59
   1   2   3   67.11    1.24
  -1   2  -3   64.62    1.25
   2  -2   3   90.65    2.12
  -2  -2  -3   91.15    1.83
  -2   2  -3   96.19    1.94
   2   2   3   90.71    2.12
  -2   2  -3   89.25    1.68
  -3  -2  -3    2.77    0.19
   3  -2   3    2.73    0.33
   3   2   3    2.07    0.28
   3   2   3    2.45    0.11
  -3   2  -3    3.04    0.24
  -4  -2  -3    0.17    0.08
   4  -2   3    0.07    0.13
  -4   2  -3    0.14    0.11
   4   2   3    0.40    0.17
  -5  -2  -3    7.35    0.37
   5  -2   3    7.38    0.51
  -5   2  -3    7.86    0.46
   5   2   3    6.91    0.50
  -6  -2  -3   13.54    0.55
   6  -2   3   14.68    0.76
  -6   2  -3   13.51    0.66
   6   2   3   12.70    0.71
  -7  -2  -3    2.40    0.30
   7  -2   3    2.16    0.37
   7   2   3    2.23    0.41
   7   2   3    2.85    0.42
  -8  -2  -3    2.25    0.37
   8  -2   3    1.02    0.47
  -8   2  -3    1.13    0.24
   8   2   3    1.15    0.38
   8   2   3    1.39    0.32
 -10  -3   3    7.54    0.46
   9  -3  -3   15.23    0.73
  -9  -3   3   16.88    0.59
   9   3  -3   16.89    0.73
  -9   3   3   16.64    0.63
  -8  -3   3    4.41    0.29
   8  -3  -3    4.13    0.42
  -8   3   3    4.63    0.33
   8   3  -3    4.03    0.38
  -8   3   3    4.28    0.31
   7  -3  -3   11.51    0.54
  -7  -3   3   11.74    0.44
  -7   3   3   12.36    0.49
   7   3  -3   11.24    0.53
   7   3  -3   12.64    0.54
  -7   3   3   11.16    0.47
   6  -3  -3   12.00    0.52
  -6  -3   3   12.91    0.44
  -6   3   3   12.32    0.46
   6   3  -3   13.02    0.53
  -6   3   3   11.74    0.44
  -5  -3   3    7.36    0.30
   5  -3  -3    6.97    0.31
  -5   3   3    6.57    0.29
   5   3  -3    6.92    0.36
  -5   3   3    6.84    0.32
   4  -3  -3    0.67    0.12
   4  -3  -3    0.68    0.12
  -4  -3   3    0.73    0.11
  -4   3   3    0.81    0.11
  -4   3   3    0.62    0.11
   4   3  -3    0.87    0.15
   3  -3  -3  160.65    3.06
   3  -3  -3  154.32    3.01
   3  -3  -3  158.21    3.01
  -3  -3   3  159.44    3.01
  -3   3   3  156.86    3.05
  -3   3   3  156.43    2.89
   3   3  -3  158.87    2.96
   3   3  -3  157.96    3.03
  -3   3   3  160.42    2.99
   3   3  -3  160.88    3.10
   2  -3  -3    3.25    0.15
  -2  -3   3    3.32    0.10
   2  -3  -3    3.36    0.19
   2   3  -3    3.62    0.21
   2   3  -3    3.02    0.15
   2   3  -3    3.45    0.14
  -2   3   3    3.44    0.18
  -2   3   3    3.50    0.19
  -1  -3   3    3.82    0.22
  -1  -3   3    3.69    0.18
   1  -3  -3    3.63    0.19
  -1  -3   3    3.78    0.16
   1  -3  -3    3.76    0.15
   1  -3  -3    3.76    0.16
   1   3  -3    3.51    0.14
   1   3  -3    3.50    0.16
   1   3  -3    3.67    0.21
  -1   3   3    3.24    0.17
   0  -3  -3    4.33    0.18
   0  -3  -3    4.22    0.17
   0  -3   3    4.40    0.15
   0  -3   3    4.32    0.28
   0   3   3    3.80    0.16
   0   3   3    3.99    0.27
   0   3  -3    3.67    0.22
   0   3  -3    4.62    0.21
   0   3  -3    4.41    0.15
   1  -3   3   15.53    0.60
  -1  -3  -3   15.57    0.42
   1  -3   3   14.77    0.34
  -1   3  -3   15.00    0.35
   1   3   3   14.92    0.35
  -1   3  -3   14.46    0.46
   1   3   3   16.19    0.61
   2  -3   3    6.78    0.42
   2   3   3    6.37    0.40
  -2   3  -3    6.75    0.32
   2   3   3    6.44    0.15
  -2   3  -3    6.66    0.18
   3  -3   3   13.10    0.61
  -3  -3  -3   13.48    0.45
  -3   3  -3   13.35    0.29
   3   3   3   13.30    0.62
   3   3   3   13.97    0.32
  -3   3  -3   12.66    0.51
  -4  -3  -3   31.03    0.85
   4  -3   3   30.43    0.70
   4  -3   3   32.74    1.09
   4   3   3   33.03    1.08
  -4   3  -3   32.74    0.97
  -5  -3  -3   13.10    0.52
   5  -3   3   13.28    0.69
   5   3   3   14.19    0.70
  -5   3  -3   13.81    0.62
   6  -3   3    3.57    0.43
  -6  -3  -3    4.54    0.33
  -6   3  -3    4.25    0.43
   6   3   3    4.56    0.50
   6   3   3    4.09    0.46
   7  -3   3    0.07    0.16
  -7  -3  -3    0.16    0.14
   7   3   3   -0.23    0.16
  -7   3  -3    0.07    0.15
   7   3   3    0.06    0.16
   8   3   3   12.79    0.77
   8   3   3   14.34    0.96
 -10  -4   3    0.27    0.16
  -9  -4   3    2.69    0.30
   9  -4  -3    3.37    0.40
  -9  -4   3    2.54    0.26
  -9   4   3    2.13    0.28
   9   4  -3    2.11    0.32
  -8  -4   3    0.83    0.17
  -8  -4   3    0.85    0.16
   8  -4  -3    1.00    0.23
  -8   4   3    0.85    0.18
  -8   4   3    0.62    0.17
   8   4  -3    1.13    0.21
  -7  -4   3    2.12    0.22
   7  -4  -3    1.94    0.26
   7   4  -3    1.92    0.25
  -7   4   3    2.22    0.25
   7   4  -3    2.19    0.30
  -7   4   3    2.04    0.23
   6  -4  -3    9.11    0.44
  -6  -4   3    8.74    0.36
   6  -4  -3    7.90    0.37
   6   4  -3    8.74    0.46
  -6   4   3    9.02    0.40
  -6   4   3    8.87    0.38
   5  -4  -3    5.51    0.29
  -5  -4   3    4.82    0.25
   5  -4  -3    4.38    0.26
  -5   4   3    5.01    0.26
  -5   4   3    5.50    0.29
   5   4  -3    5.34    0.34
  -4  -4   3    9.50    0.29
   4  -4  -3    9.85    0.35
  -4  -4   3    9.73    0.34
   4  -4  -3    9.64    0.36
  -4   4   3    9.47    0.34
   4   4  -3   10.05    0.43
   3  -4  -3   -0.01    0.05
  -3  -4   3   -0.02    0.03
   3  -4  -3   -0.10    0.05
  -3  -4   3    0.00    0.05
   3   4  -3    0.18    0.07
   3   4  -3    0.13    0.09
  -3   4   3   -0.05    0.04
  -3   4   3    0.04    0.06
   3   4  -3    0.05    0.07
  -3   4   3    0.11    0.07
  -3   4   3    0.01    0.03
   2  -4  -3   47.59    0.99
   2  -4  -3   44.93    1.05
  -2  -4   3   46.89    0.99
  -2  -4   3   47.69    0.89
  -2   4   3   47.05    1.04
  -2   4   3   48.04    1.05
   2   4  -3   47.89    0.99
   2   4  -3   47.39    0.98
   2   4  -3   48.50    1.12
   1  -4  -3    7.91    0.24
  -1  -4   3    7.28    0.28
   1  -4  -3    8.05    0.26
   1  -4  -3    8.11    0.29
  -1  -4   3    7.43    0.24
  -1  -4   3    7.87    0.32
   1   4  -3    7.68    0.22
   1   4  -3    7.74    0.27
  -1   4   3    7.76    0.27
   1   4  -3    7.99    0.33
  -1   4   3    6.90    0.30
   0  -4   3    0.05    0.09
   0  -4   3    0.24    0.05
   0  -4  -3    0.29    0.07
   0  -4  -3    0.24    0.06
   0  -4  -3    0.13    0.06
   0   4   3    0.28    0.07
   0   4  -3    0.23    0.04
   0   4  -3    0.30    0.09
   0   4   3    0.32    0.11
   0   4  -3    0.12    0.08
   1  -4   3    4.58    0.32
  -1  -4  -3    4.27    0.21
   1  -4   3    4.20    0.15
   1   4   3    4.37    0.16
   1   4   3    3.99    0.30
  -1   4  -3    4.20    0.24
  -1   4  -3    4.69    0.27
  -2  -4  -3   42.27    0.96
   2  -4   3   39.55    1.15
   2   4   3   41.43    0.78
   2   4   3   41.66    1.18
  -2   4  -3   39.43    1.02
  -3  -4  -3    3.02    0.21
   3  -4   3    3.16    0.37
  -3   4  -3    2.89    0.29
  -3   4  -3    2.85    0.11
   3   4   3    3.35    0.35
   3   4   3    2.81    0.12
  -4  -4  -3    1.99    0.21
   4  -4   3    2.40    0.14
   4  -4   3    2.77    0.35
   4   4   3    1.96    0.29
  -4   4  -3    2.24    0.14
  -4   4  -3    2.50    0.30
   5  -4   3   44.72    1.43
  -5  -4  -3   49.06    1.24
   5   4   3   49.48    1.46
  -5   4  -3   50.39    1.38
  -6  -4  -3    9.64    0.49
   6  -4   3    9.87    0.63
   6   4   3    9.38    0.65
  -6   4  -3   10.44    0.58
   6   4   3    9.49    0.60
  -7  -4  -3    1.00    0.23
   7  -4   3    1.05    0.30
   7   4   3    0.86    0.25
  -7   4  -3    0.86    0.25
   7   4   3    0.92    0.31
   8   4   3   -0.30    0.27
   8   4   3    0.20    0.21
 -10  -5   3    0.39    0.18
  -9  -5   3    0.41    0.15
   9  -5  -3    0.93    0.24
  -9  -5   3    0.53    0.18
  -9   5   3    0.36    0.17
   8  -5  -3   30.80    1.03
  -8  -5   3   28.73    0.81
  -8  -5   3   29.31    0.87
  -8   5   3   29.78    0.88
  -8   5   3   28.01    0.91
  -7  -5   3    7.18    0.34
  -7  -5   3    8.22    0.38
   7  -5  -3    7.68    0.37
   7  -5  -3    7.81    0.44
  -7   5   3    6.73    0.38
  -7   5   3    7.55    0.39
   7   5  -3    7.25    0.47
  -6  -5   3    0.81    0.13
  -6  -5   3    1.23    0.16
   6  -5  -3    1.09    0.17
   6  -5  -3    0.98    0.18
   6  -5  -3    1.21    0.19
  -6   5   3    1.03    0.17
   6   5  -3    1.06    0.22
  -6   5   3    1.17    0.19
   5  -5  -3   46.40    1.11
  -5  -5   3   46.07    1.03
  -5  -5   3   46.61    1.06
   5  -5  -3   45.29    1.11
   5   5  -3   45.49    1.24
  -5   5   3   46.38    1.10
  -5   5   3   46.39    1.13
   4  -5  -3   23.64    0.63
  -4  -5   3   23.36    0.57
   4  -5  -3   23.31    0.66
  -4  -5   3   23.32    0.61
   4   5  -3   24.04    0.76
  -4   5   3   24.00    0.66
  -3  -5   3    2.26    0.15
  -3  -5   3    2.20    0.12
   3  -5  -3    2.12    0.14
   3  -5  -3    2.15    0.20
  -3   5   3    1.96    0.12
  -3   5   3    2.31    0.21
   3   5  -3    2.21    0.17
   3   5  -3    1.98    0.15
  -3   5   3    2.26    0.18
   3   5  -3    2.39    0.25
  -2  -5   3    4.16    0.13
   2  -5  -3    4.20    0.22
   2  -5  -3    3.97    0.17
  -2  -5   3    4.02    0.19
   2   5  -3    4.07    0.17
  -2   5   3    3.97    0.21
   2   5  -3    4.24    0.21
  -2   5   3    3.79    0.22
  -2   5   3    3.88    0.23
   2   5  -3    4.02    0.27
   1  -5  -3   12.93    0.38
   1  -5  -3   13.01    0.35
  -1  -5   3   13.13    0.45
  -1  -5   3   13.02    0.36
   1  -5  -3   13.46    0.41
   1   5  -3   12.76    0.46
   1   5  -3   13.26    0.32
   1   5  -3   12.91    0.41
   1   5  -3   13.67    0.28
  -1   5   3   13.24    0.46
   0  -5  -3    1.66    0.11
   0  -5   3    1.28    0.18
   0  -5  -3    1.44    0.13
   0  -5  -3    1.63    0.15
   0  -5   3    1.68    0.11
   0   5  -3    1.47    0.18
   0   5  -3    1.66    0.09
   0   5  -3    1.60    0.17
   0   5   3    1.67    0.19
   1  -5   3    4.26    0.16
  -1  -5  -3    3.78    0.20
  -1  -5  -3    3.85    0.19
   1  -5   3    4.24    0.31
   1   5   3    4.16    0.31
  -1   5  -3    3.95    0.24
  -1   5  -3    4.41    0.26
  -2  -5  -3   16.03    0.49
   2  -5   3   15.95    0.64
   2   5   3   15.42    0.35
  -2   5  -3   15.59    0.55
   2   5   3   15.26    0.63
  -3  -5  -3   24.28    0.69
   3  -5   3   25.10    0.88
   3   5   3   23.60    0.51
  -3   5  -3   23.37    0.76
   3   5   3   24.31    0.86
   3   5   3   23.45    0.49
   4  -5   3    2.17    0.32
  -4  -5  -3    2.36    0.24
   4  -5   3    2.02    0.15
   4   5   3    2.12    0.31
  -4   5  -3    1.92    0.26
  -4   5  -3    1.85    0.13
  -5  -5  -3    4.16    0.29
   5  -5   3    3.91    0.44
  -5   5  -3    4.41    0.36
   5   5   3    4.16    0.43
   5   5   3    3.93    0.47
   6  -5   3    0.26    0.17
  -6  -5  -3    0.71    0.18
   6   5   3    0.83    0.29
  -6   5  -3    0.23    0.18
   6   5   3    0.60    0.20
  -7  -5  -3    0.01    0.12
   7  -5   3   -0.11    0.17
   7   5   3    0.07    0.25
   7   5   3    0.04    0.16
  -7   5  -3    0.18    0.19
   8   5   3    4.97    0.56
   8   5   3    4.11    0.66
 -10  -6   3   14.55    0.73
   9  -6  -3    3.53    0.42
  -9  -6   3    3.48    0.35
  -9   6   3    4.48    0.36
  -8  -6   3    2.08    0.25
  -8  -6   3    2.13    0.23
   8  -6  -3    2.15    0.31
  -8   6   3    1.95    0.26
  -8   6   3    2.01    0.28
   7  -6  -3    0.34    0.15
  -7  -6   3    0.13    0.09
  -7  -6   3    0.07    0.10
   7  -6  -3    0.17    0.11
   7  -6  -3    0.25    0.12
   7   6  -3    0.39    0.20
  -7   6   3    0.38    0.14
  -7   6   3    0.22    0.13
  -6  -6   3    0.54    0.11
   6  -6  -3    0.51    0.13
  -6   6   3    0.61    0.14
   6   6  -3    0.42    0.18
  -6   6   3    0.65    0.16
  -5  -6   3    0.34    0.09
  -5  -6   3    0.38    0.10
   5  -6  -3    0.51    0.12
   5  -6  -3    0.31    0.10
   5   6  -3    0.42    0.16
  -5   6   3    0.41    0.13
  -5   6   3    0.40    0.12
  -4  -6   3   37.04    0.86
  -4  -6   3   36.04    0.81
   4  -6  -3   37.18    0.92
   4  -6  -3   35.78    0.86
  -4   6   3   35.69    0.93
  -4   6   3   34.65    0.92
   4   6  -3   36.58    0.93
   4   6  -3   38.28    1.06
  -3  -6   3    0.86    0.11
   3  -6  -3    1.02    0.12
  -3  -6   3    1.01    0.09
   3  -6  -3    0.95    0.14
   3   6  -3    0.74    0.17
  -3   6   3    0.88    0.15
  -3   6   3    0.83    0.13
   3   6  -3    1.05    0.15
  -3   6   3    0.90    0.11
  -2  -6   3  105.46    2.06
   2  -6  -3  103.78    2.13
  -2  -6   3  108.11    1.97
   2  -6  -3  102.29    2.03
  -2   6   3  103.22    2.13
   2   6  -3  108.24    1.96
   2   6  -3  106.53    2.14
  -2   6   3  108.58    2.20
   2   6  -3  105.22    2.02
  -2   6   3  104.64    2.15
   1  -6  -3   12.20    0.38
  -1  -6   3   12.29    0.35
   1  -6  -3   12.03    0.33
   1  -6  -3   12.27    0.40
  -1  -6   3   11.84    0.43
   1   6  -3   12.51    0.29
   1   6  -3   12.46    0.42
   1   6  -3   12.60    0.47
  -1   6   3   12.26    0.47
   1   6  -3   12.02    0.30
  -1   6   3   12.19    0.46
   0  -6  -3   47.86    1.00
   0  -6   3   52.46    0.98
   0  -6  -3   47.58    1.05
   0  -6   3   47.69    1.00
   0  -6  -3   47.45    1.06
   0  -6   3   47.28    1.19
   0   6   3   48.53    1.17
   0   6   3   49.18    1.21
   0   6  -3   47.48    0.96
   0   6  -3   47.30    1.12
   0   6  -3   46.84    1.15
   0   6  -3   47.67    0.94
   1  -6   3   15.10    0.58
  -1  -6  -3   14.24    0.45
  -1  -6  -3   14.68    0.42
   1   6   3   13.26    0.55
  -1   6  -3   14.10    0.51
  -1   6  -3   15.42    0.52
  -2  -6  -3    0.15    0.06
  -2  -6  -3    0.18    0.08
   2  -6   3    0.06    0.12
   2   6   3   -0.08    0.10
  -2   6  -3    0.15    0.11
   3  -6   3    3.71    0.38
  -3  -6  -3    3.76    0.25
  -3   6  -3    3.53    0.28
   3   6   3    3.49    0.38
   3   6   3    3.47    0.35
   4  -6   3    7.28    0.29
   4  -6   3    7.28    0.49
  -4  -6  -3    7.59    0.38
   4   6   3    7.52    0.48
  -4   6  -3    8.07    0.45
   4   6   3    7.19    0.52
   5  -6   3    1.74    0.30
  -5  -6  -3    1.90    0.24
   5   6   3    1.24    0.31
  -5   6  -3    1.76    0.29
   5   6   3    1.74    0.30
  -6  -6  -3   -0.11    0.10
   6  -6   3   -0.03    0.15
   6   6   3   -0.02    0.14
   6   6   3    0.35    0.24
  -6   6  -3    0.03    0.16
   7  -6   3    0.49    0.23
  -7  -6  -3    0.35    0.16
  -7   6  -3    0.51    0.20
   7   6   3    0.23    0.20
   7   6   3    0.67    0.33
   8   6   3   10.11    1.00
   8   6   3    9.11    0.65
   9  -7  -3    4.05    0.40
  -9  -7   3    3.42    0.35
  -9   7   3    3.72    0.36
  -8  -7   3   -0.05    0.11
  -8  -7   3    0.04    0.09
   8  -7  -3   -0.02    0.11
   8  -7  -3    0.19    0.15
  -8   7   3    0.09    0.13
  -8   7   3   -0.09    0.13
   7  -7  -3    8.39    0.47
  -7  -7   3    8.35    0.37
   7  -7  -3    8.19    0.42
  -7  -7   3    8.72    0.40
   7  -7  -3    7.98    0.40
  -7   7   3    8.01    0.44
  -7   7   3    8.33    0.44
   7   7  -3    8.58    0.56
  -6  -7   3   -0.04    0.08
   6  -7  -3   -0.12    0.06
   6  -7  -3    0.04    0.10
  -6  -7   3   -0.16    0.06
  -6   7   3   -0.01    0.11
  -6   7   3    0.02    0.10
   6   7  -3   -0.06    0.16
  -5  -7   3    4.59    0.24
   5  -7  -3    4.33    0.25
  -5  -7   3    4.32    0.24
   5  -7  -3    4.24    0.27
  -5   7   3    4.64    0.30
  -5   7   3    4.34    0.29
   5   7  -3    4.70    0.43
   4  -7  -3   83.04    1.79
  -4  -7   3   82.15    1.71
  -4  -7   3   82.14    1.66
   4  -7  -3   83.67    1.70
   4   7  -3   82.32    1.83
  -4   7   3   81.52    1.80
   4   7  -3   83.57    1.97
  -4   7   3   84.36    1.83
   3  -7  -3   89.90    1.89
  -3  -7   3   90.86    1.81
   3  -7  -3   88.17    1.77
  -3  -7   3   86.84    1.73
  -3   7   3   90.27    1.94
   3   7  -3   91.19    1.92
  -3   7   3   88.73    1.89
   3   7  -3   87.58    2.03
  -3   7   3   91.27    1.80
   2  -7  -3   37.67    0.92
  -2  -7   3   36.78    0.77
  -2  -7   3   36.85    0.84
   2  -7  -3   36.62    0.81
  -2   7   3   37.82    0.96
   2   7  -3   37.96    0.80
   2   7  -3   37.54    0.94
   2   7  -3   38.11    0.77
   2   7  -3   35.92    1.02
  -2   7   3   37.96    0.99
   1  -7  -3    0.75    0.11
   1  -7  -3    0.90    0.12
   1  -7  -3    0.77    0.09
  -1  -7   3    0.71    0.09
  -1  -7   3    0.87    0.14
   1   7  -3    0.80    0.06
   1   7  -3    0.84    0.14
  -1   7   3    0.69    0.15
   1   7  -3    0.59    0.14
   1   7  -3    0.87    0.08
  -1   7   3    0.91    0.17
   0  -7  -3    2.04    0.16
   0  -7   3    2.06    0.13
   0  -7   3    1.96    0.22
   0  -7  -3    2.48    0.17
   0  -7  -3    1.84    0.12
   0  -7   3    1.92    0.10
   0   7   3    1.91    0.21
   0   7  -3    2.16    0.22
   0   7  -3    1.93    0.22
   0   7   3    2.33    0.28
   0   7  -3    2.23    0.09
  -1  -7  -3    7.49    0.28
  -1  -7  -3    6.80    0.30
   1  -7   3    6.79    0.38
  -1   7  -3    7.42    0.37
   1   7   3    7.07    0.39
  -1   7  -3    7.05    0.36
   1   7   3    7.60    0.44
   2  -7   3   10.55    0.50
  -2  -7  -3   10.42    0.33
  -2  -7  -3    9.39    0.38
  -2   7  -3   10.77    0.45
  -2   7  -3   10.29    0.46
   2   7   3   10.05    0.51
   2   7   3   10.96    0.58
   3  -7   3    2.92    0.34
  -3  -7  -3    2.96    0.26
  -3   7  -3    3.51    0.34
   3   7   3    2.65    0.37
   3   7   3    2.43    0.30
   4  -7   3    2.14    0.17
  -4  -7  -3    2.04    0.24
   4  -7   3    2.31    0.33
  -4   7  -3    1.70    0.26
   4   7   3    1.82    0.35
   4   7   3    2.11    0.31
   5  -7   3    0.36    0.18
   5  -7   3    0.23    0.08
  -5  -7  -3    0.12    0.13
  -5   7  -3    0.24    0.15
   5   7   3    0.18    0.24
   5   7   3    0.03    0.14
  -6  -7  -3   16.70    0.67
   6  -7   3   16.17    0.81
  -6   7  -3   16.49    0.77
   6   7   3   15.47    0.93
   6   7   3   14.79    0.74
  -7  -7  -3   13.21    0.63
   7  -7   3   12.24    0.74
   7   7   3   12.85    0.91
  -7   7  -3   13.38    0.74
   7   7   3   12.68    0.72
   8   7   3    2.21    0.38
   8   7   3    2.15    0.61
   9  -8  -3    0.31    0.17
  -9  -8   3    0.34    0.17
  -9   8   3    0.52    0.21
  -8  -8   3    0.23    0.11
  -8  -8   3    0.20    0.12
   8  -8  -3    0.18    0.12
  -8   8   3    0.19    0.14
  -8   8   3    0.04    0.14
   8   8  -3    0.08    0.22
   7  -8  -3   10.08    0.47
  -7  -8   3    8.99    0.42
   7  -8  -3    9.61    0.45
  -7  -8   3    9.30    0.40
  -7   8   3    9.81    0.48
   7   8  -3    9.02    0.60
  -7   8   3    9.90    0.50
   6  -8  -3   25.19    0.74
   6  -8  -3   25.58    0.78
  -6  -8   3   24.77    0.71
  -6  -8   3   24.48    0.70
  -6   8   3   25.79    0.81
   6   8  -3   24.39    0.96
  -6   8   3   25.31    0.81
  -5  -8   3   24.33    0.67
  -5  -8   3   24.41    0.66
   5  -8  -3   24.65    0.68
   5  -8  -3   24.17    0.74
   5   8  -3   24.55    0.91
  -5   8   3   24.93    0.77
   5   8  -3   24.82    0.81
  -5   8   3   24.62    0.79
  -4  -8   3   12.81    0.43
  -4  -8   3   14.21    0.42
   4  -8  -3   13.79    0.43
   4  -8  -3   13.21    0.50
   4   8  -3   14.45    0.65
  -4   8   3   13.65    0.30
  -4   8   3   14.53    0.55
   4   8  -3   13.65    0.55
  -4   8   3   14.27    0.52
   3  -8  -3    0.00    0.07
  -3  -8   3    0.06    0.05
   3  -8  -3    0.10    0.05
  -3  -8   3    0.19    0.07
  -3   8   3   -0.06    0.06
  -3   8   3    0.02    0.10
   3   8  -3    0.01    0.10
  -3   8   3    0.12    0.09
   3   8  -3    0.08    0.11
   2  -8  -3   13.66    0.46
   2  -8  -3   13.73    0.37
  -2  -8   3   13.17    0.35
  -2  -8   3   12.94    0.40
  -2  -8   3   14.09    0.42
   2   8  -3   13.81    0.36
  -2   8   3   13.67    0.54
   2   8  -3   13.86    0.51
   2   8  -3   13.19    0.57
  -2   8   3   13.44    0.51
   1  -8  -3    3.17    0.20
   1  -8  -3    3.08    0.15
   1  -8  -3    3.20    0.20
  -1  -8   3    2.99    0.22
   1   8  -3    2.92    0.23
  -1   8   3    3.48    0.28
  -1   8   3    2.60    0.28
   1   8  -3    3.02    0.11
   1   8  -3    2.68    0.27
   0  -8   3   -0.01    0.08
   0  -8   3    0.24    0.07
   0  -8  -3    0.14    0.07
   0  -8   3    0.11    0.04
   0  -8  -3    0.05    0.05
   0  -8  -3    0.11    0.07
   0   8   3    0.10    0.14
   0   8  -3    0.10    0.10
   0   8   3    0.18    0.12
   0   8  -3    0.16    0.11
   0   8   3    0.15    0.10
  -1  -8  -3   31.57    0.83
   1  -8   3   32.46    0.93
  -1  -8  -3   32.29    0.79
   1  -8   3   35.19    0.69
  -1   8  -3   33.08    0.93
  -1   8  -3   33.26    0.92
   1   8   3   31.01    1.05
   1   8   3   32.65    0.96
  -2  -8  -3    0.21    0.07
  -2  -8  -3    0.13    0.08
   2  -8   3    0.19    0.12
  -2   8  -3    0.06    0.11
  -2   8  -3    0.06    0.09
   2   8   3    0.15    0.16
   2   8   3    0.11    0.11
  -3  -8  -3   14.14    0.53
   3  -8   3   14.83    0.64
  -3  -8  -3   14.41    0.41
  -3   8  -3   14.16    0.60
   3   8   3   14.67    0.64
   3   8   3   14.17    0.76
  -4  -8  -3   10.66    0.47
   4  -8   3    9.50    0.56
   4  -8   3   10.46    0.39
   4   8   3   11.12    0.57
  -4   8  -3   10.75    0.56
   4   8   3   10.42    0.69
  -5  -8  -3    1.79    0.25
   5  -8   3    1.56    0.30
   5  -8   3    1.68    0.18
   5   8   3    1.82    0.41
  -5   8  -3    1.50    0.28
   5   8   3    2.15    0.31
  -6  -8  -3    8.47    0.47
   6  -8   3    8.97    0.60
  -6   8  -3    9.08    0.57
   6   8   3    8.80    0.74
   6   8   3    9.09    0.57
  -7  -8  -3    0.95    0.23
   7  -8   3    0.89    0.28
   7   8   3    0.80    0.38
  -7   8  -3    1.31    0.31
   7   8   3    0.76    0.26
   8   8   3    0.55    0.27
   9  -9  -3    0.47    0.17
  -9  -9   3    0.73    0.20
  -9   9   3    0.33    0.19
   8  -9  -3    6.30    0.49
  -8  -9   3    5.68    0.37
   8  -9  -3    5.28    0.37
  -8  -9   3    5.71    0.33
  -8   9   3    7.26    0.44
  -8   9   3    5.48    0.42
   8   9  -3    6.33    0.63
   7  -9  -3    8.98    0.43
  -7  -9   3    8.98    0.39
  -7  -9   3    9.12    0.43
   7  -9  -3    8.41    0.45
  -7   9   3    9.69    0.51
   7   9  -3    9.84    0.65
  -7   9   3    8.39    0.47
  -6  -9   3    8.85    0.39
   6  -9  -3    9.26    0.40
  -6  -9   3    9.20    0.38
   6  -9  -3    8.68    0.43
  -6   9   3    9.66    0.49
  -6   9   3    9.04    0.46
   6   9  -3    8.69    0.59
  -5  -9   3    0.58    0.12
   5  -9  -3    0.33    0.12
   5  -9  -3    0.22    0.09
  -5  -9   3    0.35    0.10
  -5   9   3    0.45    0.15
   5   9  -3    0.54    0.19
   5   9  -3    0.26    0.16
  -5   9   3    0.44    0.14
  -4  -9   3   27.93    0.71
   4  -9  -3   27.03    0.78
   4  -9  -3   25.33    0.66
  -4  -9   3   25.88    0.66
   4   9  -3   26.87    0.85
  -4   9   3   26.27    0.79
  -4   9   3   25.61    0.58
  -4   9   3   25.79    0.83
   4   9  -3   25.59    0.93
  -3  -9   3   15.12    0.43
   3  -9  -3   16.01    0.43
   3  -9  -3   16.18    0.54
  -3  -9   3   15.95    0.48
  -3   9   3   16.33    0.62
   3   9  -3   15.33    0.45
   3   9  -3   15.32    0.67
  -3   9   3   15.00    0.54
   3   9  -3   16.28    0.60
  -3   9   3   14.90    0.50
  -2  -9   3    8.43    0.31
  -2  -9   3    8.23    0.32
   2  -9  -3    8.58    0.27
   2  -9  -3    9.06    0.37
  -2  -9   3    8.92    0.28
   2   9  -3    8.20    0.46
  -2   9   3    8.36    0.44
   2   9  -3    8.63    0.42
  -2   9   3    9.20    0.43
   2   9  -3    8.50    0.26
   1  -9  -3    0.64    0.12
  -1  -9   3    0.44    0.09
  -1  -9   3    0.27    0.10
   1  -9  -3    0.44    0.07
   1  -9  -3    0.31    0.09
   1   9  -3    0.55    0.15
   1   9  -3    0.48    0.05
   1   9  -3    0.46    0.14
  -1   9   3    0.39    0.16
  -1   9   3    0.54    0.15
   0  -9   3    1.88    0.14
   0  -9  -3    1.52    0.12
   0  -9  -3    1.16    0.15
   0  -9   3    1.65    0.20
   0  -9  -3    1.33    0.16
   0   9  -3    1.40    0.21
   0   9  -3    1.82    0.24
   0   9   3    1.42    0.23
   0   9   3    1.43    0.27
   0   9   3    1.37    0.19
  -1  -9  -3    3.21    0.23
   1  -9   3    3.21    0.11
  -1  -9  -3    3.13    0.20
   1  -9   3    3.35    0.30
  -1   9  -3    3.13    0.30
   1   9   3    3.43    0.32
  -1   9  -3    3.26    0.31
   1   9   3    3.06    0.38
   2  -9   3    3.56    0.34
  -2  -9  -3    2.85    0.25
  -2  -9  -3    2.95    0.18
  -2   9  -3    2.78    0.28
   2   9   3    2.68    0.38
   2   9   3    2.87    0.32
  -2   9  -3    3.00    0.32
   3  -9   3   24.34    0.86
  -3  -9  -3   23.98    0.74
  -3  -9  -3   24.32    0.61
   3  -9   3   24.74    0.68
   3   9   3   25.10    1.05
   3   9   3   23.87    0.84
  -3   9  -3   25.11    0.86
   4  -9   3    7.38    0.33
   4  -9   3    7.31    0.49
  -4  -9  -3    7.48    0.40
   4   9   3    7.28    0.61
  -4   9  -3    7.62    0.47
   4   9   3    7.15    0.46
   5  -9   3    4.56    0.27
  -5  -9  -3    4.84    0.35
   5  -9   3    4.42    0.46
  -5   9  -3    5.56    0.44
   5   9   3    4.37    0.57
   5   9   3    5.83    0.43
  -6  -9  -3    0.83    0.20
   6  -9   3    0.88    0.26
   6   9   3    0.85    0.37
   6   9   3    1.05    0.25
  -6   9  -3    1.15    0.26
  -7  -9  -3    3.44    0.40
   7  -9   3    3.46    0.47
   7   9   3    2.65    0.39
   7   9   3    3.24    0.61
  -7   9  -3    3.01    0.44
  -9 -10   3    1.73    0.26
  -9  10   3    1.02    0.25
  -8 -10   3   18.34    0.69
   8 -10  -3   19.34    0.73
  -8 -10   3   19.39    0.64
   8 -10  -3   19.67    0.70
   8  10  -3   18.71    0.96
  -8  10   3   20.06    0.77
  -8  10   3   19.27    0.80
  -7 -10   3    0.56    0.16
  -7 -10   3    0.63    0.14
   7 -10  -3    0.61    0.16
   7 -10  -3    0.78    0.19
   7  10  -3    0.64    0.26
  -7  10   3    0.77    0.20
  -7  10   3    0.60    0.20
   6 -10  -3    0.76    0.17
   6 -10  -3    0.87    0.15
  -6 -10   3    0.89    0.15
  -6 -10   3    0.60    0.14
   6  10  -3    0.78    0.25
  -6  10   3    0.97    0.22
   6  10  -3    0.88    0.23
  -6  10   3    0.98    0.22
  -5 -10   3   34.32    0.85
  -5 -10   3   33.63    0.84
   5 -10  -3   31.49    0.81
   5 -10  -3   32.98    0.95
   5  10  -3   30.95    1.02
  -5  10   3   32.71    0.96
   5  10  -3   31.76    1.14
  -5  10   3   31.51    1.00
  -4 -10   3    4.64    0.26
   4 -10  -3    5.59    0.24
   4 -10  -3    5.65    0.33
  -4 -10   3    5.61    0.26
  -4  10   3    5.44    0.38
  -4  10   3    5.35    0.35
   4  10  -3    5.12    0.38
   4  10  -3    5.54    0.46
  -3 -10   3   17.14    0.51
   3 -10  -3   16.65    0.45
   3 -10  -3   16.47    0.57
  -3 -10   3   16.44    0.46
   3  10  -3   16.58    0.47
  -3  10   3   17.19    0.56
   3  10  -3   16.80    0.65
  -3  10   3   17.14    0.67
   3  10  -3   17.48    0.74
   2 -10  -3    8.42    0.38
   2 -10  -3    8.26    0.27
  -2 -10   3    9.21    0.33
  -2 -10   3    8.33    0.32
  -2 -10   3    8.41    0.29
   2  10  -3    8.37    0.25
   2  10  -3    8.39    0.44
  -2  10   3    8.67    0.47
  -2  10   3    8.68    0.44
   2  10  -3    8.04    0.47
   1 -10  -3   24.74    0.71
   1 -10  -3   25.80    0.59
  -1 -10   3   23.73    0.64
  -1 -10   3   24.75    0.68
   1 -10  -3   25.70    0.71
  -1  10   3   24.61    0.87
  -1  10   3   23.29    0.84
   1  10  -3   24.94    0.81
   1  10  -3   26.14    0.86
   1  10  -3   24.94    0.50
   0 -10   3    2.78    0.18
   0 -10   3    3.19    0.23
   0 -10  -3    2.96    0.21
   0 -10  -3    3.25    0.23
   0  10   3    3.11    0.29
   0  10  -3    2.85    0.31
   0  10  -3    2.92    0.30
   0  10   3    2.75    0.33
   0  10   3    2.92    0.36
  -1 -10  -3    0.82    0.13
  -1 -10  -3    0.40    0.11
   1 -10   3    0.81    0.16
   1  10   3    0.50    0.21
  -1  10  -3    0.48    0.16
   1  10   3    0.31    0.14
  -1  10  -3    0.63    0.16
  -2 -10  -3    1.81    0.17
   2 -10   3    2.00    0.26
  -2 -10  -3    1.18    0.17
   2  10   3    1.71    0.35
  -2  10  -3    1.76    0.25
   2  10   3    1.78    0.25
  -2  10  -3    1.49    0.26
  -3 -10  -3    4.40    0.29
   3 -10   3    4.24    0.39
  -3 -10  -3    4.28    0.22
   3 -10   3    3.93    0.25
   3  10   3    4.39    0.39
   3  10   3    3.05    0.47
  -3  10  -3    4.07    0.40
   4 -10   3   29.92    1.02
   4 -10   3   29.71    0.82
  -4 -10  -3   30.26    0.91
   4  10   3   29.99    1.28
  -4  10  -3   30.47    1.04
   4  10   3   28.97    0.98
  -5 -10  -3    1.59    0.25
   5 -10   3    1.54    0.29
   5 -10   3    1.48    0.20
  -5  10  -3    1.45    0.28
   5  10   3    1.40    0.39
   5  10   3    1.34    0.27
  -6 -10  -3    3.48    0.37
   6 -10   3    4.12    0.46
   6  10   3    3.30    0.49
  -6  10  -3    3.74    0.45
   6  10   3    3.82    0.63
   7 -10   3   -0.06    0.16
   7  10   3    0.23    0.32
  -9  11   3    4.58    0.44
  -8 -11   3    9.67    0.44
   8 -11  -3    9.15    0.51
  -8 -11   3    9.20    0.48
  -8  11   3    9.56    0.54
   8  11  -3    9.68    0.73
  -8  11   3    9.61    0.57
  -7 -11   3    2.92    0.29
   7 -11  -3    2.60    0.26
  -7 -11   3    2.90    0.27
   7 -11  -3    3.20    0.33
   7  11  -3    2.39    0.38
  -7  11   3    2.54    0.33
   7  11  -3    2.68    0.44
  -7  11   3    2.22    0.31
   6 -11  -3   12.08    0.45
   6 -11  -3   12.29    0.55
  -6 -11   3   11.76    0.46
  -6 -11   3   12.40    0.48
   6  11  -3   13.08    0.75
  -6  11   3   13.05    0.62
  -6  11   3   11.60    0.56
   6  11  -3   12.83    0.66
   5 -11  -3    5.01    0.25
  -5 -11   3    5.27    0.29
  -5 -11   3    5.28    0.28
   5 -11  -3    4.49    0.33
   5  11  -3    5.44    0.54
  -5  11   3    4.83    0.36
  -5  11   3    5.34    0.40
   5  11  -3    4.85    0.46
   4 -11  -3   52.30    1.32
   4 -11  -3   52.51    1.14
  -4 -11   3   52.70    1.18
  -4 -11   3   54.08    1.22
  -4  11   3   53.69    1.34
   4  11  -3   52.51    1.44
   4  11  -3   53.29    1.57
  -4  11   3   49.95    1.41
  -3 -11   3    3.30    0.22
  -3 -11   3    3.65    0.19
  -3 -11   3    3.27    0.19
   3 -11  -3    3.62    0.18
   3 -11  -3    3.89    0.28
   3  11  -3    3.63    0.36
  -3  11   3    3.14    0.26
   3  11  -3    3.52    0.19
   3  11  -3    3.33    0.39
  -3  11   3    3.40    0.36
  -2 -11   3   27.90    0.67
  -2 -11   3   26.00    0.70
   2 -11  -3   27.27    0.80
  -2 -11   3   26.33    0.67
   2 -11  -3   28.04    0.64
   2  11  -3   27.89    0.97
  -2  11   3   26.76    0.93
  -2  11   3   28.00    0.90
   2  11  -3   27.46    0.59
   2  11  -3   28.43    0.91
   1 -11  -3   29.98    0.81
  -1 -11   3   29.03    0.74
   1 -11  -3   28.99    0.67
   1 -11  -3   28.28    0.81
  -1 -11   3   27.85    0.72
  -1  11   3   29.18    0.99
   1  11  -3   29.18    0.96
   1  11  -3   28.37    0.55
  -1  11   3   28.16    0.97
   1  11  -3   28.82    0.92
   0 -11   3   22.98    0.66
   0 -11  -3   22.61    0.67
   0 -11  -3   23.06    0.68
   0  11   3   22.80    0.87
   0  11   3   22.25    0.91
   0  11   3   22.17    0.71
   0  11  -3   23.06    0.80
   0  11  -3   24.08    0.81
   1 -11   3    0.09    0.09
  -1 -11  -3   -0.07    0.07
  -1 -11  -3    0.07    0.07
   1  11   3    0.06    0.15
  -1  11  -3   -0.11    0.09
  -1  11  -3   -0.04    0.12
   1  11   3    0.15    0.12
   1  11   3    0.30    0.20
  -2 -11  -3    5.10    0.27
   2 -11   3    5.36    0.35
  -2 -11  -3    5.39    0.32
  -2  11  -3    5.50    0.36
   2  11   3    5.93    0.38
   2  11   3    4.93    0.55
  -2  11  -3    5.69    0.41
  -3 -11  -3   17.91    0.53
  -3 -11  -3   18.19    0.65
   3 -11   3   17.50    0.59
   3 -11   3   19.19    0.73
   3  11   3   18.47    0.96
  -3  11  -3   18.16    0.69
  -3  11  -3   18.42    0.77
   3  11   3   19.74    0.72
  -4 -11  -3    3.56    0.34
   4 -11   3    4.72    0.44
   4 -11   3    4.01    0.27
   4  11   3    3.97    0.38
   4  11   3    3.92    0.58
  -4  11  -3    4.24    0.43
   5 -11   3    0.13    0.16
  -5 -11  -3    0.16    0.13
   5 -11   3   -0.03    0.09
  -5  11  -3    0.28    0.17
   5  11   3   -0.10    0.24
   6 -11   3    4.09    0.47
  -6 -11  -3    5.25    0.47
  -6  11  -3    4.04    0.48
   6  11   3    5.45    0.77
   7 -11   3    7.61    0.61
  -9  12   3    1.21    0.31
  -8 -12   3   -0.01    0.10
  -8 -12   3    0.15    0.14
   8 -12  -3   -0.18    0.12
  -8  12   3   -0.17    0.17
  -8  12   3   -0.10    0.16
   8  12  -3    0.02    0.26
  -7 -12   3    6.53    0.36
  -7 -12   3    7.65    0.41
   7 -12  -3    7.35    0.45
   7  12  -3    7.26    0.71
  -7  12   3    7.90    0.51
   7  12  -3    6.97    0.58
  -7  12   3    7.98    0.50
  -6 -12   3    0.18    0.10
   6 -12  -3    0.12    0.12
   6 -12  -3    0.17    0.09
  -6 -12   3    0.30    0.11
   6  12  -3    0.24    0.21
  -6  12   3    0.26    0.17
  -6  12   3   -0.12    0.13
   6  12  -3    0.06    0.21
  -5 -12   3    3.17    0.23
   5 -12  -3    3.17    0.31
  -5 -12   3    3.31    0.24
   5 -12  -3    2.65    0.19
  -5  12   3    3.52    0.39
   5  12  -3    3.24    0.40
   5  12  -3    3.39    0.44
  -5  12   3    2.81    0.33
   4 -12  -3    3.58    0.19
  -4 -12   3    3.21    0.23
  -4 -12   3    3.84    0.23
   4 -12  -3    3.56    0.29
   4  12  -3    3.49    0.40
  -4  12   3    4.26    0.34
  -4  12   3    3.66    0.38
   4  12  -3    3.56    0.44
  -3 -12   3    3.17    0.20
   3 -12  -3    3.34    0.27
  -3 -12   3    2.96    0.21
   3 -12  -3    3.16    0.17
   3  12  -3    3.00    0.18
  -3  12   3    3.39    0.31
  -3  12   3    2.53    0.33
   3  12  -3    2.80    0.38
   3  12  -3    3.02    0.37
  -2 -12   3    4.42    0.25
   2 -12  -3    4.16    0.28
   2 -12  -3    4.59    0.20
  -2 -12   3    4.67    0.23
  -2  12   3    5.23    0.41
   2  12  -3    4.84    0.41
  -2  12   3    4.87    0.37
   2  12  -3    3.27    0.36
   2  12  -3    4.33    0.16
  -1 -12   3   17.11    0.47
   1 -12  -3   15.99    0.57
   1 -12  -3   16.71    0.45
  -1 -12   3   16.56    0.52
   1 -12  -3   16.51    0.58
   1  12  -3   16.92    0.70
  -1  12   3   16.57    0.73
   1  12  -3   18.56    0.75
  -1  12   3   17.19    0.74
   0 -12  -3    6.22    0.33
   0 -12  -3    6.28    0.33
   0 -12   3    6.47    0.30
   0  12   3    7.11    0.52
   0  12   3    6.32    0.47
   0  12  -3    6.24    0.42
   0  12  -3    7.06    0.45
   0  12   3    6.54    0.36
  -1 -12  -3    1.10    0.17
   1 -12   3    0.72    0.15
  -1 -12  -3    1.07    0.16
   1  12   3    0.67    0.25
  -1  12  -3    0.87    0.23
   1  12   3    0.92    0.25
  -1  12  -3    1.05    0.23
   1  12   3    1.05    0.19
  -2 -12  -3   24.22    0.75
   2 -12   3   23.96    0.71
  -2 -12  -3   23.55    0.68
   2 -12   3   22.56    0.76
  -2  12  -3   23.42    0.88
   2  12   3   23.71    0.78
  -2  12  -3   23.69    0.82
   2  12   3   22.08    1.05
   3 -12   3    3.13    0.33
   3 -12   3    2.71    0.26
  -3 -12  -3    2.69    0.28
  -3  12  -3    2.69    0.32
   3  12   3    2.79    0.49
  -3  12  -3    1.83    0.31
   4 -12   3    0.55    0.14
   4 -12   3    0.48    0.19
  -4 -12  -3    0.58    0.16
   4  12   3    0.27    0.25
  -4  12  -3    0.48    0.20
  -5 -12  -3    1.87    0.27
   5 -12   3    1.55    0.21
   5 -12   3    1.96    0.31
   5  12   3    2.27    0.49
  -5  12  -3    0.53    0.21
  -6 -12  -3    5.66    0.43
   6 -12   3    6.71    0.54
   6  12   3    7.24    0.85
  -6  12  -3    6.72    0.54
   8 -13  -3    0.13    0.16
  -8 -13   3    0.23    0.12
  -8  13   3   -0.01    0.20
   8  13  -3    0.22    0.29
  -8  13   3   -0.17    0.17
  -7 -13   3    3.35    0.30
  -7 -13   3    3.33    0.32
   7 -13  -3    3.23    0.36
   7  13  -3    3.27    0.53
  -7  13   3    3.04    0.36
  -7  13   3    2.70    0.38
  -6 -13   3    0.07    0.11
  -6 -13   3    0.47    0.13
   6 -13  -3    0.29    0.15
   6  13  -3    0.47    0.25
  -6  13   3    0.58    0.22
  -6  13   3    0.20    0.18
   6  13  -3    0.22    0.22
  -5 -13   3   11.73    0.45
  -5 -13   3   11.53    0.46
   5 -13  -3   12.06    0.55
   5 -13  -3   11.78    0.54
  -5  13   3   12.73    0.59
   5  13  -3   12.20    0.67
  -5  13   3   11.51    0.63
   5  13  -3   11.71    0.72
  -4 -13   3    5.02    0.27
   4 -13  -3    5.36    0.36
  -4 -13   3    4.41    0.28
   4 -13  -3    4.56    0.22
   4  13  -3    4.96    0.41
   4  13  -3    4.75    0.51
  -4  13   3    4.54    0.44
  -3 -13   3   69.28    1.48
  -3 -13   3   68.79    1.53
   3 -13  -3   70.29    1.66
   3 -13  -3   67.17    1.39
   3  13  -3   66.80    1.78
  -3  13   3   69.83    1.83
   3  13  -3   70.30    1.91
  -3  13   3   68.33    1.64
   2 -13  -3   22.61    0.55
   2 -13  -3   23.01    0.74
  -2 -13   3   22.05    0.65
  -2 -13   3   21.13    0.60
   2  13  -3   22.32    0.92
  -2  13   3   23.03    0.90
  -2  13   3   20.98    0.82
   2  13  -3   20.99    0.84
   1 -13  -3    3.36    0.17
   1 -13  -3    3.61    0.28
   1 -13  -3    3.17    0.26
  -1  13   3    3.60    0.26
  -1  13   3    3.27    0.41
  -1  13   3    3.24    0.42
   1  13  -3    2.96    0.36
   1  13  -3    3.91    0.42
   0 -13  -3    0.22    0.11
   0 -13  -3    0.32    0.12
   0  13   3    0.27    0.20
   0  13   3    0.02    0.10
   0  13   3   -0.07    0.17
   0  13  -3    0.12    0.16
   0  13  -3    0.31    0.16
  -1 -13  -3    5.59    0.31
   1 -13   3    5.61    0.30
  -1 -13  -3    5.82    0.34
  -1  13  -3    5.59    0.40
   1  13   3    5.08    0.57
   1  13   3    6.28    0.50
  -1  13  -3    5.30    0.44
  -2 -13  -3    0.31    0.12
   2 -13   3    0.23    0.10
  -2 -13  -3   -0.03    0.08
   2 -13   3    0.21    0.11
   2  13   3    0.03    0.19
  -2  13  -3    0.28    0.16
  -2  13  -3    0.28    0.17
   2  13   3    0.24    0.20
   3 -13   3    2.91    0.28
  -3 -13  -3    2.70    0.29
   3 -13   3    2.70    0.31
   3  13   3    3.43    0.53
  -3  13  -3    2.72    0.33
  -3  13  -3    3.17    0.40
   4 -13   3    2.20    0.25
  -4 -13  -3    2.62    0.31
   4 -13   3    2.28    0.31
   4  13   3    2.38    0.48
  -4  13  -3    2.73    0.38
   5 -13   3    3.61    0.30
  -5 -13  -3    3.38    0.36
   5 -13   3    3.70    0.42
  -5  13  -3    4.39    0.51
   5  13   3    3.90    0.65
   6 -13   3    5.19    0.52
  -6 -13  -3    5.06    0.53
  -6  13  -3    4.27    0.56
   6  13   3    5.42    0.78
  -8 -14   3    1.05    0.19
   8 -14  -3    1.07    0.25
  -8  14   3    0.92    0.27
   8  14  -3    0.60    0.36
  -8  14   3    1.41    0.31
  -7 -14   3    0.99    0.18
   7 -14  -3    0.68    0.21
   7  14  -3    0.30    0.31
  -7  14   3    0.73    0.24
  -7  14   3    0.73    0.23
  -6 -14   3    0.33    0.12
   6 -14  -3    0.24    0.13
  -6 -14   3    0.23    0.12
  -6  14   3    0.42    0.22
   6  14  -3    0.16    0.23
  -6  14   3    0.49    0.20
   6  14  -3   -0.09    0.22
   5 -14  -3    4.32    0.40
  -5 -14   3    4.34    0.28
  -5 -14   3    3.86    0.28
   5  14  -3    5.05    0.53
  -5  14   3    3.98    0.39
   5  14  -3    4.65    0.57
  -5  14   3    3.96    0.45
  -4 -14   3    0.60    0.13
   4 -14  -3    0.54    0.15
  -4 -14   3    0.37    0.13
   4  14  -3    0.25    0.23
   4  14  -3    0.31    0.22
  -4  14   3    0.73    0.25
   3 -14  -3    0.75    0.15
   3 -14  -3    0.41    0.15
  -3 -14   3    0.73    0.13
  -3 -14   3    0.48    0.13
  -3  14   3    0.36    0.21
  -3  14   3    0.86    0.20
   3  14  -3    0.50    0.23
   3  14  -3    1.06    0.27
   2 -14  -3   -0.01    0.09
  -2 -14   3    0.06    0.08
   2 -14  -3    0.03    0.05
   2  14  -3    0.13    0.20
  -2  14   3    0.32    0.19
   2  14  -3    0.16    0.18
  -2  14   3    0.05    0.17
   1 -14  -3   34.12    0.98
  -1  14   3   33.73    1.20
   1  14  -3   34.54    1.16
  -1  14   3   33.42    1.18
   1  14  -3   34.62    1.15
   0 -14  -3    0.11    0.10
   0 -14  -3    0.04    0.11
   0  14  -3    0.30    0.16
   0  14   3   -0.03    0.18
   0  14   3   -0.08    0.17
   0  14  -3    0.20    0.16
   1 -14   3    0.09    0.10
  -1 -14  -3    0.07    0.11
  -1 -14  -3    0.13    0.10
  -1  14  -3    0.02    0.15
  -1  14  -3    0.41    0.21
   1  14   3    0.00    0.19
   1  14   3   -0.35    0.14
  -2 -14  -3    0.06    0.08
   2 -14   3    0.42    0.12
  -2 -14  -3    0.17    0.11
   2  14   3   -0.02    0.19
   2  14   3    0.02    0.21
  -2  14  -3    0.10    0.14
  -2  14  -3    0.27    0.18
  -3 -14  -3    1.23    0.21
   3 -14   3    1.20    0.19
  -3  14  -3    1.39    0.30
   3  14   3    0.54    0.26
  -3  14  -3    1.43    0.26
   3  14   3    0.84    0.35
   4 -14   3    2.06    0.30
   4 -14   3    2.22    0.27
  -4 -14  -3    2.16    0.29
  -4  14  -3    2.54    0.39
   4  14   3    2.95    0.56
   5 -14   3    9.32    0.47
   5 -14   3    8.59    0.56
  -5 -14  -3    9.39    0.54
  -5  14  -3    9.69    0.64
   5  14   3    8.28    0.89
   6 -14   3    2.51    0.38
  -8 -15   3    3.97    0.38
   8 -15  -3    3.75    0.59
  -8  15   3    3.81    0.52
  -7 -15   3    0.67    0.17
   7 -15  -3    0.96    0.24
  -7  15   3    0.83    0.27
   7  15  -3    0.99    0.37
  -7  15   3    0.73    0.26
  -6 -15   3    0.25    0.12
   6 -15  -3    0.24    0.14
   6  15  -3    0.04    0.26
  -6  15   3    0.32    0.19
   6  15  -3    0.36    0.24
  -6  15   3    0.22    0.19
   5 -15  -3    0.06    0.13
  -5 -15   3   -0.09    0.08
  -5 -15   3   -0.04    0.10
   5  15  -3    0.20    0.26
  -5  15   3    0.12    0.19
   5  15  -3    0.14    0.22
  -5  15   3   -0.23    0.13
  -4 -15   3   20.56    0.64
   4 -15  -3   20.46    0.77
  -4 -15   3   19.02    0.65
   4  15  -3   20.63    0.92
   4  15  -3   19.95    0.99
  -4  15   3   20.65    0.90
  -3 -15   3    4.04    0.28
   3 -15  -3    4.05    0.32
  -3 -15   3    3.94    0.26
   3  15  -3    4.48    0.52
   3  15  -3    4.81    0.50
  -3  15   3    4.50    0.50
   2 -15  -3    1.01    0.20
   2  15  -3    0.26    0.22
  -2  15   3    0.35    0.21
   2  15  -3    0.95    0.26
  -2  15   3    1.07    0.31
   1 -15  -3    2.02    0.25
   1  15  -3    1.32    0.29
  -1  15   3    2.03    0.37
  -1  15   3    2.06    0.37
   1  15  -3    2.19    0.35
   0 -15   3   18.61    0.64
   0 -15  -3   17.78    0.65
   0 -15  -3   18.14    0.65
   0  15  -3   16.79    0.79
   0  15   3   18.65    0.91
   0  15  -3   18.79    0.81
   0  15   3   19.15    0.90
  -1 -15  -3   36.19    1.02
  -1 -15  -3   37.00    1.06
   1 -15   3   37.81    1.04
  -1  15  -3   36.72    1.19
   1  15   3   39.27    1.44
  -1  15  -3   37.61    1.27
   1  15   3   39.19    1.39
  -2 -15  -3    3.28    0.26
  -2 -15  -3    3.63    0.33
   2 -15   3    3.58    0.28
   2  15   3    4.05    0.52
  -2  15  -3    3.79    0.41
  -2  15  -3    3.66    0.45
   2  15   3    2.76    0.48
   3 -15   3    0.22    0.12
  -3 -15  -3    0.52    0.17
  -3  15  -3    0.59    0.21
   3  15   3    0.30    0.25
   3  15   3    0.57    0.32
  -3  15  -3    0.42    0.22
  -4 -15  -3   -0.10    0.12
   4 -15   3    0.14    0.13
  -4  15  -3    0.15    0.19
   4  15   3    0.12    0.27
   4  15   3    0.15    0.23
   5 -15   3   12.66    0.57
  -5 -15  -3   12.26    0.63
   5  15   3   13.02    0.99
  -5  15  -3   12.22    0.74
  -7 -16   3    0.22    0.13
   7 -16  -3   -0.01    0.16
  -7  16   3    0.30    0.24
   7  16  -3    0.44    0.32
  -7  16   3    0.16    0.26
   6 -16  -3    0.03    0.14
  -6 -16   3    0.15    0.12
   6  16  -3    0.43    0.31
  -6  16   3    0.07    0.19
   6  16  -3    0.22    0.28
  -6  16   3    0.08    0.18
  -5 -16   3    1.33    0.20
   5 -16  -3    0.78    0.21
  -5 -16   3    0.74    0.16
   5  16  -3    0.95    0.35
  -5  16   3    0.88    0.23
  -5  16   3    1.36    0.31
   5  16  -3    1.00    0.29
  -4 -16   3    2.81    0.33
   4 -16  -3    3.02    0.35
  -4 -16   3    2.30    0.25
   4  16  -3    2.35    0.40
  -4  16   3    3.02    0.42
   4  16  -3    2.87    0.48
  -3 -16   3    1.41    0.19
   3 -16  -3    1.71    0.26
  -3 -16   3    1.39    0.20
   3  16  -3    1.59    0.34
  -3  16   3    1.49    0.34
   3  16  -3    1.64    0.35
   2 -16  -3   26.95    0.89
   2  16  -3   27.67    1.12
  -2  16   3   25.90    1.01
   2  16  -3   24.86    1.03
  -2  16   3   27.85    1.11
  -1 -16   3    3.50    0.32
   1 -16  -3    2.89    0.32
   1  16  -3    3.10    0.41
  -1  16   3    3.18    0.45
  -1  16   3    3.02    0.44
   1  16  -3    2.93    0.43
   0 -16   3    0.32    0.13
   0 -16  -3    0.01    0.11
   0 -16  -3    0.04    0.09
   0  16  -3   -0.02    0.19
   0  16   3    0.14    0.21
   0  16   3    0.18    0.20
   0  16  -3   -0.04    0.15
  -1 -16  -3    1.30    0.21
   1 -16   3    1.11    0.19
  -1 -16  -3    1.30    0.23
   1  16   3    1.18    0.35
  -1  16  -3    1.14    0.29
  -1  16  -3    1.68    0.31
   1  16   3    1.31    0.35
  -2 -16  -3    1.86    0.23
   2 -16   3    1.83    0.25
  -2 -16  -3    1.32    0.22
  -2  16  -3    2.03    0.37
  -2  16  -3    1.97    0.33
   2  16   3    1.73    0.41
   2  16   3    1.79    0.42
  -3 -16  -3    0.62    0.19
   3 -16   3    0.26    0.15
   3  16   3    0.57    0.30
  -3  16  -3    0.39    0.18
  -3  16  -3   -0.14    0.18
   3  16   3    0.69    0.35
   4 -16   3   -0.09    0.11
  -4 -16  -3    0.04    0.14
  -4  16  -3    0.04    0.21
   4  16   3    0.23    0.26
   4  16   3   -0.07    0.26
   5 -16   3    5.47    0.40
   6 -17  -3    0.21    0.17
  -6 -17   3    0.33    0.15
  -6  17   3    0.38    0.22
   6  17  -3    0.83    0.35
  -6  17   3    0.43    0.25
   6  17  -3   -0.15    0.25
   5 -17  -3    0.05    0.13
  -5 -17   3    0.13    0.13
  -5 -17   3   -0.04    0.10
  -5  17   3    0.07    0.17
  -5  17   3   -0.22    0.20
   5  17  -3   -0.13    0.26
   5  17  -3   -0.03    0.22
  -4 -17   3    2.60    0.28
   4 -17  -3    2.02    0.30
  -4 -17   3    1.93    0.24
   4  17  -3    3.20    0.52
  -4  17   3    1.76    0.36
   4  17  -3    2.19    0.40
  -3 -17   3   11.33    0.50
   3 -17  -3   12.33    0.59
  -3  17   3   10.11    0.68
   3  17  -3   12.43    0.77
   3  17  -3   10.91    0.71
   2 -17  -3    0.03    0.13
  -2 -17   3    0.21    0.11
  -2  17   3    0.18    0.22
   2  17  -3    0.13    0.20
  -2  17   3    0.20    0.20
   2  17  -3    0.64    0.25
  -1 -17   3    5.53    0.35
   1 -17  -3    4.56    0.35
   1  17  -3    4.20    0.49
  -1  17   3    4.87    0.55
   1  17  -3    4.65    0.53
  -1  17   3    4.57    0.53
   0 -17  -3    0.12    0.13
   0 -17   3    0.09    0.10
   0 -17  -3    0.03    0.11
   0  17  -3    0.03    0.18
   0  17   3   -0.26    0.22
   0  17   3    0.06    0.20
   0  17  -3   -0.20    0.13
  -1 -17  -3    2.83    0.31
  -1 -17  -3    2.05    0.27
   1 -17   3    1.96    0.26
  -1  17  -3    1.79    0.34
   1  17   3    2.24    0.47
   1  17   3    1.50    0.38
  -1  17  -3    1.94    0.33
   2 -17   3    0.10    0.13
  -2 -17  -3    0.18    0.15
  -2 -17  -3    0.37    0.14
   2  17   3    1.07    0.37
  -2  17  -3    0.23    0.21
   2  17   3    0.63    0.32
  -2  17  -3   -0.01    0.15
   3 -17   3    3.12    0.34
  -3 -17  -3    3.00    0.34
   3  17   3    2.55    0.50
  -3  17  -3    3.46    0.48
  -3  17  -3    3.05    0.38
   3  17   3    3.75    0.64
   4 -17   3   12.20    0.59
  -4 -17  -3   12.84    0.63
   4  17   3   11.58    0.89
   4  17   3   11.38    0.94
  -4  17  -3   12.47    0.77
   5 -17   3    8.31    0.50
  -6  18   3    1.09    0.32
   5 -18  -3    0.19    0.15
  -5  18   3   -0.07    0.21
   5  18  -3    0.04    0.27
   5  18  -3   -0.29    0.22
  -5  18   3    0.14    0.20
   4 -18  -3    0.61    0.21
  -4 -18   3    0.88    0.19
   4  18  -3    0.98    0.37
  -4  18   3    0.63    0.28
   4  18  -3    0.36    0.28
   3 -18  -3    0.13    0.14
  -3 -18   3    0.13    0.12
  -3  18   3   -0.21    0.22
   3  18  -3   -0.22    0.22
   3  18  -3    0.25    0.23
   2 -18  -3    1.32    0.24
  -2 -18   3    0.70    0.17
  -2  18   3    0.96    0.33
   2  18  -3    0.66    0.30
   2  18  -3    0.76    0.32
  -1 -18   3    4.40    0.33
   1 -18  -3    4.80    0.38
   1  18  -3    4.62    0.52
  -1  18   3    3.85    0.52
   1  18  -3    5.59    0.59
  -1  18   3    4.66    0.60
   0 -18  -3    6.42    0.42
   0 -18  -3    6.81    0.44
   0 -18   3    6.56    0.41
   0  18  -3    7.06    0.55
   0  18   3    5.63    0.64
   0  18  -3    5.36    0.57
   0  18   3    6.95    0.72
  -1 -18  -3   12.51    0.59
   1 -18   3   11.81    0.56
  -1 -18  -3   13.21    0.59
  -1  18  -3   12.26    0.70
   1  18   3   14.04    0.92
   1  18   3   10.74    0.80
  -1  18  -3   13.39    0.78
  -2 -18  -3    8.38    0.50
   2 -18   3    8.45    0.47
  -2 -18  -3    8.49    0.66
  -2  18  -3    7.62    0.54
   2  18   3    9.19    0.87
   2  18   3    7.63    0.82
  -2  18  -3    9.11    0.65
   3 -18   3    2.30    0.31
  -3 -18  -3    2.36    0.33
   3  18   3    2.07    0.53
  -3  18  -3    1.94    0.34
  -3  18  -3    2.01    0.40
   3  18   3    2.22    0.50
   4 -18   3    3.83    0.40
  -5  19   3    2.56    0.46
   5  19  -3    2.63    0.48
   4 -19  -3    3.52    0.40
  -4 -19   3    2.93    0.31
  -4  19   3    3.49    0.51
   4  19  -3    3.25    0.55
   4  19  -3    3.40    0.52
  -3 -19   3   14.74    0.62
   3 -19  -3   14.66    0.69
  -3  19   3   14.73    0.89
   3  19  -3   14.17    0.89
   3  19  -3   13.65    0.83
   2 -19  -3    2.19    0.31
  -2 -19   3    2.36    0.29
   2  19  -3    1.39    0.40
   2  19  -3    2.15    0.41
  -2  19   3    2.40    0.43
   1 -19  -3    7.71    0.49
  -1 -19   3    8.39    0.47
   1  19  -3    8.95    0.68
  -1  19   3    8.74    0.73
   1  19  -3    9.18    0.67
  -1  19   3    7.68    0.65
   0 -19   3    0.03    0.12
   0 -19  -3    0.01    0.14
   0  19   3    0.22    0.29
   0  19  -3    0.32    0.25
   0  19  -3   -0.06    0.18
   0  19   3    0.13    0.24
  -1 -19  -3   17.06    0.72
  -1 -19  -3   16.89    0.69
   1 -19   3   15.62    0.67
   1  19   3   16.97    0.98
  -1  19  -3   15.26    0.87
  -1  19  -3   16.84    0.84
   1  19   3   15.01    0.97
  -2 -19  -3   -0.04    0.12
   2 -19   3   -0.04    0.13
  -2  19  -3   -0.04    0.17
   2  19   3   -0.13    0.28
   2  19   3   -0.27    0.28
  -2  19  -3    0.06    0.22
   3 -19   3    2.43    0.48
  -3  19  -3    2.70    0.39
   5  20  -3    3.05    0.54
  -4 -20   3   -0.10    0.11
   4  20  -3    0.00    0.27
  -4  20   3    0.03    0.29
   3 -20  -3    0.20    0.16
  -3 -20   3    0.38    0.16
   3  20  -3    0.05    0.26
   3  20  -3    0.25    0.26
  -3  20   3   -0.10    0.25
  -2 -20   3   10.82    0.55
   2 -20  -3    9.47    0.56
  -2  20   3   10.86    0.80
   2  20  -3   11.63    0.79
   2  20  -3   10.51    0.75
  -1 -20   3    3.08    0.34
   1 -20  -3    2.91    0.36
  -1  20   3    2.32    0.48
  -1  20   3    3.03    0.50
   1  20  -3    2.05    0.41
   1  20  -3    3.10    0.49
   0 -20  -3    2.63    0.34
   0 -20   3    1.82    0.29
   0  20  -3    1.88    0.39
   0  20   3    1.60    0.44
   0  20  -3    1.61    0.38
   0  20   3    1.70    0.43
  -1 -20  -3   -0.05    0.15
  -1 -20  -3    0.48    0.18
   1 -20   3    0.19    0.14
  -1  20  -3    0.16    0.26
  -1  20  -3    0.08    0.19
   1  20   3    0.33    0.33
   1  20   3   -0.08    0.25
  -2  20  -3   -0.02    0.23
   2  20   3    0.32    0.38
  -4 -21   3    0.16    0.15
  -3 -21   3    2.24    0.30
   3  21  -3    2.30    0.47
  -2 -21   3    0.05    0.14
   2  21  -3    0.30    0.30
   1 -21  -3    0.53    0.21
   1  21  -3    0.17    0.28
   1  21  -3    0.28    0.29
   0 -21  -3    0.18    0.17
   0  21  -3   -0.15    0.23
   0  21  -3    0.03    0.26
   0  21   3   -0.09    0.27
  -1 -21  -3    2.61    0.34
   1  21   3    2.12    0.49
  -1  21  -3    2.64    0.43
  -2  21  -3   25.79    1.21
   0  22   3    2.69    0.56
  -9   0   4   15.29    0.60
  -8   0   4    2.72    0.28
  -7   0   4    5.58    0.32
   6   0  -4   46.73    1.19
  -6   0   4   46.18    1.13
   6   0  -4   47.20    1.04
  -5   0   4   33.76    0.86
   5   0  -4   33.60    0.76
   5   0  -4   32.62    0.88
   5   0  -4   34.68    0.76
   4   0  -4    1.87    0.13
   4   0  -4    1.78    0.09
  -4   0   4    2.35    0.20
   3   0  -4  264.71    4.92
   3   0  -4  266.11    4.94
  -3   0   4  265.14    4.95
  -2   0   4  661.67   11.79
   2   0  -4  648.75   12.03
  -2   0   4  642.60   11.71
  -2   0   4  649.69   11.91
  -1   0   4   57.01    1.32
  -1   0   4   57.24    1.14
  -1   0   4   54.02    1.11
   1   0  -4   54.79    1.06
  -1   0   4   54.44    1.06
   0   0   4  120.96    2.60
   0   0  -4  121.75    2.26
   0   0   4  119.84    2.26
   0   0  -4  119.73    2.30
   1   0   4  134.84    2.45
  -1   0  -4  134.88    2.54
  -1   0  -4  132.52    2.47
   1   0   4  132.42    2.94
  -2   0  -4   38.61    0.89
   2   0   4   39.79    1.24
   3   0   4    7.65    0.51
  -3   0  -4    7.40    0.32
  -4   0  -4   39.28    1.00
   4   0   4   40.31    1.33
   5   0   4   53.14    1.67
  -5   0  -4   55.29    1.34
  -6   0  -4    0.11    0.12
   6   0   4   -0.12    0.14
  -7   0  -4   13.75    0.62
   7   0   4   13.06    0.81
  -9  -1   4    0.39    0.16
  -9   1   4    0.22    0.15
  -8  -1   4    0.51    0.15
  -8   1   4    0.79    0.18
  -7  -1   4    0.19    0.11
  -7   1   4    0.39    0.14
  -6  -1   4    4.11    0.27
   6  -1  -4    4.56    0.29
   6   1  -4    3.75    0.22
  -6   1   4    4.47    0.28
   5  -1  -4   11.65    0.44
   5  -1  -4   12.16    0.31
  -5  -1   4   11.89    0.43
  -5   1   4   12.15    0.36
   5   1  -4   11.48    0.34
   5   1  -4   11.62    0.45
  -5   1   4   10.94    0.42
   5   1  -4   11.76    0.38
   4  -1  -4   14.72    0.36
  -4  -1   4   13.99    0.46
   4  -1  -4   14.90    0.47
  -4   1   4   14.39    0.33
  -4   1   4   14.57    0.47
  -4   1   4   14.73    0.43
   4   1  -4   13.81    0.42
   3  -1  -4  119.79    2.30
  -3   1   4  114.93    2.31
   3   1  -4  117.81    2.30
   3   1  -4  115.53    2.29
  -2  -1   4   -0.15    0.05
   2  -1  -4   -0.02    0.04
  -2   1   4   -0.03    0.04
   2   1  -4    0.06    0.04
  -2   1   4    0.03    0.03
  -2   1   4    0.05    0.06
  -2   1   4    0.05    0.04
   2   1  -4    0.30    0.09
  -1  -1   4    7.45    0.25
  -1  -1   4    7.40    0.24
   1  -1  -4    7.28    0.25
   1  -1  -4    7.46    0.22
  -1  -1   4    7.81    0.37
  -1   1   4    7.75    0.26
   1   1  -4    7.50    0.24
  -1   1   4    7.19    0.23
  -1   1   4    7.17    0.21
   1   1  -4    7.21    0.18
   0  -1   4   19.62    0.71
   0  -1  -4   19.38    0.49
   0  -1   4   19.48    0.45
   0  -1  -4   19.11    0.46
   0   1  -4   19.42    0.52
   0   1   4   19.09    0.45
   0   1  -4   18.91    0.48
   0   1   4   20.21    0.70
   0   1  -4   20.18    0.44
  -1  -1  -4    0.72    0.09
   1  -1   4    0.78    0.06
   1  -1   4    0.53    0.17
  -1   1  -4    0.73    0.12
  -1   1  -4    0.51    0.08
   1   1   4    0.63    0.06
  -1   1  -4    0.67    0.07
   1   1   4    0.56    0.19
  -2  -1  -4    0.34    0.09
   2  -1   4    0.24    0.15
  -2   1  -4    0.24    0.07
   2   1   4    0.67    0.20
  -2   1  -4    0.21    0.10
  -3  -1  -4    5.51    0.29
   3  -1   4    5.69    0.45
   3   1   4    5.71    0.53
  -3   1  -4    6.01    0.36
  -3   1  -4    5.70    0.27
  -4  -1  -4    3.28    0.28
   4  -1   4    2.94    0.39
  -4   1  -4    3.46    0.35
  -4   1  -4    3.06    0.23
   4   1   4    3.40    0.42
   5  -1   4    0.03    0.17
  -5  -1  -4    0.07    0.11
   5   1   4   -0.02    0.16
  -5   1  -4    0.05    0.10
   6  -1   4    0.22    0.18
  -6  -1  -4    0.17    0.13
  -6   1  -4   -0.04    0.11
   6   1   4   -0.24    0.14
   7  -1   4   -0.12    0.20
  -7  -1  -4    0.10    0.14
  -7   1  -4    0.14    0.15
   7   1   4    0.13    0.19
   8   1   4    0.86    0.39
 -10   2   4    0.29    0.28
  -9  -2   4    7.76    0.41
  -9   2   4    6.68    0.41
  -8  -2   4    8.90    0.42
  -8   2   4    9.43    0.46
  -7  -2   4   14.14    0.52
   7  -2  -4   14.87    0.59
  -7   2   4   14.45    0.54
   6  -2  -4   89.54    1.99
  -6  -2   4   90.24    1.92
  -6   2   4   91.00    1.86
  -6   2   4   92.59    1.96
   6   2  -4   91.69    1.92
   5  -2  -4    0.74    0.14
  -5  -2   4    1.18    0.16
   5   2  -4    1.04    0.15
   5   2  -4    1.08    0.17
  -5   2   4    0.96    0.16
  -5   2   4    0.78    0.10
   5   2  -4    1.07    0.11
   4  -2  -4   74.85    1.48
   4  -2  -4   73.91    1.58
  -4  -2   4   74.26    1.57
  -4   2   4   75.26    1.60
   4   2  -4   75.04    1.39
   4   2  -4   74.80    1.59
   4   2  -4   74.05    1.57
  -4   2   4   74.47    1.44
  -4   2   4   74.45    1.48
   4   2  -4   74.76    1.41
   3  -2  -4  143.66    2.72
  -3  -2   4  136.44    2.71
   3   2  -4  138.93    2.71
  -3   2   4  141.25    2.59
  -3   2   4  135.82    2.73
  -3   2   4  146.90    2.74
   3   2  -4  141.34    2.75
   2  -2  -4    0.14    0.05
  -2  -2   4    0.24    0.08
  -2  -2   4    0.16    0.05
   2   2  -4    0.17    0.08
  -2   2   4    0.13    0.07
   2   2  -4    0.14    0.03
   2   2  -4    0.26    0.06
  -2   2   4    0.17    0.07
   1  -2  -4   21.55    0.50
   1  -2  -4   22.36    0.53
  -1  -2   4   21.71    0.68
  -1  -2   4   20.97    0.51
  -1  -2   4   21.09    0.53
   1   2  -4   21.21    0.61
   1   2  -4   21.30    0.50
   1   2  -4   21.50    0.51
  -1   2   4   22.27    0.54
   0  -2  -4   10.75    0.33
   0  -2  -4   11.27    0.33
   0  -2   4   11.26    0.51
   0  -2   4   11.40    0.30
   0   2   4   11.03    0.31
   0   2  -4   10.87    0.27
   0   2  -4   11.03    0.36
   0   2   4   11.63    0.51
   0   2  -4   11.44    0.32
   1  -2   4   31.90    0.64
  -1  -2  -4   31.69    0.74
   1  -2   4   30.96    1.02
  -1   2  -4   32.38    0.81
   1   2   4   31.76    1.02
   1   2   4   30.95    0.64
  -1   2  -4   30.25    0.65
  -1   2  -4   31.42    0.69
  -2  -2  -4   57.66    1.26
   2  -2   4   59.65    1.62
  -2   2  -4   57.85    1.37
  -2   2  -4   57.37    1.10
   2   2   4   58.37    1.61
   3  -2   4   19.71    0.83
  -3  -2  -4   18.62    0.57
   3   2   4   19.26    0.83
  -3   2  -4   18.70    0.67
   4  -2   4    5.86    0.56
  -4  -2  -4    5.87    0.32
   4   2   4    6.28    0.50
  -4   2  -4    6.35    0.42
   5  -2   4    3.47    0.44
  -5  -2  -4    3.50    0.31
  -5   2  -4    4.12    0.42
   5   2   4    3.53    0.44
  -6  -2  -4    7.60    0.43
   6  -2   4    7.58    0.60
  -6   2  -4    6.37    0.39
   6   2   4    6.21    0.60
   7  -2   4    0.72    0.27
  -7  -2  -4    0.36    0.18
   7   2   4   -0.05    0.20
   7   2   4    0.01    0.22
  -7   2  -4   -0.11    0.13
   8   2   4    8.10    0.86
 -10  -3   4    0.21    0.15
 -10   3   4    0.43    0.22
  -9  -3   4    5.57    0.35
   9  -3  -4    4.47    0.44
  -9   3   4    4.71    0.36
  -8  -3   4    0.24    0.12
   8  -3  -4    0.63    0.19
  -8   3   4    0.56    0.16
   7  -3  -4   25.15    0.81
  -7  -3   4   24.92    0.74
  -7   3   4   25.25    0.77
  -7   3   4   25.12    0.73
   6  -3  -4    3.00    0.28
  -6  -3   4    3.02    0.23
   6   3  -4    3.05    0.25
  -6   3   4    2.70    0.26
  -6   3   4    2.77    0.19
   5  -3  -4    8.09    0.35
  -5  -3   4    7.40    0.33
  -5   3   4    8.00    0.35
   5   3  -4    7.26    0.35
  -5   3   4    7.09    0.27
   5   3  -4    7.60    0.35
   4  -3  -4    0.52    0.11
  -4  -3   4    0.41    0.09
   4  -3  -4    0.14    0.08
   4   3  -4    0.45    0.11
   4   3  -4    0.37    0.06
  -4   3   4    0.13    0.05
   4   3  -4    0.21    0.09
   4   3  -4    0.36    0.07
  -4   3   4    0.19    0.10
  -4   3   4    0.29    0.06
   3  -3  -4   35.96    0.83
  -3  -3   4   35.89    0.84
   3   3  -4   35.31    0.83
   3   3  -4   35.59    0.90
  -3   3   4   37.71    0.79
   3   3  -4   35.96    0.69
  -3   3   4   37.00    0.79
  -3   3   4   35.41    0.87
  -2  -3   4   78.91    1.60
  -2  -3   4   80.87    1.54
  -2   3   4   79.64    1.64
   2   3  -4   78.71    1.51
  -2   3   4   80.23    1.61
   2   3  -4   80.58    1.70
   2   3  -4   79.97    1.58
   1  -3  -4    3.25    0.16
  -1  -3   4    3.21    0.16
   1  -3  -4    3.42    0.16
  -1  -3   4    3.41    0.26
   1   3  -4    3.25    0.22
   1   3  -4    3.49    0.16
   1   3  -4    3.25    0.15
  -1   3   4    3.72    0.18
   0  -3  -4    0.52    0.09
   0  -3   4    0.73    0.17
   0  -3  -4    0.67    0.09
   0  -3   4    0.66    0.08
   0   3   4    0.56    0.08
   0   3   4    0.73    0.16
   0   3  -4    0.51    0.10
   0   3  -4    0.80    0.09
   0   3  -4    0.60    0.06
   1  -3   4   65.21    1.24
  -1  -3  -4   65.75    1.35
   1  -3   4   61.23    1.64
   1   3   4   63.81    1.25
   1   3   4   64.01    1.66
  -1   3  -4   66.29    1.43
   2  -3   4    0.14    0.14
  -2  -3  -4   -0.02    0.06
  -2   3  -4    0.13    0.09
  -2   3  -4    0.00    0.03
   2   3   4   -0.23    0.10
  -3  -3  -4    6.34    0.32
   3  -3   4    8.20    0.52
   3   3   4    6.95    0.50
  -3   3  -4    6.22    0.37
  -4  -3  -4   27.28    0.79
   4  -3   4   26.63    1.03
   4   3   4   27.24    1.04
  -4   3  -4   25.89    0.88
  -5  -3  -4   12.79    0.53
   5  -3   4   13.15    0.72
   5   3   4   13.12    0.73
  -5   3  -4   12.24    0.62
   6  -3   4    5.97    0.61
  -6  -3  -4    5.57    0.38
   6   3   4    5.79    0.58
  -6   3  -4    6.01    0.49
  -7  -3  -4    0.18    0.16
   7  -3   4   -0.05    0.19
   7   3   4    0.17    0.25
   7   3   4    0.29    0.23
 -10  -4   4    3.06    0.34
 -10   4   4    3.06    0.45
  -9  -4   4    9.00    0.44
   9  -4  -4    9.22    0.53
  -9  -4   4    9.36    0.46
  -9   4   4    9.29    0.50
  -8  -4   4    0.82    0.16
   8  -4  -4    1.03    0.22
  -8  -4   4    0.72    0.16
  -8   4   4    0.64    0.16
   7  -4  -4   11.94    0.52
  -7  -4   4   10.83    0.45
   7   4  -4   11.88    0.54
  -7   4   4   10.94    0.49
  -7   4   4   11.04    0.45
   6  -4  -4    9.86    0.43
  -6  -4   4    9.55    0.40
  -6   4   4    9.62    0.37
   6   4  -4    9.57    0.46
  -6   4   4   10.32    0.44
   5  -4  -4    2.46    0.24
  -5  -4   4    2.71    0.20
   5  -4  -4    2.52    0.20
  -5   4   4    2.32    0.17
  -5   4   4    2.14    0.23
   5   4  -4    2.47    0.26
   5   4  -4    2.28    0.22
  -4  -4   4   10.44    0.30
  -4  -4   4   11.09    0.38
   4  -4  -4   11.59    0.39
   4  -4  -4   10.84    0.42
   4   4  -4   11.52    0.40
   4   4  -4   11.03    0.34
  -4   4   4   11.14    0.36
   4   4  -4   10.69    0.44
  -4   4   4   10.74    0.42
   4   4  -4   10.93    0.29
   3  -4  -4    0.10    0.06
  -3  -4   4    0.11    0.06
  -3  -4   4    0.07    0.03
   3  -4  -4    0.08    0.08
   3   4  -4    0.12    0.05
  -3   4   4    0.00    0.06
   3   4  -4    0.09    0.09
  -3   4   4    0.08    0.05
   3   4  -4    0.04    0.06
  -3   4   4   -0.04    0.07
   2  -4  -4    3.83    0.18
  -2  -4   4    3.61    0.18
   2  -4  -4    3.66    0.22
  -2  -4   4    3.61    0.19
   2   4  -4    3.67    0.24
   2   4  -4    3.60    0.17
  -2   4   4    3.88    0.22
   2   4  -4    3.68    0.16
  -2   4   4    3.75    0.21
  -1  -4   4    1.31    0.12
   1  -4  -4    1.40    0.13
   1  -4  -4    1.01    0.10
  -1  -4   4    1.19    0.18
   1  -4  -4    1.20    0.15
   1   4  -4    1.26    0.10
   1   4  -4    1.24    0.17
  -1   4   4    1.44    0.14
   1   4  -4    1.27    0.13
   0  -4   4  170.65    3.27
   0  -4  -4  178.39    3.32
   0  -4  -4  176.71    3.33
   0  -4   4  178.71    3.64
   0   4   4  172.43    3.59
   0   4  -4  177.73    3.27
   0   4   4  180.11    3.31
   0   4  -4  174.66    3.38
   0   4  -4  175.56    3.49
  -1  -4  -4   18.41    0.53
   1  -4   4   19.12    0.44
   1  -4   4   18.69    0.74
   1   4   4   18.98    0.45
  -1   4  -4   19.65    0.59
   1   4   4   18.22    0.73
   2  -4   4   18.42    0.79
  -2  -4  -4   19.33    0.57
   2   4   4   19.13    0.39
   2   4   4   18.71    0.41
  -2   4  -4   20.25    0.65
   2   4   4   20.67    0.82
  -3  -4  -4   49.45    1.18
   3  -4   4   49.26    1.47
   3   4   4   49.41    1.48
  -3   4  -4   48.56    1.28
   4  -4   4    0.51    0.20
  -4  -4  -4    0.47    0.14
   4   4   4    0.70    0.23
  -4   4  -4    0.49    0.19
  -5  -4  -4    8.25    0.43
   5  -4   4    8.64    0.59
   5   4   4    7.88    0.58
  -5   4  -4    8.87    0.52
  -6  -4  -4    2.21    0.28
   6  -4   4    2.72    0.43
   6   4   4    1.98    0.36
  -6   4  -4    2.44    0.36
   6   4   4    2.48    0.44
  -7  -4  -4    0.34    0.17
   7  -4   4    0.24    0.20
   7   4   4    0.37    0.31
   7   4   4    0.15    0.20
 -10  -5   4    1.05    0.23
 -10   5   4    1.47    0.32
  -9  -5   4    0.49    0.16
  -9  -5   4    0.39    0.15
   9  -5  -4    0.45    0.18
  -9   5   4    0.10    0.16
   8  -5  -4    7.70    0.44
  -8  -5   4    7.58    0.39
  -8  -5   4    7.12    0.37
  -8   5   4    7.46    0.43
  -7  -5   4   34.46    0.92
   7  -5  -4   35.27    0.99
  -7  -5   4   33.62    0.89
  -7   5   4   33.77    0.93
  -7   5   4   34.56    0.98
   7   5  -4   34.13    1.05
   6  -5  -4   37.96    1.00
  -6  -5   4   38.71    0.91
   6  -5  -4   36.15    1.00
  -6  -5   4   35.92    0.94
   6   5  -4   37.38    1.08
  -6   5   4   38.15    0.95
  -6   5   4   38.78    1.02
   5  -5  -4    5.05    0.30
   5  -5  -4    5.20    0.28
  -5  -5   4    5.35    0.28
  -5  -5   4    5.61    0.23
  -5   5   4    5.04    0.31
  -5   5   4    4.99    0.26
   5   5  -4    5.23    0.34
   5   5  -4    5.87    0.29
   4  -5  -4   13.48    0.49
  -4  -5   4   13.77    0.36
   4  -5  -4   14.72    0.45
  -4  -5   4   13.67    0.45
   4   5  -4   14.31    0.54
  -4   5   4   13.27    0.44
   4   5  -4   13.86    0.43
  -4   5   4   14.28    0.50
   4   5  -4   14.05    0.46
  -3  -5   4   21.60    0.45
  -3  -5   4   21.21    0.56
   3  -5  -4   21.37    0.56
   3  -5  -4   22.09    0.64
   3   5  -4   21.33    0.67
  -3   5   4   21.03    0.62
   3   5  -4   20.49    0.55
  -3   5   4   21.09    0.59
   3   5  -4   20.64    0.53
   2  -5  -4    4.64    0.20
   2  -5  -4    4.62    0.25
  -2  -5   4    5.04    0.22
  -2   5   4    4.49    0.24
   2   5  -4    4.22    0.28
   2   5  -4    4.38    0.19
   2   5  -4    4.95    0.22
  -2   5   4    5.09    0.27
   1  -5  -4   50.45    1.08
  -1  -5   4   51.29    1.08
   1  -5  -4   52.14    1.11
   1  -5  -4   51.83    1.18
  -1  -5   4   51.17    1.28
  -1   5   4   51.67    1.13
   1   5  -4   53.32    1.25
   1   5  -4   50.76    1.04
   1   5  -4   52.90    1.14
   0  -5  -4    4.21    0.23
   0  -5   4    3.47    0.33
   0  -5   4    4.05    0.17
   0  -5  -4    4.26    0.21
   0  -5  -4    4.20    0.19
   0   5  -4    3.96    0.23
   0   5  -4    3.98    0.16
   0   5  -4    4.12    0.27
   0   5   4    3.86    0.19
   0   5   4    4.15    0.31
   1  -5   4   45.55    1.30
   1  -5   4   45.24    0.94
  -1  -5  -4   45.35    1.04
   1   5   4   44.87    0.95
   1   5   4   46.61    1.31
  -1   5  -4   46.18    1.12
  -2  -5  -4    0.04    0.07
   2  -5   4    0.24    0.15
   2   5   4    0.06    0.04
   2   5   4    0.02    0.03
   2   5   4    0.19    0.16
  -2   5  -4   -0.11    0.07
   3  -5   4   10.67    0.60
  -3  -5  -4   11.65    0.45
   3   5   4   10.95    0.62
  -3   5  -4   10.48    0.50
   4  -5   4   44.46    1.40
  -4  -5  -4   42.72    1.13
  -4   5  -4   43.50    1.25
   4   5   4   43.12    1.39
   5  -5   4    6.62    0.60
  -5  -5  -4    6.14    0.38
  -5   5  -4    7.06    0.48
   5   5   4    6.18    0.58
   6  -5   4    1.51    0.33
  -6  -5  -4    1.68    0.26
   6   5   4    1.30    0.34
  -6   5  -4    1.73    0.31
   6   5   4    1.74    0.35
   7  -5   4    0.13    0.20
  -7  -5  -4   -0.01    0.14
   7   5   4   -0.09    0.28
   7   5   4   -0.19    0.18
  -7   5  -4    0.01    0.16
 -10   6   4    2.50    0.43
  -9  -6   4    7.65    0.43
  -9  -6   4    7.53    0.41
   9  -6  -4    7.25    0.46
  -9   6   4    8.06    0.47
   8  -6  -4    8.20    0.45
  -8  -6   4    8.54    0.41
  -8  -6   4    7.99    0.40
  -8   6   4    8.56    0.47
   7  -6  -4    1.13    0.20
  -7  -6   4    0.71    0.14
  -7  -6   4    0.59    0.14
   7  -6  -4    0.71    0.16
  -7   6   4    0.48    0.14
   7   6  -4    0.80    0.22
  -7   6   4    0.32    0.16
  -6  -6   4    0.00    0.08
  -6  -6   4    0.00    0.07
   6  -6  -4    0.01    0.09
   6  -6  -4    0.05    0.09
  -6   6   4    0.13    0.13
  -6   6   4    0.03    0.09
   6   6  -4   -0.07    0.12
   5  -6  -4   64.13    1.41
  -5  -6   4   61.93    1.39
   5  -6  -4   63.13    1.48
  -5  -6   4   62.67    1.31
  -5   6   4   63.21    1.42
  -5   6   4   63.09    1.48
   5   6  -4   63.36    1.43
   5   6  -4   61.77    1.57
   4  -6  -4   -0.02    0.05
  -4  -6   4   -0.09    0.06
  -4  -6   4   -0.06    0.04
   4  -6  -4   -0.01    0.08
   4   6  -4   -0.05    0.07
  -4   6   4    0.09    0.09
   4   6  -4    0.03    0.07
  -4   6   4    0.03    0.08
   4   6  -4   -0.13    0.09
  -3  -6   4   28.19    0.57
   3  -6  -4   28.22    0.68
  -3  -6   4   26.82    0.69
   3  -6  -4   27.33    0.77
   3   6  -4   26.53    0.69
  -3   6   4   26.46    0.71
  -3   6   4   27.62    0.76
  -3   6   4   27.36    0.75
   3   6  -4   27.95    0.83
   3   6  -4   27.29    0.67
   2  -6  -4   10.17    0.39
   2  -6  -4   10.04    0.32
   2   6  -4   10.45    0.30
  -2   6   4    9.93    0.38
   2   6  -4   10.53    0.45
  -2   6   4   10.02    0.42
   2   6  -4   10.48    0.36
  -2   6   4   10.04    0.40
   1  -6  -4   97.61    1.93
  -1  -6   4   96.56    1.93
  -1  -6   4   98.69    2.15
   1  -6  -4   98.25    1.98
   1  -6  -4   97.46    2.03
   1   6  -4   98.09    2.13
   1   6  -4  100.50    1.88
  -1   6   4   98.40    2.12
   1   6  -4   97.91    2.01
   1   6  -4  102.66    1.81
  -1   6   4   99.68    2.00
   0  -6  -4    0.42    0.08
   0  -6   4    0.51    0.16
   0  -6  -4    0.28    0.08
   0  -6   4    0.41    0.07
   0  -6  -4    0.58    0.11
   0   6  -4    0.47    0.13
   0   6   4    0.35    0.08
   0   6  -4    0.35    0.12
   0   6  -4    0.41    0.06
   0   6   4    0.39    0.13
  -1  -6  -4   14.28    0.47
  -1  -6  -4   14.46    0.45
   1  -6   4   14.43    0.38
   1  -6   4   13.54    0.63
   1   6   4   15.28    0.41
  -1   6  -4   14.78    0.53
  -1   6  -4   14.10    0.55
   1   6   4   13.43    0.63
   2  -6   4    2.68    0.34
  -2  -6  -4    1.97    0.20
   2   6   4    2.02    0.13
  -2   6  -4    2.23    0.25
   2   6   4    1.86    0.29
   3  -6   4   65.08    1.78
  -3  -6  -4   65.09    1.50
   3   6   4   65.87    1.79
  -3   6  -4   64.59    1.61
  -4  -6  -4   23.12    0.74
   4  -6   4   22.48    0.94
   4   6   4   22.64    0.93
  -4   6  -4   22.70    0.83
   4   6   4   22.68    0.97
   5  -6   4    4.89    0.51
  -5  -6  -4    4.52    0.34
  -5   6  -4    4.53    0.45
   5   6   4    4.85    0.58
   5   6   4    4.76    0.50
   6  -6   4    0.16    0.20
  -6  -6  -4    0.32    0.16
   6   6   4    0.35    0.21
   6   6   4    0.19    0.22
  -6   6  -4    0.43    0.20
  -7  -6  -4    0.55    0.20
   7  -6   4    0.13    0.24
  -7   6  -4    0.17    0.34
   7   6   4    0.11    0.33
   7   6   4    0.36    0.24
 -10   7   4    0.23    0.25
   9  -7  -4    0.62    0.19
  -9  -7   4    1.15    0.23
  -9  -7   4    0.87    0.18
  -9   7   4    1.02    0.23
  -8  -7   4    0.04    0.10
   8  -7  -4    0.16    0.12
   8  -7  -4   -0.07    0.11
  -8  -7   4    0.21    0.12
  -8   7   4    0.03    0.14
   7  -7  -4    3.12    0.29
  -7  -7   4    3.12    0.25
  -7  -7   4    2.57    0.24
   7  -7  -4    3.42    0.32
  -7   7   4    3.48    0.32
   7   7  -4    3.26    0.40
  -7   7   4    3.46    0.34
  -6  -7   4    0.52    0.11
  -6  -7   4    0.43    0.11
   6  -7  -4    0.52    0.12
   6  -7  -4    0.26    0.13
   6   7  -4    0.36    0.18
  -6   7   4    0.44    0.13
   6   7  -4    0.54    0.17
  -6   7   4    0.36    0.15
   5  -7  -4   -0.02    0.08
  -5  -7   4    0.28    0.08
   5  -7  -4   -0.04    0.07
  -5  -7   4    0.14    0.09
  -5   7   4    0.14    0.12
  -5   7   4    0.19    0.11
   5   7  -4    0.27    0.14
   5   7  -4    0.09    0.12
   4  -7  -4   -0.05    0.08
  -4  -7   4    0.03    0.05
   4  -7  -4    0.09    0.07
  -4  -7   4    0.00    0.06
  -4   7   4   -0.01    0.09
   4   7  -4    0.17    0.12
   4   7  -4    0.12    0.09
   4   7  -4    0.05    0.07
  -4   7   4    0.05    0.05
  -4   7   4    0.05    0.09
   3  -7  -4    7.63    0.36
  -3  -7   4    8.51    0.32
   3  -7  -4    8.15    0.30
  -3  -7   4    7.89    0.23
  -3   7   4    7.72    0.35
  -3   7   4    7.99    0.38
  -3   7   4    8.13    0.37
   3   7  -4    7.95    0.43
   3   7  -4    8.04    0.29
   3   7  -4    7.81    0.34
   2  -7  -4   20.67    0.62
  -2  -7   4   18.96    0.53
   2  -7  -4   19.50    0.51
  -2  -7   4   19.95    0.62
   2   7  -4   20.32    0.69
  -2   7   4   20.12    0.60
   2   7  -4   19.78    0.48
   2   7  -4   19.88    0.59
  -2   7   4   20.57    0.66
  -2   7   4   20.42    0.66
  -1  -7   4    6.26    0.36
   1  -7  -4    6.20    0.30
   1  -7  -4    6.47    0.24
  -1  -7   4    5.83    0.24
   1  -7  -4    5.89    0.27
   1   7  -4    5.87    0.34
  -1   7   4    5.73    0.34
  -1   7   4    6.26    0.29
  -1   7   4    5.99    0.35
   1   7  -4    6.23    0.17
   1   7  -4    6.09    0.30
   1   7  -4    6.23    0.20
   0  -7  -4   14.88    0.48
   0  -7   4   14.12    0.60
   0  -7  -4   14.90    0.47
   0  -7  -4   15.04    0.43
   0  -7   4   14.44    0.41
   0   7   4   14.88    0.45
   0   7   4   13.43    0.58
   0   7  -4   14.43    0.56
   0   7  -4   14.92    0.53
   0   7  -4   14.43    0.36
  -1  -7  -4   14.24    0.46
  -1  -7  -4   13.96    0.48
   1  -7   4   14.03    0.63
   1  -7   4   14.25    0.39
   1   7   4   13.63    0.63
  -1   7  -4   14.62    0.57
  -1   7  -4   13.99    0.53
   2  -7   4    7.06    0.47
  -2  -7  -4    8.12    0.36
  -2   7  -4    7.78    0.41
   2   7   4    7.53    0.50
   3  -7   4   17.94    0.79
  -3  -7  -4   17.28    0.60
   3   7   4   17.88    0.79
  -3   7  -4   17.94    0.69
   3   7   4   16.77    0.80
   4  -7   4   18.02    0.82
   4  -7   4   17.12    0.52
  -4  -7  -4   15.89    0.61
  -4   7  -4   17.58    0.72
   4   7   4   17.44    0.88
   4   7   4   16.04    0.78
   5  -7   4    0.50    0.22
  -5  -7  -4    0.40    0.16
   5   7   4    0.79    0.24
  -5   7  -4    0.62    0.21
   5   7   4    0.88    0.33
  -6  -7  -4    2.95    0.34
   6  -7   4    2.26    0.39
   6   7   4    3.06    0.44
   6   7   4    2.40    0.51
  -6   7  -4    3.08    0.43
   7   7   4    0.84    0.28
   7   7   4    1.51    0.45
   9  -8  -4    0.21    0.15
  -9  -8   4    0.33    0.13
  -9   8   4    0.25    0.18
   8  -8  -4   32.20    0.97
  -8  -8   4   30.86    0.89
   8  -8  -4   31.62    0.99
  -8  -8   4   31.79    0.91
  -8   8   4   29.44    0.97
   7  -8  -4    0.02    0.10
  -7  -8   4    0.13    0.11
  -7  -8   4   -0.09    0.08
   7  -8  -4    0.13    0.11
   7   8  -4   -0.09    0.16
  -7   8   4    0.00    0.14
  -7   8   4   -0.03    0.10
  -6  -8   4    0.13    0.09
  -6  -8   4   -0.06    0.07
   6  -8  -4    0.14    0.10
   6  -8  -4    0.14    0.11
   6   8  -4    0.15    0.15
  -6   8   4   -0.05    0.10
  -6   8   4   -0.08    0.11
   6   8  -4    0.09    0.16
  -5  -8   4    2.21    0.18
  -5  -8   4    2.24    0.22
   5  -8  -4    2.38    0.27
   5  -8  -4    2.16    0.21
  -5   8   4    2.00    0.25
   5   8  -4    1.94    0.29
   5   8  -4    2.53    0.27
  -5   8   4    2.14    0.25
  -4  -8   4   51.97    1.10
  -4  -8   4   53.21    1.20
   4  -8  -4   52.34    1.30
   4  -8  -4   55.09    1.18
   4   8  -4   51.53    1.27
  -4   8   4   52.90    1.21
  -4   8   4   52.92    1.30
   4   8  -4   53.36    1.19
  -4   8   4   54.63    1.31
   4   8  -4   50.38    1.41
  -3  -8   4    0.69    0.11
   3  -8  -4    0.79    0.14
   3  -8  -4    0.49    0.09
  -3  -8   4    0.74    0.08
  -3   8   4    0.98    0.16
   3   8  -4    0.99    0.21
   3   8  -4    0.72    0.11
  -3   8   4    0.72    0.15
  -3   8   4    0.72    0.16
   3   8  -4    0.86    0.16
   2  -8  -4    9.07    0.39
   2  -8  -4    8.20    0.29
  -2  -8   4    8.42    0.32
  -2  -8   4    9.09    0.39
  -2   8   4    8.89    0.44
   2   8  -4    8.46    0.23
   2   8  -4    8.56    0.44
   2   8  -4    8.53    0.26
  -2   8   4    8.15    0.42
   2   8  -4    8.65    0.38
  -2   8   4    8.57    0.38
   1  -8  -4   18.66    0.56
  -1  -8   4   18.73    0.66
   1  -8  -4   18.33    0.50
   1  -8  -4   19.43    0.60
  -1  -8   4   18.97    0.52
  -1   8   4   19.49    0.58
  -1   8   4   19.29    0.70
  -1   8   4   19.25    0.72
   1   8  -4   19.94    0.63
   1   8  -4   19.02    0.69
   1   8  -4   20.01    0.43
   1   8  -4   19.32    0.44
   0  -8   4   12.32    0.55
   0  -8  -4   11.79    0.43
   0  -8  -4   12.17    0.39
   0  -8   4   12.28    0.38
   0  -8  -4   12.59    0.44
   0   8  -4   11.89    0.48
   0   8   4   12.57    0.55
   0   8   4   13.17    0.60
   0   8  -4   12.31    0.53
   0   8  -4   12.36    0.31
  -1  -8  -4   21.03    0.63
   1  -8   4   21.76    0.80
  -1  -8  -4   21.28    0.60
   1   8   4   21.49    0.85
   1   8   4   21.12    0.80
  -1   8  -4   21.06    0.72
  -1   8  -4   19.00    0.68
  -2  -8  -4  157.45    3.02
   2  -8   4  153.98    3.36
  -2  -8  -4  152.09    3.10
   2   8   4  158.10    3.41
  -2   8  -4  154.88    3.24
   2   8   4  151.96    3.47
  -3  -8  -4    9.36    0.44
   3  -8   4    9.70    0.57
   3   8   4    9.56    0.64
  -3   8  -4    9.64    0.51
   3   8   4   11.28    0.61
   4  -8   4    1.03    0.26
  -4  -8  -4    0.81    0.16
   4  -8   4    0.59    0.13
  -4   8  -4    0.63    0.20
   4   8   4    0.56    0.22
   4   8   4    1.12    0.31
  -5  -8  -4    0.59    0.17
   5  -8   4    0.73    0.25
   5   8   4    0.38    0.20
   5   8   4    0.19    0.27
  -5   8  -4    0.60    0.22
  -6  -8  -4    8.42    0.50
   6  -8   4    8.25    0.62
   6   8   4    7.71    0.59
   6   8   4    8.29    0.89
  -6   8  -4    8.74    0.59
   7   8   4    0.22    0.21
  -9  -9   4    3.22    0.31
   9  -9  -4    3.78    0.37
  -9   9   4    3.23    0.38
  -8  -9   4   13.33    0.52
   8  -9  -4   12.48    0.55
   8  -9  -4   12.19    0.58
  -8   9   4   12.34    0.60
  -7  -9   4    0.71    0.15
  -7  -9   4    0.95    0.17
   7  -9  -4    0.67    0.18
   7  -9  -4    0.93    0.17
  -7   9   4    1.14    0.21
  -7   9   4    0.71    0.21
   7   9  -4    0.36    0.23
   6  -9  -4    4.98    0.34
  -6  -9   4    4.63    0.27
   6  -9  -4    4.86    0.29
  -6  -9   4    5.02    0.29
  -6   9   4    4.21    0.35
  -6   9   4    3.72    0.35
   6   9  -4    4.89    0.48
   6   9  -4    4.95    0.38
  -5  -9   4   52.83    1.15
   5  -9  -4   51.00    1.32
   5  -9  -4   50.72    1.19
  -5  -9   4   52.46    1.22
   5   9  -4   53.05    1.50
   5   9  -4   51.96    1.34
  -5   9   4   52.39    1.34
  -5   9   4   53.42    1.35
  -4  -9   4    1.74    0.14
  -4  -9   4    1.94    0.19
   4  -9  -4    2.33    0.24
   4  -9  -4    1.65    0.16
   4   9  -4    2.44    0.27
  -4   9   4    2.15    0.25
   4   9  -4    1.97    0.29
   4   9  -4    1.87    0.18
  -4   9   4    1.55    0.23
   3  -9  -4    4.26    0.21
  -3  -9   4    4.25    0.24
   3  -9  -4    4.14    0.28
  -3  -9   4    4.33    0.18
  -3   9   4    3.59    0.28
   3   9  -4    3.81    0.38
  -3   9   4    4.16    0.32
   3   9  -4    3.80    0.29
   3   9  -4    4.11    0.20
  -3   9   4    3.85    0.28
   2  -9  -4    0.17    0.09
   2  -9  -4    0.09    0.05
  -2  -9   4    0.03    0.05
  -2  -9   4    0.04    0.08
  -2   9   4    0.02    0.09
   2   9  -4    0.10    0.04
  -2   9   4    0.03    0.12
  -2   9   4    0.12    0.12
   2   9  -4    0.10    0.11
   2   9  -4    0.07    0.11
   1  -9  -4   23.81    0.72
   1  -9  -4   25.13    0.70
  -1  -9   4   26.48    0.66
   1  -9  -4   25.31    0.62
  -1  -9   4   25.02    0.79
  -1   9   4   25.65    0.89
   1   9  -4   24.37    0.76
   1   9  -4   24.89    0.54
   1   9  -4   24.87    0.83
  -1   9   4   24.91    0.86
   0  -9  -4    1.31    0.14
   0  -9  -4    1.28    0.16
   0  -9  -4    1.71    0.19
   0  -9   4    1.54    0.24
   0  -9   4    1.49    0.15
   0   9   4    1.60    0.24
   0   9  -4    1.39    0.22
   0   9   4    1.37    0.26
   0   9   4    1.50    0.25
   0   9  -4    1.97    0.26
  -1  -9  -4   38.22    0.95
  -1  -9  -4   39.30    0.99
   1  -9   4   36.60    1.12
   1   9   4   36.74    1.15
  -1   9  -4   40.30    1.10
   1   9   4   38.23    1.27
  -1   9  -4   38.29    1.09
  -2  -9  -4   36.60    0.99
   2  -9   4   37.71    1.17
  -2  -9  -4   38.18    0.92
   2   9   4   39.04    1.34
   2   9   4   39.13    1.21
  -2   9  -4   38.48    1.11
  -2   9  -4   37.23    1.10
  -3  -9  -4   43.30    1.16
   3  -9   4   44.20    1.36
   3   9   4   46.58    1.56
  -3   9  -4   46.12    1.30
   3   9   4   44.36    1.36
  -4  -9  -4    8.67    0.45
   4  -9   4    8.09    0.55
   4  -9   4    7.99    0.36
  -4   9  -4    8.17    0.53
   4   9   4    7.76    0.65
   4   9   4    7.56    0.53
   5  -9   4    6.83    0.54
  -5  -9  -4    6.74    0.42
   5   9   4    6.66    0.51
   5   9   4    5.49    0.67
  -5   9  -4    6.49    0.48
  -6  -9  -4   -0.05    0.11
   6  -9   4   -0.13    0.17
   6   9   4    0.11    0.19
   6   9   4   -0.02    0.25
  -6   9  -4    0.24    0.18
  -9 -10   4    2.50    0.28
   9 -10  -4    2.93    0.33
  -9  10   4    2.77    0.36
   8 -10  -4    2.89    0.30
  -8 -10   4    3.47    0.31
   8 -10  -4    3.13    0.34
   8  10  -4    3.25    0.48
  -8  10   4    3.07    0.36
   7 -10  -4    6.12    0.35
  -7 -10   4    5.94    0.34
   7 -10  -4    7.13    0.43
  -7  10   4    6.06    0.43
   7  10  -4    5.92    0.58
  -7  10   4    5.48    0.40
   6 -10  -4    3.46    0.34
  -6 -10   4    3.74    0.26
   6 -10  -4    3.25    0.24
  -6 -10   4    3.15    0.23
   6  10  -4    3.24    0.43
   6  10  -4    4.07    0.46
  -6  10   4    3.23    0.34
  -6  10   4    3.82    0.37
  -5 -10   4    1.32    0.15
   5 -10  -4    1.17    0.15
   5 -10  -4    1.46    0.23
  -5 -10   4    1.06    0.16
  -5  10   4    1.41    0.24
   5  10  -4    1.22    0.26
  -5  10   4    1.59    0.25
   5  10  -4    1.59    0.20
   5  10  -4    1.42    0.25
  -4 -10   4    0.70    0.10
   4 -10  -4    0.42    0.10
   4 -10  -4    0.27    0.12
  -4 -10   4    0.41    0.11
   4  10  -4    0.53    0.17
   4  10  -4    0.45    0.11
  -4  10   4    0.67    0.19
   4  10  -4    0.70    0.21
  -4  10   4    0.45    0.16
  -3 -10   4    4.87    0.27
  -3 -10   4    4.82    0.20
  -3 -10   4    5.21    0.27
   3 -10  -4    4.87    0.23
   3 -10  -4    5.61    0.33
  -3  10   4    4.95    0.33
   3  10  -4    5.12    0.41
  -3  10   4    5.77    0.39
  -3  10   4    5.30    0.34
   3  10  -4    4.92    0.34
   3  10  -4    4.85    0.22
   2 -10  -4    7.99    0.29
   2 -10  -4    8.34    0.39
  -2 -10   4    7.36    0.32
  -2 -10   4    7.76    0.38
   2  10  -4    8.17    0.43
  -2  10   4    7.83    0.46
   2  10  -4    8.02    0.25
   2  10  -4    8.48    0.48
  -2  10   4    8.27    0.47
  -2  10   4    8.58    0.40
   1 -10  -4    0.62    0.10
  -1 -10   4    1.05    0.18
   1 -10  -4    0.65    0.13
   1 -10  -4    0.80    0.15
  -1 -10   4    0.77    0.12
   1  10  -4    0.53    0.17
  -1  10   4    0.83    0.23
  -1  10   4    0.74    0.16
   1  10  -4    0.70    0.07
   1  10  -4    0.56    0.16
  -1  10   4    0.62    0.19
   0 -10   4    3.46    0.34
   0 -10  -4    3.49    0.24
   0 -10   4    3.78    0.21
   0 -10  -4    3.30    0.24
   0  10   4    3.54    0.34
   0  10  -4    3.85    0.32
   0  10   4    3.18    0.38
   0  10  -4    3.28    0.32
   0  10   4    4.06    0.42
   1 -10   4    2.74    0.31
  -1 -10  -4    2.24    0.22
  -1 -10  -4    2.71    0.26
  -1  10  -4    2.25    0.29
   1  10   4    2.51    0.32
   1  10   4    2.66    0.40
  -1  10  -4    2.66    0.30
  -2 -10  -4    2.41    0.25
  -2 -10  -4    2.01    0.20
   2 -10   4    2.10    0.30
  -2  10  -4    1.80    0.27
   2  10   4    2.32    0.39
  -2  10  -4    2.20    0.30
   2  10   4    2.36    0.32
   3 -10   4    8.21    0.53
  -3 -10  -4    8.97    0.44
  -3  10  -4    8.47    0.50
   3  10   4    7.60    0.51
   3  10   4    7.76    0.73
   4 -10   4    0.01    0.09
   4 -10   4    0.21    0.18
  -4 -10  -4    0.11    0.11
  -4  10  -4   -0.12    0.14
   4  10   4   -0.22    0.22
   4  10   4    0.01    0.15
   5 -10   4    4.94    0.52
  -5 -10  -4    5.56    0.40
  -5  10  -4    4.30    0.47
   5  10   4    5.78    0.71
   5  10   4    5.51    0.53
   6 -10   4   22.22    1.01
  -6 -10  -4   22.18    0.86
   6  10   4   21.26    1.24
  -6  10  -4   22.38    0.99
  -9 -11   4   -0.10    0.12
  -9  11   4    0.06    0.21
  -8 -11   4   13.29    0.54
   8 -11  -4   12.40    0.54
   8 -11  -4   13.09    0.62
   8  11  -4   12.97    0.81
  -8  11   4   13.08    0.65
   7 -11  -4   -0.03    0.12
  -7 -11   4    0.09    0.09
   7 -11  -4    0.27    0.12
   7  11  -4    0.05    0.21
  -7  11   4    0.16    0.18
  -7  11   4   -0.04    0.13
   6 -11  -4    6.48    0.40
   6 -11  -4    6.49    0.32
  -6 -11   4    6.28    0.35
  -6  11   4    7.32    0.47
  -6  11   4    6.79    0.44
   6  11  -4    6.57    0.55
   5 -11  -4   53.58    1.20
   5 -11  -4   54.18    1.39
  -5 -11   4   52.20    1.25
  -5 -11   4   51.81    1.18
  -5  11   4   51.69    1.42
   5  11  -4   54.05    1.60
   5  11  -4   51.97    1.25
   5  11  -4   52.28    1.43
  -5  11   4   53.36    1.39
  -4 -11   4    0.19    0.10
   4 -11  -4    0.04    0.06
   4 -11  -4    0.16    0.11
  -4 -11   4    0.08    0.07
  -4  11   4    0.31    0.16
  -4  11   4   -0.04    0.12
   4  11  -4    0.32    0.16
   4  11  -4    0.29    0.17
   4  11  -4   -0.03    0.07
  -3 -11   4    1.29    0.17
  -3 -11   4    1.03    0.16
   3 -11  -4    1.28    0.21
   3 -11  -4    1.07    0.13
  -3 -11   4    1.08    0.12
   3  11  -4    0.89    0.23
  -3  11   4    1.34    0.25
   3  11  -4    1.33    0.13
  -3  11   4    0.61    0.16
   3  11  -4    1.27    0.24
  -3  11   4    1.65    0.24
  -2 -11   4    0.03    0.06
  -2 -11   4   -0.04    0.08
   2 -11  -4   -0.11    0.08
   2 -11  -4    0.06    0.06
   2  11  -4    0.00    0.04
   2  11  -4   -0.05    0.13
  -2  11   4   -0.16    0.11
  -2  11   4    0.14    0.16
   2  11  -4   -0.01    0.13
   1 -11  -4   23.33    0.71
  -1 -11   4   23.49    0.74
  -1 -11   4   23.02    0.64
   1 -11  -4   23.70    0.73
   1 -11  -4   23.48    0.60
  -1  11   4   21.92    0.89
  -1  11   4   23.38    0.89
  -1  11   4   24.95    0.77
   1  11  -4   23.27    0.80
   1  11  -4   23.61    0.85
   1  11  -4   23.17    0.56
   0 -11   4   -0.05    0.09
   0 -11  -4    0.01    0.08
   0 -11   4    0.06    0.06
   0 -11  -4    0.03    0.08
   0  11  -4   -0.19    0.12
   0  11   4    0.22    0.18
   0  11   4    0.12    0.12
   0  11   4   -0.17    0.15
   0  11  -4   -0.24    0.10
  -1 -11  -4   28.39    0.79
   1 -11   4   29.81    0.93
  -1 -11  -4   27.96    0.83
  -1  11  -4   28.85    0.95
  -1  11  -4   27.75    0.93
   1  11   4   28.73    1.15
   1  11   4   27.08    0.95
  -2 -11  -4    9.81    0.40
  -2 -11  -4    9.52    0.44
   2 -11   4   10.17    0.54
  -2  11  -4   10.69    0.55
   2  11   4    9.03    0.53
  -2  11  -4    9.59    0.51
   2  11   4   11.12    0.72
   3 -11   4   94.63    2.29
   3 -11   4   92.74    2.03
  -3 -11  -4   94.71    2.13
   3  11   4   94.05    2.29
  -3  11  -4   95.49    2.29
   3  11   4   95.27    2.65
   4 -11   4    5.91    0.33
   4 -11   4    5.49    0.51
  -4 -11  -4    6.18    0.40
   4  11   4    5.64    0.45
   4  11   4    4.46    0.63
  -4  11  -4    5.45    0.45
   5 -11   4    0.83    0.25
  -5 -11  -4    0.64    0.19
   5  11   4    1.21    0.40
  -5  11  -4    1.24    0.28
   6 -11   4    8.24    0.61
  -6 -11  -4    7.97    0.87
   6  11   4    9.14    0.99
  -9 -12   4    9.08    0.62
   8 -12  -4    2.61    0.34
  -8 -12   4    2.64    0.28
  -8  12   4    1.82    0.31
   8  12  -4    1.85    0.42
  -7 -12   4    0.13    0.11
   7 -12  -4    0.19    0.15
   7 -12  -4    0.24    0.11
  -7  12   4    0.16    0.17
  -7  12   4    0.23    0.20
   7  12  -4    0.15    0.21
   6 -12  -4    3.15    0.23
  -6 -12   4    3.71    0.27
   6 -12  -4    3.03    0.34
   6  12  -4    2.90    0.44
  -6  12   4    2.99    0.36
  -6  12   4    3.33    0.37
   5 -12  -4    4.65    0.25
  -5 -12   4    4.45    0.29
   5 -12  -4    4.59    0.34
   5  12  -4    4.39    0.49
   5  12  -4    4.84    0.40
   5  12  -4    4.52    0.28
  -5  12   4    3.93    0.40
  -5  12   4    3.80    0.36
  -4 -12   4   47.22    1.14
   4 -12  -4   47.93    1.30
   4 -12  -4   47.91    1.08
  -4 -12   4   47.08    1.16
   4  12  -4   48.52    1.10
  -4  12   4   49.49    1.31
  -4  12   4   49.46    1.39
   4  12  -4   50.53    1.52
   4  12  -4   49.86    1.37
  -3 -12   4    8.44    0.31
   3 -12  -4    8.98    0.45
   3 -12  -4    8.64    0.31
  -3 -12   4    9.00    0.38
  -3  12   4    8.43    0.44
   3  12  -4    9.02    0.30
   3  12  -4    8.60    0.49
  -3  12   4    8.82    0.47
   3  12  -4    8.33    0.56
  -3  12   4    8.15    0.51
  -2 -12   4   30.95    0.83
   2 -12  -4   33.32    0.77
   2 -12  -4   32.81    0.95
  -2  12   4   32.91    1.10
   2  12  -4   31.17    1.08
   2  12  -4   33.94    1.04
  -2  12   4   32.18    1.06
   1 -12  -4    1.50    0.20
  -1 -12   4    1.67    0.21
  -1 -12   4    1.27    0.16
   1 -12  -4    1.36    0.14
   1 -12  -4    1.18    0.18
   1  12  -4    1.44    0.27
  -1  12   4    1.69    0.24
  -1  12   4    1.68    0.30
  -1  12   4    1.28    0.27
   1  12  -4    1.59    0.26
   0 -12  -4    0.34    0.12
   0 -12  -4    0.39    0.13
   0 -12   4    0.10    0.11
   0  12   4    0.37    0.15
   0  12   4    0.17    0.21
   0  12  -4    0.20    0.14
   0  12   4    0.16    0.19
   0  12  -4    0.30    0.18
  -1 -12  -4    1.55    0.20
  -1 -12  -4    1.39    0.21
   1 -12   4    1.46    0.23
   1  12   4    1.23    0.31
  -1  12  -4    1.71    0.29
   1  12   4    1.65    0.34
   1  12   4    1.63    0.27
  -1  12  -4    1.50    0.26
  -2 -12  -4   66.98    1.51
  -2 -12  -4   66.65    1.61
   2 -12   4   68.57    1.71
   2  12   4   66.05    1.74
   2  12   4   66.46    2.07
  -2  12  -4   66.52    1.72
  -2  12  -4   67.63    1.77
  -3 -12  -4    0.03    0.11
   3 -12   4    0.07    0.15
   3 -12   4    0.04    0.09
  -3  12  -4    0.10    0.18
   3  12   4   -0.04    0.22
   4 -12   4    0.41    0.20
   4 -12   4    0.43    0.14
  -4 -12  -4    0.14    0.13
  -4  12  -4    0.40    0.22
   4  12   4    0.34    0.29
   5 -12   4    8.77    0.60
  -5 -12  -4    8.41    0.50
  -5  12  -4    7.42    0.58
   5  12   4    8.73    0.94
   6 -12   4    0.49    0.24
   8 -13  -4    0.44    0.21
  -8 -13   4    0.56    0.17
   8  13  -4    0.58    0.32
  -8  13   4    0.85    0.26
  -7 -13   4    1.71    0.23
   7 -13  -4    2.42    0.32
  -7  13   4    1.76    0.32
  -7  13   4    1.58    0.30
   7  13  -4    2.06    0.39
   6 -13  -4    5.26    0.40
  -6 -13   4    5.37    0.33
   6  13  -4    6.35    0.65
  -6  13   4    6.26    0.46
  -6  13   4    5.56    0.44
   5 -13  -4    1.23    0.15
  -5 -13   4    1.44    0.20
   5 -13  -4    1.22    0.23
  -5  13   4    1.24    0.25
  -5  13   4    1.23    0.26
   5  13  -4    1.42    0.34
   5  13  -4    1.29    0.29
   4 -13  -4    6.96    0.29
  -4 -13   4    6.90    0.35
   4 -13  -4    7.70    0.44
   4  13  -4    7.49    0.49
   4  13  -4    6.64    0.53
  -4  13   4    6.16    0.47
  -4  13   4    6.61    0.43
   3 -13  -4   32.20    0.77
  -3 -13   4   31.81    0.86
   3 -13  -4   30.40    0.96
  -3  13   4   30.50    1.11
   3  13  -4   32.15    1.05
   3  13  -4   36.55    1.21
  -3  13   4   32.08    1.11
  -2 -13   4    5.51    0.30
   2 -13  -4    5.68    0.25
   2 -13  -4    5.86    0.36
  -2  13   4    5.82    0.45
  -2  13   4    4.95    0.49
   2  13  -4    4.97    0.42
   2  13  -4    5.97    0.46
   1 -13  -4   34.64    0.82
   1 -13  -4   34.12    0.96
  -1 -13   4   33.85    0.89
   1 -13  -4   35.52    0.99
  -1  13   4   34.20    1.19
  -1  13   4   35.14    1.22
   1  13  -4   34.15    1.09
   1  13  -4   33.32    1.12
  -1  13   4   34.55    1.01
   0 -13  -4    0.00    0.08
   0 -13  -4    0.15    0.12
   0  13   4    0.11    0.13
   0  13  -4   -0.15    0.14
   0  13   4   -0.12    0.20
   0  13   4    0.12    0.21
   0  13  -4    0.22    0.16
   1 -13   4   10.01    0.48
  -1 -13  -4    9.84    0.44
  -1 -13  -4    9.07    0.45
  -1  13  -4    9.98    0.56
   1  13   4   10.05    0.66
  -1  13  -4    9.88    0.54
   1  13   4   10.65    0.73
  -2 -13  -4    0.01    0.09
  -2 -13  -4    0.07    0.12
   2 -13   4    0.08    0.12
   2  13   4    0.06    0.24
   2  13   4   -0.01    0.21
  -2  13  -4    0.16    0.15
  -2  13  -4   -0.08    0.15
   3 -13   4    9.48    0.54
   3 -13   4    9.78    0.45
  -3 -13  -4   10.00    0.51
  -3  13  -4    8.97    0.57
   3  13   4    8.35    0.85
  -4 -13  -4    9.93    0.53
   4 -13   4    9.19    0.58
   4 -13   4    9.09    0.45
  -4  13  -4    9.83    0.61
   4  13   4   10.88    0.87
   5 -13   4    3.26    0.43
  -5 -13  -4    3.10    0.37
   5  13   4    3.83    0.68
  -5  13  -4    3.52    0.46
   6 -13   4    0.95    0.28
  -8 -14   4   -0.05    0.12
   8 -14  -4   -0.30    0.13
   8  14  -4   -0.07    0.28
   7 -14  -4    0.02    0.15
  -7 -14   4    0.05    0.11
  -7  14   4    0.20    0.19
  -7  14   4    0.25    0.24
   7  14  -4    0.17    0.26
  -6 -14   4    2.09    0.25
   6 -14  -4    1.52    0.27
   6  14  -4    1.74    0.40
  -6  14   4    1.44    0.28
  -6  14   4    0.98    0.26
  -5 -14   4    0.16    0.11
   5 -14  -4    0.02    0.11
   5  14  -4   -0.02    0.20
  -5  14   4    0.13    0.16
   5  14  -4    0.16    0.21
  -5  14   4   -0.18    0.15
   4 -14  -4    0.16    0.08
  -4 -14   4    0.09    0.09
   4 -14  -4    0.05    0.11
   4  14  -4    0.35    0.20
   4  14  -4    0.17    0.23
  -4  14   4    0.13    0.20
  -4  14   4    0.45    0.18
   3 -14  -4   21.47    0.78
  -3 -14   4   20.85    0.67
   3 -14  -4   21.25    0.57
  -3  14   4   21.53    0.90
   3  14  -4   22.13    0.95
   3  14  -4   22.71    0.88
   2 -14  -4   64.68    1.60
   2 -14  -4   63.02    1.35
  -2 -14   4   62.02    1.46
   2  14  -4   64.04    1.80
  -2  14   4   64.43    1.77
  -2  14   4   66.07    1.83
   2  14  -4   67.15    1.74
   1 -14  -4    2.03    0.25
   1 -14  -4    1.93    0.26
  -1  14   4    1.96    0.36
   1  14  -4    2.27    0.34
  -1  14   4    2.38    0.36
   1  14  -4    2.45    0.35
   0 -14  -4   21.06    0.72
   0 -14  -4   21.23    0.72
   0  14   4   19.77    0.93
   0  14   4   20.94    0.99
   0  14  -4   22.01    0.86
   0  14  -4   20.13    0.83
  -1 -14  -4   20.25    0.69
  -1 -14  -4   20.27    0.72
  -1  14  -4   21.16    0.84
   1  14   4   21.56    1.07
  -1  14  -4   20.22    0.85
   1  14   4   21.10    0.97
  -2 -14  -4   24.26    0.75
  -2 -14  -4   24.00    0.82
   2 -14   4   24.22    0.79
   2  14   4   24.22    1.10
   2  14   4   25.91    1.22
  -2  14  -4   25.31    0.98
  -2  14  -4   25.02    0.93
  -3 -14  -4    4.68    0.36
   3 -14   4    4.07    0.31
   3  14   4    4.47    0.67
  -3  14  -4    4.55    0.49
  -3  14  -4    4.19    0.43
  -4 -14  -4   13.95    0.64
   4 -14   4   12.57    0.56
  -4  14  -4   12.53    0.73
   4  14   4   14.65    1.03
  -5  14  -4    9.10    1.05
  -7 -15   4   11.74    0.53
   7 -15  -4   12.18    0.64
   7  15  -4   10.97    0.79
  -7  15   4   11.95    0.67
   6 -15  -4    4.14    0.42
  -6 -15   4    3.66    0.33
  -6  15   4    3.94    0.47
   6  15  -4    2.80    0.47
  -6  15   4    3.04    0.39
  -5 -15   4    0.48    0.14
   5 -15  -4    0.29    0.15
   5  15  -4    0.48    0.24
  -5  15   4    0.47    0.21
  -5  15   4    1.29    0.30
   5  15  -4    0.74    0.28
   4 -15  -4    7.40    0.45
  -4 -15   4    7.09    0.38
  -4  15   4    7.60    0.48
   4  15  -4    7.37    0.62
   4  15  -4    7.16    0.55
  -4  15   4    6.92    0.52
   3 -15  -4    0.01    0.12
  -3 -15   4    0.01    0.09
   3  15  -4    0.13    0.20
   3  15  -4   -0.08    0.17
  -3  15   4   -0.02    0.19
   2 -15  -4    2.58    0.31
   2 -15  -4    2.35    0.19
  -2 -15   4    2.11    0.24
  -2  15   4    2.15    0.39
   2  15  -4    2.83    0.40
  -2  15   4    2.13    0.36
   2  15  -4    2.05    0.36
   1 -15  -4    0.45    0.15
  -1  15   4    0.63    0.26
  -1  15   4    0.33    0.24
   1  15  -4    0.65    0.25
   1  15  -4    0.58    0.21
   0 -15  -4    0.80    0.17
   0 -15  -4    1.03    0.20
   0  15   4    0.62    0.26
   0  15   4    0.85    0.32
   0  15  -4    0.98    0.25
   0  15  -4    0.74    0.24
  -1 -15  -4    3.64    0.35
  -1 -15  -4    3.96    0.30
  -1  15  -4    4.56    0.48
   1  15   4    4.44    0.56
   1  15   4    3.12    0.49
  -1  15  -4    4.40    0.46
   2 -15   4    0.60    0.16
  -2 -15  -4    0.65    0.17
  -2  15  -4    0.37    0.24
   2  15   4    0.27    0.29
   2  15   4    0.34    0.26
  -2  15  -4    0.57    0.22
  -3 -15  -4   14.61    0.64
   3 -15   4   13.90    0.59
  -3  15  -4   13.25    0.68
   3  15   4   15.01    1.00
  -3  15  -4   13.94    0.76
   3  15   4   14.08    0.87
  -4 -15  -4    7.71    0.49
   4 -15   4    8.09    0.45
  -4  15  -4    7.43    0.60
   4  15   4    7.18    0.86
   7  16  -4   11.96    1.00
  -6 -16   4   20.56    0.73
   6 -16  -4   21.40    0.87
  -6  16   4   21.24    0.88
  -6  16   4   20.67    0.94
   6  16  -4   23.07    1.14
   5 -16  -4    0.02    0.12
  -5 -16   4   -0.06    0.10
  -5  16   4    0.27    0.20
   5  16  -4    0.00    0.23
  -5  16   4    0.47    0.21
   4 -16  -4    4.13    0.41
  -4 -16   4    3.83    0.30
   4  16  -4    4.44    0.57
  -4  16   4    3.75    0.41
   4  16  -4    3.30    0.44
  -4  16   4    3.83    0.49
  -3 -16   4   21.37    0.70
   3 -16  -4   19.31    0.77
   3  16  -4   20.90    0.90
  -3  16   4   19.76    0.92
   3  16  -4   20.85    0.99
   2 -16  -4    0.22    0.14
  -2  16   4   -0.18    0.19
   2  16  -4   -0.05    0.18
   2  16  -4    0.08    0.20
  -2  16   4    0.44    0.22
   1 -16  -4    1.74    0.27
  -1  16   4    1.34    0.35
   1  16  -4    1.86    0.34
  -1  16   4    1.67    0.36
   1  16  -4    1.59    0.31
   0 -16  -4    8.18    0.45
   0 -16  -4    9.20    0.49
   0  16  -4   10.31    0.63
   0  16   4    9.91    0.72
   0  16   4    8.02    0.66
   0  16  -4    8.25    0.58
   1 -16   4    9.11    0.47
  -1 -16  -4    9.62    0.48
  -1 -16  -4    9.84    0.51
   1  16   4    9.99    0.73
  -1  16  -4    8.64    0.58
   1  16   4   10.46    0.77
  -1  16  -4   10.50    0.65
  -2 -16  -4   15.30    0.67
   2 -16   4   15.74    0.64
   2  16   4   16.55    1.02
   2  16   4   16.29    0.95
  -2  16  -4   16.15    0.76
  -2  16  -4   15.59    0.81
   3 -16   4    3.94    0.37
  -3 -16  -4    3.35    0.37
   3  16   4    4.00    0.64
  -3  16  -4    4.82    0.53
  -3  16  -4    4.62    0.48
   3  16   4    3.24    0.56
   4 -16   4    5.05    0.38
  -4  16  -4    5.44    0.59
   6 -17  -4    2.24    0.50
  -6 -17   4    1.69    0.26
   6  17  -4    2.03    0.48
  -6  17   4    1.98    0.37
   5 -17  -4    0.37    0.19
  -5 -17   4    0.47    0.16
  -5  17   4    0.43    0.22
   5  17  -4    0.23    0.27
  -5  17   4    0.52    0.26
  -4 -17   4    0.08    0.10
   4 -17  -4   -0.04    0.11
   4  17  -4    0.01    0.22
   4  17  -4   -0.14    0.21
  -4  17   4   -0.04    0.21
  -4  17   4    0.12    0.18
  -3 -17   4    2.20    0.26
   3 -17  -4    2.29    0.32
   3  17  -4    2.31    0.39
   3  17  -4    2.20    0.42
  -3  17   4    2.72    0.44
   2 -17  -4    7.47    0.46
   2  17  -4    6.82    0.57
  -2  17   4    7.20    0.60
   2  17  -4    6.91    0.56
   1 -17  -4    1.60    0.25
  -1  17   4    1.25    0.38
  -1  17   4    2.23    0.41
   1  17  -4    1.97    0.38
   1  17  -4    1.75    0.36
   0 -17  -4    3.28    0.35
   0 -17   4    3.31    0.34
   0 -17  -4    3.68    0.36
   0  17   4    3.07    0.47
   0  17   4    3.68    0.55
   0  17  -4    3.14    0.45
   0  17  -4    3.78    0.47
  -1 -17  -4    1.46    0.23
   1 -17   4    1.52    0.24
  -1 -17  -4    1.49    0.26
   1  17   4    0.90    0.36
  -1  17  -4    1.77    0.33
  -1  17  -4    1.09    0.30
   1  17   4    2.32    0.46
   2 -17   4    0.88    0.21
  -2 -17  -4    0.91    0.22
   2  17   4    1.28    0.42
  -2  17  -4    0.51    0.26
  -2  17  -4    0.49    0.24
   2  17   4    0.46    0.39
  -3 -17  -4    4.38    0.41
   3 -17   4    5.84    0.41
  -3  17  -4    4.47    0.50
   3  17   4    4.25    0.66
   3  17   4    4.90    0.66
  -3  17  -4    3.75    0.49
   4 -17   4    1.96    0.29
  -6  18   4    0.06    0.23
   5 -18  -4    5.80    0.61
  -5 -18   4    4.05    0.36
  -5 -18   4    3.56    0.35
  -5  18   4    3.70    0.51
   5  18  -4    3.53    0.58
  -5  18   4    5.30    0.76
   4 -18  -4    5.62    0.46
  -4 -18   4    6.77    0.40
   4  18  -4    5.75    0.67
  -4  18   4    6.10    0.50
   4  18  -4    5.99    0.62
  -4  18   4    6.26    0.64
   3 -18  -4   -0.06    0.13
   3  18  -4   -0.20    0.24
   3  18  -4   -0.06    0.23
  -3  18   4   -0.01    0.21
   2 -18  -4   -0.09    0.12
  -2 -18   4    0.16    0.12
  -2  18   4   -0.16    0.20
   2  18  -4    0.11    0.23
   2  18  -4   -0.07    0.18
   1 -18  -4    1.05    0.22
  -1 -18   4    1.88    0.26
   1  18  -4    1.34    0.32
   1  18  -4    1.34    0.31
  -1  18   4    1.56    0.39
  -1  18   4    1.50    0.37
   0 -18  -4    9.77    0.53
   0 -18   4   10.03    0.51
   0 -18  -4   10.32    0.54
   0  18  -4    9.75    0.66
   0  18   4    9.34    0.77
   0  18  -4   11.05    0.67
   0  18   4   10.11    0.75
  -1 -18  -4    0.42    0.17
   1 -18   4    0.90    0.20
  -1 -18  -4    0.64    0.21
   1  18   4    1.18    0.35
  -1  18  -4    1.02    0.28
   1  18   4    0.87    0.39
  -1  18  -4    0.44    0.25
  -2 -18  -4    0.70    0.21
   2 -18   4    0.78    0.21
  -2  18  -4    0.41    0.28
   2  18   4    1.01    0.37
   2  18   4    0.44    0.35
  -2  18  -4    0.61    0.25
   3 -18   4   23.22    0.97
  -3  18  -4   24.58    1.02
  -5 -19   4    1.15    0.25
  -5  19   4    0.62    0.31
  -4 -19   4    3.30    0.35
  -4  19   4    3.19    0.49
   4  19  -4    3.21    0.49
   3 -19  -4    2.58    0.36
  -3 -19   4    2.13    0.28
   3  19  -4    2.11    0.42
   3  19  -4    1.94    0.41
  -3  19   4    2.40    0.44
   2 -19  -4    0.25    0.17
  -2 -19   4    0.17    0.14
   2  19  -4   -0.20    0.18
  -2  19   4   -0.14    0.26
   2  19  -4    0.02    0.22
  -1 -19   4    0.79    0.20
   1 -19  -4    0.68    0.20
  -1  19   4    0.06    0.26
   1  19  -4    0.39    0.25
   1  19  -4    0.34    0.28
  -1  19   4    0.79    0.35
   0 -19  -4    1.23    0.26
   0 -19  -4    1.08    0.25
   0 -19   4    1.21    0.23
   0  19  -4    0.75    0.29
   0  19   4    1.24    0.38
   0  19  -4    0.78    0.31
   0  19   4    0.56    0.33
   1 -19   4    5.88    0.42
  -1 -19  -4    6.10    0.45
  -1 -19  -4    5.85    0.42
   1  19   4    7.54    0.79
  -1  19  -4    4.97    0.53
  -1  19  -4    5.50    0.59
   1  19   4    4.97    0.69
   2  19   4    0.19    0.36
  -2  19  -4    0.17    0.27
  -2  19  -4    0.56    0.24
  -3  19  -4    0.06    0.24
  -4 -20   4    0.11    0.14
  -4  20   4    0.29    0.40
  -3 -20   4   12.13    0.59
   3  20  -4   11.64    0.81
  -3  20   4   12.62    0.83
  -2 -20   4    6.74    0.43
   2 -20  -4    6.04    0.47
  -2  20   4    7.22    0.77
   2  20  -4    5.00    0.60
   2  20  -4    6.94    1.02
   1 -20  -4    0.74    0.22
  -1 -20   4    0.66    0.22
  -1  20   4    0.21    0.31
   1  20  -4    0.45    0.27
   1  20  -4    0.72    0.34
   0 -20  -4    0.61    0.20
   0  20  -4    0.18    0.28
   0  20   4    0.64    0.40
   0  20  -4    0.50    0.25
   0  20   4    0.58    0.37
  -1 -20  -4    0.49    0.30
  -1  20  -4    0.27    0.29
  -1  20  -4    0.19    0.24
   1  20   4    0.03    0.35
   3  21  -4    0.65    0.34
   2  21  -4    0.35    0.30
   1  21  -4    6.40    0.69
   0 -21  -4    0.85    0.25
   0  21   4    0.57    0.36
 -10   0   5    0.11    0.15
   9   0  -5   -0.19    0.10
  -9   0   5   -0.11    0.13
  -8   0   5    0.10    0.13
   8   0  -5   -0.11    0.10
   7   0  -5   -0.06    0.10
  -7   0   5   -0.02    0.10
  -6   0   5    0.09    0.10
   6   0  -5    0.06    0.08
  -5   0   5    0.01    0.09
   5   0  -5    0.24    0.09
   5   0  -5    0.06    0.06
   4   0  -5    0.19    0.08
  -4   0   5    0.11    0.09
  -3   0   5   -0.02    0.04
   3   0  -5    0.02    0.05
  -3   0   5    0.00    0.06
  -2   0   5    0.06    0.06
  -2   0   5    0.00    0.03
   2   0  -5    0.04    0.05
  -2   0   5   -0.01    0.03
  -1   0   5    0.05    0.05
   1   0  -5   -0.03    0.04
   1   0  -5    0.00    0.03
  -1   0   5    0.14    0.11
   0   0   5    0.00    0.13
   0   0   5    0.16    0.05
   0   0  -5    0.12    0.05
   0   0  -5    0.15    0.06
   1   0   5    0.02    0.13
   1   0   5   -0.06    0.03
  -1   0  -5    0.00    0.05
  -1   0  -5   -0.02    0.05
   2   0   5    0.01    0.16
  -2   0  -5   -0.02    0.06
   3   0   5    0.00    0.17
  -3   0  -5   -0.05    0.08
  -4   0  -5   -0.05    0.09
   4   0   5    0.11    0.17
  -5   0  -5    0.04    0.11
   5   0   5    0.07    0.18
  -6   0  -5    0.02    0.14
   6   0   5   -0.02    0.19
  -7   0  -5   -0.12    0.16
 -10  -1   5    1.82    0.27
 -10   1   5    2.16    0.29
   9  -1  -5    4.19    0.41
  -9  -1   5    4.19    0.34
  -9   1   5    4.15    0.37
   9   1  -5    4.68    0.45
   8  -1  -5    9.11    0.48
  -8  -1   5    8.97    0.45
  -8   1   5    8.45    0.44
   8   1  -5    9.21    0.49
   7  -1  -5    2.18    0.26
  -7  -1   5    2.43    0.26
  -7   1   5    2.07    0.25
   7   1  -5    2.89    0.31
   6  -1  -5    5.34    0.32
  -6  -1   5    6.23    0.33
  -6   1   5    5.94    0.34
   6   1  -5    5.34    0.35
   6   1  -5    5.49    0.32
   5  -1  -5   94.78    1.94
  -5  -1   5   89.25    1.91
   5   1  -5   88.60    1.92
  -5   1   5   89.65    1.93
   5   1  -5   89.49    1.84
  -4  -1   5   19.63    0.59
   4  -1  -5   20.28    0.58
   4   1  -5   19.80    0.58
  -4   1   5   20.95    0.61
   4   1  -5   20.05    0.57
  -3  -1   5    1.81    0.09
   3  -1  -5    1.72    0.16
  -3  -1   5    1.60    0.16
  -3   1   5    1.38    0.16
   3   1  -5    1.79    0.18
   3   1  -5    1.94    0.15
  -2  -1   5    0.74    0.11
  -2  -1   5    0.72    0.05
   2  -1  -5    0.83    0.11
  -2  -1   5    0.95    0.08
  -2   1   5    0.91    0.12
   2   1  -5    0.84    0.11
  -2   1   5    0.97    0.08
   1  -1  -5    3.20    0.15
   1  -1  -5    3.54    0.18
  -1  -1   5    3.45    0.17
  -1  -1   5    3.29    0.32
  -1   1   5    3.05    0.17
   1   1  -5    3.00    0.16
   1   1  -5    3.26    0.12
  -1   1   5    2.54    0.28
   0  -1   5   40.30    1.22
   0  -1  -5   40.51    0.91
   0  -1   5   40.42    0.85
   0  -1  -5   40.74    0.87
   0   1   5   41.43    0.86
   0   1  -5   39.81    0.84
   0   1  -5   40.71    0.90
   0   1   5   39.09    1.21
  -1  -1  -5    7.62    0.28
   1  -1   5    6.36    0.48
   1  -1   5    6.73    0.20
  -1   1  -5    6.58    0.25
  -1   1  -5    7.16    0.34
   1   1   5    6.88    0.20
   1   1   5    6.88    0.48
   2  -1   5    5.62    0.55
  -2  -1  -5    5.25    0.27
   2   1   5    5.83    0.55
  -2   1  -5    5.18    0.33
  -2   1  -5    5.61    0.26
   3  -1   5   13.47    0.74
  -3  -1  -5   13.98    0.49
   3   1   5   14.09    0.76
  -3   1  -5   13.06    0.46
   4  -1   5   11.08    0.71
  -4  -1  -5   11.93    0.49
  -4   1  -5   11.52    0.46
   4   1   5   12.60    0.74
  -5  -1  -5   21.08    0.74
   5  -1   5   21.92    1.03
  -5   1  -5   21.48    0.72
   5   1   5   22.30    1.04
   6  -1   5    5.26    0.62
  -6  -1  -5    6.28    0.42
   6   1   5    6.12    0.64
  -6   1  -5    6.32    0.40
  -7  -1  -5   -0.43    0.18
  -7   1  -5    0.02    0.14
 -10  -2   5    4.41    0.35
 -10   2   5    5.03    0.40
   9  -2  -5    4.71    0.44
  -9  -2   5    4.49    0.34
   9   2  -5    4.97    0.40
  -9   2   5    4.84    0.37
  -8  -2   5    1.27    0.21
   8  -2  -5    1.39    0.23
   8   2  -5    1.25    0.25
  -8   2   5    0.90    0.20
   7  -2  -5    2.09    0.26
  -7  -2   5    2.24    0.24
   7   2  -5    1.60    0.23
  -7   2   5    1.61    0.23
  -6  -2   5   10.88    0.44
   6  -2  -5    9.76    0.44
   6   2  -5    9.25    0.43
   6   2  -5    9.98    0.38
  -6   2   5    9.88    0.44
   5  -2  -5    0.19    0.09
  -5  -2   5    0.12    0.10
  -5   2   5   -0.02    0.09
   5   2  -5    0.00    0.07
   5   2  -5    0.14    0.10
  -4  -2   5   87.14    1.79
   4  -2  -5   84.22    1.78
   4   2  -5   87.09    1.80
   4   2  -5   81.85    1.77
  -4   2   5   85.25    1.81
  -3  -2   5    4.31    0.23
  -3  -2   5    4.71    0.13
   3  -2  -5    4.89    0.23
   3   2  -5    4.65    0.22
  -3   2   5    5.17    0.26
  -3   2   5    4.84    0.14
  -3   2   5    4.74    0.15
   3   2  -5    4.94    0.26
   2  -2  -5    5.96    0.25
  -2  -2   5    6.13    0.21
  -2  -2   5    5.99    0.25
  -2   2   5    6.20    0.21
  -2   2   5    6.36    0.28
   2   2  -5    6.39    0.25
   2   2  -5    7.11    0.33
  -2   2   5    6.44    0.25
  -1  -2   5    0.28    0.07
   1  -2  -5    0.32    0.07
  -1  -2   5    0.19    0.12
   1  -2  -5    0.21    0.06
   1   2  -5    0.18    0.07
   1   2  -5    0.28    0.07
  -1   2   5    0.15    0.11
   1   2  -5    0.18    0.03
  -1   2   5    0.13    0.06
   0  -2   5    1.78    0.28
   0  -2   5    1.95    0.12
   0  -2  -5    1.76    0.14
   0  -2  -5    1.80    0.15
   0   2   5    1.91    0.28
   0   2  -5    2.03    0.16
   0   2  -5    1.93    0.14
   0   2  -5    1.89    0.11
   0   2   5    1.80    0.13
   1  -2   5    1.86    0.31
  -1  -2  -5    1.73    0.16
   1  -2   5    1.89    0.10
  -1   2  -5    1.42    0.18
   1   2   5    1.99    0.33
   1   2   5    1.60    0.10
  -1   2  -5    2.05    0.14
   2  -2   5    0.14    0.15
  -2  -2  -5    0.32    0.10
   2   2   5    0.24    0.20
  -2   2  -5    0.36    0.09
  -2   2  -5    0.07    0.11
  -3  -2  -5   12.76    0.47
   3  -2   5   13.78    0.74
  -3   2  -5   11.98    0.55
   3   2   5   11.73    0.70
  -3   2  -5   11.57    0.43
   4  -2   5    0.72    0.25
  -4  -2  -5    1.04    0.18
  -4   2  -5    0.83    0.15
   4   2   5    0.85    0.27
  -4   2  -5    1.08    0.24
  -5  -2  -5   -0.02    0.11
   5  -2   5   -0.05    0.20
  -5   2  -5   -0.08    0.10
   5   2   5   -0.02    0.18
  -6  -2  -5    0.22    0.15
   6  -2   5    0.46    0.23
  -6   2  -5    0.36    0.16
   6   2   5    0.05    0.22
  -7   2  -5   19.99    0.79
 -10  -3   5    0.03    0.13
 -10   3   5   -0.03    0.15
   9  -3  -5    0.08    0.15
  -9  -3   5    0.29    0.14
   9   3  -5    0.09    0.16
  -9   3   5    0.02    0.15
  -8  -3   5    7.38    0.41
   8  -3  -5    8.81    0.47
   8   3  -5    8.86    0.50
  -8   3   5    8.56    0.46
   7  -3  -5    6.10    0.37
  -7  -3   5    6.38    0.35
   7   3  -5    5.61    0.37
  -7   3   5    6.05    0.37
   6  -3  -5    2.78    0.27
  -6  -3   5    2.69    0.24
  -6   3   5    2.59    0.27
   6   3  -5    3.26    0.30
   6   3  -5    2.68    0.23
   5  -3  -5    0.68    0.14
  -5  -3   5    0.78    0.14
   5   3  -5    0.71    0.13
  -5   3   5    0.95    0.09
   5   3  -5    0.58    0.13
  -5   3   5    0.63    0.15
  -4  -3   5   23.69    0.66
   4  -3  -5   24.91    0.66
  -4   3   5   23.38    0.52
   4   3  -5   24.49    0.66
   4   3  -5   22.99    0.68
  -4   3   5   23.27    0.69
  -3  -3   5    2.93    0.19
   3  -3  -5    2.72    0.18
   3   3  -5    2.94    0.18
   3   3  -5    3.10    0.23
  -3   3   5    3.08    0.16
  -3   3   5    2.93    0.21
  -2  -3   5    1.88    0.13
  -2  -3   5    1.78    0.15
   2  -3  -5    2.00    0.14
  -2   3   5    2.28    0.17
   2   3  -5    1.87    0.13
   2   3  -5    1.98    0.11
  -2   3   5    1.97    0.18
   2   3  -5    2.19    0.23
   1  -3  -5    2.15    0.15
   1  -3  -5    2.22    0.14
  -1  -3   5    2.13    0.14
  -1  -3   5    1.79    0.25
  -1   3   5    2.19    0.16
   1   3  -5    2.28    0.14
   1   3  -5    2.02    0.14
  -1   3   5    1.57    0.22
   0  -3  -5   17.71    0.49
   0  -3   5   18.87    0.77
   0  -3  -5   18.30    0.50
   0  -3   5   17.79    0.45
   0   3  -5   17.26    0.53
   0   3   5   18.08    0.75
   0   3   5   18.22    0.47
   0   3  -5   18.79    0.42
   0   3  -5   18.17    0.48
   1  -3   5    9.20    0.26
   1  -3   5    8.58    0.54
  -1  -3  -5    8.47    0.33
   1   3   5    8.96    0.56
   1   3   5    8.74    0.25
  -1   3  -5    8.87    0.39
  -1   3  -5    8.97    0.29
   2  -3   5    2.88    0.40
  -2  -3  -5    2.82    0.21
  -2   3  -5    2.68    0.18
   2   3   5    2.86    0.40
  -2   3  -5    2.51    0.27
   3  -3   5    0.48    0.21
  -3  -3  -5    1.41    0.19
  -3   3  -5    1.48    0.17
   3   3   5    1.12    0.30
  -3   3  -5    0.90    0.19
   4  -3   5    2.67    0.41
  -4  -3  -5    2.46    0.26
   4   3   5    2.98    0.43
  -4   3  -5    2.90    0.26
  -4   3  -5    2.29    0.31
   5  -3   5   -0.23    0.15
  -5  -3  -5    0.09    0.13
   5   3   5    0.02    0.19
  -5   3  -5   -0.06    0.10
  -5   3  -5   -0.01    0.15
  -6  -3  -5    1.65    0.26
   6  -3   5    1.23    0.35
   6   3   5    2.03    0.42
  -6   3  -5    1.30    0.23
  -7   3  -5   10.60    0.57
 -10  -4   5   10.50    0.52
 -10   4   5   11.07    0.58
   9  -4  -5   14.98    0.67
  -9  -4   5   14.72    0.59
   9   4  -5   14.17    0.68
  -9   4   5   14.40    0.64
   8  -4  -5   18.57    0.70
  -8  -4   5   18.87    0.66
  -8  -4   5   18.07    0.60
  -8   4   5   19.39    0.70
   8   4  -5   18.26    0.74
  -7  -4   5    3.48    0.31
  -7  -4   5    3.33    0.22
   7  -4  -5    3.62    0.33
   7   4  -5    3.13    0.32
  -7   4   5    3.53    0.33
  -6  -4   5    5.75    0.25
  -6  -4   5    5.29    0.31
   6  -4  -5    5.55    0.32
   6   4  -5    4.74    0.31
   6   4  -5    5.29    0.33
  -6   4   5    5.12    0.34
   5  -4  -5   28.24    0.78
  -5  -4   5   28.10    0.65
  -5  -4   5   29.03    0.78
  -5   4   5   28.84    0.67
  -5   4   5   28.72    0.82
   5   4  -5   27.66    0.78
   5   4  -5   27.45    0.81
  -4  -4   5   24.20    0.68
   4  -4  -5   25.72    0.68
  -4  -4   5   25.81    0.54
   4   4  -5   25.11    0.68
  -4   4   5   25.65    0.60
  -4   4   5   25.27    0.73
   4   4  -5   24.86    0.74
   3  -4  -5   16.15    0.48
  -3  -4   5   16.93    0.50
  -3   4   5   16.53    0.53
   3   4  -5   16.90    0.48
   3   4  -5   16.55    0.36
   3   4  -5   17.68    0.58
  -3   4   5   16.91    0.48
  -2  -4   5    3.50    0.19
  -2  -4   5    3.86    0.29
   2  -4  -5    3.32    0.18
  -2  -4   5    3.49    0.20
   2   4  -5    3.56    0.16
   2   4  -5    3.92    0.18
   2   4  -5    4.22    0.27
  -2   4   5    3.40    0.23
  -2   4   5    3.59    0.22
  -1  -4   5    8.17    0.46
   1  -4  -5    8.17    0.29
   1  -4  -5    8.35    0.30
  -1  -4   5    7.85    0.28
  -1   4   5    8.83    0.32
   1   4  -5    8.50    0.28
   1   4  -5    8.16    0.30
   1   4  -5    7.86    0.39
  -1   4   5    8.11    0.44
   0  -4   5    1.02    0.10
   0  -4  -5    1.14    0.13
   0  -4  -5    1.05    0.13
   0  -4   5    0.97    0.23
   0   4  -5    0.93    0.14
   0   4   5    0.72    0.20
   0   4  -5    0.97    0.11
   0   4  -5    0.99    0.08
   0   4   5    1.01    0.11
   1  -4   5   16.84    0.77
  -1  -4  -5   17.18    0.52
   1  -4   5   16.64    0.42
   1   4   5   18.64    0.81
   1   4   5   16.97    0.42
  -1   4  -5   17.18    0.44
  -1   4  -5   17.25    0.58
   2  -4   5    1.87    0.35
  -2  -4  -5    1.92    0.20
  -2   4  -5    1.92    0.24
   2   4   5    1.95    0.35
   3  -4   5   20.17    0.92
  -3  -4  -5   19.93    0.65
   3   4   5   21.20    0.95
  -3   4  -5   19.81    0.74
  -4  -4  -5    3.87    0.30
   4  -4   5    4.67    0.55
   4   4   5    3.70    0.48
  -4   4  -5    3.47    0.39
  -5  -4  -5    0.68    0.17
   5  -4   5    0.26    0.22
   5   4   5    0.37    0.23
  -5   4  -5    0.12    0.16
   6  -4   5   20.57    1.03
  -6  -4  -5   18.70    0.75
   6   4   5   17.56    0.96
  -6   4  -5   18.72    0.70
  -6   4  -5   18.12    0.86
  -7   4  -5    8.94    0.56
 -10  -5   5    2.82    0.32
 -10   5   5    2.88    0.36
  -9  -5   5    0.14    0.13
   9  -5  -5    0.27    0.14
  -9   5   5    0.08    0.15
   9   5  -5    0.05    0.16
  -8  -5   5    0.28    0.13
   8  -5  -5   -0.02    0.12
  -8   5   5    0.13    0.16
   8   5  -5   -0.12    0.11
  -7  -5   5    3.70    0.23
  -7  -5   5    3.81    0.28
   7  -5  -5    3.69    0.28
   7   5  -5    3.62    0.34
  -7   5   5    3.80    0.35
  -6  -5   5   14.47    0.51
  -6  -5   5   12.54    0.41
   6  -5  -5   14.88    0.53
   6   5  -5   14.13    0.57
   6   5  -5   13.28    0.53
  -6   5   5   12.58    0.54
  -5  -5   5   21.34    0.52
  -5  -5   5   21.44    0.64
   5  -5  -5   20.78    0.63
  -5   5   5   20.07    0.56
  -5   5   5   21.12    0.69
   5   5  -5   21.59    0.65
   5   5  -5   22.13    0.72
  -4  -5   5   16.50    0.53
  -4  -5   5   17.05    0.39
   4  -5  -5   16.49    0.60
   4  -5  -5   17.70    0.53
  -4   5   5   17.57    0.50
   4   5  -5   16.56    0.52
  -4   5   5   17.03    0.58
   4   5  -5   16.71    0.61
   4   5  -5   17.49    0.41
   3  -5  -5    0.61    0.10
  -3  -5   5    1.03    0.14
   3  -5  -5    0.98    0.16
   3   5  -5    0.84    0.16
  -3   5   5    0.59    0.13
   3   5  -5    0.83    0.12
  -3   5   5    0.92    0.15
   3   5  -5    0.90    0.09
  -2  -5   5    1.59    0.16
   2  -5  -5    1.59    0.15
  -2  -5   5    1.51    0.21
   2   5  -5    1.46    0.13
   2   5  -5    1.63    0.12
   2   5  -5    1.29    0.19
  -2   5   5    1.37    0.17
  -2   5   5    1.69    0.20
   1  -5  -5   12.41    0.39
  -1  -5   5   12.78    0.38
  -1  -5   5   13.37    0.59
   1  -5  -5   12.49    0.40
   1   5  -5   12.04    0.40
  -1   5   5   12.04    0.55
  -1   5   5   12.92    0.42
   1   5  -5   13.01    0.52
   1   5  -5   12.83    0.36
   0  -5  -5    5.73    0.26
   0  -5   5    5.37    0.22
   0  -5   5    4.96    0.46
   0  -5  -5    5.09    0.25
   0   5   5    5.22    0.24
   0   5  -5    5.47    0.22
   0   5  -5    5.50    0.17
   0   5   5    4.91    0.46
   0   5  -5    5.42    0.28
   1  -5   5    2.97    0.38
   1  -5   5    3.17    0.15
  -1  -5  -5    3.00    0.21
  -1   5  -5    3.08    0.25
   1   5   5    3.55    0.42
   1   5   5    3.00    0.16
   2  -5   5   10.15    0.63
  -2  -5  -5    9.63    0.40
   2   5   5   10.19    0.63
  -2   5  -5    9.70    0.47
   3  -5   5   37.12    1.29
  -3  -5  -5   34.49    0.96
  -3   5  -5   36.69    1.09
   3   5   5   35.12    1.29
   4  -5   5    4.77    0.52
  -4  -5  -5    4.61    0.33
   4   5   5    3.93    0.48
  -4   5  -5    4.60    0.45
  -5  -5  -5    2.41    0.30
   5  -5   5    3.24    0.48
   5   5   5    2.35    0.40
  -5   5  -5    2.34    0.35
   6  -5   5   19.02    1.01
  -6  -5  -5   19.53    0.78
   6   5   5   19.33    1.05
   6   5   5   18.72    0.98
  -6   5  -5   19.00    0.88
 -10  -6   5    3.16    0.34
   9  -6  -5    0.28    0.15
  -9  -6   5    0.23    0.14
  -9   6   5    0.15    0.16
   8  -6  -5    2.61    0.30
  -8  -6   5    2.85    0.28
   8   6  -5    2.71    0.32
  -8   6   5    2.96    0.34
   7  -6  -5    3.55    0.28
  -7  -6   5    3.52    0.27
   7   6  -5    3.98    0.38
   7   6  -5    3.76    0.35
  -7   6   5    3.79    0.35
   6  -6  -5    1.35    0.19
  -6  -6   5    1.15    0.18
  -6  -6   5    1.09    0.13
   6  -6  -5    0.72    0.17
   6   6  -5    0.94    0.21
   6   6  -5    0.87    0.17
  -6   6   5    1.22    0.22
  -5  -6   5    7.14    0.34
  -5  -6   5    7.31    0.26
   5  -6  -5    7.64    0.40
   5  -6  -5    7.52    0.34
   5   6  -5    7.85    0.43
   5   6  -5    6.61    0.33
  -5   6   5    7.01    0.39
  -5   6   5    6.87    0.32
   4  -6  -5    5.73    0.27
  -4  -6   5    5.85    0.29
   4  -6  -5    5.75    0.34
  -4  -6   5    5.71    0.18
   4   6  -5    5.46    0.24
  -4   6   5    5.67    0.33
   4   6  -5    5.61    0.27
   4   6  -5    5.38    0.35
  -4   6   5    5.33    0.26
  -4   6   5    5.47    0.28
   3  -6  -5   19.95    0.66
  -3  -6   5   19.03    0.56
   3  -6  -5   19.47    0.55
  -3   6   5   20.52    0.62
  -3   6   5   19.50    0.62
   3   6  -5   20.10    0.52
   3   6  -5   20.62    0.69
   3   6  -5   19.95    0.53
   2  -6  -5    0.02    0.06
   2  -6  -5   -0.03    0.08
  -2  -6   5   -0.06    0.09
  -2  -6   5   -0.06    0.05
  -2   6   5   -0.17    0.08
   2   6  -5    0.03    0.06
   2   6  -5    0.00    0.04
   2   6  -5    0.00    0.09
  -2   6   5    0.11    0.08
   1  -6  -5    3.26    0.24
  -1  -6   5    2.89    0.17
   1  -6  -5    3.02    0.20
   1  -6  -5    2.69    0.17
  -1  -6   5    2.90    0.32
   1   6  -5    2.76    0.28
   1   6  -5    2.62    0.19
   1   6  -5    3.00    0.15
  -1   6   5    2.42    0.19
  -1   6   5    3.10    0.32
   0  -6   5   29.66    1.01
   0  -6  -5   29.56    0.75
   0  -6  -5   27.60    0.71
   0  -6   5   28.10    0.67
   0   6  -5   28.77    0.66
   0   6  -5   27.93    0.78
   0   6   5   28.60    0.71
   0   6  -5   28.97    0.89
   0   6   5   27.79    0.98
   1  -6   5   24.45    0.58
   1  -6   5   23.49    0.94
  -1  -6  -5   24.34    0.69
   1   6   5   24.97    0.96
  -1   6  -5   25.19    0.76
   1   6   5   23.89    0.60
   2  -6   5   25.35    1.01
  -2  -6  -5   24.84    0.73
   2   6   5   25.06    1.02
  -2   6  -5   25.42    0.82
  -3  -6  -5    0.09    0.10
   3  -6   5    0.15    0.18
   3   6   5    0.31    0.20
  -3   6  -5    0.10    0.14
  -4  -6  -5    2.79    0.29
   4  -6   5    3.12    0.43
   4   6   5    2.64    0.43
  -4   6  -5    3.45    0.39
   5  -6   5    0.05    0.19
  -5  -6  -5   -0.01    0.12
   5   6   5    0.19    0.19
   5   6   5   -0.06    0.21
  -5   6  -5    0.13    0.16
  -6  -6  -5    0.32    0.18
   6  -6   5    0.26    0.24
   6   6   5    0.21    0.23
   6   6   5    0.37    0.28
  -6   6  -5    0.30    0.22
   9  -7  -5    0.55    0.18
  -9  -7   5    0.35    0.15
  -9   7   5    0.80    0.23
   8  -7  -5    0.84    0.19
  -8  -7   5    1.16    0.19
   8   7  -5    0.55    0.18
  -8   7   5    1.06    0.23
   7  -7  -5    2.03    0.28
  -7  -7   5    1.81    0.22
   7  -7  -5    1.39    0.21
   7   7  -5    1.64    0.28
   7   7  -5    1.66    0.25
  -7   7   5    1.31    0.24
   6  -7  -5    4.36    0.33
   6  -7  -5    4.50    0.28
  -6  -7   5    4.17    0.28
   6   7  -5    4.45    0.30
  -6   7   5    4.65    0.35
   6   7  -5    4.45    0.37
   5  -7  -5    1.10    0.19
   5  -7  -5    1.28    0.17
  -5  -7   5    1.26    0.18
   5   7  -5    1.35    0.17
  -5   7   5    1.28    0.21
  -5   7   5    1.18    0.17
   5   7  -5    1.08    0.23
  -4  -7   5    6.76    0.31
   4  -7  -5    6.28    0.29
   4  -7  -5    6.77    0.37
  -4   7   5    6.96    0.37
  -4   7   5    6.21    0.33
  -4   7   5    6.10    0.42
   4   7  -5    6.64    0.29
   4   7  -5    6.53    0.41
   4   7  -5    6.24    0.28
   3  -7  -5    7.22    0.29
  -3  -7   5    6.35    0.29
   3  -7  -5    6.31    0.35
  -3   7   5    7.27    0.36
  -3   7   5    6.05    0.34
  -3   7   5    6.86    0.36
   3   7  -5    6.31    0.38
   3   7  -5    6.82    0.29
   3   7  -5    6.89    0.27
   2  -7  -5    0.79    0.12
  -2  -7   5    0.70    0.12
   2  -7  -5    0.61    0.13
  -2  -7   5    1.01    0.20
   2   7  -5    0.91    0.14
   2   7  -5    0.67    0.17
  -2   7   5    0.60    0.13
   2   7  -5    1.03    0.11
  -2   7   5    0.86    0.17
   1  -7  -5   13.27    0.49
  -1  -7   5   12.80    0.40
   1  -7  -5   13.80    0.42
   1  -7  -5   13.51    0.45
  -1  -7   5   14.27    0.62
   1   7  -5   12.57    0.54
  -1   7   5   12.35    0.57
   1   7  -5   13.13    0.47
   1   7  -5   13.28    0.36
  -1   7   5   12.74    0.45
  -1   7   5   12.78    0.55
   0  -7  -5   23.81    0.66
   0  -7   5   23.83    0.59
   0  -7   5   23.90    0.89
   0  -7  -5   22.12    0.62
   0  -7  -5   23.50    0.70
   0   7  -5   23.61    0.71
   0   7  -5   22.51    0.56
   0   7   5   23.35    0.87
   0   7   5   23.29    0.63
   0   7  -5   23.71    0.80
   1  -7   5   28.42    0.68
   1  -7   5   28.36    1.04
  -1  -7  -5   29.10    0.80
   1   7   5   29.21    0.71
  -1   7  -5   27.74    0.85
   1   7   5   30.55    1.08
  -2  -7  -5   20.21    0.65
   2  -7   5   21.14    0.90
  -2   7  -5   20.01    0.73
   2   7   5   19.10    0.88
  -3  -7  -5    0.00    0.10
   3  -7   5    0.13    0.17
   3   7   5    0.20    0.20
  -3   7  -5    0.21    0.14
   4  -7   5   -0.03    0.17
  -4  -7  -5   -0.01    0.10
   4   7   5   -0.05    0.17
   4   7   5    0.13    0.20
  -4   7  -5    0.04    0.16
   5  -7   5    0.16    0.20
  -5  -7  -5    0.35    0.16
   5   7   5    0.05    0.22
  -5   7  -5    0.31    0.18
   5   7   5    0.16    0.22
   6  -7   5    0.36    0.25
  -6  -7  -5    0.91    0.23
   6   7   5    0.55    0.28
   6   7   5    0.43    0.33
  -6   7  -5    0.21    0.22
   9  -8  -5   -0.14    0.12
  -9  -8   5   -0.02    0.13
  -9   8   5   -0.30    0.16
   9   8  -5   -0.08    0.13
  -8  -8   5    5.89    0.37
   8  -8  -5    5.87    0.37
   8   8  -5    5.08    0.40
  -8   8   5    5.31    0.42
  -7  -8   5    6.29    0.36
   7  -8  -5    5.71    0.35
   7  -8  -5    5.88    0.40
  -7   8   5    5.27    0.40
   7   8  -5    5.85    0.38
   7   8  -5    5.92    0.46
   6  -8  -5   10.14    0.50
  -6  -8   5    8.54    0.41
   6  -8  -5    9.45    0.41
   6   8  -5    9.56    0.55
  -6   8   5    9.20    0.49
   6   8  -5   10.30    0.45
   5  -8  -5    9.17    0.38
  -5  -8   5    9.28    0.40
   5  -8  -5    9.50    0.47
   5   8  -5   10.20    0.53
  -5   8   5    8.59    0.44
   5   8  -5    9.02    0.39
  -5   8   5    8.98    0.42
   4  -8  -5    0.15    0.08
   4  -8  -5    0.07    0.10
  -4  -8   5    0.04    0.08
   4   8  -5    0.12    0.11
   4   8  -5   -0.08    0.10
   4   8  -5    0.27    0.09
  -4   8   5    0.05    0.10
  -4   8   5   -0.01    0.10
  -3  -8   5   10.83    0.39
   3  -8  -5   11.33    0.48
   3  -8  -5   10.75    0.37
   3   8  -5   10.90    0.41
  -3   8   5   10.77    0.46
  -3   8   5   10.01    0.46
   3   8  -5   10.16    0.51
   3   8  -5   10.70    0.35
  -3   8   5    9.36    0.45
  -2  -8   5    3.96    0.32
   2  -8  -5    4.45    0.29
  -2  -8   5    4.17    0.23
   2  -8  -5    3.77    0.21
   2   8  -5    4.36    0.19
   2   8  -5    4.45    0.33
  -2   8   5    3.75    0.35
  -2   8   5    3.79    0.32
   2   8  -5    3.91    0.25
  -2   8   5    3.75    0.26
  -1  -8   5    0.15    0.13
   1  -8  -5    0.09    0.08
   1  -8  -5    0.19    0.10
  -1  -8   5    0.09    0.06
   1  -8  -5    0.12    0.06
   1   8  -5   -0.04    0.09
   1   8  -5    0.00    0.11
  -1   8   5    0.08    0.08
  -1   8   5    0.06    0.13
  -1   8   5   -0.09    0.12
   1   8  -5    0.11    0.05
  -1   8   5    0.07    0.11
   0  -8  -5    0.24    0.08
   0  -8   5    0.27    0.16
   0  -8  -5    0.27    0.10
   0  -8  -5    0.44    0.12
   0  -8   5    0.27    0.08
   0   8   5    0.24    0.15
   0   8   5    0.23    0.10
   0   8  -5    0.31    0.07
   0   8  -5    0.20    0.12
   0   8  -5    0.35    0.13
   0   8   5    0.38    0.16
  -1  -8  -5    3.87    0.26
   1  -8   5    4.38    0.46
   1   8   5    3.94    0.43
   1   8   5    2.71    0.38
  -1   8  -5    4.42    0.32
   1   8   5    3.59    0.22
  -1   8  -5    4.01    0.33
  -2  -8  -5    5.00    0.31
   2  -8   5    4.13    0.46
  -2   8  -5    4.90    0.36
   2   8   5    4.48    0.49
   2   8   5    5.25    0.54
   3  -8   5    0.90    0.25
  -3  -8  -5    1.67    0.23
  -3   8  -5    1.21    0.25
   3   8   5    1.57    0.32
   3   8   5    1.73    0.36
  -4  -8  -5    7.24    0.42
   4  -8   5    6.44    0.62
   4   8   5    6.70    0.63
  -4   8  -5    7.68    0.51
   4   8   5    6.26    0.69
  -5  -8  -5    0.67    0.19
   5  -8   5    0.84    0.27
  -5   8  -5    0.42    0.22
   5   8   5    0.60    0.27
   5   8   5    1.15    0.41
   6  -8   5    3.08    0.48
  -6  -8  -5    2.79    0.35
   6   8   5    3.42    0.70
   6   8   5    2.95    0.46
  -9  -9   5    0.30    0.14
   9  -9  -5    0.17    0.14
   9   9  -5    0.46    0.22
  -9   9   5    0.05    0.18
   8  -9  -5    5.45    0.36
  -8  -9   5    5.43    0.35
   8  -9  -5    4.82    0.40
  -8   9   5    4.91    0.46
   8   9  -5    4.90    0.40
  -7  -9   5    0.29    0.13
   7  -9  -5    0.16    0.14
   7  -9  -5    0.34    0.12
   7   9  -5    0.17    0.20
  -7   9   5    0.13    0.17
   7   9  -5    0.46    0.15
   6  -9  -5    0.72    0.18
  -6  -9   5    0.52    0.14
   6  -9  -5    0.61    0.13
   6   9  -5    0.23    0.19
   6   9  -5    0.73    0.16
  -6   9   5    0.85    0.21
  -5  -9   5    8.71    0.39
   5  -9  -5    8.63    0.37
   5  -9  -5    9.32    0.46
  -5   9   5    9.18    0.47
  -5   9   5    8.56    0.43
   5   9  -5    8.44    0.38
   5   9  -5    8.63    0.53
   4  -9  -5   12.53    0.43
  -4  -9   5   12.61    0.46
   4  -9  -5   11.92    0.53
  -4   9   5   13.00    0.54
   4   9  -5   12.44    0.60
   4   9  -5   12.69    0.42
  -4   9   5   12.19    0.53
   4   9  -5   12.69    0.49
  -3  -9   5    4.12    0.24
   3  -9  -5    4.29    0.22
  -3  -9   5    3.78    0.29
   3  -9  -5    3.49    0.28
   3   9  -5    3.94    0.20
  -3   9   5    3.45    0.33
   3   9  -5    3.85    0.27
  -3   9   5    3.59    0.29
   3   9  -5    3.20    0.36
  -3   9   5    3.87    0.32
  -2  -9   5    0.07    0.07
   2  -9  -5    0.00    0.06
   2  -9  -5   -0.02    0.07
  -2  -9   5    0.06    0.11
  -2   9   5    0.10    0.13
   2   9  -5    0.04    0.10
   2   9  -5    0.18    0.14
  -2   9   5   -0.01    0.09
  -2   9   5    0.01    0.14
   2   9  -5   -0.02    0.05
   1  -9  -5    9.12    0.42
   1  -9  -5    9.53    0.40
  -1  -9   5   10.23    0.36
   1  -9  -5    9.85    0.36
  -1  -9   5   10.21    0.53
  -1   9   5    9.38    0.40
   1   9  -5   10.92    0.53
  -1   9   5    9.79    0.55
  -1   9   5    9.85    0.53
   1   9  -5    9.82    0.29
   1   9  -5    9.83    0.44
  -1   9   5    9.51    0.50
   0  -9   5    3.22    0.20
   0  -9  -5    3.48    0.25
   0  -9  -5    3.86    0.26
   0  -9   5    2.51    0.34
   0  -9  -5    3.37    0.21
   0   9   5    3.26    0.39
   0   9   5    3.60    0.24
   0   9  -5    3.27    0.31
   0   9  -5    3.36    0.35
   0   9   5    3.42    0.39
  -1  -9  -5    7.22    0.36
   1  -9   5    7.88    0.52
  -1  -9  -5    6.89    0.34
   1   9   5    7.46    0.32
  -1   9  -5    7.31    0.42
   1   9   5    7.44    0.52
  -1   9  -5    6.27    0.42
   1   9   5    6.79    0.53
   2  -9   5    0.31    0.20
  -2  -9  -5    0.28    0.12
  -2   9  -5    0.25    0.15
   2   9   5    0.22    0.18
   2   9   5    0.40    0.22
   3  -9   5    5.04    0.52
  -3  -9  -5    4.70    0.33
   3   9   5    4.34    0.55
   3   9   5    5.78    0.58
  -3   9  -5    4.79    0.46
   4  -9   5    3.08    0.43
   4  -9   5    3.11    0.24
  -4  -9  -5    2.93    0.31
   4   9   5    2.91    0.51
   4   9   5    2.78    0.43
  -4   9  -5    2.99    0.38
   5  -9   5   -0.06    0.17
  -5  -9  -5    0.20    0.15
   5   9   5    0.20    0.21
  -5   9  -5    0.34    0.21
   5   9   5    0.06    0.28
   6  -9   5    1.69    0.43
   6   9   5    1.37    0.34
  -9 -10   5   33.45    0.99
   9 -10  -5   33.32    1.03
   8 -10  -5    9.77    0.55
   8 -10  -5    8.43    0.45
  -8 -10   5   10.07    0.47
  -8  10   5    9.86    0.58
   8  10  -5    8.96    0.51
  -7 -10   5    2.56    0.27
   7 -10  -5    3.01    0.35
   7 -10  -5    2.96    0.28
   7  10  -5    2.88    0.42
   7  10  -5    2.73    0.30
  -7  10   5    3.04    0.35
  -6 -10   5   42.74    1.10
   6 -10  -5   42.53    1.06
   6 -10  -5   40.82    1.21
  -6  10   5   43.34    1.23
   6  10  -5   41.49    1.35
   6  10  -5   42.68    1.11
   5 -10  -5    0.95    0.14
   5 -10  -5    0.89    0.19
  -5 -10   5    0.98    0.17
  -5  10   5    0.78    0.19
   5  10  -5    1.03    0.16
   5  10  -5    0.81    0.22
  -5  10   5    1.14    0.21
  -4 -10   5   17.19    0.56
   4 -10  -5   16.83    0.52
   4 -10  -5   17.38    0.66
   4  10  -5   16.86    0.51
   4  10  -5   16.87    0.61
  -4  10   5   16.60    0.67
  -4  10   5   16.23    0.64
   4  10  -5   17.44    0.75
   3 -10  -5    1.48    0.22
   3 -10  -5    2.38    0.17
  -3 -10   5    2.20    0.26
  -3 -10   5    1.93    0.20
  -3  10   5    1.86    0.24
   3  10  -5    2.21    0.25
   3  10  -5    2.28    0.31
  -3  10   5    2.14    0.28
  -3  10   5    2.24    0.29
   3  10  -5    2.08    0.15
  -2 -10   5   17.22    0.54
  -2 -10   5   18.56    0.69
   2 -10  -5   18.07    0.52
   2 -10  -5   16.26    0.62
  -2  10   5   17.26    0.71
   2  10  -5   17.25    0.44
  -2  10   5   19.29    0.64
   2  10  -5   17.34    0.62
   2  10  -5   18.41    0.74
  -2  10   5   18.01    0.75
   1 -10  -5    7.05    0.36
  -1 -10   5    7.28    0.32
  -1 -10   5    7.65    0.46
   1 -10  -5    7.48    0.39
   1 -10  -5    8.06    0.32
   1  10  -5    7.23    0.23
  -1  10   5    7.55    0.38
   1  10  -5    7.11    0.44
  -1  10   5    7.70    0.46
  -1  10   5    6.98    0.48
  -1  10   5    7.64    0.52
   1  10  -5    7.85    0.41
   0 -10  -5    1.07    0.17
   0 -10  -5    1.63    0.22
   0 -10   5    1.49    0.16
   0 -10   5    1.73    0.29
   0  10   5    1.68    0.20
   0  10   5    2.03    0.33
   0  10   5    1.49    0.27
   0  10   5    1.88    0.33
   0  10  -5    1.46    0.24
   0  10  -5    1.20    0.23
  -1 -10  -5    4.43    0.30
  -1 -10  -5    4.44    0.29
   1 -10   5    4.77    0.46
   1  10   5    5.45    0.57
  -1  10  -5    4.89    0.37
  -1  10  -5    4.77    0.38
   1  10   5    5.24    0.29
   1  10   5    5.23    0.52
   2 -10   5   41.77    1.32
  -2 -10  -5   41.44    1.11
  -2  10  -5   40.39    1.21
   2  10   5   39.81    1.35
   2  10   5   39.74    1.46
   3 -10   5    3.51    0.44
  -3 -10  -5    3.56    0.34
   3  10   5    4.26    0.48
  -3  10  -5    3.44    0.39
   3  10   5    3.64    0.54
  -4 -10  -5    2.30    0.30
   4 -10   5    1.79    0.22
   4 -10   5    2.64    0.39
   4  10   5    1.94    0.36
   4  10   5    2.47    0.50
  -4  10  -5    2.18    0.35
   5 -10   5    0.18    0.21
  -5 -10  -5    0.38    0.18
  -5  10  -5    0.36    0.20
   5  10   5    0.20    0.32
   5  10   5    0.61    0.26
  -8 -11   5   -0.12    0.10
   8 -11  -5   -0.01    0.14
   8 -11  -5    0.02    0.12
   8  11  -5   -0.22    0.12
  -8  11   5   -0.08    0.17
   7 -11  -5    4.26    0.29
  -7 -11   5    4.39    0.31
   7 -11  -5    4.18    0.41
  -7  11   5    4.12    0.42
   7  11  -5    3.99    0.49
   7  11  -5    4.43    0.34
  -6 -11   5    1.00    0.17
   6 -11  -5    0.85    0.15
   6 -11  -5    0.56    0.18
   6  11  -5    1.07    0.28
   6  11  -5    0.52    0.14
  -6  11   5    0.65    0.21
  -5 -11   5    1.79    0.22
   5 -11  -5    1.56    0.25
   5 -11  -5    1.65    0.19
  -5  11   5    1.91    0.29
   5  11  -5    1.29    0.28
  -5  11   5    1.54    0.25
   5  11  -5    1.58    0.19
  -4 -11   5    2.32    0.23
   4 -11  -5    2.33    0.18
   4 -11  -5    2.26    0.27
   4  11  -5    2.65    0.29
   4  11  -5    2.10    0.17
  -4  11   5    2.22    0.30
  -4  11   5    1.86    0.27
   4  11  -5    2.53    0.35
  -3 -11   5    2.32    0.26
   3 -11  -5    2.36    0.29
   3 -11  -5    1.81    0.18
  -3 -11   5    1.91    0.20
   3  11  -5    2.39    0.34
  -3  11   5    1.55    0.27
  -3  11   5    1.81    0.27
   3  11  -5    1.89    0.26
   3  11  -5    2.13    0.15
  -3  11   5    1.78    0.24
   2 -11  -5    4.82    0.24
   2 -11  -5    5.58    0.34
  -2 -11   5    4.77    0.35
  -2 -11   5    4.73    0.27
  -2  11   5    4.97    0.46
   2  11  -5    4.58    0.39
   2  11  -5    4.52    0.33
  -2  11   5    5.25    0.43
  -2  11   5    4.44    0.33
   1 -11  -5   23.16    0.75
  -1 -11   5   23.35    0.65
   1 -11  -5   22.79    0.63
  -1 -11   5   23.65    0.83
   1 -11  -5   22.69    0.72
  -1  11   5   21.80    0.72
   1  11  -5   23.69    0.79
  -1  11   5   23.62    0.96
  -1  11   5   22.22    0.83
   1  11  -5   23.37    0.87
  -1  11   5   22.70    0.90
   0 -11   5   15.92    0.70
   0 -11   5   16.99    0.52
   0 -11  -5   16.51    0.60
   0 -11  -5   17.15    0.60
   0  11   5   16.26    0.57
   0  11  -5   16.03    0.67
   0  11   5   18.19    0.87
   0  11   5   16.23    0.78
   0  11  -5   17.79    0.73
   0  11   5   15.82    0.73
  -1 -11  -5    4.27    0.31
  -1 -11  -5    4.24    0.28
   1 -11   5    4.16    0.42
   1  11   5    4.64    0.28
  -1  11  -5    4.23    0.41
   1  11   5    3.71    0.50
  -1  11  -5    4.65    0.38
   1  11   5    3.78    0.44
   2 -11   5    9.97    0.59
  -2 -11  -5    9.46    0.47
  -2 -11  -5    9.81    0.43
  -2  11  -5    9.29    0.54
   2  11   5    8.75    0.69
   2  11   5   10.48    0.63
   3 -11   5    1.49    0.31
  -3 -11  -5    1.24    0.22
   3  11   5    1.37    0.30
   3  11   5    0.58    0.31
  -3  11  -5    1.23    0.27
  -4 -11  -5    2.01    0.29
   4 -11   5    2.30    0.38
   4 -11   5    1.73    0.23
  -4  11  -5    2.01    0.36
   4  11   5    1.67    0.45
   4  11   5    2.71    0.40
  -5 -11  -5    1.96    0.31
   5 -11   5    2.82    0.43
  -5  11  -5    1.96    0.37
   5  11   5    2.35    0.54
   8 -12  -5    1.29    0.27
  -8 -12   5    1.33    0.22
   8  12  -5    0.99    0.22
   8  12  -5    1.12    0.55
  -8  12   5    0.75    0.26
  -7 -12   5    7.34    0.41
   7 -12  -5    7.05    0.37
   7 -12  -5    7.63    0.48
  -7  12   5    7.97    0.52
   7  12  -5    8.24    0.64
   7  12  -5    6.91    0.41
   6 -12  -5    0.86    0.16
   6 -12  -5    0.89    0.22
  -6 -12   5    0.89    0.17
  -6  12   5    1.01    0.25
   6  12  -5    0.83    0.17
   6  12  -5    0.86    0.27
   5 -12  -5   35.99    0.90
  -5 -12   5   35.67    0.97
   5 -12  -5   35.90    1.11
   5  12  -5   34.77    0.91
   5  12  -5   36.17    1.27
  -5  12   5   37.48    1.12
  -5  12   5   35.66    1.13
   4 -12  -5   10.29    0.38
   4 -12  -5    9.55    0.50
  -4 -12   5    9.82    0.42
  -4  12   5    9.97    0.55
   4  12  -5    9.88    0.60
  -4  12   5    9.94    0.52
   4  12  -5   10.53    0.52
  -3 -12   5    0.02    0.08
   3 -12  -5   -0.08    0.08
   3 -12  -5    0.02    0.06
  -3  12   5   -0.23    0.14
  -3  12   5    0.10    0.13
   3  12  -5   -0.24    0.15
   3  12  -5    0.08    0.14
   2 -12  -5   13.16    0.56
  -2 -12   5   14.15    0.49
   2 -12  -5   13.71    0.45
  -2  12   5   13.70    0.57
  -2  12   5   14.29    0.70
  -2  12   5   14.10    0.70
   2  12  -5   14.35    0.68
   2  12  -5   13.82    0.60
   1 -12  -5    2.30    0.19
  -1 -12   5    2.50    0.30
   1 -12  -5    2.74    0.29
   1 -12  -5    2.45    0.27
  -1 -12   5    2.53    0.23
  -1  12   5    1.90    0.33
  -1  12   5    2.01    0.36
  -1  12   5    2.57    0.27
  -1  12   5    2.58    0.33
   1  12  -5    2.10    0.32
   1  12  -5    2.73    0.32
   0 -12  -5    1.65    0.23
   0 -12   5    1.72    0.26
   0 -12  -5    1.67    0.23
   0  12  -5    1.92    0.30
   0  12   5    1.76    0.31
   0  12   5    2.08    0.37
   0  12   5    1.52    0.33
   0  12  -5    1.70    0.28
  -1 -12  -5    2.36    0.26
   1 -12   5    2.63    0.34
  -1 -12  -5    1.86    0.23
  -1  12  -5    1.44    0.26
   1  12   5    1.84    0.34
   1  12   5    2.08    0.35
  -1  12  -5    2.18    0.32
   1  12   5    3.21    0.51
   2 -12   5    0.52    0.21
  -2 -12  -5    0.64    0.17
   2  12   5    0.49    0.27
   2  12   5    0.70    0.24
  -2  12  -5    0.57    0.18
  -2  12  -5    0.38    0.18
   3 -12   5    1.85    0.33
  -3 -12  -5    1.71    0.25
  -3  12  -5    1.53    0.29
   3  12   5    1.05    0.39
   4 -12   5    0.36    0.22
  -4 -12  -5    0.04    0.13
   4 -12   5    0.19    0.13
  -4  12  -5    0.12    0.21
   4  12   5    0.40    0.32
   5 -12   5    0.89    0.28
  -8 -13   5    2.69    0.47
   8 -13  -5    2.38    0.35
   8  13  -5    1.40    0.37
  -7 -13   5    5.05    0.35
   7 -13  -5    5.25    0.43
   7  13  -5    4.59    0.57
  -7  13   5    4.38    0.47
   6 -13  -5    0.48    0.12
  -6 -13   5    0.36    0.13
   6 -13  -5    0.23    0.15
   6  13  -5    0.34    0.22
  -6  13   5    0.32    0.19
   5 -13  -5    4.93    0.27
  -5 -13   5    4.96    0.32
   5 -13  -5    5.36    0.40
  -5  13   5    4.61    0.44
   5  13  -5    5.88    0.58
  -5  13   5    4.87    0.46
   4 -13  -5    0.01    0.07
  -4 -13   5   -0.05    0.08
   4 -13  -5    0.07    0.11
  -4  13   5    0.03    0.15
   4  13  -5    0.18    0.19
   4  13  -5   -0.34    0.13
  -4  13   5    0.15    0.18
   3 -13  -5   13.05    0.43
  -3 -13   5   12.89    0.49
   3 -13  -5   11.30    0.56
   3  13  -5   13.31    0.69
  -3  13   5   13.42    0.59
  -3  13   5   12.20    0.66
   3  13  -5   12.57    0.61
   2 -13  -5    3.78    0.36
  -2 -13   5    4.17    0.27
   2 -13  -5    3.53    0.22
   2  13  -5    4.46    0.46
  -2  13   5    3.11    0.41
   2  13  -5    3.85    0.38
  -2  13   5    3.09    0.32
  -2  13   5    2.54    0.37
   1 -13  -5    0.77    0.13
   1 -13  -5    0.76    0.17
   1 -13  -5    0.86    0.18
  -1 -13   5    0.93    0.16
   1  13  -5    0.86    0.24
  -1  13   5    1.12    0.22
  -1  13   5    0.47    0.24
  -1  13   5    0.89    0.27
   1  13  -5    0.75    0.21
   0 -13  -5    4.77    0.34
   0 -13  -5    4.69    0.33
   0  13  -5    5.07    0.42
   0  13   5    5.46    0.61
   0  13   5    6.60    0.48
   0  13  -5    5.68    0.43
   0  13   5    4.51    0.52
  -1 -13  -5   15.97    0.60
  -1 -13  -5   16.24    0.64
  -1  13  -5   16.31    0.74
  -1  13  -5   16.59    0.73
   1  13   5   16.33    0.85
   1  13   5   15.55    0.94
   2 -13   5    0.59    0.21
  -2 -13  -5    0.40    0.15
   2  13   5    0.50    0.32
  -2  13  -5    0.49    0.20
  -2  13  -5    0.49    0.20
   3 -13   5    0.20    0.18
   3 -13   5    0.31    0.14
  -3 -13  -5    0.51    0.17
   3  13   5    0.17    0.30
  -3  13  -5    0.46    0.20
   4 -13   5   -0.10    0.15
   4 -13   5    0.10    0.13
  -4 -13  -5    0.04    0.14
  -4  13  -5   -0.33    0.17
   4  13   5   -0.20    0.26
   5 -13   5    0.44    0.26
   8  14  -5    6.96    0.73
   7 -14  -5    6.60    0.50
  -7 -14   5    6.75    0.40
   7  14  -5    6.26    0.67
  -7  14   5    5.51    0.51
  -6 -14   5    0.49    0.16
   6 -14  -5    0.43    0.18
  -6  14   5    0.44    0.22
   6  14  -5    0.76    0.32
   5 -14  -5   13.66    0.64
  -5 -14   5   14.38    0.57
   5 -14  -5   14.34    0.66
  -5  14   5   14.58    0.72
   5  14  -5   12.86    0.76
  -5  14   5   14.38    0.68
  -4 -14   5    0.02    0.09
   4 -14  -5    0.01    0.07
   4 -14  -5    0.08    0.12
   4  14  -5    0.03    0.18
  -4  14   5    0.20    0.17
  -4  14   5    0.03    0.18
   3 -14  -5    1.11    0.23
   3 -14  -5    1.36    0.16
  -3 -14   5    1.78    0.22
   3  14  -5    1.30    0.28
   3  14  -5    1.28    0.31
  -3  14   5    0.72    0.25
  -3  14   5    1.39    0.25
   2 -14  -5    1.07    0.22
   2 -14  -5    0.99    0.14
  -2 -14   5    0.82    0.16
  -2  14   5    0.49    0.17
  -2  14   5    0.73    0.20
  -2  14   5    0.74    0.26
   2  14  -5    0.72    0.25
   2  14  -5    0.71    0.22
  -2  14   5    0.83    0.25
   1 -14  -5   25.08    0.82
   1 -14  -5   23.49    0.82
  -1 -14   5   25.36    0.74
  -1  14   5   23.88    1.06
   1  14  -5   24.68    0.97
  -1  14   5   26.22    1.07
   1  14  -5   25.13    0.93
   0 -14  -5    0.22    0.14
   0 -14  -5    0.06    0.11
   0  14   5   -0.02    0.19
   0  14  -5    0.49    0.21
   0  14   5    0.17    0.20
   0  14  -5   -0.02    0.17
  -1 -14  -5    3.41    0.35
  -1 -14  -5    2.91    0.30
  -1  14  -5    2.89    0.38
   1  14   5    3.14    0.49
  -1  14  -5    3.20    0.39
   1  14   5    4.26    0.60
  -2 -14  -5    4.76    0.37
  -2  14  -5    4.54    0.48
   2  14   5    4.24    0.62
   2  14   5    5.29    0.62
  -2  14  -5    4.69    0.49
  -3 -14  -5   -0.15    0.12
   3 -14   5   -0.09    0.10
   3  14   5    0.28    0.34
  -3  14  -5    0.21    0.21
   4 -14   5    0.88    0.20
  -4 -14  -5    1.13    0.26
  -4  14  -5    1.35    0.31
   4  14   5    1.46    0.52
   7  15  -5    1.26    0.39
   6 -15  -5    4.55    0.46
  -6 -15   5    5.42    0.36
   6  15  -5    4.73    0.58
  -6  15   5    5.05    0.50
   5 -15  -5    3.19    0.38
  -5 -15   5    2.34    0.27
  -5  15   5    3.24    0.43
   5  15  -5    2.69    0.45
  -5  15   5    2.85    0.38
   4 -15  -5    0.21    0.15
  -4 -15   5    0.24    0.12
  -4  15   5    0.29    0.21
   4  15  -5   -0.01    0.19
  -4  15   5   -0.05    0.15
  -3 -15   5    2.70    0.27
   3 -15  -5    2.34    0.25
   3 -15  -5    2.98    0.34
  -3  15   5    2.90    0.43
  -3  15   5    3.46    0.38
   3  15  -5    3.32    0.40
   3  15  -5    3.35    0.45
   2 -15  -5   15.48    0.49
   2 -15  -5   16.13    0.67
  -2 -15   5   15.11    0.56
   2  15  -5   15.19    0.78
  -2  15   5   15.73    0.66
  -2  15   5   13.70    0.79
  -2  15   5   14.80    0.79
   2  15  -5   15.72    0.73
   1 -15  -5    0.26    0.14
   1 -15  -5    0.78    0.18
   1  15  -5    0.41    0.23
  -1  15   5    0.37    0.24
  -1  15   5    0.81    0.27
   1  15  -5    0.56    0.22
   0 -15  -5    0.10    0.13
   0 -15  -5    0.08    0.11
   0  15   5   -0.08    0.20
   0  15   5    0.29    0.24
   0  15  -5    0.49    0.21
   0  15  -5    0.37    0.21
  -1 -15  -5    0.02    0.14
  -1 -15  -5   -0.11    0.10
   1  15   5    0.24    0.25
  -1  15  -5    0.16    0.20
  -1  15  -5    0.13    0.16
   1  15   5   -0.11    0.26
  -2 -15  -5   -0.06    0.10
   2 -15   5    0.10    0.12
   2  15   5    0.33    0.29
   2  15   5   -0.07    0.26
  -2  15  -5    0.05    0.20
  -2  15  -5   -0.11    0.15
   3 -15   5    1.11    0.22
  -3 -15  -5    0.72    0.21
  -3  15  -5    1.67    0.34
   3  15   5    1.00    0.35
   3  15   5    0.87    0.39
   4 -15   5    1.57    0.26
  -6 -16   5    5.54    0.38
   6 -16  -5    5.27    0.51
   6  16  -5    6.06    0.66
  -6  16   5    5.25    0.66
  -5 -16   5    0.23    0.13
   5 -16  -5    0.07    0.15
  -5  16   5    0.08    0.19
   5  16  -5    0.57    0.27
  -5  16   5   -0.02    0.18
   4 -16  -5    3.64    0.41
  -4 -16   5    3.68    0.30
  -4  16   5    3.65    0.49
   4  16  -5    5.06    0.59
  -4  16   5    4.00    0.44
  -3 -16   5   22.27    0.74
   3 -16  -5   22.47    0.85
  -3  16   5   19.25    0.95
  -3  16   5   22.31    0.85
   3  16  -5   24.54    1.05
   3  16  -5   22.31    0.92
   2 -16  -5    5.70    0.41
  -2 -16   5    6.85    0.37
   2  16  -5    6.82    0.55
   2  16  -5    5.89    0.54
  -2  16   5    6.69    0.45
  -2  16   5    5.99    0.61
   1 -16  -5    0.31    0.15
   1  16  -5   -0.06    0.18
   1  16  -5    0.38    0.22
  -1  16   5    0.12    0.23
  -1  16   5    0.26    0.21
   0 -16  -5    0.94    0.21
   0 -16  -5    1.04    0.22
   0  16  -5    0.77    0.26
   0  16   5    0.45    0.29
   0  16  -5    0.58    0.26
   0  16   5    1.21    0.39
  -1 -16  -5    1.77    0.26
  -1 -16  -5    1.74    0.28
   1  16   5    1.25    0.40
   1  16   5    1.19    0.35
  -1  16  -5    1.75    0.34
  -1  16  -5    1.42    0.33
   2 -16   5    1.57    0.24
  -2 -16  -5    1.01    0.23
  -2  16  -5    1.48    0.32
  -2  16  -5    1.61    0.34
   2  16   5    1.50    0.44
   2  16   5    1.28    0.38
   3 -16   5    5.37    0.39
  -3  16  -5    5.57    0.59
   3  16   5    5.66    0.81
   3  16   5    5.52    0.77
   4 -16   5    6.35    0.48
  -5 -17   5    0.11    0.13
   5 -17  -5    0.13    0.17
  -5  17   5    0.14    0.21
  -5  17   5   -0.20    0.18
   5  17  -5   -0.15    0.21
   4 -17  -5    6.59    0.47
  -4 -17   5    6.55    0.39
  -4  17   5    5.32    0.58
  -4  17   5    5.07    0.50
   4  17  -5    4.60    0.59
  -3 -17   5   -0.09    0.09
   3 -17  -5   -0.11    0.13
   3  17  -5    0.00    0.20
  -3  17   5   -0.02    0.20
  -3  17   5    0.03    0.16
   3  17  -5    0.05    0.22
   2 -17  -5    0.33    0.17
   2  17  -5    0.24    0.23
  -2  17   5    0.32    0.26
   2  17  -5    0.26    0.24
   1 -17  -5    0.26    0.14
   1  17  -5    0.20    0.23
  -1  17   5    0.18    0.26
   1  17  -5    0.59    0.26
  -1  17   5    0.05    0.27
   0 -17  -5    5.21    0.40
   0 -17  -5    6.22    0.42
   0  17   5    4.23    0.61
   0  17  -5    4.88    0.52
   0  17  -5    4.81    0.52
   0  17   5    4.23    0.58
  -1 -17  -5    1.94    0.28
  -1 -17  -5    1.57    0.28
   1 -17   5    1.71    0.26
  -1  17  -5    2.10    0.40
   1  17   5    1.57    0.40
  -1  17  -5    1.57    0.33
   1  17   5    1.62    0.44
  -2 -17  -5    0.04    0.15
   2 -17   5    0.13    0.16
  -2  17  -5    0.44    0.24
  -2  17  -5    0.33    0.28
   2  17   5    0.02    0.29
   2  17   5    0.03    0.28
  -5  18   5    0.12    0.23
  -4 -18   5    2.06    0.27
   4 -18  -5    2.21    0.34
   4  18  -5    2.12    0.45
  -4  18   5    1.72    0.33
  -4  18   5    2.75    0.46
   3 -18  -5    2.88    0.37
  -3  18   5    3.06    0.40
   3  18  -5    3.52    0.50
  -3  18   5    3.01    0.49
   2 -18  -5    3.76    0.41
  -2  18   5    3.51    0.54
   2  18  -5    3.56    0.48
   2  18  -5    3.15    0.47
   1 -18  -5    0.28    0.17
  -1  18   5   -0.04    0.26
   1  18  -5    0.45    0.24
  -1  18   5    0.70    0.35
   1  18  -5    0.48    0.27
   0 -18  -5    3.66    0.39
   0 -18  -5    4.21    0.41
   0 -18   5    3.86    0.38
   0  18   5    4.02    0.59
   0  18   5    3.49    0.56
   0  18  -5    3.68    0.47
   0  18  -5    4.31    0.51
  -1 -18  -5    2.15    0.33
   1 -18   5    2.45    0.33
   1  18   5    1.82    0.41
  -1  18  -5    2.97    0.44
   1  18   5    2.06    0.50
  -1  18  -5    2.05    0.41
  -2  18  -5    2.76    0.48
  -2  18  -5    3.35    0.45
  -5  19   5    2.27    0.49
  -4  19   5    0.71    0.34
  -3  19   5   -0.36    0.24
  -3  19   5    0.22    0.22
   2 -19  -5    3.51    0.41
   2  19  -5    2.88    0.46
  -2  19   5    3.21    0.56
   2  19  -5    4.01    0.63
   1 -19  -5    2.24    0.33
  -1 -19   5    2.74    0.48
  -1  19   5    1.65    0.44
   1  19  -5    1.99    0.39
   1  19  -5    2.61    0.44
   0 -19  -5    0.13    0.16
   0  19  -5   -0.05    0.22
   0  19   5    0.14    0.28
   0  19  -5   -0.03    0.25
   0  19   5    0.20    0.32
  -1  19  -5    2.41    0.46
   1  19   5    3.50    0.61
   2  20  -5    3.23    0.51
   1  20  -5    6.22    0.65
   0 -20  -5   17.39    0.77
   0  20   5   18.45    1.14
   0  20  -5   16.12    1.01
 -10   0   6    9.06    0.73
   9   0  -6    1.84    0.29
  -9   0   6    1.52    0.25
   8   0  -6   18.40    0.72
  -8   0   6   18.27    0.68
   7   0  -6    2.44    0.27
  -7   0   6    2.59    0.29
  -6   0   6    5.24    0.33
   6   0  -6    4.92    0.31
  -5   0   6   36.96    0.98
   5   0  -6   37.22    0.96
  -4   0   6    4.07    0.27
   4   0  -6    5.23    0.27
  -3   0   6   33.48    0.85
   3   0  -6   33.19    0.82
   2   0  -6   15.90    0.48
  -2   0   6   16.99    0.68
  -2   0   6   15.59    0.48
  -2   0   6   17.23    0.45
  -2   0   6   16.91    0.57
   1   0  -6   14.02    0.36
   1   0  -6   13.57    0.43
  -1   0   6   14.46    0.68
  -1   0   6   14.37    0.42
   0   0   6   28.85    0.65
   0   0  -6   27.51    0.65
   0   0   6   29.03    1.07
   0   0  -6   27.63    0.72
  -1   0  -6   28.01    0.69
   1   0   6   27.68    0.59
   1   0   6   26.25    1.09
   2   0   6    5.52    0.60
  -2   0  -6    4.90    0.27
  -3   0  -6   20.24    0.64
   3   0   6   20.75    1.01
  -4   0  -6   19.54    0.66
   4   0   6   18.54    0.97
  -5   0  -6    0.08    0.12
   5   0   6    0.00    0.21
  -6   0  -6    6.90    0.45
   9  -1  -6    0.22    0.15
  -9  -1   6    0.01    0.13
   9   1  -6    0.04    0.14
  -9   1   6   -0.16    0.13
  -8  -1   6    5.89    0.38
   8  -1  -6    4.83    0.37
   8   1  -6    5.73    0.38
  -8   1   6    5.36    0.38
  -7  -1   6    2.94    0.30
   7  -1  -6    2.50    0.27
  -7   1   6    2.63    0.29
   7   1  -6    2.69    0.28
  -6  -1   6    2.82    0.28
   6  -1  -6    2.98    0.24
   6   1  -6    2.71    0.26
  -6   1   6    2.97    0.29
  -5  -1   6    9.42    0.42
   5  -1  -6    9.91    0.41
   5   1  -6   10.14    0.39
   5   1  -6   11.00    0.43
  -5   1   6    9.87    0.44
  -4  -1   6  103.44    2.15
   4  -1  -6  104.14    2.13
  -4   1   6  103.99    2.17
   4   1  -6  102.19    2.12
  -3  -1   6    5.69    0.28
   3  -1  -6    5.08    0.25
   3   1  -6    5.52    0.26
  -3   1   6    5.43    0.28
  -2  -1   6    0.90    0.21
  -2  -1   6    1.19    0.14
   2  -1  -6    0.85    0.11
   2   1  -6    1.29    0.14
  -2   1   6    1.06    0.14
  -1  -1   6   24.64    0.61
   1  -1  -6   23.71    0.63
  -1  -1   6   23.35    0.89
   1  -1  -6   24.74    0.57
  -1   1   6   24.23    0.61
   1   1  -6   24.29    0.52
   1   1  -6   23.71    0.62
  -1   1   6   23.67    0.90
   0  -1   6   18.26    0.46
   0  -1  -6   17.74    0.53
   0  -1   6   18.65    0.84
   0  -1  -6   17.97    0.48
   0   1  -6   17.23    0.51
   0   1  -6   17.77    0.45
   0   1   6   19.40    0.47
   0   1   6   17.74    0.82
   1  -1   6    0.47    0.07
   1  -1   6    0.44    0.21
  -1  -1  -6    0.53    0.11
  -1   1  -6    0.30    0.08
   1   1   6    0.20    0.18
   1   1   6    0.41    0.07
  -2  -1  -6   17.78    0.56
   2  -1   6   17.54    0.91
  -2   1  -6   18.47    0.54
   2   1   6   16.84    0.88
   3  -1   6    4.35    0.56
  -3  -1  -6    2.41    0.25
  -3   1  -6    2.86    0.22
   3   1   6    2.83    0.46
  -4  -1  -6    2.68    0.28
   4  -1   6    2.37    0.43
   4   1   6    2.09    0.39
  -4   1  -6    2.51    0.26
   5  -1   6    0.87    0.31
  -5  -1  -6    0.89    0.20
   5   1   6    1.35    0.35
  -5   1  -6    0.86    0.19
  -6  -1  -6   12.22    0.60
  -6   1  -6   11.68    0.58
   9  -2  -6    0.00    0.15
  -9  -2   6   -0.12    0.12
   9   2  -6   -0.09    0.13
  -9   2   6    0.00    0.15
   8  -2  -6    2.89    0.31
  -8  -2   6    3.26    0.32
  -8   2   6    3.11    0.34
   8   2  -6    4.24    0.40
   7  -2  -6   12.20    0.53
  -7  -2   6   12.63    0.53
  -7   2   6   11.62    0.53
   7   2  -6   12.70    0.54
  -6  -2   6    0.18    0.11
   6  -2  -6    0.02    0.10
   6   2  -6    0.31    0.12
  -6   2   6   -0.05    0.11
  -5  -2   6   16.17    0.56
   5  -2  -6   15.49    0.54
  -5   2   6   17.37    0.59
   5   2  -6   17.46    0.55
   5   2  -6   16.49    0.55
   4  -2  -6   51.23    1.19
  -4  -2   6   51.03    1.20
  -4   2   6   50.87    1.22
   4   2  -6   53.35    1.19
   4   2  -6   51.15    1.23
  -3  -2   6    0.25    0.09
   3  -2  -6    0.42    0.10
  -3   2   6    0.29    0.10
  -3   2   6    0.41    0.06
   3   2  -6    0.29    0.08
   2  -2  -6   35.00    0.84
  -2  -2   6   34.35    1.07
  -2  -2   6   35.07    0.84
   2   2  -6   35.98    0.83
  -2   2   6   34.51    0.85
  -1  -2   6   16.15    0.45
   1  -2  -6   15.84    0.43
  -1  -2   6   15.33    0.71
   1  -2  -6   16.49    0.49
  -1   2   6   16.27    0.72
   1   2  -6   15.80    0.35
   1   2  -6   16.48    0.47
  -1   2   6   16.02    0.47
   0  -2  -6   18.37    0.50
   0  -2  -6   17.51    0.53
   0  -2   6   18.05    0.83
   0  -2   6   18.03    0.46
   0   2   6   19.03    0.84
   0   2  -6   18.33    0.52
   0   2   6   17.61    0.47
   0   2  -6   18.50    0.44
   1  -2   6    3.88    0.49
   1  -2   6    3.49    0.15
  -1  -2  -6    3.87    0.23
  -1   2  -6    3.32    0.19
   1   2   6    4.22    0.49
  -1   2  -6    3.28    0.26
   2  -2   6    0.58    0.26
  -2  -2  -6    0.71    0.14
   2   2   6    0.78    0.25
  -2   2  -6    0.85    0.13
   3  -2   6   18.21    0.95
  -3  -2  -6   19.26    0.64
   3   2   6   19.65    0.98
  -3   2  -6   19.59    0.61
  -4  -2  -6    0.21    0.14
   4  -2   6    0.17    0.21
   4   2   6    0.27    0.23
  -4   2  -6    0.37    0.13
   5  -2   6    0.26    0.24
  -5  -2  -6    0.36    0.15
   5   2   6    0.08    0.23
  -5   2  -6   -0.03    0.13
  -6  -2  -6    0.85    0.22
  -6   2  -6    0.82    0.22
  -9  -3   6    1.47    0.24
   9  -3  -6    1.34    0.25
   9   3  -6    2.15    0.32
  -9   3   6    1.37    0.26
  -8  -3   6    0.65    0.18
   8  -3  -6    0.70    0.18
   8   3  -6    0.56    0.18
  -8   3   6    0.64    0.18
   7  -3  -6    3.60    0.28
  -7  -3   6    3.94    0.30
  -7   3   6    3.22    0.32
   7   3  -6    2.69    0.29
   6  -3  -6   11.97    0.49
  -6  -3   6   12.62    0.50
   6   3  -6   10.93    0.45
  -6   3   6   14.07    0.54
   6   3  -6   12.53    0.50
  -5  -3   6   34.91    0.91
   5  -3  -6   32.54    0.88
  -5   3   6   34.42    0.94
   5   3  -6   33.50    0.91
   5   3  -6   34.13    0.90
   4  -3  -6    3.35    0.22
  -4  -3   6    3.20    0.23
   4   3  -6    3.42    0.26
  -4   3   6    3.97    0.27
   4   3  -6    4.00    0.23
  -3  -3   6   16.86    0.51
   3  -3  -6   15.63    0.49
   3   3  -6   16.36    0.58
  -3   3   6   16.71    0.54
  -3   3   6   14.97    0.42
   3   3  -6   16.52    0.49
  -2  -3   6   14.93    0.46
   2  -3  -6   14.23    0.45
  -2  -3   6   13.40    0.62
   2   3  -6   15.11    0.44
  -2   3   6   15.72    0.49
  -1  -3   6   16.31    0.73
   1  -3  -6   17.53    0.47
  -1  -3   6   17.51    0.48
   1  -3  -6   16.56    0.50
  -1   3   6   16.47    0.74
   1   3  -6   17.41    0.50
   1   3  -6   16.66    0.48
  -1   3   6   16.76    0.49
   0  -3  -6    0.66    0.11
   0  -3   6    0.68    0.23
   0   3   6    0.53    0.19
  -1  -3  -6    4.27    0.24
   1  -3   6    4.11    0.48
   1  -3   6    3.78    0.16
  -1   3  -6    3.78    0.28
   1   3   6    3.87    0.49
  -1   3  -6    3.66    0.19
   2  -3   6   43.00    1.52
  -2  -3  -6   44.81    1.09
   2   3   6   45.71    1.55
  -2   3  -6   44.65    1.22
  -2   3  -6   43.61    1.02
   3  -3   6    2.32    0.42
  -3  -3  -6    2.13    0.24
  -3   3  -6    2.12    0.30
   3   3   6    1.86    0.37
  -3   3  -6    2.00    0.21
  -4  -3  -6    8.51    0.44
   4  -3   6    8.41    0.77
   4   3   6    9.17    0.69
  -4   3  -6    7.30    0.38
   5  -3   6    0.98    0.34
  -5  -3  -6    0.58    0.19
  -5   3  -6    0.95    0.19
   5   3   6    0.55    0.26
  -6  -3  -6    0.55    0.20
  -6   3  -6    0.40    0.18
  -9  -4   6    0.96    0.21
   9  -4  -6    0.32    0.17
   9   4  -6    0.88    0.22
  -9   4   6    0.36    0.20
  -8  -4   6    8.06    0.43
   8  -4  -6    8.48    0.46
  -8   4   6    7.90    0.47
   8   4  -6    7.65    0.46
   7  -4  -6    4.15    0.30
  -7  -4   6    3.63    0.29
  -7   4   6    3.83    0.35
   7   4  -6    4.09    0.32
   6  -4  -6    7.92    0.39
  -6  -4   6    8.47    0.40
  -6   4   6    8.48    0.44
   6   4  -6    9.08    0.42
   6   4  -6    8.68    0.41
   5  -4  -6   10.19    0.41
  -5  -4   6   11.26    0.44
   5   4  -6   10.38    0.45
   5   4  -6    9.73    0.41
  -5   4   6   11.09    0.48
   4  -4  -6    5.05    0.27
  -4  -4   6    5.16    0.29
   4   4  -6    5.55    0.33
  -4   4   6    5.46    0.32
   4   4  -6    5.00    0.26
   3  -4  -6    0.94    0.13
  -3  -4   6    0.68    0.12
  -3   4   6    0.75    0.12
   3   4  -6    0.82    0.12
   3   4  -6    0.96    0.17
  -3   4   6    1.13    0.17
   2  -4  -6   10.51    0.37
  -2  -4   6   10.08    0.54
  -2  -4   6   10.19    0.36
   2   4  -6    9.98    0.47
  -2   4   6    9.91    0.41
   2   4  -6    9.79    0.31
   2   4  -6    9.85    0.34
  -2   4   6   10.54    0.39
  -1  -4   6    3.52    0.41
   1  -4  -6    3.21    0.20
   1  -4  -6    3.53    0.20
  -1  -4   6    3.55    0.20
  -1   4   6    3.47    0.21
   1   4  -6    3.71    0.20
   1   4  -6    3.28    0.21
  -1   4   6    3.41    0.38
   0  -4   6   60.96    1.76
   0  -4  -6   59.30    1.32
   0  -4  -6   61.78    1.35
   0  -4   6   61.32    1.26
   0   4   6   60.67    1.75
   0   4  -6   61.04    1.20
   0   4  -6   62.50    1.40
   0   4  -6   62.59    1.31
   0   4   6   61.29    1.28
   1  -4   6    2.15    0.13
  -1  -4  -6    2.24    0.21
   1  -4   6    1.61    0.34
   1   4   6    2.11    0.37
  -1   4  -6    2.04    0.24
  -1   4  -6    2.05    0.15
  -2  -4  -6   29.64    0.82
   2  -4   6   30.77    1.22
  -2   4  -6   28.96    0.92
  -2   4  -6   29.88    0.74
   2   4   6   29.43    1.20
   3  -4   6    0.27    0.20
  -3  -4  -6    0.24    0.11
  -3   4  -6    0.06    0.13
   3   4   6    0.37    0.21
  -3   4  -6    0.16    0.10
   4  -4   6    1.81    0.39
  -4  -4  -6    0.60    0.17
  -4   4  -6    1.38    0.28
   4   4   6    0.90    0.30
  -4   4  -6    0.87    0.17
   5  -4   6    5.37    0.65
  -5  -4  -6    3.79    0.37
  -5   4  -6    3.74    0.34
   5   4   6    4.27    0.58
  -6  -4  -6    2.79    0.35
  -6   4  -6    2.73    0.31
   9  -5  -6   15.05    0.66
  -9  -5   6   14.98    0.62
   9   5  -6   15.18    0.70
  -9   5   6   15.24    0.69
   8  -5  -6    1.31    0.22
  -8  -5   6    1.16    0.22
   8   5  -6    1.24    0.23
  -8   5   6    1.27    0.23
   7  -5  -6   20.24    0.69
  -7  -5   6   19.79    0.68
   7   5  -6   17.95    0.68
  -7   5   6   20.10    0.73
   6  -5  -6    0.10    0.10
  -6  -5   6    0.07    0.10
  -6   5   6    0.24    0.15
   6   5  -6    0.02    0.10
   6   5  -6    0.07    0.09
   5  -5  -6    0.06    0.09
  -5  -5   6    0.17    0.11
   5   5  -6    0.17    0.10
  -5   5   6    0.04    0.11
   5   5  -6    0.26    0.13
  -4  -5   6   19.86    0.62
   4  -5  -6   20.95    0.61
   4   5  -6   20.42    0.59
  -4   5   6   20.33    0.66
   4   5  -6   19.86    0.69
  -3  -5   6    7.87    0.33
   3  -5  -6    8.19    0.33
  -3   5   6    7.80    0.34
  -3   5   6    7.66    0.37
   3   5  -6    8.12    0.41
   3   5  -6    7.46    0.30
  -2  -5   6   22.48    0.84
   2  -5  -6   22.23    0.61
  -2  -5   6   21.92    0.61
   2   5  -6   23.65    0.57
   2   5  -6   22.78    0.58
  -2   5   6   22.51    0.65
   2   5  -6   21.41    0.75
  -2   5   6   22.85    0.70
   1  -5  -6   39.22    0.95
   1  -5  -6   40.68    0.94
  -1  -5   6   39.65    0.91
  -1  -5   6   38.26    1.25
   1   5  -6   41.85    0.91
  -1   5   6   39.68    0.95
   1   5  -6   39.81    0.95
  -1   5   6   39.74    1.25
   0  -5  -6   11.87    0.42
   0  -5  -6   12.33    0.43
   0  -5   6   11.71    0.67
   0  -5   6   11.93    0.37
   0   5   6   11.85    0.38
   0   5  -6   11.90    0.38
   0   5   6   12.18    0.67
   0   5  -6   11.59    0.46
  -1  -5  -6    6.35    0.32
   1  -5   6    6.98    0.24
   1  -5   6    7.65    0.57
  -1   5  -6    6.36    0.25
  -1   5  -6    6.68    0.37
   1   5   6    6.87    0.64
   2  -5   6    1.11    0.31
  -2  -5  -6    1.76    0.21
  -2   5  -6    1.58    0.16
   2   5   6    1.18    0.32
  -2   5  -6    1.32    0.23
  -3  -5  -6    4.21    0.30
   3  -5   6    5.97    0.63
   3   5   6    5.10    0.58
  -3   5  -6    4.88    0.39
  -3   5  -6    4.49    0.27
  -4  -5  -6    0.04    0.11
   4  -5   6    0.16    0.19
  -4   5  -6    0.11    0.15
   4   5   6    0.10    0.21
  -4   5  -6    0.25    0.12
  -5  -5  -6    3.67    0.37
   5  -5   6    3.21    0.52
  -5   5  -6    4.48    0.33
   5   5   6    4.59    0.60
  -5   5  -6    3.75    0.47
  -9  -6   6    6.76    0.43
   9  -6  -6    6.78    0.44
  -9   6   6    6.00    0.47
   9   6  -6    5.87    0.45
   8  -6  -6    1.34    0.23
  -8  -6   6    1.23    0.22
   8   6  -6    0.60    0.18
  -8   6   6    1.29    0.25
   7  -6  -6    0.76    0.17
  -7  -6   6    0.36    0.14
  -7   6   6    0.49    0.19
   7   6  -6    0.45    0.15
  -6  -6   6   35.67    0.95
   6  -6  -6   33.56    0.93
  -6   6   6   35.21    1.02
   6   6  -6   32.85    1.01
   6   6  -6   33.97    0.95
  -5  -6   6    0.10    0.09
   5  -6  -6   -0.02    0.07
   5   6  -6    0.01    0.08
   5   6  -6    0.10    0.12
  -5   6   6    0.05    0.12
  -4  -6   6    3.21    0.24
   4  -6  -6    3.50    0.22
   4   6  -6    3.31    0.33
  -4   6   6    3.84    0.29
   4   6  -6    3.32    0.22
   3  -6  -6    6.68    0.30
  -3  -6   6    6.47    0.30
   3   6  -6    6.25    0.38
  -3   6   6    6.39    0.34
  -3   6   6    6.68    0.34
   3   6  -6    5.78    0.26
  -2  -6   6   61.88    1.67
  -2  -6   6   65.03    1.39
   2  -6  -6   63.37    1.39
   2   6  -6   65.79    1.36
  -2   6   6   63.13    1.45
   2   6  -6   65.92    1.35
  -2   6   6   64.38    1.53
   2   6  -6   65.01    1.59
   1  -6  -6    0.58    0.12
  -1  -6   6    0.47    0.19
   1  -6  -6    0.70    0.13
  -1  -6   6    0.43    0.10
  -1   6   6    0.66    0.13
  -1   6   6    0.73    0.20
   1   6  -6    0.42    0.12
   1   6  -6    0.60    0.10
   1   6  -6    0.69    0.19
   0  -6   6   30.45    0.73
   0  -6   6   30.39    1.14
   0  -6  -6   29.44    0.80
   0  -6  -6   32.20    0.82
   0   6  -6   30.54    0.86
   0   6  -6   31.67    0.75
   0   6   6   31.89    1.15
   0   6   6   31.54    0.77
   1  -6   6   28.04    0.67
   1  -6   6   28.37    1.13
  -1  -6  -6   29.10    0.80
  -1   6  -6   28.02    0.86
   1   6   6   28.21    1.13
   2  -6   6    2.09    0.37
  -2  -6  -6    2.84    0.27
   2   6   6    2.75    0.43
  -2   6  -6    3.06    0.33
  -3  -6  -6    5.06    0.34
   3  -6   6    5.46    0.61
  -3   6  -6    5.09    0.40
   3   6   6    4.84    0.59
  -4  -6  -6    0.59    0.17
   4  -6   6    0.37    0.24
  -4   6  -6    0.54    0.22
   4   6   6    0.20    0.23
   5  -6   6    0.03    0.19
  -5  -6  -6    0.02    0.13
   5   6   6   -0.11    0.25
  -5   6  -6    0.18    0.21
   5   6   6    0.32    0.25
  -9  -7   6    0.25    0.16
   9  -7  -6    0.20    0.14
   9   7  -6    0.39    0.19
  -9   7   6    0.16    0.19
   8  -7  -6    2.17    0.27
  -8  -7   6    2.12    0.26
  -8   7   6    2.14    0.31
   8   7  -6    1.77    0.27
   7  -7  -6    0.13    0.12
  -7  -7   6    0.37    0.14
   7   7  -6    0.44    0.15
  -7   7   6    0.05    0.15
   6  -7  -6    7.47    0.37
  -6  -7   6    7.23    0.38
   6   7  -6    7.39    0.46
  -6   7   6    7.16    0.43
   6   7  -6    6.62    0.36
   5  -7  -6   43.37    1.08
   5  -7  -6   42.79    1.22
  -5  -7   6   43.82    1.10
  -5   7   6   43.79    1.18
   5   7  -6   44.09    1.08
   5   7  -6   44.34    1.24
   4  -7  -6    6.06    0.38
   4  -7  -6    6.46    0.30
   4   7  -6    6.16    0.29
  -4   7   6    6.39    0.37
  -4   7   6    5.90    0.35
   4   7  -6    6.13    0.39
  -3  -7   6    0.18    0.14
   3  -7  -6    0.19    0.09
  -3  -7   6    0.49    0.11
   3  -7  -6    0.41    0.14
  -3   7   6    0.35    0.14
   3   7  -6    0.22    0.08
  -3   7   6    0.21    0.13
   3   7  -6    0.51    0.16
   2  -7  -6   11.78    0.41
  -2  -7   6   13.28    0.62
  -2  -7   6   11.79    0.41
  -2   7   6   10.69    0.50
   2   7  -6   11.77    0.37
   2   7  -6   11.61    0.41
  -2   7   6   11.65    0.46
   2   7  -6   11.18    0.54
  -1  -7   6   90.47    2.30
   1  -7  -6   92.67    1.93
  -1  -7   6   91.13    1.89
   1  -7  -6   91.26    1.95
  -1   7   6   93.41    1.96
   1   7  -6   93.39    2.17
   1   7  -6   96.60    1.98
  -1   7   6   97.89    2.32
   1   7  -6   93.70    1.85
   0  -7   6    1.80    0.16
   0  -7  -6    2.21    0.21
   0  -7   6    1.65    0.32
   0  -7  -6    1.72    0.20
   0   7   6    2.12    0.20
   0   7   6    1.49    0.30
   0   7  -6    1.78    0.16
   0   7  -6    1.83    0.23
   1  -7   6  146.86    2.84
  -1  -7  -6  150.10    3.01
   1  -7   6  146.44    3.46
   1   7   6  149.38    3.50
  -1   7  -6  150.52    3.11
  -2  -7  -6   44.02    1.13
   2  -7   6   42.82    1.48
  -2   7  -6   42.42    1.22
   2   7   6   43.37    1.52
  -3  -7  -6   -0.01    0.10
   3  -7   6   -0.06    0.15
   3   7   6    0.43    0.25
  -3   7  -6    0.00    0.14
   4  -7   6    6.19    0.66
  -4  -7  -6    5.71    0.40
   4   7   6    5.98    0.66
  -4   7  -6    5.36    0.52
   4   7   6    6.51    0.68
  -5  -7  -6    2.15    0.30
   5  -7   6    2.67    0.47
  -5   7  -6    2.07    0.36
   5   7   6    2.93    0.54
   5   7   6    1.97    0.42
  -9  -8   6    0.12    0.13
   9  -8  -6    0.04    0.13
   9   8  -6   -0.02    0.15
   8  -8  -6    7.03    0.42
  -8  -8   6    8.69    0.45
  -8   8   6    8.41    0.52
   8   8  -6    7.78    0.47
   7  -8  -6   14.90    0.58
  -7  -8   6   15.49    0.59
   7   8  -6   14.55    0.60
   7   8  -6   14.93    0.69
  -7   8   6   16.61    0.69
  -6  -8   6    0.07    0.12
   6  -8  -6   -0.13    0.06
   6  -8  -6    0.19    0.14
   6   8  -6    0.11    0.14
  -6   8   6   -0.05    0.14
   6   8  -6    0.21    0.11
   5  -8  -6    0.57    0.17
   5  -8  -6    0.36    0.12
  -5  -8   6    0.59    0.15
  -5   8   6    0.41    0.16
   5   8  -6    0.57    0.20
   5   8  -6    0.59    0.13
   4  -8  -6    4.91    0.27
   4  -8  -6    4.98    0.35
  -4  -8   6    5.08    0.29
   4   8  -6    5.69    0.39
  -4   8   6    5.04    0.32
   4   8  -6    4.81    0.25
  -4   8   6    5.10    0.35
  -3  -8   6   13.79    0.48
   3  -8  -6   13.86    0.46
  -3  -8   6   13.49    0.61
   3  -8  -6   13.69    0.57
  -3   8   6   13.54    0.56
   3   8  -6   14.11    0.42
  -3   8   6   13.53    0.58
   3   8  -6   12.74    0.59
  -3   8   6   14.05    0.55
   2  -8  -6    1.31    0.22
   2  -8  -6    0.79    0.13
  -2  -8   6    1.09    0.15
  -2  -8   6    1.23    0.24
   2   8  -6    1.31    0.25
  -2   8   6    1.49    0.25
  -2   8   6    1.07    0.18
   2   8  -6    1.52    0.18
  -2   8   6    1.46    0.24
   2   8  -6    1.44    0.13
  -1  -8   6   11.56    0.64
   1  -8  -6   11.77    0.45
  -1  -8   6   11.43    0.40
   1  -8  -6   11.90    0.42
  -1   8   6   12.54    0.59
  -1   8   6   11.55    0.45
   1   8  -6   11.55    0.46
  -1   8   6   11.48    0.63
   1   8  -6   12.42    0.58
   1   8  -6   11.69    0.36
   0  -8  -6   30.74    0.84
   0  -8   6   30.37    0.75
   0  -8  -6   30.47    0.81
   0  -8   6   32.16    1.15
   0   8   6   30.26    0.80
   0   8  -6   30.31    1.01
   0   8   6   30.26    1.13
   0   8  -6   30.66    0.89
  -1  -8  -6    2.60    0.25
   1  -8   6    4.06    0.50
  -1   8  -6    2.91    0.32
   1   8   6    3.17    0.45
  -2  -8  -6   22.34    0.73
   2  -8   6   22.09    0.99
  -2   8  -6   20.24    0.78
   2   8   6   21.47    1.01
  -3  -8  -6    2.00    0.26
   3  -8   6    3.01    0.46
   3   8   6    1.84    0.38
  -3   8  -6    1.92    0.31
   3   8   6    2.58    0.45
   4  -8   6    0.83    0.30
  -4  -8  -6    1.07    0.22
   4   8   6    0.58    0.29
  -4   8  -6    0.78    0.24
   4   8   6    1.13    0.33
  -5  -8  -6    0.06    0.15
   5  -8   6   -0.11    0.23
   5   8   6   -0.33    0.19
   5   8   6    0.22    0.31
  -5   8  -6    0.50    0.22
   9  -9  -6    7.22    0.45
   9   9  -6    6.39    0.65
   8  -9  -6    0.23    0.14
  -8  -9   6    0.19    0.14
  -8   9   6    0.18    0.19
   8   9  -6    0.57    0.18
   7  -9  -6    0.47    0.14
  -7  -9   6    0.51    0.16
   7  -9  -6    0.73    0.22
   7   9  -6    0.81    0.24
  -7   9   6    0.46    0.21
   7   9  -6    0.85    0.19
   6  -9  -6   10.57    0.54
   6  -9  -6   10.30    0.44
  -6  -9   6   10.82    0.47
   6   9  -6   10.89    0.46
   6   9  -6    9.55    0.57
  -6   9   6    9.89    0.54
   5  -9  -6    8.08    0.37
   5  -9  -6    8.19    0.47
  -5  -9   6    9.10    0.41
   5   9  -6    7.89    0.51
   5   9  -6    8.79    0.37
  -5   9   6    8.65    0.48
   4  -9  -6    2.52    0.20
  -4  -9   6    2.41    0.23
   4  -9  -6    2.47    0.30
  -4   9   6    2.60    0.30
   4   9  -6    2.47    0.19
   4   9  -6    2.49    0.32
  -4   9   6    2.89    0.30
   3  -9  -6   76.10    1.63
   3  -9  -6   77.37    1.82
  -3  -9   6   77.39    1.66
  -3  -9   6   75.50    1.86
  -3   9   6   76.27    1.76
   3   9  -6   75.14    1.88
  -3   9   6   72.60    1.80
  -3   9   6   76.76    1.87
   3   9  -6   76.15    1.56
   2  -9  -6    0.73    0.18
   2  -9  -6    0.73    0.12
  -2  -9   6    0.75    0.13
  -2  -9   6    0.56    0.20
   2   9  -6    0.61    0.20
   2   9  -6    0.55    0.13
  -2   9   6    0.68    0.21
  -2   9   6    0.75    0.17
   2   9  -6    0.66    0.10
  -2   9   6    0.65    0.19
   1  -9  -6   12.94    0.45
  -1  -9   6   13.73    0.69
  -1  -9   6   12.73    0.44
   1  -9  -6   13.37    0.50
   1  -9  -6   13.34    0.55
   1   9  -6   13.37    0.62
  -1   9   6   13.28    0.68
  -1   9   6   14.02    0.51
   1   9  -6   13.92    0.39
  -1   9   6   13.17    0.64
  -1   9   6   13.46    0.67
   1   9  -6   13.33    0.52
   0  -9   6   17.31    0.52
   0  -9   6   15.89    0.79
   0  -9  -6   17.18    0.56
   0  -9  -6   17.32    0.60
   0   9  -6   17.32    0.73
   0   9   6   17.92    0.84
   0   9  -6   17.75    0.65
   0   9   6   17.31    0.80
   0   9   6   17.15    0.56
   1  -9   6    2.83    0.41
  -1  -9  -6    2.63    0.26
   1   9   6    2.53    0.40
  -1   9  -6    2.32    0.29
   1   9   6    2.99    0.43
   2  -9   6    2.94    0.43
  -2  -9  -6    3.25    0.31
  -2   9  -6    2.88    0.35
   2   9   6    3.47    0.49
   2   9   6    3.28    0.47
   3  -9   6    2.36    0.42
  -3  -9  -6    1.95    0.27
  -3   9  -6    1.87    0.31
   3   9   6    1.97    0.42
   3   9   6    1.92    0.39
   4  -9   6    3.09    0.47
  -4  -9  -6    1.99    0.28
  -4   9  -6    2.75    0.38
   4   9   6    2.89    0.56
   4   9   6    2.91    0.46
  -5  -9  -6    7.36    0.49
   5  -9   6    6.72    0.70
   5   9   6    8.38    0.78
  -5   9  -6    6.48    0.69
  -8 -10   6    2.10    0.26
   8 -10  -6    2.37    0.28
  -8  10   6    2.22    0.35
   8  10  -6    2.14    0.29
   7 -10  -6    0.23    0.12
   7 -10  -6    0.07    0.14
  -7 -10   6    0.18    0.11
  -7  10   6    0.01    0.16
   7  10  -6   -0.09    0.17
   7  10  -6   -0.18    0.10
  -6 -10   6    0.38    0.14
   6 -10  -6    0.32    0.12
   6 -10  -6    0.44    0.17
   6  10  -6    0.51    0.21
  -6  10   6    0.66    0.22
   6  10  -6    0.42    0.14
   5 -10  -6    0.33    0.11
  -5 -10   6    0.41    0.13
   5 -10  -6    0.13    0.13
   5  10  -6    0.46    0.20
  -5  10   6    0.35    0.17
   5  10  -6    0.49    0.12
  -4 -10   6    0.29    0.11
  -4 -10   6    0.48    0.16
   4 -10  -6    0.46    0.16
   4 -10  -6    0.31    0.10
  -4  10   6    0.36    0.15
   4  10  -6    0.49    0.21
   4  10  -6    0.33    0.10
  -4  10   6    0.39    0.17
   3 -10  -6    3.40    0.35
  -3 -10   6    2.70    0.33
  -3 -10   6    2.49    0.23
   3 -10  -6    2.85    0.20
  -3  10   6    2.22    0.33
   3  10  -6    2.92    0.18
  -3  10   6    2.32    0.28
  -3  10   6    2.95    0.34
   3  10  -6    2.79    0.35
  -2 -10   6    0.53    0.19
   2 -10  -6    0.72    0.18
   2 -10  -6    0.87    0.14
  -2 -10   6    0.84    0.14
  -2  10   6    0.77    0.17
   2  10  -6    0.98    0.23
  -2  10   6    1.05    0.24
   2  10  -6    0.77    0.10
  -2  10   6    0.72    0.20
  -2  10   6    1.06    0.26
   2  10  -6    1.02    0.18
   1 -10  -6    0.44    0.13
  -1 -10   6    0.76    0.13
   1 -10  -6    0.55    0.12
  -1 -10   6    0.34    0.18
   1 -10  -6    0.53    0.16
  -1  10   6    0.53    0.21
  -1  10   6    0.76    0.25
   1  10  -6    0.62    0.20
   1  10  -6    0.49    0.15
  -1  10   6    0.75    0.15
  -1  10   6    0.33    0.18
   0 -10  -6    3.32    0.29
   0 -10   6    3.23    0.22
   0 -10  -6    3.59    0.29
   0 -10   6    3.51    0.43
   0  10   6    3.31    0.40
   0  10  -6    3.85    0.32
   0  10   6    3.17    0.25
   0  10  -6    3.97    0.42
   0  10   6    3.22    0.43
   0  10   6    3.05    0.41
   1 -10   6    0.93    0.27
  -1 -10  -6    0.66    0.17
  -1  10  -6    1.03    0.23
   1  10   6    0.48    0.23
   1  10   6    0.95    0.28
  -2 -10  -6    2.41    0.28
   2 -10   6    2.23    0.38
   2  10   6    2.01    0.41
  -2  10  -6    3.12    0.37
   2  10   6    2.08    0.39
   3 -10   6    0.22    0.22
  -3 -10  -6    0.29    0.16
   3  10   6    0.91    0.28
   3  10   6    0.74    0.31
  -3  10  -6    0.21    0.19
  -4 -10  -6    5.72    0.43
   4 -10   6    4.94    0.58
   4  10   6    5.79    0.75
   4  10   6    4.93    0.59
  -4  10  -6    5.40    0.54
   5 -10   6    0.83    0.30
   5  10   6    0.97    0.48
  -8 -11   6    1.88    0.27
   8 -11  -6    1.92    0.33
   8 -11  -6    1.56    0.24
  -8  11   6    1.92    0.47
   8  11  -6    1.88    0.28
   7 -11  -6   -0.06    0.13
  -7 -11   6    0.05    0.11
   7 -11  -6    0.06    0.10
  -7  11   6   -0.02    0.19
   7  11  -6   -0.07    0.11
   7  11  -6   -0.05    0.20
   6 -11  -6    2.45    0.24
  -6 -11   6    2.39    0.26
   6 -11  -6    2.32    0.31
  -6  11   6    1.83    0.30
   6  11  -6    2.85    0.39
   6  11  -6    2.19    0.24
  -5 -11   6    0.67    0.16
   5 -11  -6    0.67    0.14
   5 -11  -6    1.00    0.21
   5  11  -6    0.44    0.12
   5  11  -6    0.59    0.21
  -5  11   6    0.57    0.20
  -4 -11   6    1.52    0.19
   4 -11  -6    1.61    0.25
   4 -11  -6    1.91    0.20
   4  11  -6    1.83    0.18
   4  11  -6    1.30    0.27
  -4  11   6    1.73    0.26
  -4  11   6    2.61    0.32
  -3 -11   6   39.49    1.03
   3 -11  -6   40.15    1.17
   3 -11  -6   40.85    0.99
  -3 -11   6   42.75    1.29
  -3  11   6   42.02    1.15
  -3  11   6   38.70    1.21
   3  11  -6   42.46    1.29
   2 -11  -6   13.39    0.47
  -2 -11   6   13.72    0.49
   2 -11  -6   14.23    0.60
  -2 -11   6   12.44    0.65
   2  11  -6   14.19    0.68
  -2  11   6   13.62    0.71
  -2  11   6   12.74    0.55
  -2  11   6   13.13    0.64
   2  11  -6   13.81    0.56
  -2  11   6   13.68    0.67
  -1 -11   6    9.30    0.38
   1 -11  -6    9.30    0.38
   1 -11  -6    9.74    0.48
   1 -11  -6    8.96    0.43
  -1 -11   6    8.63    0.55
   1  11  -6    8.49    0.53
   1  11  -6    9.03    0.46
  -1  11   6    9.39    0.59
  -1  11   6   10.43    0.61
  -1  11   6    8.88    0.43
  -1  11   6    8.50    0.61
   0 -11  -6   11.05    0.50
   0 -11   6   10.36    0.62
   0 -11   6    9.90    0.39
   0 -11  -6    9.32    0.45
   0  11   6    9.25    0.61
   0  11  -6   10.28    0.59
   0  11  -6   11.11    0.53
   0  11   6   10.84    0.70
   0  11   6   10.85    0.46
   0  11   6   10.73    0.64
  -1 -11  -6   15.02    0.59
   1 -11   6   13.96    0.74
  -1  11  -6   14.00    0.64
   1  11   6   14.00    0.79
   1  11   6   14.21    0.87
  -1  11  -6   14.05    0.69
  -2 -11  -6    0.46    0.16
   2 -11   6    0.33    0.20
   2  11   6    0.20    0.28
   2  11   6    0.30    0.21
  -2  11  -6    0.26    0.16
  -3 -11  -6    1.76    0.27
   3 -11   6    1.47    0.34
  -3  11  -6    1.35    0.29
   3  11   6    1.58    0.35
   3  11   6    1.73    0.44
  -4 -11  -6    6.36    0.45
   4 -11   6    5.41    0.61
  -4  11  -6    6.80    0.54
   4  11   6    4.07    0.64
   8 -12  -6    5.34    0.36
   8 -12  -6    6.45    0.50
  -7 -12   6    6.06    0.38
   7 -12  -6    5.89    0.46
   7 -12  -6    6.28    0.36
  -7  12   6    6.15    0.49
   7  12  -6    5.05    0.55
  -6 -12   6    1.34    0.21
   6 -12  -6    1.11    0.17
   6 -12  -6    1.30    0.25
  -6  12   6    1.21    0.25
   6  12  -6    1.10    0.27
   5 -12  -6    7.13    0.34
  -5 -12   6    6.81    0.38
   5 -12  -6    6.42    0.44
   5  12  -6    5.85    0.49
  -5  12   6    6.41    0.46
   4 -12  -6   15.50    0.67
  -4 -12   6   14.76    0.55
   4 -12  -6   15.98    0.52
   4  12  -6   16.16    0.78
  -4  12   6   15.81    0.67
  -4  12   6   14.77    0.68
  -3 -12   6    0.06    0.09
   3 -12  -6    0.01    0.11
   3 -12  -6    0.34    0.11
  -3  12   6    0.19    0.17
  -3  12   6    0.09    0.14
   3  12  -6    0.15    0.16
   2 -12  -6   28.11    0.78
  -2 -12   6   30.25    0.83
   2 -12  -6   29.08    0.94
   2  12  -6   29.78    0.92
  -2  12   6   28.62    1.05
  -2  12   6   31.60    1.15
   2  12  -6   29.79    1.06
  -2  12   6   30.11    0.92
  -2  12   6   27.19    1.01
  -1 -12   6    3.40    0.24
   1 -12  -6    3.35    0.33
   1 -12  -6    2.90    0.22
   1 -12  -6    3.20    0.31
  -1  12   6    2.95    0.40
   1  12  -6    3.08    0.39
  -1  12   6    3.12    0.31
   1  12  -6    3.23    0.34
  -1  12   6    3.61    0.46
  -1  12   6    3.68    0.43
   0 -12  -6    0.37    0.15
   0 -12  -6    0.26    0.14
   0 -12   6    0.29    0.19
   0  12  -6    0.38    0.18
   0  12   6    0.43    0.21
   0  12  -6    0.25    0.16
   0  12   6    0.38    0.14
   0  12   6    0.41    0.23
   0  12   6    0.59    0.24
  -1 -12  -6    8.65    0.45
  -1 -12  -6    8.75    0.46
   1 -12   6    8.40    0.57
   1  12   6    7.76    0.78
   1  12   6    8.49    0.62
   1  12   6    7.37    0.61
  -1  12  -6    8.22    0.54
  -1  12  -6    8.55    0.52
   2 -12   6    6.73    0.61
  -2 -12  -6    6.41    0.41
  -2  12  -6    6.60    0.49
   2  12   6    7.56    0.80
   2  12   6    6.74    0.63
  -3 -12  -6    0.52    0.17
   3 -12   6    0.55    0.24
   3  12   6    0.51    0.32
  -3  12  -6    0.61    0.23
  -4 -12  -6    4.42    0.45
   4 -12   6    4.61    0.56
  -4  12  -6    3.82    0.46
   7 -13  -6    7.23    0.44
  -7 -13   6    7.75    0.44
   7 -13  -6    6.90    0.51
   7  13  -6    5.89    0.61
  -7  13   6    6.64    0.52
   6 -13  -6    2.68    0.26
  -6 -13   6    2.82    0.30
   6 -13  -6    2.86    0.37
  -6  13   6    2.38    0.34
   6  13  -6    3.04    0.45
   5 -13  -6   11.12    0.44
  -5 -13   6   11.77    0.50
   5 -13  -6   11.28    0.60
   5  13  -6   10.59    0.66
  -5  13   6   11.43    0.61
  -4 -13   6   14.45    0.55
   4 -13  -6   13.99    0.49
   4 -13  -6   14.64    0.67
   4  13  -6   14.33    0.76
  -4  13   6   14.27    0.66
  -4  13   6   15.05    0.71
  -3 -13   6    5.32    0.32
   3 -13  -6    4.88    0.28
   3 -13  -6    4.83    0.44
  -3  13   6    4.11    0.39
  -3  13   6    5.17    0.50
   3  13  -6    4.97    0.51
   2 -13  -6    0.06    0.08
  -2 -13   6    0.03    0.08
   2 -13  -6   -0.06    0.11
  -2  13   6    0.02    0.22
  -2  13   6   -0.18    0.14
   2  13  -6   -0.06    0.15
  -2  13   6    0.00    0.13
   2  13  -6    0.08    0.15
  -2  13   6   -0.07    0.17
   1 -13  -6   -0.12    0.07
  -1 -13   6    0.04    0.08
   1 -13  -6   -0.05    0.10
   1 -13  -6    0.26    0.14
  -1  13   6   -0.37    0.15
   1  13  -6    0.18    0.18
  -1  13   6   -0.02    0.19
   1  13  -6   -0.17    0.14
  -1  13   6   -0.04    0.15
  -1  13   6    0.03    0.11
   0 -13  -6    0.61    0.16
   0 -13  -6    0.37    0.14
   0  13  -6    0.28    0.18
   0  13   6    0.63    0.26
   0  13   6    0.58    0.17
   0  13   6    0.64    0.26
   0  13   6    0.82    0.33
   0  13  -6    0.72    0.23
  -1 -13  -6   19.74    0.72
  -1 -13  -6   20.33    0.75
  -1  13  -6   20.17    0.83
   1  13   6   22.01    1.14
  -1  13  -6   20.41    0.88
   1  13   6   19.59    0.98
  -2 -13  -6    1.50    0.25
  -2  13  -6    1.89    0.33
   2  13   6    1.53    0.44
  -3 -13  -6    4.99    0.45
  -3  13  -6    4.39    0.48
   3  13   6    4.01    0.65
   7  14  -6   12.23    0.80
  -6 -14   6    7.67    0.43
   6 -14  -6    6.89    0.51
  -6  14   6    7.82    0.54
   6  14  -6    7.98    0.63
   5 -14  -6    3.07    0.39
  -5 -14   6    3.19    0.31
   5 -14  -6    3.10    0.23
  -5  14   6    2.26    0.34
   5  14  -6    3.00    0.45
   4 -14  -6    8.43    0.52
  -4 -14   6    8.16    0.42
   4 -14  -6    7.92    0.36
   4  14  -6    7.34    0.57
  -4  14   6    7.82    0.55
  -4  14   6    8.55    0.52
   3 -14  -6    1.29    0.17
   3 -14  -6    0.94    0.23
  -3 -14   6    1.42    0.21
  -3  14   6    1.23    0.31
   3  14  -6    1.23    0.30
  -3  14   6    1.30    0.26
  -2 -14   6    7.55    0.38
   2 -14  -6    7.37    0.47
   2 -14  -6    6.97    0.34
  -2  14   6    8.06    0.54
  -2  14   6    6.87    0.44
   2  14  -6    6.44    0.51
   2  14  -6    6.71    0.52
  -2  14   6    7.42    0.58
  -1 -14   6    5.84    0.33
   1 -14  -6    7.12    0.42
   1 -14  -6    5.91    0.41
   1  14  -6    5.63    0.55
  -1  14   6    7.14    0.66
   1  14  -6    6.14    0.45
  -1  14   6    5.74    0.64
  -1  14   6    5.55    0.39
   0 -14  -6    6.58    0.42
   0 -14  -6    6.24    0.41
   0  14   6    6.93    0.42
   0  14   6    7.23    0.77
   0  14  -6    6.38    0.48
   0  14   6    7.19    0.70
   0  14  -6    6.79    0.51
  -1 -14  -6   13.63    0.61
  -1 -14  -6   13.07    0.69
  -1  14  -6   13.39    0.68
  -1  14  -6   13.02    0.72
   1  14   6   12.59    0.89
   1  14   6   14.22    0.84
  -2 -14  -6    0.34    0.17
  -2  14  -6    0.53    0.23
   2  14   6    0.05    0.26
   2  14   6    0.51    0.34
  -3 -14  -6    8.37    0.52
   3 -14   6    8.22    0.47
  -3  14  -6    8.51    0.61
   3  14   6    8.76    1.09
   7  15  -6    0.19    0.32
   6 -15  -6    2.80    0.43
  -6 -15   6    2.54    0.46
  -6  15   6    2.90    0.61
   6  15  -6    3.22    0.49
   5 -15  -6    1.02    0.25
  -5 -15   6    1.02    0.21
  -5  15   6    0.63    0.24
   5  15  -6    0.64    0.30
  -4 -15   6   25.25    0.80
   4 -15  -6   22.88    0.91
  -4  15   6   24.87    0.93
  -4  15   6   22.86    1.06
   4  15  -6   25.84    1.09
   3 -15  -6    8.37    0.52
  -3 -15   6    8.14    0.42
   3 -15  -6    7.46    0.35
  -3  15   6    8.12    0.51
   3  15  -6    7.52    0.59
  -3  15   6    8.24    0.61
   2 -15  -6    6.59    0.33
   2 -15  -6    7.10    0.47
  -2 -15   6    7.11    0.38
  -2  15   6    6.38    0.63
  -2  15   6    6.77    0.45
   2  15  -6    6.55    0.53
   1 -15  -6   19.57    0.76
   1 -15  -6   19.39    0.74
   1  15  -6   18.29    0.79
  -1  15   6   16.75    0.71
  -1  15   6   16.94    0.91
  -1  15   6   19.23    1.01
   1  15  -6   19.91    0.90
   0 -15  -6    1.34    0.24
   0 -15  -6    1.28    0.25
   0  15   6    1.44    0.37
   0  15  -6    1.14    0.28
   0  15   6    2.59    0.51
   0  15   6    1.55    0.26
   0  15  -6    1.44    0.30
  -1 -15  -6    1.43    0.25
  -1  15  -6    0.83    0.27
   1  15   6    0.93    0.34
   1  15   6    1.25    0.42
  -1  15  -6    1.69    0.33
  -2 -15  -6    0.80    0.22
   2  15   6    0.43    0.34
   2  15   6    0.54    0.33
  -2  15  -6    0.60    0.26
   3 -15   6   10.52    0.54
  -3  15  -6    9.30    1.06
   5 -16  -6    6.28    0.51
  -5 -16   6    7.82    0.44
   5  16  -6    7.92    0.64
  -5  16   6    6.31    0.52
  -4 -16   6    2.03    0.27
   4 -16  -6    0.70    0.22
  -4  16   6    1.82    0.32
   4  16  -6    1.42    0.35
   3 -16  -6    0.96    0.24
  -3 -16   6    1.40    0.22
  -3  16   6    1.34    0.29
  -3  16   6    1.03    0.31
   3  16  -6    0.76    0.27
   2 -16  -6    7.10    0.48
  -2 -16   6    6.73    0.39
  -2  16   6    6.15    0.64
   2  16  -6    6.46    0.62
  -2  16   6    6.44    0.48
   1 -16  -6    6.53    0.46
  -1  16   6    4.29    0.56
  -1  16   6    5.31    0.42
  -1  16   6    5.70    0.66
   1  16  -6    6.19    0.49
   1  16  -6    5.70    0.58
   0 -16  -6    9.13    0.52
   0 -16  -6    9.17    0.52
   0  16   6    8.98    0.62
   0  16  -6    8.43    0.60
   0  16   6   10.02    0.82
   0  16  -6    8.00    0.57
   0  16   6    9.03    0.70
  -1 -16  -6   -0.06    0.13
  -1  16  -6    0.22    0.21
   1  16   6    0.04    0.30
   1  16   6   -0.08    0.31
  -1  16  -6   -0.03    0.17
   2 -16   6    3.12    0.35
  -2  16  -6    3.23    0.45
   2  16   6    5.33    0.85
   2  16   6    3.85    0.70
   4 -17  -6    1.45    0.35
  -4 -17   6    1.53    0.26
  -4  17   6    1.43    0.31
   4  17  -6    1.69    0.40
  -3 -17   6    0.19    0.13
   3 -17  -6    0.03    0.14
  -3  17   6    0.10    0.18
  -3  17   6    0.37    0.28
   3  17  -6    0.01    0.23
   2 -17  -6    0.76    0.23
  -2  17   6    0.97    0.33
  -2  17   6    0.92    0.25
   2  17  -6    1.12    0.32
   1 -17  -6    0.01    0.15
   1  17  -6    0.07    0.19
   1  17  -6    0.38    0.23
  -1  17   6   -0.05    0.27
  -1  17   6    0.26    0.18
   0 -17  -6    5.76    0.43
   0 -17  -6    5.38    0.42
   0  17   6    4.67    0.66
   0  17   6    5.71    0.69
   0  17  -6    5.19    0.56
   0  17  -6    5.75    0.57
   1  17   6    4.85    0.66
  -1  17  -6    3.69    0.54
   1  17   6    3.25    0.61
  -1  17  -6    2.70    0.40
  -3  18   6    0.98    0.27
  -3  18   6    1.39    0.37
   2 -18  -6    3.12    0.40
  -2  18   6    2.89    0.39
  -2  18   6    2.41    0.47
   1 -18  -6    1.79    0.32
  -1  18   6    1.38    0.28
  -1  18   6    1.20    0.40
   0 -18  -6    8.81    0.54
   0  18   6    7.84    0.84
   0  18   6    7.48    0.77
   0  18  -6    8.81    0.64
  -1  18  -6   -0.20    0.17
  -3  19   6    0.48    0.29
  -2  19   6    0.81    0.37
  -1  19   6    0.63    0.26
   0 -19  -6    1.98    0.46
   0  19  -6    1.64    0.38
   0  19   6    1.62    0.61
  -9   0   7    0.04    0.15
   9   0  -7   -0.02    0.12
  -8   0   7   -0.12    0.12
   8   0  -7   -0.16    0.11
  -7   0   7    0.07    0.12
   7   0  -7    0.03    0.11
   6   0  -7    0.09    0.09
  -6   0   7   -0.05    0.10
  -5   0   7   -0.10    0.08
   5   0  -7   -0.05    0.08
  -4   0   7    0.14    0.10
   4   0  -7    0.17    0.08
  -3   0   7   -0.04    0.08
   3   0  -7    0.06    0.07
  -2   0   7   -0.02    0.15
   2   0  -7    0.03    0.07
  -2   0   7   -0.05    0.07
  -1   0   7   -0.16    0.14
   1   0  -7    0.12    0.07
  -1   0   7   -0.03    0.07
   0   0   7    0.30    0.08
   0   0   7    0.27    0.22
   0   0  -7    0.18    0.07
   0   0  -7    0.16    0.09
  -1   0  -7   -0.03    0.07
   1   0   7   -0.07    0.20
  -2   0  -7   -0.06    0.07
   2   0   7    0.21    0.20
   3   0   7    0.01    0.22
  -3   0  -7    0.11    0.11
  -4   0  -7   -0.06    0.11
   4   0   7   -0.02    0.23
   9  -1  -7   11.09    0.58
  -9  -1   7   11.31    0.57
  -9   1   7   11.83    0.59
   9   1  -7   12.61    0.60
  -8  -1   7    0.57    0.19
   8  -1  -7    0.30    0.15
   8   1  -7    0.33    0.14
  -8   1   7    0.55    0.18
  -7  -1   7    0.19    0.13
   7  -1  -7   -0.03    0.10
   7   1  -7    0.15    0.10
  -7   1   7   -0.03    0.12
  -6  -1   7   14.48    0.56
   6  -1  -7   13.78    0.54
   6   1  -7   14.58    0.55
  -6   1   7   14.31    0.58
   5  -1  -7    0.12    0.09
  -5  -1   7    0.24    0.12
  -5   1   7    0.27    0.13
   5   1  -7    0.30    0.11
  -4  -1   7    8.26    0.38
   4  -1  -7    7.89    0.35
  -4   1   7    7.48    0.38
   4   1  -7    7.86    0.35
  -3  -1   7    2.31    0.22
   3  -1  -7    1.91    0.19
  -3   1   7    2.23    0.22
   3   1  -7    2.67    0.20
  -2  -1   7   30.51    0.78
  -2  -1   7   31.34    1.10
   2  -1  -7   30.60    0.79
  -2   1   7   30.03    0.78
  -2   1   7   28.36    1.05
   2   1  -7   30.72    0.78
  -1  -1   7   20.33    0.92
  -1  -1   7   21.11    0.56
   1  -1  -7   21.05    0.61
   1  -1  -7   20.81    0.52
  -1   1   7   20.68    0.57
  -1   1   7   20.64    0.92
   1   1  -7   20.58    0.60
   0  -1  -7    1.45    0.17
   0  -1  -7    1.49    0.15
   0  -1   7    1.99    0.39
   0  -1   7    1.77    0.14
   0   1  -7    1.32    0.16
   0   1   7    1.67    0.15
   0   1   7    0.94    0.27
  -1  -1  -7    3.48    0.22
   1  -1   7    2.53    0.42
   1   1   7    3.03    0.46
  -2  -1  -7   10.47    0.42
   2  -1   7   10.49    0.76
   2   1   7   12.21    0.81
  -3  -1  -7    6.33    0.36
   3  -1   7    5.99    0.69
   3   1   7    6.50    0.71
  -4  -1  -7    0.30    0.15
   4  -1   7    0.41    0.30
   4   1   7    0.65    0.30
  -5  -1  -7    9.26    0.51
  -9  -2   7    8.13    0.49
   9  -2  -7    8.73    0.49
  -9   2   7    7.72    0.49
   9   2  -7    8.00    0.50
   8  -2  -7    6.78    0.42
  -8  -2   7    7.14    0.43
  -8   2   7    7.47    0.46
   8   2  -7    6.82    0.43
   7  -2  -7   16.70    0.64
  -7  -2   7   16.84    0.64
  -7   2   7   16.25    0.66
   7   2  -7   17.81    0.66
   6  -2  -7    6.57    0.35
  -6  -2   7    5.18    0.34
  -6   2   7    6.32    0.39
   6   2  -7    6.15    0.35
  -5  -2   7   -0.12    0.08
   5  -2  -7    0.05    0.08
  -5   2   7    0.16    0.12
   5   2  -7    0.25    0.10
   4  -2  -7    1.84    0.20
  -4  -2   7    2.01    0.21
  -4   2   7    2.09    0.23
   4   2  -7    2.13    0.21
   3  -2  -7    0.41    0.10
  -3  -2   7    0.25    0.10
  -3   2   7    0.39    0.12
   3   2  -7    0.43    0.10
   2  -2  -7    0.25    0.09
  -2  -2   7    0.17    0.09
  -2  -2   7    0.04    0.14
  -2   2   7    0.08    0.09
   2   2  -7    0.21    0.08
  -2   2   7    0.17    0.16
  -1  -2   7   33.17    0.79
  -1  -2   7   32.24    1.20
   1  -2  -7   32.15    0.76
   1  -2  -7   32.17    0.84
  -1   2   7   33.08    0.80
   1   2  -7   33.24    0.82
  -1   2   7   32.53    1.20
   0  -2   7   68.16    1.40
   0  -2  -7   68.82    1.53
   0  -2  -7   70.67    1.46
   0  -2   7   66.16    2.00
   0   2   7   69.34    1.41
   0   2  -7   69.56    1.50
   0   2   7   68.49    2.01
  -1  -2  -7   47.42    1.11
   1  -2   7   49.84    1.68
   1   2   7   45.31    1.62
  -2  -2  -7    3.15    0.24
   2  -2   7    2.87    0.49
   2   2   7    2.65    0.49
   3  -2   7    3.76    0.55
  -3  -2  -7    2.86    0.28
   3   2   7    2.75    0.49
  -4  -2  -7    5.95    0.39
   4  -2   7    6.13    0.69
   4   2   7    6.16    0.70
  -5  -2  -7    0.54    0.20
  -9  -3   7    1.33    0.25
   9  -3  -7    1.40    0.25
   9   3  -7    0.80    0.21
  -9   3   7    1.03    0.24
  -8  -3   7    0.59    0.17
   8  -3  -7    0.72    0.19
  -8   3   7    1.13    0.25
   8   3  -7    1.11    0.22
   7  -3  -7    2.26    0.27
  -7  -3   7    1.84    0.25
   7   3  -7    2.20    0.27
  -7   3   7    1.90    0.28
  -6  -3   7   12.16    0.51
   6  -3  -7   11.77    0.48
   6   3  -7   11.45    0.48
  -6   3   7   10.95    0.51
   5  -3  -7    6.94    0.35
  -5  -3   7    6.83    0.37
   5   3  -7    6.84    0.37
   5   3  -7    7.07    0.35
  -5   3   7    6.99    0.39
   4  -3  -7    0.64    0.12
  -4  -3   7    1.19    0.17
  -4   3   7    0.85    0.17
   4   3  -7    0.80    0.14
   3  -3  -7    0.35    0.10
  -3  -3   7    0.34    0.18
  -3  -3   7    0.40    0.12
  -3   3   7    0.41    0.13
   3   3  -7    0.34    0.10
  -2  -3   7    0.12    0.16
  -2  -3   7   -0.09    0.06
   2  -3  -7    0.02    0.07
  -2   3   7   -0.10    0.08
  -2   3   7    0.16    0.14
   2   3  -7   -0.02    0.06
   1  -3  -7    8.68    0.36
  -1  -3   7    8.01    0.59
  -1  -3   7    8.63    0.32
   1  -3  -7    8.36    0.32
  -1   3   7    9.62    0.62
   1   3  -7    9.06    0.35
  -1   3   7    8.96    0.34
   0  -3  -7   -0.02    0.07
   0  -3   7    0.05    0.06
   0  -3  -7   -0.03    0.08
   0  -3   7    0.06    0.18
   0   3  -7    0.17    0.08
   0   3   7    0.02    0.06
   0   3   7    0.10    0.18
  -1  -3  -7    4.90    0.28
   1  -3   7    5.26    0.62
   1   3   7    4.29    0.54
  -2  -3  -7    5.35    0.32
   2  -3   7    6.37    0.69
   2   3   7    5.71    0.63
  -3  -3  -7    2.86    0.29
   3  -3   7    3.50    0.52
   3   3   7    3.01    0.50
  -4  -3  -7    1.00    0.20
   4  -3   7    0.72    0.31
   4   3   7    1.62    0.40
  -5  -3  -7    4.67    0.42
   9  -4  -7    2.12    0.34
  -9  -4   7    2.42    0.32
   9   4  -7    1.63    0.29
  -9   4   7    2.32    0.35
  -8  -4   7    0.10    0.13
   8  -4  -7   -0.09    0.08
  -8   4   7   -0.09    0.14
   8   4  -7    0.17    0.13
  -7  -4   7    5.20    0.36
   7  -4  -7    5.35    0.35
  -7   4   7    5.21    0.40
   7   4  -7    5.37    0.35
  -6  -4   7    3.48    0.29
   6  -4  -7    3.59    0.27
  -6   4   7    3.47    0.33
   6   4  -7    3.11    0.33
   6   4  -7    4.03    0.29
  -5  -4   7    3.72    0.28
   5  -4  -7    3.34    0.24
  -5   4   7    3.76    0.31
   5   4  -7    3.32    0.28
   5   4  -7    3.93    0.26
   4  -4  -7    2.24    0.22
  -4  -4   7    1.65    0.20
  -4   4   7    2.05    0.24
   4   4  -7    1.86    0.25
   4   4  -7    1.88    0.20
  -3  -4   7    0.04    0.13
   3  -4  -7    0.37    0.10
  -3  -4   7    0.33    0.11
   3   4  -7    0.32    0.10
  -3   4   7    0.16    0.10
   2  -4  -7    2.73    0.21
  -2  -4   7    2.95    0.21
  -2  -4   7    2.23    0.33
  -2   4   7    3.20    0.40
   2   4  -7    3.04    0.20
  -2   4   7    3.10    0.24
  -2   4   7    3.53    0.26
  -1  -4   7   19.55    0.54
   1  -4  -7   17.67    0.53
  -1  -4   7   18.98    0.89
   1  -4  -7   19.37    0.59
   1   4  -7   18.46    0.54
  -1   4   7   18.60    0.87
   1   4  -7   19.18    0.57
  -1   4   7   18.19    0.55
   0  -4  -7   25.41    0.69
   0  -4  -7   24.71    0.72
   0  -4   7   25.13    1.10
   0  -4   7   24.80    0.62
   0   4   7   24.71    0.69
   0   4  -7   25.97    0.69
   0   4   7   24.41    1.08
   0   4  -7   24.75    0.75
   1  -4   7   23.18    1.08
  -1  -4  -7   22.03    0.67
   1   4   7   24.55    1.12
  -1   4  -7   22.89    0.77
   2  -4   7   -0.09    0.16
  -2  -4  -7    0.23    0.11
   2   4   7    0.39    0.26
  -2   4  -7    0.17    0.16
   3  -4   7    0.12    0.24
  -3  -4  -7    0.07    0.11
   3   4   7    0.04    0.21
   4  -4   7    8.08    0.82
  -4  -4  -7    9.05    0.48
   4   4   7   10.01    0.78
  -5  -4  -7    0.00    0.14
  -9  -5   7    2.00    0.36
   9   5  -7    2.84    0.40
   8  -5  -7    0.27    0.14
  -8  -5   7    0.17    0.14
  -8   5   7    0.07    0.17
   8   5  -7    0.05    0.14
  -7  -5   7   16.10    0.62
   7  -5  -7   15.27    0.60
  -7   5   7   15.79    0.67
   7   5  -7   15.95    0.62
   6  -5  -7    1.78    0.22
  -6  -5   7    1.93    0.23
   6   5  -7    1.75    0.22
   6   5  -7    1.90    0.25
  -6   5   7    1.61    0.25
  -5  -5   7    4.92    0.31
   5  -5  -7    5.05    0.29
   5   5  -7    5.41    0.36
  -5   5   7    4.83    0.35
   5   5  -7    4.94    0.28
   4  -5  -7    4.12    0.26
  -4  -5   7    3.89    0.26
   4   5  -7    3.66    0.24
  -4   5   7    4.45    0.31
   4   5  -7    4.58    0.34
  -3  -5   7    0.61    0.13
   3  -5  -7    0.61    0.12
  -3  -5   7    0.59    0.20
   3   5  -7    0.80    0.19
   3   5  -7    0.71    0.12
  -3   5   7    0.60    0.15
  -2  -5   7    1.88    0.32
  -2  -5   7    1.81    0.19
   2  -5  -7    1.90    0.20
  -2   5   7    1.83    0.31
  -2   5   7    1.80    0.21
   2   5  -7    1.62    0.17
  -2   5   7    2.04    0.25
   1  -5  -7   43.21    1.01
  -1  -5   7   41.76    1.42
  -1  -5   7   43.27    0.98
   1  -5  -7   40.58    1.03
  -1   5   7   42.21    1.41
   1   5  -7   41.33    1.02
   1   5  -7   43.76    0.99
  -1   5   7   41.76    1.00
   0  -5  -7    3.80    0.25
   0  -5   7    4.05    0.21
   0  -5  -7    3.42    0.25
   0  -5   7    3.53    0.48
   0   5   7    3.57    0.49
   0   5  -7    3.56    0.27
   0   5   7    3.72    0.35
   0   5  -7    3.98    0.23
   1  -5   7   17.17    0.93
  -1  -5  -7   16.93    0.56
   1   5   7   14.84    0.88
  -1   5  -7   15.90    0.63
  -2  -5  -7    0.93    0.18
   2  -5   7    1.75    0.39
   2   5   7    0.39    0.27
  -2   5  -7    1.26    0.24
  -3  -5  -7    3.08    0.31
   3  -5   7    3.41    0.51
   3   5   7    3.20    0.53
  -3   5  -7    3.79    0.42
   4  -5   7    0.42    0.26
  -4  -5  -7    0.21    0.14
  -4   5  -7    0.40    0.23
   4   5   7    0.17    0.27
  -5  -5  -7    7.06    0.47
   8  -6  -7   20.96    0.76
  -8  -6   7   21.25    0.76
   8   6  -7   21.86    0.79
  -8   6   7   21.42    0.83
   7  -6  -7    2.33    0.27
  -7  -6   7    2.70    0.29
   7   6  -7    2.72    0.30
  -7   6   7    1.98    0.28
  -6  -6   7    0.81    0.17
   6  -6  -7    0.53    0.14
   6   6  -7    0.95    0.17
  -6   6   7    0.59    0.18
   6   6  -7    0.70    0.19
  -5  -6   7    0.46    0.14
   5  -6  -7    0.67    0.14
   5   6  -7    0.57    0.18
   5   6  -7    0.44    0.12
  -5   6   7    0.41    0.16
  -4  -6   7   -0.01    0.08
   4  -6  -7    0.22    0.10
   4   6  -7    0.25    0.14
  -4   6   7    0.36    0.15
   4   6  -7    0.02    0.07
  -3  -6   7    0.84    0.14
   3  -6  -7    0.51    0.12
  -3  -6   7    0.41    0.19
   3   6  -7    0.78    0.19
  -3   6   7    0.90    0.17
   3   6  -7    0.76    0.13
   2  -6  -7    0.95    0.14
  -2  -6   7    1.03    0.14
  -2  -6   7    0.89    0.24
   2   6  -7    1.10    0.14
  -2   6   7    1.39    0.22
  -2   6   7    1.48    0.19
  -2   6   7    0.85    0.24
   2   6  -7    1.27    0.23
  -1  -6   7    0.05    0.15
   1  -6  -7    0.07    0.09
  -1  -6   7    0.10    0.07
   1  -6  -7    0.13    0.09
   1   6  -7   -0.04    0.08
   1   6  -7    0.06    0.07
  -1   6   7    0.08    0.09
  -1   6   7    0.09    0.16
   0  -6   7    8.45    0.32
   0  -6  -7    8.38    0.38
   0  -6  -7    8.79    0.38
   0  -6   7    8.56    0.64
   0   6   7    8.11    0.63
   0   6  -7    8.70    0.34
   0   6  -7    8.35    0.41
   1  -6   7    3.22    0.48
  -1  -6  -7    3.05    0.27
  -1   6  -7    3.67    0.35
   1   6   7    2.42    0.43
  -2  -6  -7    4.34    0.31
   2  -6   7    3.40    0.52
  -2   6  -7    4.42    0.41
   2   6   7    3.64    0.54
  -3  -6  -7    1.98    0.25
   3  -6   7    1.68    0.41
   3   6   7    2.22    0.45
  -3   6  -7    2.92    0.37
  -4  -6  -7    1.60    0.26
   4  -6   7    1.34    0.37
   4   6   7    1.21    0.37
  -4   6  -7    1.62    0.33
  -5  -6  -7    0.02    0.17
   8  -7  -7    1.25    0.22
  -8  -7   7    1.30    0.23
  -8   7   7    1.88    0.31
   8   7  -7    1.51    0.26
   7  -7  -7    0.98    0.18
   7   7  -7    0.67    0.16
  -7   7   7    0.83    0.22
  -6  -7   7    0.03    0.10
   6  -7  -7    0.26    0.12
   6   7  -7    0.14    0.11
   6   7  -7    0.18    0.14
  -6   7   7   -0.19    0.12
  -5  -7   7    0.20    0.11
   5  -7  -7   -0.07    0.08
   5   7  -7    0.02    0.08
   5   7  -7    0.01    0.14
  -5   7   7    0.07    0.13
   4  -7  -7    0.73    0.15
  -4  -7   7    0.47    0.13
   4   7  -7    0.62    0.12
   4   7  -7    0.70    0.19
  -4   7   7    0.42    0.14
  -3  -7   7    0.48    0.12
   3  -7  -7    0.65    0.13
  -3  -7   7    0.46    0.19
   3   7  -7    0.63    0.18
  -3   7   7    0.66    0.16
   3   7  -7    0.68    0.12
  -2  -7   7    5.15    0.52
  -2  -7   7    5.49    0.28
   2  -7  -7    5.37    0.29
  -2   7   7    5.64    0.33
  -2   7   7    5.18    0.49
   2   7  -7    5.08    0.25
   2   7  -7    5.31    0.41
  -2   7   7    4.71    0.36
   1  -7  -7    0.33    0.11
   1  -7  -7    0.60    0.13
  -1  -7   7    0.14    0.20
  -1  -7   7    0.50    0.11
  -1   7   7    0.27    0.20
  -1   7   7    0.64    0.13
   1   7  -7    0.34    0.09
   1   7  -7    0.65    0.14
   0  -7   7    2.38    0.41
   0  -7  -7    2.65    0.25
   0  -7  -7    2.56    0.25
   0  -7   7    2.29    0.18
   0   7   7    2.20    0.39
   0   7  -7    2.79    0.28
   1  -7   7    0.34    0.26
  -1  -7  -7    0.66    0.15
  -1   7  -7    0.56    0.17
   1   7   7    0.34    0.27
   2  -7   7    5.87    0.63
  -2  -7  -7    6.49    0.39
  -2   7  -7    6.84    0.46
   2   7   7    6.74    0.73
   3  -7   7    5.30    0.63
  -3  -7  -7    5.91    0.40
  -3   7  -7    6.06    0.46
   3   7   7    5.73    0.70
  -4  -7  -7    4.71    0.42
   4  -7   7    5.42    0.65
  -4   7  -7    6.15    0.50
   4   7   7    5.99    0.69
   8  -8  -7   12.85    0.57
  -8  -8   7   13.13    0.59
  -8   8   7   12.64    0.65
   8   8  -7   12.65    0.59
  -7  -8   7    3.83    0.35
   7  -8  -7    3.81    0.30
  -7   8   7    3.26    0.36
   7   8  -7    3.94    0.35
   6  -8  -7   -0.03    0.09
  -6  -8   7    0.11    0.11
   6   8  -7   -0.04    0.14
   6   8  -7    0.00    0.09
  -6   8   7   -0.09    0.14
  -5  -8   7    3.02    0.28
   5  -8  -7    2.37    0.24
   5   8  -7    2.16    0.31
   5   8  -7    2.90    0.22
  -5   8   7    3.17    0.34
   4  -8  -7    3.55    0.25
  -4  -8   7    2.54    0.33
  -4  -8   7    2.72    0.26
  -4   8   7    2.94    0.30
   4   8  -7    2.65    0.33
   4   8  -7    2.81    0.20
  -3  -8   7   10.18    0.41
   3  -8  -7    9.74    0.40
  -3  -8   7   10.11    0.59
   3   8  -7    9.07    0.52
  -3   8   7   10.22    0.52
   3   8  -7   10.06    0.36
  -3   8   7    8.99    0.45
  -2  -8   7    0.05    0.08
  -2  -8   7    0.27    0.18
   2  -8  -7    0.28    0.10
  -2   8   7    0.15    0.11
  -2   8   7    0.07    0.15
   2   8  -7    0.08    0.14
  -2   8   7    0.21    0.16
   2   8  -7    0.07    0.07
  -1  -8   7    3.85    0.23
   1  -8  -7    4.40    0.27
  -1  -8   7    4.09    0.50
   1  -8  -7    4.08    0.27
   1   8  -7    3.98    0.41
   1   8  -7    4.25    0.28
  -1   8   7    4.10    0.28
   1   8  -7    4.18    0.22
  -1   8   7    5.28    0.55
  -1   8   7    4.27    0.42
   0  -8  -7   40.23    1.05
   0  -8   7   39.23    0.94
   0  -8   7   42.22    1.45
   0   8  -7   39.60    1.09
   0   8   7   39.62    1.45
   1  -8   7    1.13    0.32
  -1  -8  -7    1.48    0.21
  -1   8  -7    1.38    0.24
   1   8   7    1.15    0.34
   2  -8   7    4.44    0.57
  -2  -8  -7    4.83    0.34
  -2   8  -7    4.27    0.43
   2   8   7    4.65    0.60
  -3  -8  -7    1.73    0.27
   3  -8   7    1.69    0.39
   3   8   7    1.86    0.42
   3   8   7    1.75    0.41
  -3   8  -7    1.56    0.30
   4  -8   7    0.41    0.27
  -4  -8  -7    0.46    0.19
  -4   8  -7    0.34    0.22
   4   8   7    0.13    0.24
  -8  -9   7    0.23    0.16
   8  -9  -7    0.44    0.17
  -8   9   7    0.14    0.28
   8   9  -7    0.20    0.15
  -7  -9   7   11.36    0.52
   7  -9  -7   11.13    0.50
  -7   9   7   11.16    0.60
   7   9  -7    9.65    0.48
   6  -9  -7    4.46    0.30
  -6  -9   7    3.88    0.31
   6   9  -7    3.62    0.42
  -6   9   7    4.18    0.40
   6   9  -7    4.06    0.29
   5  -9  -7    1.37    0.19
  -5  -9   7    1.68    0.22
   5   9  -7    1.34    0.18
   5   9  -7    1.96    0.30
  -5   9   7    1.30    0.24
  -4  -9   7    0.28    0.11
   4  -9  -7    0.28    0.10
  -4  -9   7    0.00    0.14
   4   9  -7   -0.03    0.15
   4   9  -7    0.04    0.08
  -4   9   7    0.06    0.12
   3  -9  -7   -0.11    0.06
  -3  -9   7    0.04    0.08
  -3  -9   7   -0.03    0.14
   3   9  -7   -0.09    0.15
   3   9  -7   -0.01    0.06
  -3   9   7   -0.26    0.10
  -2  -9   7    0.71    0.23
   2  -9  -7    0.84    0.14
  -2  -9   7    0.93    0.15
  -2   9   7    0.81    0.18
   2   9  -7    0.51    0.10
  -2   9   7    1.04    0.26
   2   9  -7    0.61    0.20
  -2   9   7    1.10    0.27
  -2   9   7    0.40    0.19
  -1  -9   7    0.29    0.10
   1  -9  -7    0.14    0.11
  -1  -9   7    0.54    0.23
   1  -9  -7    0.31    0.10
  -1   9   7    0.24    0.18
  -1   9   7    0.46    0.14
  -1   9   7    0.30    0.19
  -1   9   7    0.72    0.25
   1   9  -7    0.33    0.09
   1   9  -7    0.46    0.16
   1   9  -7    0.22    0.16
   0  -9  -7    4.42    0.32
   0  -9   7    4.01    0.51
   0  -9   7    5.08    0.26
   0   9   7    5.51    0.56
   0   9   7    5.16    0.59
   0   9  -7    5.41    0.37
  -1  -9  -7    3.10    0.30
   1  -9   7    2.72    0.43
  -1   9  -7    3.32    0.35
   1   9   7    2.09    0.40
   1   9   7    3.89    0.54
   2  -9   7    0.77    0.30
  -2  -9  -7    0.58    0.17
  -2   9  -7    0.47    0.20
   2   9   7    0.30    0.25
   2   9   7    0.98    0.32
  -3  -9  -7    0.09    0.14
   3  -9   7   -0.30    0.18
   3   9   7    0.16    0.27
  -3   9  -7   -0.05    0.18
   3   9   7   -0.01    0.23
   4  -9   7    3.94    0.57
  -4  -9  -7    4.61    0.43
  -4   9  -7    3.84    0.49
   4   9   7    3.98    0.57
   8 -10  -7    0.03    0.12
   8  10  -7    0.06    0.15
  -7 -10   7    1.10    0.21
   7 -10  -7    1.24    0.21
   7  10  -7    1.12    0.20
   7  10  -7    1.29    0.32
  -7  10   7    0.93    0.27
  -6 -10   7    0.53    0.15
   6 -10  -7    0.60    0.15
   6  10  -7    0.25    0.12
  -6  10   7    0.53    0.20
   6  10  -7    0.58    0.23
  -5 -10   7    2.13    0.25
   5 -10  -7    1.90    0.31
   5 -10  -7    1.87    0.22
   5  10  -7    2.14    0.34
  -5  10   7    2.36    0.31
   5  10  -7    1.95    0.21
   4 -10  -7    0.62    0.13
  -4 -10   7    0.56    0.21
  -4 -10   7    0.77    0.16
   4 -10  -7    0.71    0.19
   4  10  -7    0.89    0.14
  -4  10   7    0.73    0.21
   4  10  -7    0.78    0.23
  -3 -10   7    1.17    0.26
   3 -10  -7    1.01    0.21
  -3 -10   7    1.17    0.18
   3 -10  -7    1.11    0.17
  -3  10   7    0.85    0.20
   3  10  -7    0.80    0.23
  -2 -10   7    0.01    0.16
  -2 -10   7    0.06    0.08
   2 -10  -7    0.20    0.11
  -2  10   7    0.00    0.17
  -2  10   7    0.08    0.12
  -2  10   7    0.01    0.17
   2  10  -7    0.08    0.14
  -2  10   7    0.61    0.21
   1 -10  -7    2.07    0.22
   1 -10  -7    1.91    0.24
  -1 -10   7    1.48    0.32
  -1 -10   7    2.10    0.21
  -1  10   7    1.56    0.22
  -1  10   7    2.19    0.35
  -1  10   7    1.58    0.32
  -1  10   7    1.95    0.35
   1  10  -7    1.43    0.28
   0 -10   7    2.50    0.41
   0 -10  -7    2.99    0.29
   0 -10   7    2.71    0.21
   0  10   7    2.73    0.42
   0  10   7    3.11    0.42
   0  10  -7    3.03    0.33
   0  10   7    2.94    0.45
   1 -10   7    0.23    0.22
  -1 -10  -7    0.13    0.13
   1  10   7    0.16    0.22
   1  10   7    0.23    0.22
  -1  10  -7    0.09    0.15
  -2 -10  -7    0.75    0.18
   2 -10   7    0.34    0.25
   2  10   7    0.37    0.30
  -2  10  -7    0.53    0.20
   2  10   7    0.36    0.27
  -3 -10  -7    1.58    0.26
   3 -10   7    1.77    0.39
   3  10   7    1.47    0.43
   3  10   7    2.92    0.49
  -3  10  -7    1.80    0.33
   4 -10   7    0.81    0.31
   4  10   7    0.58    0.32
   8 -11  -7    0.05    0.13
   7 -11  -7    2.15    0.25
  -7 -11   7    1.88    0.26
  -7  11   7    2.87    0.36
   7  11  -7    1.56    0.33
   6 -11  -7    4.07    0.29
  -6 -11   7    4.31    0.32
   6 -11  -7    4.65    0.48
   6  11  -7    4.43    0.48
  -6  11   7    4.18    0.43
   5 -11  -7    3.99    0.43
  -5 -11   7    4.07    0.30
   5 -11  -7    3.86    0.27
  -5  11   7    4.44    0.43
   5  11  -7    4.11    0.45
   4 -11  -7    0.22    0.16
  -4 -11   7    0.10    0.11
   4 -11  -7    0.09    0.09
   4  11  -7    0.12    0.18
  -4  11   7    0.03    0.14
   3 -11  -7    3.40    0.38
   3 -11  -7    2.68    0.25
  -3 -11   7    3.45    0.26
   3  11  -7    3.14    0.40
  -3  11   7    3.74    0.37
   2 -11  -7   -0.04    0.08
  -2 -11   7   -0.15    0.06
   2 -11  -7   -0.09    0.11
  -2 -11   7    0.11    0.19
  -2  11   7    0.17    0.22
  -2  11   7   -0.03    0.12
   2  11  -7    0.07    0.17
  -2  11   7    0.07    0.18
  -2  11   7   -0.02    0.16
   1 -11  -7    6.08    0.38
  -1 -11   7    6.63    0.33
   1 -11  -7    6.92    0.36
  -1 -11   7    7.37    0.57
  -1  11   7    6.96    0.39
  -1  11   7    6.17    0.61
   1  11  -7    6.64    0.49
  -1  11   7    6.38    0.52
  -1  11   7    7.24    0.68
   0 -11  -7    7.64    0.42
   0 -11   7    6.99    0.33
   0 -11   7    6.79    0.65
   0  11   7    7.92    0.75
   0  11  -7    6.66    0.51
   0  11   7    5.95    0.59
   0  11   7    6.54    0.66
   0  11  -7    6.56    0.42
  -1 -11  -7   -0.07    0.11
   1 -11   7   -0.09    0.19
   1  11   7   -0.08    0.22
  -1  11  -7    0.09    0.15
   1  11   7    0.21    0.20
   2 -11   7    1.79    0.38
  -2 -11  -7    1.69    0.26
  -2  11  -7    1.41    0.29
   2  11   7    1.40    0.38
   2  11   7    1.71    0.44
  -3 -11  -7    0.64    0.20
   3 -11   7    0.64    0.29
  -3  11  -7    0.60    0.25
   3  11   7    0.17    0.26
   3  11   7    0.79    0.41
   8 -12  -7    0.06    0.14
   7 -12  -7    0.83    0.18
   7 -12  -7    0.75    0.27
   7  12  -7    0.67    0.28
  -6 -12   7    0.05    0.12
   6 -12  -7    0.49    0.21
   6 -12  -7    0.13    0.11
  -6  12   7   -0.02    0.17
   6  12  -7    0.32    0.21
  -5 -12   7    1.57    0.23
   5 -12  -7    1.10    0.26
   5 -12  -7    1.07    0.17
   5  12  -7    1.02    0.28
  -5  12   7    0.97    0.26
  -4 -12   7    3.35    0.30
   4 -12  -7    2.74    0.25
   4 -12  -7    3.67    0.41
  -4  12   7    2.79    0.35
   4  12  -7    3.03    0.41
  -3 -12   7    1.93    0.23
   3 -12  -7    1.67    0.21
   3 -12  -7    2.75    0.35
   3  12  -7    1.90    0.33
  -3  12   7    2.24    0.30
  -2 -12   7    0.73    0.15
   2 -12  -7    0.74    0.15
   2 -12  -7    0.91    0.21
  -2  12   7    0.65    0.19
   2  12  -7    0.78    0.24
  -2  12   7    0.46    0.24
  -2  12   7    0.59    0.22
  -2  12   7    0.37    0.25
  -1 -12   7    0.03    0.08
   1 -12  -7    0.06    0.14
   1 -12  -7    0.05    0.11
   1 -12  -7   -0.01    0.09
   1  12  -7   -0.05    0.15
  -1  12   7   -0.06    0.21
  -1  12   7   -0.10    0.13
  -1  12   7   -0.15    0.16
  -1  12   7   -0.19    0.17
   0 -12  -7    0.02    0.12
   0  12   7   -0.01    0.23
   0  12   7    0.10    0.22
   0  12   7    0.25    0.24
   0  12  -7    0.16    0.16
   0  12  -7    0.04    0.17
   1 -12   7    0.41    0.23
  -1 -12  -7    0.37    0.16
   1  12   7    0.44    0.27
   1  12   7    0.36    0.26
  -1  12  -7    0.54    0.21
   1  12   7   -0.11    0.26
  -2 -12  -7    0.29    0.16
   2 -12   7    0.38    0.24
  -2  12  -7    0.60    0.22
   2  12   7    0.52    0.34
  -3 -12  -7    1.46    0.27
   3 -12   7    1.37    0.36
  -3  12  -7    1.46    0.32
   7 -13  -7    5.59    0.35
   7  13  -7    5.35    0.58
   6 -13  -7   18.00    0.62
  -6 -13   7   17.89    0.68
   6 -13  -7   17.77    0.82
  -6  13   7   17.03    0.79
   6  13  -7   17.97    0.89
  -5 -13   7    5.69    0.36
   5 -13  -7    5.53    0.32
   5 -13  -7    5.29    0.44
  -5  13   7    5.23    0.49
   5  13  -7    5.59    0.55
   4 -13  -7   11.11    0.44
  -4 -13   7    9.75    0.46
   4 -13  -7    9.36    0.56
  -4  13   7    8.08    0.52
   4  13  -7    9.70    0.62
   3 -13  -7   12.81    0.48
  -3 -13   7   11.98    0.50
   3 -13  -7   12.56    0.64
  -3  13   7   11.11    0.67
  -3  13   7   12.79    0.61
   3  13  -7   11.00    0.67
   2 -13  -7    0.04    0.13
   2 -13  -7    0.09    0.10
  -2 -13   7    0.02    0.08
  -2  13   7    0.18    0.19
  -2  13   7    0.26    0.17
  -2  13   7    0.12    0.18
   2  13  -7    0.02    0.20
   1 -13  -7    0.84    0.20
   1 -13  -7    1.38    0.26
  -1 -13   7    1.09    0.18
  -1  13   7    0.50    0.27
  -1  13   7    1.21    0.23
   1  13  -7    0.92    0.26
  -1  13   7    0.56    0.31
  -1  13   7    0.88    0.29
   0 -13  -7   -0.07    0.11
   0  13   7    0.12    0.22
   0  13   7    0.01    0.21
   0  13  -7    0.04    0.17
   0  13  -7    0.19    0.16
   0  13   7    0.16    0.26
  -1 -13  -7   -0.10    0.12
   1  13   7    0.52    0.26
  -1  13  -7   -0.15    0.14
   1  13   7    0.56    0.34
  -2 -13  -7    0.04    0.14
  -2  13  -7    0.16    0.20
   2  13   7    0.39    0.34
   7  14  -7    0.65    0.35
   6 -14  -7    1.43    0.25
   6  14  -7    1.43    0.35
  -5 -14   7    1.25    0.22
   5 -14  -7    0.81    0.24
   5 -14  -7    0.84    0.17
   5  14  -7    0.72    0.26
  -5  14   7    0.65    0.24
   4 -14  -7    3.46    0.26
  -4 -14   7    4.42    0.33
   4 -14  -7    4.00    0.44
   4  14  -7    3.23    0.45
  -4  14   7    3.50    0.40
   3 -14  -7    0.12    0.17
   3 -14  -7   -0.17    0.08
  -3 -14   7    0.06    0.10
  -3  14   7   -0.02    0.18
   3  14  -7    0.06    0.18
  -3  14   7   -0.09    0.15
  -2 -14   7    0.81    0.17
   2 -14  -7    0.77    0.23
   2 -14  -7    0.42    0.13
   2  14  -7    0.46    0.22
  -2  14   7    0.48    0.19
  -2  14   7    0.51    0.27
   1 -14  -7    2.42    0.30
  -1 -14   7    3.15    0.29
   1 -14  -7    2.62    0.34
  -1  14   7    2.63    0.32
  -1  14   7    2.17    0.46
   1  14  -7    1.93    0.36
  -1  14   7    2.92    0.47
   0 -14  -7   -0.05    0.12
   0  14   7    0.28    0.30
   0  14   7    0.16    0.25
   0  14  -7   -0.15    0.17
  -1 -14  -7   -0.08    0.13
   1  14   7    0.33    0.31
   1  14   7    0.06    0.29
  -1  14  -7    0.07    0.18
  -2 -14  -7    2.11    0.39
   2  14   7    1.40    0.40
  -2  14  -7    1.48    0.31
  -5  15   7   10.02    0.71
   5  15  -7    8.64    0.67
   4 -15  -7    2.10    0.23
   4 -15  -7    2.27    0.34
  -4 -15   7    2.18    0.27
   4  15  -7    2.29    0.41
  -4  15   7    1.71    0.30
   3 -15  -7    1.26    0.19
  -3 -15   7    1.08    0.20
   3 -15  -7    1.05    0.26
  -3  15   7    0.96    0.25
   3  15  -7    1.53    0.34
   2 -15  -7    7.90    0.52
  -2 -15   7    8.70    0.44
   2 -15  -7    7.83    0.39
  -2  15   7    7.44    0.69
   2  15  -7    7.99    0.60
  -2  15   7    7.89    0.50
   1 -15  -7    3.85    0.40
   1 -15  -7    3.78    0.42
  -1  15   7    3.47    0.57
  -1  15   7    2.74    0.34
   1  15  -7    3.38    0.46
  -1  15   7    3.58    0.54
   0 -15  -7    0.04    0.15
   0 -15  -7   -0.08    0.14
   0  15  -7    0.17    0.20
   0  15   7   -0.11    0.24
   0  15   7   -0.09    0.24
  -1 -15  -7    1.15    0.24
  -1  15  -7    0.82    0.26
   1  15   7    0.40    0.32
   1  15   7    1.27    0.45
  -2  15  -7    0.04    0.20
  -4  16   7   11.20    0.65
   3 -16  -7    4.24    0.45
  -3 -16   7    5.03    0.37
  -3  16   7    5.52    0.51
   3  16  -7    5.17    0.59
  -2 -16   7    0.52    0.16
   2 -16  -7    0.67    0.22
  -2  16   7    0.63    0.33
  -2  16   7    0.52    0.21
   2  16  -7    0.68    0.28
   1 -16  -7    0.83    0.24
  -1  16   7    1.61    0.37
   1  16  -7    0.99    0.34
   0 -16  -7    3.93    0.55
   0 -16  -7    2.54    0.35
   0  16   7    1.84    0.45
   0  16   7    2.89    0.59
  -1  16  -7    0.45    0.27
  -3  17   7    2.15    0.36
   2 -17  -7    0.20    0.20
  -2  17   7    0.07    0.20
   1 -17  -7    0.06    0.16
  -1  17   7    0.08    0.27
   0  17   7    0.19    0.35
   0  17   7   -0.28    0.29
  -8   0   8    1.21    0.24
   8   0  -8    1.87    0.28
   7   0  -8   17.32    0.65
  -7   0   8   17.47    0.68
   6   0  -8   17.86    0.63
  -6   0   8   17.11    0.65
  -5   0   8   26.75    0.82
   5   0  -8   26.59    0.79
   4   0  -8   25.46    0.73
  -4   0   8   24.11    0.75
   3   0  -8    8.87    0.38
  -3   0   8    9.32    0.40
  -3   0   8    9.83    0.62
  -2   0   8  139.03    3.36
   2   0  -8  142.94    2.84
  -2   0   8  140.42    2.80
  -1   0   8    3.64    0.22
   1   0  -8    3.41    0.24
  -1   0   8    3.34    0.48
   0   0   8    0.27    0.24
   0   0  -8    0.50    0.13
   1   0   8    0.44    0.26
   2   0   8   24.60    1.25
   3   0   8   10.36    0.95
  -8  -1   8    6.46    0.44
   8  -1  -8    7.66    0.45
  -8   1   8    7.25    0.47
   8   1  -8    7.89    0.46
  -7  -1   8    3.00    0.31
   7  -1  -8    3.09    0.30
  -7   1   8    3.27    0.34
   7   1  -8    3.26    0.31
   6  -1  -8   37.05    1.03
  -6  -1   8   39.93    1.08
   6   1  -8   35.95    1.02
  -6   1   8   39.28    1.09
  -5  -1   8    8.29    0.42
   5  -1  -8    7.98    0.38
   5   1  -8    8.96    0.41
  -5   1   8    8.17    0.42
  -4  -1   8    6.93    0.37
   4  -1  -8    7.80    0.36
   4   1  -8    7.73    0.36
  -4   1   8    8.28    0.40
  -3  -1   8   19.81    0.63
   3  -1  -8   20.39    0.63
  -3  -1   8   20.14    0.91
  -3   1   8   20.62    0.65
   3   1  -8   21.30    0.63
  -3   1   8   20.34    0.90
  -2  -1   8   11.60    0.43
   2  -1  -8   11.49    0.44
  -2  -1   8   12.55    0.74
   2   1  -8   11.63    0.44
  -2   1   8   11.03    0.71
  -2   1   8   10.96    0.42
   1  -1  -8    0.33    0.11
  -1  -1   8    0.20    0.23
  -1  -1   8    0.21    0.09
   1   1  -8    0.13    0.09
  -1   1   8    0.17    0.23
  -1   1   8    0.21    0.09
   0  -1   8    2.34    0.43
   0  -1  -8    3.37    0.24
   0   1  -8    2.99    0.24
   0   1   8    2.84    0.46
   1  -1   8    3.23    0.52
   1   1   8    2.29    0.43
   2  -1   8    5.82    0.73
   2   1   8    4.84    0.66
   3  -1   8    0.22    0.24
   3   1   8   -0.15    0.26
  -8  -2   8    1.63    0.27
   8  -2  -8    2.01    0.27
  -8   2   8    1.70    0.28
   8   2  -8    1.58    0.26
  -7  -2   8   12.05    0.55
   7  -2  -8   11.43    0.52
  -7   2   8   12.97    0.59
   7   2  -8   12.17    0.54
  -6  -2   8   22.79    0.77
   6  -2  -8   22.96    0.75
  -6   2   8   23.00    0.80
   6   2  -8   23.54    0.74
   5  -2  -8    3.04    0.25
  -5  -2   8    2.96    0.29
  -5   2   8    3.02    0.31
   5   2  -8    2.91    0.27
  -4  -2   8    5.66    0.34
   4  -2  -8    5.21    0.30
  -4   2   8    4.83    0.33
   4   2  -8    5.25    0.29
  -3  -2   8   15.27    0.52
  -3  -2   8   15.63    0.79
   3  -2  -8   15.09    0.52
  -3   2   8   15.33    0.54
   3   2  -8   14.38    0.50
  -3   2   8   13.44    0.74
  -2  -2   8   10.27    0.67
  -2  -2   8    9.94    0.39
   2  -2  -8    9.64    0.41
  -2   2   8   10.62    0.67
   2   2  -8   10.12    0.40
  -2   2   8    9.81    0.40
  -1  -2   8    0.34    0.21
   1  -2  -8    0.38    0.12
  -1  -2   8    0.31    0.10
  -1   2   8    0.19    0.09
  -1   2   8    0.38    0.24
   1   2  -8    0.36    0.11
   0  -2   8    3.49    0.52
   0  -2  -8    3.07    0.24
   0   2  -8    3.73    0.25
   0   2   8    2.79    0.46
   1  -2   8    4.32    0.61
   1   2   8    5.79    0.67
   2  -2   8    3.41    0.56
   2   2   8    2.67    0.52
   3  -2   8    0.17    0.26
   3   2   8    0.79    0.34
  -8  -3   8    6.84    0.44
   8  -3  -8    6.78    0.42
   8   3  -8    6.85    0.43
  -8   3   8    6.61    0.47
   7  -3  -8   -0.04    0.09
  -7  -3   8   -0.04    0.12
  -7   3   8   -0.13    0.13
   7   3  -8   -0.14    0.10
   6  -3  -8    0.87    0.17
  -6  -3   8    1.23    0.21
  -6   3   8    1.18    0.23
   6   3  -8    1.20    0.20
  -5  -3   8    3.90    0.30
   5  -3  -8    4.22    0.29
  -5   3   8    4.41    0.35
   5   3  -8    4.58    0.29
  -4  -3   8    6.54    0.36
   4  -3  -8    7.20    0.36
   4   3  -8    7.47    0.35
  -4   3   8    7.10    0.40
  -3  -3   8    7.33    0.35
   3  -3  -8    7.22    0.34
  -3  -3   8    5.54    0.53
   3   3  -8    6.49    0.32
  -3   3   8    7.19    0.37
  -3   3   8    7.11    0.54
  -2  -3   8    0.09    0.09
  -2  -3   8    0.17    0.19
   2  -3  -8    0.21    0.10
  -2   3   8    0.78    0.26
   2   3  -8    0.35    0.11
  -2   3   8    0.18    0.10
  -1  -3   8   12.44    0.42
   1  -3  -8   11.97    0.47
  -1  -3   8   12.08    0.78
  -1   3   8   13.83    0.82
   1   3  -8   12.91    0.46
  -1   3   8   12.88    0.44
   0  -3  -8    1.25    0.19
   0  -3   8    1.42    0.37
   0   3  -8    1.34    0.18
   0   3   8    1.33    0.35
   1  -3   8    3.11    0.51
   1   3   8    3.15    0.54
   2  -3   8    0.32    0.28
   2   3   8    0.15    0.26
   3  -3   8    9.03    0.89
   3   3   8   10.23    0.96
   8  -4  -8    7.83    0.46
  -8  -4   8    8.57    0.48
   8   4  -8    8.10    0.46
  -8   4   8    8.60    0.53
   7  -4  -8    2.38    0.28
  -7  -4   8    1.94    0.27
  -7   4   8    2.16    0.30
   7   4  -8    2.27    0.27
   6  -4  -8    6.94    0.38
  -6  -4   8    6.74    0.40
   6   4  -8    7.24    0.38
  -6   4   8    7.99    0.45
  -5  -4   8    3.18    0.30
   5  -4  -8    3.16    0.25
  -5   4   8    3.14    0.32
   5   4  -8    3.62    0.26
  -4  -4   8    4.43    0.29
   4  -4  -8    4.79    0.29
   4   4  -8    4.20    0.27
  -4   4   8    4.08    0.32
  -3  -4   8    7.15    0.54
   3  -4  -8    7.27    0.35
  -3  -4   8    7.42    0.36
  -3   4   8    7.09    0.53
   3   4  -8    6.88    0.33
  -3   4   8    8.43    0.40
   2  -4  -8    0.01    0.08
  -2  -4   8    0.04    0.15
  -2  -4   8    0.05    0.08
   2   4  -8    0.09    0.08
  -2   4   8   -0.14    0.08
  -2   4   8   -0.04    0.17
  -1  -4   8    0.61    0.12
   1  -4  -8    0.74    0.15
  -1  -4   8    0.45    0.24
  -1   4   8    0.80    0.16
  -1   4   8    0.97    0.29
   1   4  -8    0.47    0.12
   0  -4   8    9.00    0.72
   0  -4  -8    9.71    0.43
   0   4   8    8.80    0.82
   1  -4   8    8.10    0.80
   1   4   8    7.86    0.78
   2  -4   8    7.04    0.78
   2   4   8    7.87    0.85
   3  -4   8   -0.12    0.24
   3   4   8   -0.30    0.23
  -8  -5   8   15.52    0.65
   8  -5  -8   13.95    0.61
  -8   5   8   15.14    0.70
   8   5  -8   16.07    0.66
   7  -5  -8    0.03    0.11
  -7  -5   8    0.23    0.14
   7   5  -8    0.01    0.12
  -7   5   8   -0.13    0.14
   6  -5  -8    0.05    0.10
  -6  -5   8    0.04    0.12
  -6   5   8    0.11    0.14
   6   5  -8    0.04    0.10
  -5  -5   8    4.68    0.33
   5  -5  -8    5.10    0.31
  -5   5   8    4.79    0.36
   5   5  -8    4.58    0.29
   5   5  -8    4.96    0.37
  -4  -5   8    6.78    0.36
   4  -5  -8    7.19    0.35
  -4  -5   8    7.44    0.53
  -4   5   8    7.19    0.40
   4   5  -8    6.55    0.33
   3  -5  -8   13.01    0.49
  -3  -5   8   13.48    0.49
  -3  -5   8   13.71    0.75
  -3   5   8   11.78    0.69
  -3   5   8   14.26    0.54
   3   5  -8   13.98    0.47
  -2  -5   8    4.48    0.52
  -2  -5   8    3.48    0.24
   2  -5  -8    3.58    0.26
   2   5  -8    3.72    0.24
  -2   5   8    3.83    0.27
  -2   5   8    3.75    0.48
   1  -5  -8   18.32    0.62
  -1  -5   8   20.89    1.02
  -1  -5   8   19.57    0.56
  -1   5   8   21.10    1.01
   1   5  -8   18.60    0.58
   0  -5  -8   24.69    0.77
   0  -5   8   25.69    1.20
   0   5   8   28.42    1.25
  -1  -5  -8    0.24    0.19
   1  -5   8    0.38    0.27
   1   5   8    0.04    0.22
  -1   5  -8    0.21    0.16
   2  -5   8    0.87    0.34
   2   5   8    0.73    0.36
   3  -5   8    2.54    0.51
   3   5   8    3.12    0.57
   8  -6  -8    2.60    0.31
  -8  -6   8    2.56    0.47
   8   6  -8    3.25    0.35
  -8   6   8    1.83    0.38
   7  -6  -8    6.29    0.39
  -7  -6   8    6.11    0.40
  -7   6   8    6.79    0.46
   7   6  -8    6.47    0.39
   6  -6  -8    1.53    0.22
  -6  -6   8    1.65    0.25
   6   6  -8    1.31    0.20
  -6   6   8    1.96    0.29
   6   6  -8    1.73    0.33
  -5  -6   8    2.49    0.26
   5  -6  -8    2.11    0.23
   5   6  -8    2.60    0.32
   5   6  -8    2.31    0.23
  -5   6   8    2.52    0.30
   4  -6  -8   24.97    0.75
  -4  -6   8   24.92    0.76
  -4  -6   8   27.11    1.03
   4   6  -8   25.24    0.90
  -4   6   8   25.25    0.81
   4   6  -8   23.94    0.71
   3  -6  -8    0.11    0.10
  -3  -6   8    0.22    0.18
  -3  -6   8    0.21    0.10
   3   6  -8    0.01    0.07
  -3   6   8    0.09    0.18
  -3   6   8   -0.06    0.10
  -2  -6   8    0.56    0.25
   2  -6  -8    0.34    0.12
  -2  -6   8    0.54    0.12
  -2   6   8    0.47    0.14
  -2   6   8    0.55    0.24
   2   6  -8    0.50    0.11
   1  -6  -8   23.18    0.69
   1  -6  -8   23.63    0.73
  -1  -6   8   23.86    0.65
  -1  -6   8   23.23    1.10
   1   6  -8   24.06    0.67
  -1   6   8   21.91    1.07
   0  -6   8    9.33    0.72
   0  -6  -8    9.28    0.41
   0   6   8    8.79    0.81
  -1  -6  -8   18.21    0.63
   1  -6   8   17.44    1.01
  -1   6  -8   18.02    0.72
   1   6   8   18.44    1.05
   2  -6   8    0.55    0.30
  -2  -6  -8    0.55    0.16
   2   6   8    0.73    0.34
  -2   6  -8    0.80    0.23
  -3  -6  -8    1.62    0.28
   3  -6   8    1.14    0.38
  -3   6  -8    1.15    0.28
   3   6   8    1.05    0.39
   8  -7  -8    2.17    0.31
   8   7  -8    2.03    0.27
  -7  -7   8    2.90    0.31
   7  -7  -8    2.87    0.30
   7   7  -8    2.39    0.27
  -7   7   8    2.42    0.34
   6  -7  -8    1.31    0.20
  -6  -7   8    1.00    0.20
  -6   7   8    0.95    0.24
   6   7  -8    1.04    0.19
   6   7  -8    1.25    0.25
   5  -7  -8   31.82    0.92
  -5  -7   8   35.36    0.97
   5   7  -8   33.68    1.08
  -5   7   8   34.37    1.04
   5   7  -8   33.16    0.90
  -4  -7   8    0.58    0.24
   4  -7  -8    0.21    0.11
  -4  -7   8    0.46    0.13
   4   7  -8    0.38    0.11
   4   7  -8    0.30    0.17
  -4   7   8    0.66    0.18
  -3  -7   8    0.07    0.09
  -3  -7   8   -0.04    0.17
   3  -7  -8   -0.12    0.07
   3   7  -8    0.03    0.14
   3   7  -8   -0.04    0.07
  -3   7   8   -0.10    0.16
  -3   7   8    0.01    0.11
  -2  -7   8   10.37    0.41
   2  -7  -8   10.08    0.44
  -2  -7   8    9.33    0.67
   2   7  -8   10.75    0.40
  -2   7   8   11.18    0.71
  -2   7   8    9.65    0.44
   1  -7  -8    9.83    0.44
  -1  -7   8    8.95    0.69
   1  -7  -8   10.42    0.43
  -1  -7   8   10.11    0.38
   1   7  -8    9.37    0.37
  -1   7   8    7.97    0.76
   0  -7  -8    8.92    0.42
   0  -7   8    9.96    0.75
   0   7   8    8.72    0.82
  -1  -7  -8    5.82    0.36
   1  -7   8    5.62    0.69
   1   7   8    5.72    0.71
  -1   7  -8    5.85    0.41
  -2  -7  -8    0.23    0.14
   2  -7   8    0.07    0.23
   2   7   8   -0.43    0.22
  -2   7  -8    0.13    0.17
   3  -7   8   10.77    0.84
  -3  -7  -8    9.86    0.53
   3   7   8   12.17    0.91
  -3   7  -8   11.20    0.65
   8   8  -8    3.37    0.34
  -7  -8   8    5.23    0.38
   7  -8  -8    4.48    0.32
   7   8  -8    4.45    0.33
  -7   8   8    4.76    0.46
   6  -8  -8    2.77    0.29
  -6  -8   8    2.52    0.29
   6   8  -8    2.68    0.27
   6   8  -8    2.21    0.34
  -6   8   8    2.83    0.35
  -5  -8   8    4.24    0.46
  -5  -8   8    3.71    0.30
   5  -8  -8    4.35    0.30
  -5   8   8    4.41    0.40
   5   8  -8    4.26    0.43
   5   8  -8    4.23    0.28
  -4  -8   8    0.16    0.17
   4  -8  -8    0.01    0.09
  -4  -8   8   -0.07    0.09
   4   8  -8    0.00    0.08
  -4   8   8   -0.04    0.13
   4   8  -8    0.00    0.13
   3  -8  -8   11.60    0.47
  -3  -8   8   12.31    0.73
  -3  -8   8   11.49    0.46
   3   8  -8   11.37    0.41
   3   8  -8   10.60    0.60
  -3   8   8   11.72    0.52
  -3   8   8   12.16    0.71
   2  -8  -8    0.21    0.11
  -2  -8   8    0.19    0.10
  -2  -8   8    0.01    0.20
   2   8  -8    0.12    0.08
  -2   8   8    0.20    0.13
  -2   8   8    0.35    0.22
  -1  -8   8    8.09    0.75
   1  -8  -8    8.21    0.40
   1  -8  -8    7.51    0.39
  -1  -8   8    8.54    0.36
   1   8  -8    8.04    0.34
  -1   8   8    8.68    0.79
   0  -8  -8   45.78    1.18
   0  -8   8   44.01    1.63
   0   8   8   47.26    1.71
  -1  -8  -8    0.05    0.12
   1  -8   8   -0.11    0.21
   1   8   8    0.13    0.26
  -2  -8  -8    2.06    0.27
   2  -8   8    3.34    0.53
   2   8   8    1.46    0.40
  -2   8  -8    2.12    0.33
  -3  -8  -8   13.93    0.63
   3  -8   8   13.85    0.94
   3   8   8   13.51    0.96
  -3   8  -8   13.38    0.73
   8   9  -8    0.13    0.14
  -7  -9   8    5.36    0.39
   7  -9  -8    6.53    0.39
  -7   9   8    5.71    0.50
   7   9  -8    6.00    0.37
  -6  -9   8    5.06    0.36
   6  -9  -8    5.25    0.34
  -6   9   8    5.45    0.47
   6   9  -8    4.92    0.32
   6   9  -8    5.17    0.50
  -5  -9   8    6.68    0.38
   5  -9  -8    6.68    0.36
  -5  -9   8    6.98    0.53
  -5   9   8    6.52    0.44
   5   9  -8    6.90    0.50
   5   9  -8    6.07    0.32
  -4  -9   8    3.33    0.27
   4  -9  -8    3.27    0.26
  -4  -9   8    2.96    0.42
  -4   9   8    2.06    0.28
   4   9  -8    3.04    0.22
   4   9  -8    3.90    0.43
  -3  -9   8   28.21    0.81
   3  -9  -8   28.00    0.81
  -3  -9   8   26.82    1.12
  -3   9   8   27.70    0.88
   3   9  -8   28.02    0.76
  -3   9   8   28.18    1.13
   3   9  -8   27.63    1.03
  -2  -9   8   -0.14    0.07
  -2  -9   8   -0.01    0.19
   2  -9  -8    0.00    0.08
  -2   9   8   -0.21    0.16
  -2   9   8   -0.13    0.16
  -2   9   8    0.19    0.12
   2   9  -8    0.12    0.17
  -1  -9   8   18.05    0.96
   1  -9  -8   18.10    0.64
   1  -9  -8   17.57    0.62
  -1  -9   8   17.13    0.56
  -1   9   8   16.52    0.94
   0  -9   8    8.73    0.79
   0  -9  -8    6.61    0.39
   0   9   8    7.34    0.75
  -1  -9  -8    0.49    0.16
   1  -9   8    0.56    0.29
   1   9   8    0.65    0.30
   1   9   8    0.38    0.27
  -2  -9  -8    0.44    0.17
   2  -9   8    0.36    0.27
   2   9   8    0.65    0.34
  -2   9  -8    0.45    0.21
   2   9   8    0.41    0.29
   3  -9   8    1.70    0.63
  -3  -9  -8    1.47    0.27
   3   9   8    1.49    0.42
  -3   9  -8    2.12    0.36
   8  10  -8    4.56    0.43
   7 -10  -8    0.34    0.15
   7  10  -8    0.02    0.13
   6 -10  -8    0.57    0.15
  -6 -10   8    0.69    0.17
  -6  10   8    0.35    0.18
   6  10  -8    0.20    0.20
   5 -10  -8    0.53    0.15
  -5 -10   8    0.57    0.16
  -5  10   8    0.53    0.20
   5  10  -8    0.69    0.25
   4 -10  -8    1.12    0.18
  -4 -10   8    0.82    0.40
  -4 -10   8    0.97    0.18
   4  10  -8    0.69    0.25
  -4  10   8    0.47    0.19
  -3 -10   8    0.21    0.19
  -3 -10   8    0.38    0.12
   3 -10  -8    0.10    0.10
  -3  10   8    0.26    0.17
   3  10  -8   -0.02    0.17
  -3  10   8    0.33    0.21
  -2 -10   8    0.07    0.20
  -2 -10   8    0.18    0.10
   2 -10  -8    0.11    0.10
  -2  10   8   -0.04    0.12
  -2  10   8   -0.18    0.17
   2  10  -8    0.10    0.17
  -2  10   8    0.06    0.21
   1 -10  -8    0.16    0.11
  -1 -10   8    0.00    0.08
   1 -10  -8    0.10    0.12
  -1 -10   8   -0.04    0.20
  -1  10   8    0.15    0.23
  -1  10   8    0.22    0.23
   0 -10   8    0.27    0.27
   0 -10  -8    0.41    0.15
   0  10   8   -0.08    0.20
   0  10   8    0.10    0.20
   0  10   8    0.33    0.28
  -1 -10  -8    0.09    0.14
   1 -10   8   -0.26    0.21
   1  10   8    0.12    0.25
   1  10   8    0.40    0.30
  -2 -10  -8    0.02    0.14
   2 -10   8   -0.03    0.23
   2  10   8   -0.03    0.26
  -2  10  -8    0.20    0.19
   2  10   8   -0.14    0.28
   3  10   8    0.80    0.40
  -3  10  -8    0.56    0.28
   7 -11  -8   27.65    0.87
  -6 -11   8    0.65    0.18
   6 -11  -8    0.54    0.15
  -6  11   8    0.67    0.22
   6  11  -8    0.74    0.26
  -5 -11   8    2.74    0.29
   5 -11  -8    2.63    0.27
  -5  11   8    2.68    0.34
   5  11  -8    3.47    0.44
   4 -11  -8    0.08    0.10
  -4 -11   8   -0.04    0.10
  -4  11   8   -0.01    0.16
   4  11  -8    0.01    0.19
   3 -11  -8   14.86    0.56
  -3 -11   8   16.65    0.59
  -3  11   8   16.41    0.87
   3  11  -8   15.06    0.77
  -3  11   8   15.40    0.66
  -2 -11   8    3.38    0.27
   2 -11  -8    2.96    0.28
   2  11  -8    3.55    0.46
  -2  11   8    3.36    0.34
  -2  11   8    2.84    0.47
  -1 -11   8    4.16    0.28
  -1 -11   8    4.95    0.58
   1 -11  -8    4.59    0.32
   1 -11  -8    4.20    0.36
  -1  11   8    3.91    0.53
  -1  11   8    5.48    0.62
   0 -11   8    0.24    0.25
   0 -11  -8    0.15    0.13
   0  11   8   -0.23    0.20
   0  11   8    0.23    0.24
   0  11   8    0.23    0.25
   1 -11   8    5.11    0.62
  -1 -11  -8    4.91    0.42
   1  11   8    4.29    0.63
   1  11   8    4.09    0.60
  -2 -11  -8    4.78    0.43
   2 -11   8    6.53    0.71
   2  11   8    4.54    0.64
   7 -12  -8    6.21    0.64
   6 -12  -8    7.77    0.42
   6  12  -8    7.95    0.60
   5 -12  -8    2.12    0.25
  -5 -12   8    2.27    0.27
  -5  12   8    2.36    0.35
   5  12  -8    2.23    0.37
   4 -12  -8    5.34    0.33
  -4 -12   8    5.60    0.36
   4  12  -8    6.68    0.61
  -4  12   8    6.17    0.47
  -3 -12   8    0.00    0.10
   3 -12  -8    0.00    0.11
   3  12  -8    0.22    0.22
  -3  12   8   -0.20    0.18
  -3  12   8    0.12    0.17
   2 -12  -8    0.28    0.14
  -2 -12   8    0.34    0.13
  -2  12   8    0.42    0.18
  -2  12   8   -0.05    0.20
   2  12  -8    0.20    0.17
   1 -12  -8   -0.21    0.10
  -1 -12   8   -0.08    0.09
  -1  12   8    0.43    0.25
  -1  12   8    0.05    0.25
   1  12  -8    0.30    0.21
   0 -12  -8    5.00    0.38
   0  12   8    4.65    0.63
   0  12   8    5.31    0.61
   0  12   8    5.66    0.69
  -1 -12  -8    1.26    0.23
   1  12   8    1.67    0.42
   1  12   8    1.23    0.37
   1  12   8    1.27    0.42
  -2 -12  -8   13.14    0.73
   6 -13  -8   12.81    0.54
   6  13  -8   12.81    0.75
   5 -13  -8   28.96    0.86
  -5 -13   8   29.09    0.97
   5  13  -8   29.30    1.16
  -5  13   8   28.59    1.03
   4 -13  -8    0.62    0.15
  -4 -13   8    0.11    0.12
  -4  13   8    0.51    0.22
   4  13  -8    0.90    0.27
  -3 -13   8   14.57    0.58
   3 -13  -8   14.38    0.56
   3  13  -8   14.07    0.78
  -3  13   8   14.43    0.67
  -3  13   8   13.44    0.81
  -2 -13   8    1.53    0.22
   2 -13  -8    1.58    0.23
  -2  13   8    1.71    0.38
   2  13  -8    1.18    0.30
  -2  13   8    1.14    0.25
   1 -13  -8   -0.08    0.12
  -1 -13   8    0.00    0.10
  -1  13   8   -0.03    0.26
  -1  13   8    0.24    0.26
   1  13  -8    0.18    0.21
   0 -13  -8    0.32    0.17
   0  13   8    0.42    0.31
   0  13   8   -0.17    0.25
  -1 -13  -8   23.26    0.88
   1  13   8   24.27    1.18
   1  13   8   25.41    1.53
   6 -14  -8    0.23    0.13
   5 -14  -8   17.92    0.64
   5  14  -8   18.17    1.03
   4 -14  -8   51.98    1.29
  -4 -14   8   49.47    1.34
   4  14  -8   49.11    1.63
  -4  14   8   52.07    1.49
  -4  14   8   51.33    1.67
   3 -14  -8    6.61    0.38
  -3 -14   8    7.32    0.41
   3  14  -8    7.22    0.58
  -3  14   8    6.43    0.77
  -3  14   8    5.75    0.50
  -2 -14   8    5.09    0.35
   2 -14  -8    5.43    0.35
  -2  14   8    5.98    0.46
   2  14  -8    5.95    0.62
  -1 -14   8   16.71    0.61
   1 -14  -8   15.73    0.69
   0 -14  -8    1.73    0.28
   0  14   8    1.49    0.46
   1  14   8    8.07    0.92
   4 -15  -8    0.11    0.13
   3 -15  -8    1.96    0.25
  -3 -15   8    1.90    0.29
  -3  15   8    1.46    0.30
   2 -15  -8    0.06    0.13
  -2 -15   8    0.04    0.12
   0  15   8    2.98    0.63
   7   0  -9   -0.08    0.11
  -7   0   9   -0.05    0.13
   6   0  -9    0.16    0.11
  -6   0   9    0.01    0.13
   5   0  -9    0.01    0.10
  -5   0   9    0.13    0.13
  -4   0   9   -0.06    0.14
   4   0  -9   -0.08    0.08
  -4   0   9   -0.18    0.10
  -3   0   9    0.21    0.23
  -3   0   9    0.06    0.10
   3   0  -9    0.09    0.10
   2   0  -9    0.01    0.09
  -2   0   9   -0.06    0.08
  -2   0   9   -0.02    0.20
   1   0  -9    0.02    0.10
  -1   0   9   -0.29    0.22
   0   0   9   -0.19    0.23
   1   0   9   -0.06    0.27
   2   0   9   -0.14    0.25
  -7  -1   9    1.43    0.25
   7  -1  -9    1.41    0.22
  -7   1   9    1.53    0.26
   7   1  -9    1.28    0.23
   6  -1  -9   11.67    0.51
  -6  -1   9   11.62    0.54
  -6   1   9   11.70    0.55
   6   1  -9   12.89    0.53
   5  -1  -9   -0.04    0.09
  -5  -1   9    0.02    0.12
   5   1  -9   -0.09    0.09
  -5   1   9   -0.03    0.12
   4  -1  -9    1.22    0.18
  -4  -1   9    0.42    0.24
  -4  -1   9    1.02    0.19
  -4   1   9    1.07    0.20
   4   1  -9    1.28    0.19
  -4   1   9    1.16    0.33
  -3  -1   9   24.27    0.73
  -3  -1   9   24.28    1.10
   3  -1  -9   23.05    0.72
   3   1  -9   24.22    0.73
  -3   1   9   24.48    1.11
  -3   1   9   23.56    0.73
  -2  -1   9    7.35    0.74
  -2  -1   9    6.21    0.32
   2  -1  -9    5.88    0.34
  -2   1   9    6.08    0.32
   2   1  -9    6.22    0.34
  -2   1   9    7.00    0.72
   1  -1  -9   11.76    0.48
  -1  -1   9   11.15    0.83
  -1   1   9   12.44    0.86
   1   1  -9   11.14    0.47
   0  -1   9    7.26    0.80
   0   1   9    7.30    0.78
   1  -1   9   -0.26    0.21
   1   1   9   -0.29    0.23
   2  -1   9   -0.07    0.21
   2   1   9    0.63    0.33
   7  -2  -9   15.02    0.62
  -7  -2   9   14.89    0.65
  -7   2   9   15.44    0.67
   7   2  -9   15.63    0.63
  -6  -2   9    0.95    0.21
   6  -2  -9    1.26    0.21
   6   2  -9    1.18    0.20
  -6   2   9    1.39    0.24
   5  -2  -9    3.70    0.27
  -5  -2   9    3.27    0.31
  -5   2   9    3.04    0.31
   5   2  -9    3.32    0.26
  -4  -2   9    7.43    0.40
  -4  -2   9    8.40    0.63
   4  -2  -9    8.40    0.40
   4   2  -9    7.64    0.37
  -4   2   9    6.88    0.65
  -4   2   9    8.79    0.44
  -3  -2   9    1.17    0.32
  -3  -2   9    1.97    0.23
   3  -2  -9    1.34    0.19
  -3   2   9    1.37    0.20
   3   2  -9    2.06    0.22
  -3   2   9    1.40    0.34
   2  -2  -9   -0.10    0.09
  -2  -2   9    0.07    0.24
  -2  -2   9    0.04    0.09
  -2   2   9    0.07    0.10
   2   2  -9    0.19    0.11
  -2   2   9   -0.01    0.21
   1  -2  -9    0.88    0.17
  -1  -2   9    0.54    0.27
   1   2  -9    0.82    0.17
  -1   2   9    0.79    0.30
   0  -2   9    5.73    0.74
   0   2   9    4.50    0.62
   1  -2   9    0.28    0.31
   1   2   9    0.60    0.33
   2  -2   9   -0.15    0.25
   2   2   9    0.22    0.30
  -7  -3   9    0.17    0.15
   7  -3  -9    0.19    0.14
  -7   3   9   -0.08    0.15
   7   3  -9    0.11    0.12
  -6  -3   9    0.67    0.19
   6  -3  -9    0.39    0.13
  -6   3   9    1.10    0.24
   6   3  -9    0.67    0.17
   5  -3  -9    3.08    0.30
  -5  -3   9    2.96    0.31
   5   3  -9    3.13    0.29
  -5   3   9    3.15    0.32
  -4  -3   9    2.61    0.27
   4  -3  -9    2.84    0.27
  -4  -3   9    3.02    0.46
  -4   3   9    3.78    0.34
  -4   3   9    2.66    0.41
   4   3  -9    2.71    0.26
   3  -3  -9    1.13    0.18
  -3  -3   9    1.27    0.33
  -3  -3   9    1.28    0.18
  -3   3   9    1.29    0.20
   3   3  -9    1.05    0.17
  -3   3   9    1.02    0.33
  -2  -3   9    2.93    0.49
   2  -3  -9    2.96    0.29
  -2  -3   9    2.35    0.23
  -2   3   9    2.76    0.48
   2   3  -9    2.93    0.27
  -2   3   9    3.40    0.37
  -1  -3   9    0.24    0.26
   1  -3  -9    0.07    0.11
   1   3  -9    0.01    0.09
  -1   3   9    0.22    0.23
   0  -3   9    0.87    0.37
   0   3   9    1.48    0.40
   1  -3   9    1.98    0.48
   1   3   9    1.81    0.43
   2  -3   9    1.82    0.50
   2   3   9    1.56    0.49
  -7  -4   9    0.17    0.16
   7  -4  -9    0.28    0.15
  -7   4   9   -0.17    0.15
   7   4  -9    0.03    0.12
  -6  -4   9    3.79    0.36
   6  -4  -9    3.87    0.29
   6   4  -9    3.95    0.30
  -6   4   9    4.07    0.39
   5  -4  -9    5.17    0.33
  -5  -4   9    4.30    0.33
  -5   4   9    4.77    0.37
   5   4  -9    4.80    0.31
  -4  -4   9    5.60    0.34
   4  -4  -9    5.84    0.34
  -4  -4   9    5.23    0.57
   4   4  -9    5.93    0.33
  -4   4   9    6.04    0.38
   3  -4  -9    5.76    0.34
  -3  -4   9    5.74    0.61
  -3  -4   9    6.23    0.34
   3   4  -9    5.48    0.31
  -3   4   9    5.63    0.60
  -3   4   9    5.82    0.36
   2  -4  -9    0.73    0.15
  -2  -4   9    0.96    0.35
  -2  -4   9    0.72    0.14
   2   4  -9    1.02    0.17
  -2   4   9    1.08    0.34
  -1  -4   9    3.15    0.53
   1  -4  -9    3.25    0.30
  -1   4   9    2.57    0.47
   1   4  -9    3.09    0.25
   0  -4   9    0.78    0.34
   0   4   9    1.03    0.35
   1  -4   9    5.68    0.72
   1   4   9    6.13    0.77
   2  -4   9    0.00    0.43
   2   4   9    0.41    0.35
  -7  -5   9    0.38    0.17
   7  -5  -9    0.51    0.16
   7   5  -9    0.52    0.16
  -7   5   9    0.43    0.21
  -6  -5   9    1.72    0.25
   6  -5  -9    1.89    0.25
   6   5  -9    1.78    0.23
  -6   5   9    2.05    0.30
   5  -5  -9    3.75    0.29
  -5  -5   9    3.23    0.45
  -5  -5   9    4.05    0.31
  -5   5   9    3.41    0.34
   5   5  -9    3.34    0.27
   4  -5  -9    6.06    0.35
  -4  -5   9    5.37    0.59
  -4  -5   9    6.07    0.36
  -4   5   9    5.77    0.38
   4   5  -9    5.97    0.33
  -3  -5   9    7.32    0.70
  -3  -5   9    7.15    0.37
   3  -5  -9    8.57    0.41
  -3   5   9    7.39    0.70
  -3   5   9    7.77    0.42
   3   5  -9    7.33    0.36
  -2  -5   9   10.15    0.42
   2  -5  -9   10.78    0.47
  -2  -5   9   10.82    0.77
  -2   5   9   10.29    0.76
   2   5  -9   10.54    0.43
   1  -5  -9    3.98    0.30
  -1  -5   9    4.35    0.61
   1   5  -9    4.73    0.29
  -1   5   9    4.16    0.58
   0  -5   9    7.14    0.78
   0   5   9    5.51    0.71
   1  -5   9    5.28    0.72
   1   5   9    6.07    0.76
   7  -6  -9    0.12    0.15
  -7  -6   9    0.31    0.26
  -7   6   9    0.14    0.20
   7   6  -9    0.54    0.17
  -6  -6   9    2.82    0.31
   6  -6  -9    3.23    0.31
  -6   6   9    3.44    0.39
   6   6  -9    3.44    0.32
   5  -6  -9    0.91    0.18
  -5  -6   9    1.13    0.20
  -5  -6   9    1.12    0.31
   5   6  -9    1.26    0.19
  -5   6   9    0.99    0.23
  -4  -6   9    0.52    0.15
  -4  -6   9    0.53    0.25
   4  -6  -9    0.52    0.15
  -4   6   9    0.08    0.15
   4   6  -9    0.47    0.13
  -3  -6   9    0.99    0.31
   3  -6  -9    1.78    0.23
  -3  -6   9    1.77    0.22
  -3   6   9    1.41    0.33
   3   6  -9    1.91    0.21
  -3   6   9    1.34    0.22
  -2  -6   9   10.85    0.43
   2  -6  -9   11.17    0.48
  -2  -6   9   10.17    0.77
  -2   6   9    9.52    0.75
   2   6  -9   10.53    0.43
   1  -6  -9   12.15    0.52
  -1  -6   9   10.96    0.83
  -1   6   9   11.34    0.83
   1   6  -9   10.94    0.45
   0  -6   9    6.95    0.79
   0   6   9    6.11    0.72
   1  -6   9    5.00    0.67
   1   6   9    3.58    0.61
   7   7  -9    0.21    0.14
   6  -7  -9   -0.01    0.11
  -6  -7   9    0.19    0.14
  -6   7   9    0.14    0.17
   6   7  -9    0.27    0.14
   5  -7  -9    1.50    0.22
  -5  -7   9    1.43    0.22
  -5  -7   9    1.72    0.36
  -5   7   9    1.06    0.23
   5   7  -9    1.76    0.22
   5   7  -9    1.51    0.28
  -4  -7   9    0.20    0.12
  -4  -7   9    0.03    0.21
   4  -7  -9    0.17    0.12
  -4   7   9    0.06    0.21
   4   7  -9    0.37    0.12
  -4   7   9    0.25    0.16
  -3  -7   9    1.53    0.20
  -3  -7   9    1.24    0.35
   3  -7  -9    1.69    0.23
  -3   7   9    1.70    0.24
   3   7  -9    1.52    0.20
  -3   7   9    1.34    0.37
  -2  -7   9    0.86    0.16
  -2  -7   9    1.01    0.35
   2  -7  -9    0.80    0.17
  -2   7   9    0.76    0.32
   2   7  -9    0.79    0.15
  -1  -7   9    3.00    0.52
   1  -7  -9    2.28    0.26
  -1   7   9    4.15    0.63
   1   7  -9    3.36    0.25
   0  -7   9   14.98    1.00
   0   7   9   14.04    0.97
   1  -7   9    3.53    0.59
   1   7   9    4.37    0.66
   7   8  -9    2.44    0.29
  -6  -8   9    1.37    0.34
  -6  -8   9    1.14    0.22
   6  -8  -9    1.05    0.20
  -6   8   9    1.46    0.28
   6   8  -9    1.02    0.19
  -5  -8   9    0.73    0.28
   5  -8  -9    0.29    0.13
  -5  -8   9    0.34    0.14
  -5   8   9    0.31    0.17
   5   8  -9    0.43    0.14
   5   8  -9    0.54    0.22
  -4  -8   9    0.02    0.09
  -4  -8   9   -0.02    0.20
   4  -8  -9    0.05    0.10
  -4   8   9   -0.20    0.13
  -4   8   9   -0.10    0.19
   4   8  -9    0.03    0.10
  -3  -8   9    0.40    0.26
   3  -8  -9    0.14    0.11
  -3  -8   9    0.03    0.10
   3   8  -9    0.27    0.11
  -3   8   9    0.07    0.22
  -3   8   9    0.30    0.17
  -2  -8   9    7.69    0.77
  -2  -8   9    6.91    0.36
   2  -8  -9    7.54    0.40
  -2   8   9    7.00    0.75
   1  -8  -9    0.43    0.15
  -1  -8   9    0.22    0.29
  -1   8   9    0.35    0.26
   0  -8   9    3.66    0.60
   0   8   9    3.84    0.61
   1  -8   9    0.30    0.27
   1   8   9    0.10    0.26
   7   9  -9    1.65    0.25
   6  -9  -9    1.06    0.21
  -6  -9   9    0.79    0.20
  -6   9   9    0.74    0.25
  -5  -9   9    0.39    0.14
  -5  -9   9    0.59    0.31
   5  -9  -9    0.49    0.16
   5   9  -9    0.40    0.22
  -5   9   9    0.62    0.21
   4  -9  -9    0.70    0.17
  -4  -9   9    0.39    0.26
  -4  -9   9    0.98    0.18
  -4   9   9    0.74    0.21
  -4   9   9    0.47    0.27
   4   9  -9    1.08    0.28
  -3  -9   9    6.06    0.66
   3  -9  -9    5.62    0.34
  -3  -9   9    6.69    0.36
  -3   9   9    6.59    0.69
  -3   9   9    4.92    0.38
   2  -9  -9    8.70    0.44
  -2  -9   9    8.95    0.41
  -2  -9   9    8.10    0.79
  -2   9   9    9.49    0.87
  -1  -9   9    5.83    0.68
   1  -9  -9    4.90    0.35
  -1   9   9    5.77    0.71
   0  -9   9    0.43    0.31
   0   9   9    0.59    0.33
   1  -9   9    3.23    0.56
   1   9   9    3.93    0.63
   6 -10  -9    0.06    0.20
   6  10  -9   -0.37    0.16
  -5 -10   9    0.24    0.14
   5 -10  -9    0.20    0.13
   5  10  -9    0.21    0.21
  -5  10   9   -0.10    0.17
  -4 -10   9    1.89    0.25
   4 -10  -9    2.41    0.27
   4  10  -9    1.76    0.33
  -4  10   9    1.63    0.39
  -4  10   9    1.96    0.30
  -3 -10   9    7.01    0.38
   3 -10  -9    6.98    0.40
  -3  10   9    7.21    0.74
   3  10  -9    6.74    0.53
  -3  10   9    6.20    0.43
  -2 -10   9    8.38    0.41
  -2 -10   9    9.12    0.84
   2 -10  -9    8.99    0.45
  -2  10   9    7.94    0.79
  -1 -10   9   10.64    0.83
  -1  10   9   12.56    0.90
  -1  10   9   11.09    0.77
   0 -10   9    2.13    0.49
   0  10   9    1.55    0.43
   0  10   9    2.40    0.49
   1 -10   9    1.49    0.42
   1  10   9    0.66    0.39
   6  11  -9    0.82    0.28
   5 -11  -9    0.15    0.12
   5  11  -9    0.19    0.20
  -5  11   9   -0.02    0.17
  -4 -11   9    0.14    0.13
   4 -11  -9    0.39    0.14
  -4  11   9   -0.12    0.21
  -4  11   9   -0.02    0.16
   4  11  -9    0.00    0.17
  -3 -11   9    0.26    0.12
   3 -11  -9    0.16    0.12
   3  11  -9   -0.12    0.19
  -3  11   9    0.47    0.28
  -3  11   9    0.21    0.17
   2 -11  -9    2.38    0.29
  -2 -11   9    1.87    0.23
  -2  11   9    2.05    0.45
  -1  11   9    0.19    0.30
  -1  11   9    0.33    0.31
   0  11   9    1.13    0.41
   0  11   9    2.05    0.49
   1 -11   9   10.31    1.31
   5  12  -9    8.95    0.65
   4 -12  -9    8.25    0.44
  -4 -12   9    8.13    0.45
   4  12  -9    9.00    0.63
  -4  12   9    9.30    0.56
  -4  12   9    8.00    0.75
  -3 -12   9    0.59    0.17
   3 -12  -9    0.72    0.18
  -3  12   9    0.47    0.31
  -3  12   9    0.61    0.21
   3  12  -9    0.48    0.29
  -2 -12   9    9.76    0.46
   2 -12  -9    9.14    0.48
  -2  12   9   10.24    0.80
  -1  12   9   -0.10    0.26
   0  12   9    0.64    0.38
   0  12   9    0.61    0.34
  -4  13   9    0.63    0.33
  -4  13   9    1.05    0.29
  -3 -13   9    6.09    0.39
  -3  13   9    6.43    0.68
  -3  13   9    7.46    0.76
  -2 -13   9    0.11    0.12
  -2  13   9    0.23    0.31
   6   0 -10    8.21    0.44
  -6   0  10    9.77    0.52
  -5   0  10   12.87    0.84
  -5   0  10   12.70    0.57
   5   0 -10   13.21    0.55
  -4   0  10    0.46    0.26
   4   0 -10    0.64    0.16
  -4   0  10    0.69    0.18
  -3   0  10    1.65    0.44
   3   0 -10    1.20    0.20
   2   0 -10   10.47    0.47
  -2   0  10    8.98    0.90
  -1   0  10    5.79    0.75
   1   0 -10    5.97    0.37
   0   0  10    5.70    1.05
   6  -1 -10    2.54    0.28
  -6  -1  10    3.64    0.37
   6   1 -10    3.06    0.31
  -6   1  10    2.59    0.32
  -5  -1  10    2.37    0.29
  -5  -1  10    2.51    0.45
   5  -1 -10    2.59    0.28
   5   1 -10    2.16    0.26
  -5   1  10    1.99    0.28
  -5   1  10    2.55    0.47
  -4  -1  10    7.50    0.42
  -4  -1  10    7.91    0.77
   4  -1 -10    7.80    0.41
  -4   1  10    7.78    0.77
  -4   1  10    7.33    0.42
   4   1 -10    8.35    0.41
   3  -1 -10    1.91    0.24
  -3  -1  10    2.67    0.49
  -3  -1  10    1.80    0.31
   3   1 -10    2.13    0.25
  -3   1  10    1.42    0.38
   2  -1 -10    0.25    0.13
  -2  -1  10    0.16    0.25
  -2   1  10    0.05    0.27
   2   1 -10    0.33    0.14
  -1  -1  10    2.54    0.54
   1  -1 -10    2.50    0.28
  -1   1  10    4.10    0.67
   1   1 -10    2.52    0.28
   0  -1  10    0.63    0.45
  -6  -2  10    7.18    0.45
   6  -2 -10    8.10    0.50
   6   2 -10    8.34    0.44
  -6   2  10    6.55    0.45
   5  -2 -10    2.48    0.29
  -5  -2  10    2.18    0.43
  -5  -2  10    2.61    0.29
  -5   2  10    3.62    0.53
   5   2 -10    2.75    0.29
  -5   2  10    2.70    0.32
   4  -2 -10   17.73    0.64
  -4  -2  10   17.62    1.00
  -4  -2  10   17.50    0.64
  -4   2  10   16.92    0.99
   4   2 -10   16.47    0.61
  -4   2  10   16.83    0.64
   3  -2 -10    3.34    0.32
  -3  -2  10    3.91    0.34
  -3  -2  10    4.17    0.59
  -3   2  10    3.37    0.55
   3   2 -10    3.69    0.29
   2  -2 -10    2.21    0.26
  -2  -2  10    2.85    0.52
  -2   2  10    1.60    0.44
   2   2 -10    2.35    0.26
   1  -2 -10    0.42    0.15
  -1  -2  10    0.34    0.28
  -1   2  10    0.49    0.35
   1   2 -10    0.25    0.14
   0  -2  10   15.76    1.68
  -6  -3  10    0.27    0.16
  -6   3  10    0.17    0.15
   6   3 -10    0.11    0.13
   5  -3 -10    3.38    0.32
  -5  -3  10    3.88    0.55
  -5  -3  10    3.38    0.34
  -5   3  10    3.56    0.36
   5   3 -10    3.63    0.33
  -4  -3  10    7.50    0.40
  -4  -3  10    8.52    0.80
   4  -3 -10    7.01    0.40
   4   3 -10    7.23    0.39
  -4   3  10    7.76    0.44
  -4   3  10    6.30    0.69
  -3  -3  10    4.59    0.33
  -3  -3  10    5.39    0.68
   3  -3 -10    4.70    0.33
   3   3 -10    4.50    0.31
  -3   3  10    4.94    0.67
  -2  -3  10    0.29    0.28
   2  -3 -10    0.22    0.12
  -2   3  10    0.44    0.31
   2   3 -10    0.12    0.12
  -1  -3  10    1.53    0.45
   1  -3 -10    2.14    0.27
  -1   3  10    2.23    0.52
   1   3 -10    1.75    0.23
   0  -3  10    0.67    0.46
  -6  -4  10   13.96    0.61
   6   4 -10   12.79    0.55
  -6   4  10   13.34    0.63
  -5  -4  10    0.43    0.28
   5  -4 -10    0.61    0.17
  -5  -4  10    0.62    0.18
  -5   4  10    0.44    0.18
   5   4 -10    0.35    0.14
  -4  -4  10    1.47    0.23
  -4  -4  10    1.71    0.41
   4  -4 -10    1.51    0.23
  -4   4  10    1.42    0.38
  -4   4  10    1.76    0.25
   4   4 -10    1.54    0.21
   3  -4 -10    0.02    0.10
  -3  -4  10    0.44    0.27
  -3  -4  10    0.06    0.12
   3   4 -10    0.15    0.10
  -3   4  10    0.17    0.26
   2  -4 -10    0.19    0.12
  -2  -4  10    0.09    0.26
   2   4 -10    0.10    0.11
  -2   4  10    0.02    0.27
  -1  -4  10   12.41    0.95
   1  -4 -10   12.26    0.55
  -1   4  10   12.19    0.96
   1   4 -10   12.47    0.52
  -6  -5  10    0.16    0.26
  -6  -5  10    0.03    0.17
   6   5 -10    0.37    0.16
  -6   5  10    0.21    0.20
  -5  -5  10    4.46    0.59
   5  -5 -10    5.15    0.36
  -5  -5  10    4.47    0.35
   5   5 -10    4.94    0.34
  -5   5  10    5.25    0.41
   4  -5 -10   10.32    0.49
  -4  -5  10   10.75    0.50
  -4  -5  10   13.11    0.87
   4   5 -10   11.42    0.48
  -4   5  10   12.74    0.86
  -4   5  10    9.82    0.52
  -3  -5  10   18.85    1.09
  -3  -5  10   19.35    0.66
   3  -5 -10   18.24    0.68
   3   5 -10   20.19    0.66
  -3   5  10   18.95    1.07
   2  -5 -10    0.09    0.12
  -2  -5  10    0.11    0.28
  -2   5  10   -0.06    0.23
   2   5 -10    0.08    0.11
   1  -5 -10    1.85    0.30
  -1  -5  10    1.23    0.44
   1   5 -10    2.33    0.26
  -1   5  10    1.87    0.52
  -6  -6  10    3.02    0.48
   6   6 -10    3.26    0.31
  -5  -6  10   22.10    1.11
  -5  -6  10   20.74    0.75
   5   6 -10   21.57    0.71
  -5   6  10   20.39    0.80
  -4  -6  10    1.09    0.35
  -4  -6  10    0.49    0.16
   4  -6 -10    0.48    0.15
  -4   6  10    0.43    0.19
  -4   6  10    0.38    0.28
   4   6 -10    0.22    0.13
   3  -6 -10    5.16    0.36
  -3  -6  10    5.32    0.66
  -3  -6  10    5.27    0.34
  -3   6  10    5.22    0.65
   3   6 -10    4.71    0.31
  -2  -6  10   26.63    1.34
   2  -6 -10   28.01    0.89
   2   6 -10   26.85    0.81
  -2   6  10   25.97    1.33
  -1  -6  10   12.12    1.08
  -1   6  10   13.29    1.23
  -6  -7  10    1.39    0.37
   6   7 -10    0.99    0.19
  -5  -7  10    4.01    0.37
  -5  -7  10    3.75    0.54
   5   7 -10    4.03    0.31
  -5   7  10    3.24    0.36
   4  -7 -10    0.77    0.28
  -4  -7  10    0.70    0.17
  -4  -7  10    0.92    0.35
  -4   7  10    0.97    0.23
  -4   7  10    0.65    0.33
   4   7 -10    0.98    0.17
   3  -7 -10    2.10    0.30
  -3  -7  10    2.64    0.51
  -3  -7  10    2.28    0.26
  -3   7  10    2.05    0.49
   3   7 -10    2.39    0.37
  -2  -7  10   16.30    1.06
  -2   7  10   14.69    1.03
  -1  -7  10   24.90    1.33
  -5  -8  10    0.08    0.26
  -5  -8  10    0.07    0.15
  -5   8  10   -0.03    0.17
  -4  -8  10    4.31    0.33
  -4  -8  10    4.20    0.61
  -4   8  10    4.13    0.40
  -3  -8  10    3.36    0.32
  -3  -8  10    3.38    0.57
  -3   8  10    2.67    0.57
  -2  -8  10   23.30    1.26
  -2   8  10   25.78    1.92
  -1  -8  10    1.45    0.43
  -4  -9  10    1.88    0.25
  -4   9  10    2.26    0.31
  -3  -9  10    1.04    0.21
  -3  -9  10    0.38    0.32
  -2  -9  10   11.18    1.01
  -1  -9  10    2.24    0.49
  -4  10  10    1.00    0.24
  -3 -10  10    0.87    0.27
  -5   0  11   -0.02    0.13
  -5  -1  11    0.13    0.15
  -5   1  11   -0.08    0.14
  -5  -2  11    6.71    0.55
  -5   2  11    7.37    0.48
  -5   3  11    7.06    0.57
   3   5 -11    4.32    0.51
   0   0   0    0.00    0.00
;
_shelx_hkl_checksum              61261
loop_
_space_group_symop_operation_xyz
'x, y, z'
'-x, y+1/2, -z+1/2'
'-x, -y, -z'
'x, -y-1/2, z-1/2'
loop_
_atom_site_label
_atom_site_type_symbol
_atom_site_fract_x
_atom_site_fract_y
_atom_site_fract_z
_atom_site_U_iso_or_equiv
_atom_site_adp_type
_atom_site_occupancy
_atom_site_site_symmetry_order
_atom_site_calc_flag
_atom_site_refinement_flags_posn
_atom_site_refinement_flags_adp
_atom_site_refinement_flags_occupancy
_atom_site_disorder_assembly
_atom_site_disorder_group
O2 O 0.10883(10) 0.37430(5) 0.59366(9) 0.01449(17) Uani 1 1 d . . . . .
O3 O -0.01513(12) 0.42092(5) 0.31630(10) 0.02186(19) Uani 1 1 d . . . . .
O4 O 0.28577(11) 0.46929(5) 1.00893(10) 0.01583(17) Uani 1 1 d . . . . .
C2 C 0.36682(15) 0.46424(6) 0.68429(14) 0.0152(2) Uani 1 1 d . . . . .
H2A H 0.373619 0.514719 0.753979 0.018 Uiso 1 1 calc R U . . .
H2B H 0.496704 0.447712 0.692416 0.018 Uiso 1 1 calc R U . . .
C1 C 0.26578(14) 0.39529(6) 0.74944(13) 0.01152(19) Uani 1 1 d . . . . .
O1 O 0.24971(11) 0.47616(5) 0.50287(10) 0.01714(18) Uani 1 1 d . . . . .
C3 C 0.10472(15) 0.42348(6) 0.45811(14) 0.0152(2) Uani 1 1 d . . . . .
C4 C 0.18851(14) 0.42455(6) 0.89546(13) 0.0118(2) Uani 1 1 d . . . . .
C5 C 0.00088(15) 0.39204(7) 0.89270(14) 0.0166(2) Uani 1 1 d . . . . .
H5A H -0.100688 0.422137 0.805247 0.025 Uiso 1 1 calc R U . . .
H5B H -0.011621 0.398704 1.009607 0.025 Uiso 1 1 calc R U . . .
H5C H -0.008054 0.333965 0.861457 0.025 Uiso 1 1 calc R U . . .
C6 C 0.38707(14) 0.32057(6) 0.81995(13) 0.01123(19) Uani 1 1 d . . . . .
C7 C 0.56446(14) 0.33099(6) 0.94785(14) 0.0136(2) Uani 1 1 d . . . . .
H7 H 0.608756 0.384324 0.987063 0.016 Uiso 1 1 calc R U . . .
C8 C 0.67657(15) 0.26345(7) 1.01807(15) 0.0161(2) Uani 1 1 d . . . . .
H8 H 0.797083 0.270607 1.105777 0.019 Uiso 1 1 calc R U . . .
C9 C 0.61225(16) 0.18531(6) 0.95986(15) 0.0167(2) Uani 1 1 d . . . . .
H9 H 0.689650 0.139167 1.006402 0.020 Uiso 1 1 calc R U . . .
C10 C 0.43494(16) 0.17490(6) 0.83378(14) 0.0164(2) Uani 1 1 d . . . . .
H10 H 0.390943 0.121516 0.794708 0.020 Uiso 1 1 calc R U . . .
C006 C 0.32105(15) 0.24230(6) 0.76414(14) 0.0139(2) Uani 1 1 d . . . . .
H006 H 0.199001 0.234921 0.679045 0.017 Uiso 1 1 calc R U . . .
loop_
_atom_site_aniso_label
_atom_site_aniso_U_11
_atom_site_aniso_U_22
_atom_site_aniso_U_33
_atom_site_aniso_U_23
_atom_site_aniso_U_13
_atom_site_aniso_U_12
O2 0.0127(3) 0.0181(4) 0.0103(4) 0.0016(3) 0.0005(3) -0.0008(3)
O3 0.0212(4) 0.0307(5) 0.0116(4) 0.0023(3) 0.0026(3) 0.0068(3)
O4 0.0163(4) 0.0148(4) 0.0147(4) -0.0020(3) 0.0029(3) 0.0007(3)
C2 0.0160(5) 0.0149(5) 0.0143(5) 0.0038(4) 0.0049(4) -0.0003(4)
C1 0.0108(4) 0.0122(4) 0.0104(4) 0.0005(3) 0.0019(4) -0.0007(3)
O1 0.0237(4) 0.0152(4) 0.0125(4) 0.0030(3) 0.0060(3) 0.0006(3)
C3 0.0170(5) 0.0173(5) 0.0123(5) 0.0010(4) 0.0063(4) 0.0063(4)
C4 0.0126(4) 0.0105(4) 0.0116(4) 0.0029(3) 0.0030(4) 0.0033(3)
C5 0.0146(5) 0.0200(5) 0.0166(5) -0.0006(4) 0.0072(4) -0.0014(4)
C6 0.0123(4) 0.0115(4) 0.0108(4) 0.0005(3) 0.0050(4) 0.0005(3)
C7 0.0131(5) 0.0124(4) 0.0145(5) -0.0001(4) 0.0035(4) -0.0008(3)
C8 0.0131(5) 0.0177(5) 0.0163(5) 0.0021(4) 0.0032(4) 0.0020(4)
C9 0.0197(5) 0.0138(5) 0.0181(5) 0.0031(4) 0.0084(4) 0.0048(4)
C10 0.0214(5) 0.0112(4) 0.0186(5) -0.0017(4) 0.0094(4) -0.0009(4)
C006 0.0146(5) 0.0139(5) 0.0136(5) -0.0018(3) 0.0050(4) -0.0019(3)
loop_
_atom_type_symbol
_atom_type_description
_atom_type_scat_dispersion_real
_atom_type_scat_dispersion_imag
_atom_type_scat_source
C C 0.0033 0.0016 'International Tables Vol C Tables 4.2.6.8 and 6.1.1.4'
H H 0.0000 0.0000 'International Tables Vol C Tables 4.2.6.8 and 6.1.1.4'
O O 0.0106 0.0060 'International Tables Vol C Tables 4.2.6.8 and 6.1.1.4'
loop_
_geom_angle_atom_site_label_1
_geom_angle_atom_site_label_2
_geom_angle_atom_site_label_3
_geom_angle
_geom_angle_site_symmetry_1
_geom_angle_site_symmetry_3
_geom_angle_publ_flag
C3 O2 C1 110.62(8) . . ?
O1 C2 C1 103.84(8) . . ?
O1 C2 H2A 111.0 . . ?
C1 C2 H2A 111.0 . . ?
O1 C2 H2B 111.0 . . ?
C1 C2 H2B 111.0 . . ?
H2A C2 H2B 109.0 . . ?
O2 C1 C6 110.22(8) . . ?
O2 C1 C4 109.24(8) . . ?
C6 C1 C4 107.14(8) . . ?
O2 C1 C2 103.26(8) . . ?
C6 C1 C2 114.63(8) . . ?
C4 C1 C2 112.27(8) . . ?
C3 O1 C2 110.56(8) . . ?
O3 C3 O1 124.37(10) . . ?
O3 C3 O2 123.98(10) . . ?
O1 C3 O2 111.64(9) . . ?
O4 C4 C5 123.76(9) . . ?
O4 C4 C1 118.52(9) . . ?
C5 C4 C1 117.65(9) . . ?
C4 C5 H5A 109.5 . . ?
C4 C5 H5B 109.5 . . ?
H5A C5 H5B 109.5 . . ?
C4 C5 H5C 109.5 . . ?
H5A C5 H5C 109.5 . . ?
H5B C5 H5C 109.5 . . ?
C006 C6 C7 119.96(9) . . ?
C006 C6 C1 121.14(9) . . ?
C7 C6 C1 118.85(9) . . ?
C8 C7 C6 120.09(9) . . ?
C8 C7 H7 120.0 . . ?
C6 C7 H7 120.0 . . ?
C9 C8 C7 119.98(10) . . ?
C9 C8 H8 120.0 . . ?
C7 C8 H8 120.0 . . ?
C10 C9 C8 119.91(10) . . ?
C10 C9 H9 120.0 . . ?
C8 C9 H9 120.0 . . ?
C9 C10 C006 120.38(10) . . ?
C9 C10 H10 119.8 . . ?
C006 C10 H10 119.8 . . ?
C6 C006 C10 119.65(10) . . ?
C6 C006 H006 120.2 . . ?
C10 C006 H006 120.2 . . ?
loop_
_geom_bond_atom_site_label_1
_geom_bond_atom_site_label_2
_geom_bond_distance
_geom_bond_site_symmetry_2
_geom_bond_publ_flag
O2 C3 1.3463(12) . ?
O2 C1 1.4456(12) . ?
O3 C3 1.1946(14) . ?
O4 C4 1.2074(13) . ?
C2 O1 1.4435(13) . ?
C2 C1 1.5433(14) . ?
C2 H2A 0.9900 . ?
C2 H2B 0.9900 . ?
C1 C6 1.5167(13) . ?
C1 C4 1.5455(13) . ?
O1 C3 1.3386(13) . ?
C4 C5 1.4948(14) . ?
C5 H5A 0.9800 . ?
C5 H5B 0.9800 . ?
C5 H5C 0.9800 . ?
C6 C006 1.3930(14) . ?
C6 C7 1.3941(14) . ?
C7 C8 1.3897(14) . ?
C7 H7 0.9500 . ?
C8 C9 1.3922(15) . ?
C8 H8 0.9500 . ?
C9 C10 1.3875(16) . ?
C9 H9 0.9500 . ?
C10 C006 1.3933(14) . ?
C10 H10 0.9500 . ?
C006 H006 0.9500 . ?
loop_
_geom_torsion_atom_site_label_1
_geom_torsion_atom_site_label_2
_geom_torsion_atom_site_label_3
_geom_torsion_atom_site_label_4
_geom_torsion
_geom_torsion_site_symmetry_1
_geom_torsion_site_symmetry_2
_geom_torsion_site_symmetry_3
_geom_torsion_site_symmetry_4
_geom_torsion_publ_flag
C3 O2 C1 C6 -125.76(8) . . . . ?
C3 O2 C1 C4 116.78(9) . . . . ?
C3 O2 C1 C2 -2.87(10) . . . . ?
O1 C2 C1 O2 2.61(10) . . . . ?
O1 C2 C1 C6 122.52(9) . . . . ?
O1 C2 C1 C4 -114.93(9) . . . . ?
C1 C2 O1 C3 -1.61(11) . . . . ?
C2 O1 C3 O3 178.94(10) . . . . ?
C2 O1 C3 O2 -0.16(11) . . . . ?
C1 O2 C3 O3 -177.07(10) . . . . ?
C1 O2 C3 O1 2.04(11) . . . . ?
O2 C1 C4 O4 -155.38(9) . . . . ?
C6 C1 C4 O4 85.23(11) . . . . ?
C2 C1 C4 O4 -41.46(12) . . . . ?
O2 C1 C4 C5 27.72(12) . . . . ?
C6 C1 C4 C5 -91.67(10) . . . . ?
C2 C1 C4 C5 141.64(9) . . . . ?
O2 C1 C6 C006 -14.96(12) . . . . ?
C4 C1 C6 C006 103.79(10) . . . . ?
C2 C1 C6 C006 -130.92(10) . . . . ?
O2 C1 C6 C7 167.55(8) . . . . ?
C4 C1 C6 C7 -73.69(11) . . . . ?
C2 C1 C6 C7 51.59(12) . . . . ?
C006 C6 C7 C8 0.85(15) . . . . ?
C1 C6 C7 C8 178.36(9) . . . . ?
C6 C7 C8 C9 0.41(15) . . . . ?
C7 C8 C9 C10 -1.02(16) . . . . ?
C8 C9 C10 C006 0.37(16) . . . . ?
C7 C6 C006 C10 -1.49(15) . . . . ?
C1 C6 C006 C10 -178.94(9) . . . . ?
C9 C10 C006 C6 0.88(15) . . . . ?
